MODEL 1
REMARK VINA RESULT:     -12.6      0.000      0.000
REMARK SMILES O=C(NCCCCNC(=O)c1ccc(-c2ccn(C(F)F)c(=O)c2)cc1O)c1ccc(-c2c3nc(c(-c4cccc(S(=O)(=O)[O-])c4F)c4ccc([nH]4)c(-c4cccc(S(=O)(=O)[O-])c4F)c4nc(c(-c5cccc(S(=O)(=O)[O-])c5F)c5ccc2[nH]5)C=C4)C=C3)cc1
REMARK SMILES IDX 5 1 4 2 3 3 1 4 2 5 28 7 29 8 90 9 30 10 89 11 31 12 32 13
REMARK SMILES IDX 33 14 83 15 34 16 88 17 82 18 84 19 35 20 87 21 81 22 80 23
REMARK SMILES IDX 36 25 68 26 48 27 67 28 49 29 52 30 66 31 85 32 50 33 51 34
REMARK SMILES IDX 65 36 86 37 53 38 37 39 38 40 46 41 39 42 41 43 47 44 40 45
REMARK SMILES IDX 42 46 43 47 44 48 45 49 69 50 70 51 78 52 71 53 73 54 79 55
REMARK SMILES IDX 72 56 74 57 75 58 76 59 77 60 54 61 55 62 63 63 56 64 58 65
REMARK SMILES IDX 64 66 57 67 59 68 60 69 61 70 62 71 6 72 7 73 8 74 9 75
REMARK SMILES IDX 10 77 11 78 12 79 26 80 13 81 25 82 14 83 27 84 15 86 16 87
REMARK SMILES IDX 24 88 17 89 22 90 18 91 23 92 19 93 20 94 21 95
REMARK H PARENT 3 6 84 24 52 35 8 76 27 85
REMARK Flexibility Score: inf
ROOT
ATOM      1  C   UNL A   1      32.899  27.752  25.412  1.00  0.00     0.023 C 
ENDROOT
BRANCH   1   2
ATOM      2  C   UNL A   1      33.431  29.099  24.933  1.00  0.00     0.116 C 
BRANCH   2   3
ATOM      3  N   UNL A   1      32.708  30.220  25.513  1.00  0.00    -0.352 N 
ATOM      4  O   UNL A   1      32.108  31.713  27.083  1.00  0.00    -0.269 OA
ATOM      5  C   UNL A   1      32.939  30.899  26.684  1.00  0.00     0.251 C 
ATOM      6  H   UNL A   1      31.941  30.540  24.988  1.00  0.00     0.163 HD
BRANCH   5   7
ATOM      7  C   UNL A   1      34.169  30.654  27.470  1.00  0.00     0.039 A 
ATOM      8  C   UNL A   1      35.090  31.697  27.624  1.00  0.00     0.014 A 
ATOM      9  C   UNL A   1      34.446  29.395  28.009  1.00  0.00     0.014 A 
ATOM     10  C   UNL A   1      36.267  31.489  28.350  1.00  0.00     0.010 A 
ATOM     11  C   UNL A   1      35.592  29.204  28.779  1.00  0.00     0.010 A 
ATOM     12  C   UNL A   1      36.520  30.244  28.947  1.00  0.00    -0.014 A 
BRANCH  12  13
ATOM     13  C   UNL A   1      37.767  29.984  29.711  1.00  0.00     0.031 A 
ATOM     14  C   UNL A   1      38.827  29.088  29.123  1.00  0.00     0.074 A 
ATOM     15  C   UNL A   1      37.924  30.494  30.949  1.00  0.00     0.049 A 
ATOM     16  N   UNL A   1      39.916  28.626  29.681  1.00  0.00    -0.248 NA
ATOM     17  C   UNL A   1      38.630  28.641  27.733  1.00  0.00     0.031 C 
ATOM     18  C   UNL A   1      36.970  31.366  31.636  1.00  0.00     0.029 A 
ATOM     19  N   UNL A   1      38.942  30.337  31.857  1.00  0.00    -0.354 N 
ATOM     20  C   UNL A   1      40.511  27.808  28.728  1.00  0.00     0.074 A 
ATOM     21  C   UNL A   1      39.662  27.826  27.559  1.00  0.00     0.031 C 
ATOM     22  C   UNL A   1      37.453  31.677  32.851  1.00  0.00     0.029 A 
ATOM     23  C   UNL A   1      38.730  30.998  33.045  1.00  0.00     0.049 A 
ATOM     24  H   UNL A   1      39.748  29.801  31.675  1.00  0.00     0.167 HD
ATOM     25  C   UNL A   1      41.676  27.124  28.812  1.00  0.00     0.034 A 
ATOM     26  C   UNL A   1      39.478  31.045  34.166  1.00  0.00     0.034 A 
ATOM     27  C   UNL A   1      42.553  27.155  29.949  1.00  0.00     0.049 A 
ATOM     28  C   UNL A   1      40.774  30.284  34.222  1.00  0.00     0.074 A 
ATOM     29  C   UNL A   1      43.767  26.511  30.110  1.00  0.00     0.029 A 
ATOM     30  N   UNL A   1      42.325  27.881  31.105  1.00  0.00    -0.354 N 
ATOM     31  N   UNL A   1      41.338  29.551  33.294  1.00  0.00    -0.248 NA
ATOM     32  C   UNL A   1      41.549  30.374  35.470  1.00  0.00     0.031 C 
ATOM     33  C   UNL A   1      44.282  26.858  31.361  1.00  0.00     0.029 A 
ATOM     34  C   UNL A   1      43.389  27.721  31.973  1.00  0.00     0.049 A 
ATOM     35  H   UNL A   1      41.527  28.429  31.281  1.00  0.00     0.167 HD
ATOM     36  C   UNL A   1      42.553  29.132  33.826  1.00  0.00     0.074 A 
ATOM     37  C   UNL A   1      42.644  29.691  35.159  1.00  0.00     0.031 C 
ATOM     38  C   UNL A   1      43.501  28.348  33.263  1.00  0.00     0.034 A 
BRANCH  25  39
ATOM     39  C   UNL A   1      42.128  26.332  27.619  1.00  0.00     0.023 A 
ATOM     40  C   UNL A   1      43.030  26.923  26.712  1.00  0.00     0.012 A 
ATOM     41  C   UNL A   1      41.784  24.974  27.476  1.00  0.00     0.148 A 
ATOM     42  C   UNL A   1      43.590  26.171  25.681  1.00  0.00     0.002 A 
ATOM     43  C   UNL A   1      42.369  24.223  26.464  1.00  0.00     0.091 A 
ATOM     44  F   UNL A   1      40.920  24.440  28.352  1.00  0.00    -0.205 F 
ATOM     45  C   UNL A   1      43.270  24.819  25.566  1.00  0.00     0.022 A 
BRANCH  43  46
ATOM     46  S   UNL A   1      42.075  22.462  26.261  1.00  0.00     0.127 S 
ATOM     47  O   UNL A   1      40.615  22.415  26.171  1.00  0.00    -0.237 OA
ATOM     48  O   UNL A   1      42.773  22.179  25.009  1.00  0.00    -0.237 OA
ATOM     49  O   UNL A   1      42.635  21.818  27.441  1.00  0.00    -0.744 OA
ENDBRANCH  43  46
ENDBRANCH  25  39
BRANCH  26  50
ATOM     50  C   UNL A   1      39.064  31.914  35.301  1.00  0.00     0.023 A 
ATOM     51  C   UNL A   1      39.343  33.294  35.235  1.00  0.00     0.012 A 
ATOM     52  C   UNL A   1      38.390  31.398  36.424  1.00  0.00     0.148 A 
ATOM     53  C   UNL A   1      38.974  34.144  36.278  1.00  0.00     0.002 A 
ATOM     54  C   UNL A   1      37.990  32.258  37.441  1.00  0.00     0.091 A 
ATOM     55  F   UNL A   1      38.147  30.082  36.469  1.00  0.00    -0.205 F 
ATOM     56  C   UNL A   1      38.291  33.627  37.376  1.00  0.00     0.022 A 
BRANCH  54  57
ATOM     57  S   UNL A   1      37.025  31.705  38.852  1.00  0.00     0.127 S 
ATOM     58  O   UNL A   1      36.764  30.310  38.507  1.00  0.00    -0.237 OA
ATOM     59  O   UNL A   1      37.966  31.901  39.956  1.00  0.00    -0.237 OA
ATOM     60  O   UNL A   1      35.858  32.575  38.895  1.00  0.00    -0.744 OA
ENDBRANCH  54  57
ENDBRANCH  26  50
BRANCH  38  61
ATOM     61  C   UNL A   1      44.760  28.086  34.039  1.00  0.00     0.023 A 
ATOM     62  C   UNL A   1      45.836  28.988  33.949  1.00  0.00     0.012 A 
ATOM     63  C   UNL A   1      44.819  27.015  34.952  1.00  0.00     0.148 A 
ATOM     64  C   UNL A   1      46.962  28.822  34.752  1.00  0.00     0.002 A 
ATOM     65  C   UNL A   1      45.931  26.874  35.774  1.00  0.00     0.091 A 
ATOM     66  F   UNL A   1      43.784  26.164  35.008  1.00  0.00    -0.205 F 
ATOM     67  C   UNL A   1      47.005  27.775  35.672  1.00  0.00     0.022 A 
BRANCH  65  68
ATOM     68  S   UNL A   1      46.040  25.606  37.041  1.00  0.00     0.127 S 
ATOM     69  O   UNL A   1      44.853  25.888  37.846  1.00  0.00    -0.237 OA
ATOM     70  O   UNL A   1      45.966  24.375  36.255  1.00  0.00    -0.237 OA
ATOM     71  O   UNL A   1      47.314  25.819  37.715  1.00  0.00    -0.744 OA
ENDBRANCH  65  68
ENDBRANCH  38  61
ENDBRANCH  12  13
ENDBRANCH   5   7
ENDBRANCH   2   3
ENDBRANCH   1   2
BRANCH   1  72
ATOM     72  C   UNL A   1      31.431  27.737  25.848  1.00  0.00     0.023 C 
BRANCH  72  73
ATOM     73  C   UNL A   1      30.490  26.929  24.959  1.00  0.00     0.116 C 
BRANCH  73  74
ATOM     74  N   UNL A   1      30.610  27.273  23.554  1.00  0.00    -0.352 N 
ATOM     75  C   UNL A   1      31.051  26.497  22.512  1.00  0.00     0.255 C 
ATOM     76  H   UNL A   1      30.338  28.189  23.316  1.00  0.00     0.163 HD
ATOM     77  O   UNL A   1      31.142  26.969  21.380  1.00  0.00    -0.269 OA
BRANCH  75  78
ATOM     78  C   UNL A   1      31.503  25.110  22.745  1.00  0.00     0.081 A 
ATOM     79  C   UNL A   1      30.624  24.262  23.430  1.00  0.00     0.018 A 
ATOM     80  C   UNL A   1      32.759  24.638  22.355  1.00  0.00     0.128 A 
ATOM     81  C   UNL A   1      30.978  22.934  23.675  1.00  0.00     0.010 A 
ATOM     82  C   UNL A   1      33.109  23.306  22.586  1.00  0.00     0.055 A 
ATOM     83  C   UNL A   1      32.216  22.442  23.240  1.00  0.00    -0.014 A 
BRANCH  80  84
ATOM     84  O   UNL A   1      33.653  25.471  21.741  1.00  0.00    -0.507 OA
ATOM     85  H   UNL A   1      33.588  25.632  20.820  1.00  0.00     0.293 HD
ENDBRANCH  80  84
BRANCH  83  86
ATOM     86  C   UNL A   1      32.602  21.036  23.477  1.00  0.00    -0.011 A 
ATOM     87  C   UNL A   1      33.473  20.640  24.567  1.00  0.00     0.027 A 
ATOM     88  C   UNL A   1      32.151  20.093  22.630  1.00  0.00     0.080 A 
ATOM     89  C   UNL A   1      33.834  19.361  24.722  1.00  0.00     0.095 A 
ATOM     90  C   UNL A   1      32.534  18.664  22.798  1.00  0.00     0.255 A 
ATOM     91  N   UNL A   1      33.380  18.384  23.857  1.00  0.00    -0.258 N 
ATOM     92  O   UNL A   1      32.088  17.839  22.003  1.00  0.00    -0.269 OA
BRANCH  91  93
ATOM     93  C   UNL A   1      33.780  17.012  24.030  1.00  0.00     0.451 C 
ATOM     94  F   UNL A   1      34.668  16.635  23.077  1.00  0.00    -0.185 F 
ATOM     95  F   UNL A   1      34.357  16.820  25.241  1.00  0.00    -0.185 F 
ENDBRANCH  91  93
ENDBRANCH  83  86
ENDBRANCH  75  78
ENDBRANCH  73  74
ENDBRANCH  72  73
ENDBRANCH   1  72
TORSDOF 17
ENDMDL
MODEL 2
REMARK VINA RESULT:     -12.3      5.830     10.833
REMARK SMILES O=C(NCCCCNC(=O)c1ccc(-c2ccn(C(F)F)c(=O)c2)cc1O)c1ccc(-c2c3nc(c(-c4cccc(S(=O)(=O)[O-])c4F)c4ccc([nH]4)c(-c4cccc(S(=O)(=O)[O-])c4F)c4nc(c(-c5cccc(S(=O)(=O)[O-])c5F)c5ccc2[nH]5)C=C4)C=C3)cc1
REMARK SMILES IDX 5 1 4 2 3 3 1 4 2 5 28 7 29 8 90 9 30 10 89 11 31 12 32 13
REMARK SMILES IDX 33 14 83 15 34 16 88 17 82 18 84 19 35 20 87 21 81 22 80 23
REMARK SMILES IDX 36 25 68 26 48 27 67 28 49 29 52 30 66 31 85 32 50 33 51 34
REMARK SMILES IDX 65 36 86 37 53 38 37 39 38 40 46 41 39 42 41 43 47 44 40 45
REMARK SMILES IDX 42 46 43 47 44 48 45 49 69 50 70 51 78 52 71 53 73 54 79 55
REMARK SMILES IDX 72 56 74 57 75 58 76 59 77 60 54 61 55 62 63 63 56 64 58 65
REMARK SMILES IDX 64 66 57 67 59 68 60 69 61 70 62 71 6 72 7 73 8 74 9 75
REMARK SMILES IDX 10 77 11 78 12 79 26 80 13 81 25 82 14 83 27 84 15 86 16 87
REMARK SMILES IDX 24 88 17 89 22 90 18 91 23 92 19 93 20 94 21 95
REMARK H PARENT 3 6 84 24 52 35 8 76 27 85
REMARK Flexibility Score: inf
ROOT
ATOM      1  C   UNL A   1      35.767  21.372  25.512  1.00  0.00     0.023 C 
ENDROOT
BRANCH   1   2
ATOM      2  C   UNL A   1      37.091  21.360  24.754  1.00  0.00     0.116 C 
BRANCH   2   3
ATOM      3  N   UNL A   1      37.946  20.251  25.146  1.00  0.00    -0.352 N 
ATOM      4  O   UNL A   1      39.842  19.206  25.753  1.00  0.00    -0.269 OA
ATOM      5  C   UNL A   1      39.226  20.265  25.642  1.00  0.00     0.251 C 
ATOM      6  H   UNL A   1      37.548  19.357  25.040  1.00  0.00     0.163 HD
BRANCH   5   7
ATOM      7  C   UNL A   1      39.870  21.538  26.036  1.00  0.00     0.039 A 
ATOM      8  C   UNL A   1      39.080  22.688  26.149  1.00  0.00     0.014 A 
ATOM      9  C   UNL A   1      41.250  21.618  26.243  1.00  0.00     0.014 A 
ATOM     10  C   UNL A   1      39.666  23.906  26.506  1.00  0.00     0.010 A 
ATOM     11  C   UNL A   1      41.824  22.820  26.652  1.00  0.00     0.010 A 
ATOM     12  C   UNL A   1      41.041  23.979  26.776  1.00  0.00    -0.014 A 
BRANCH  12  13
ATOM     13  C   UNL A   1      41.699  25.259  27.142  1.00  0.00     0.031 A 
ATOM     14  C   UNL A   1      40.958  26.261  27.989  1.00  0.00     0.074 A 
ATOM     15  C   UNL A   1      42.926  25.552  26.669  1.00  0.00     0.049 A 
ATOM     16  N   UNL A   1      41.296  27.485  28.302  1.00  0.00    -0.248 NA
ATOM     17  C   UNL A   1      39.661  25.837  28.547  1.00  0.00     0.031 C 
ATOM     18  C   UNL A   1      43.746  24.675  25.831  1.00  0.00     0.029 A 
ATOM     19  N   UNL A   1      43.694  26.681  26.813  1.00  0.00    -0.354 N 
ATOM     20  C   UNL A   1      40.243  27.988  29.056  1.00  0.00     0.074 A 
ATOM     21  C   UNL A   1      39.247  26.945  29.149  1.00  0.00     0.031 C 
ATOM     22  C   UNL A   1      44.905  25.293  25.546  1.00  0.00     0.029 A 
ATOM     23  C   UNL A   1      44.897  26.623  26.148  1.00  0.00     0.049 A 
ATOM     24  H   UNL A   1      43.410  27.461  27.343  1.00  0.00     0.167 HD
ATOM     25  C   UNL A   1      40.128  29.203  29.641  1.00  0.00     0.034 A 
ATOM     26  C   UNL A   1      45.878  27.539  26.031  1.00  0.00     0.034 A 
ATOM     27  C   UNL A   1      41.143  30.219  29.604  1.00  0.00     0.049 A 
ATOM     28  C   UNL A   1      45.726  28.876  26.704  1.00  0.00     0.074 A 
ATOM     29  C   UNL A   1      41.120  31.472  30.191  1.00  0.00     0.029 A 
ATOM     30  N   UNL A   1      42.365  30.093  28.967  1.00  0.00    -0.354 N 
ATOM     31  N   UNL A   1      44.739  29.314  27.447  1.00  0.00    -0.248 NA
ATOM     32  C   UNL A   1      46.830  29.835  26.544  1.00  0.00     0.031 C 
ATOM     33  C   UNL A   1      42.337  32.101  29.919  1.00  0.00     0.029 A 
ATOM     34  C   UNL A   1      43.115  31.236  29.168  1.00  0.00     0.049 A 
ATOM     35  H   UNL A   1      42.656  29.308  28.450  1.00  0.00     0.167 HD
ATOM     36  C   UNL A   1      45.124  30.578  27.881  1.00  0.00     0.074 A 
ATOM     37  C   UNL A   1      46.432  30.837  27.317  1.00  0.00     0.031 C 
ATOM     38  C   UNL A   1      44.447  31.447  28.668  1.00  0.00     0.034 A 
BRANCH  25  39
ATOM     39  C   UNL A   1      38.893  29.497  30.444  1.00  0.00     0.023 A 
ATOM     40  C   UNL A   1      38.779  28.954  31.739  1.00  0.00     0.012 A 
ATOM     41  C   UNL A   1      37.931  30.416  29.985  1.00  0.00     0.148 A 
ATOM     42  C   UNL A   1      37.724  29.327  32.570  1.00  0.00     0.002 A 
ATOM     43  C   UNL A   1      36.899  30.806  30.830  1.00  0.00     0.091 A 
ATOM     44  F   UNL A   1      38.064  30.912  28.746  1.00  0.00    -0.205 F 
ATOM     45  C   UNL A   1      36.793  30.261  32.121  1.00  0.00     0.022 A 
BRANCH  43  46
ATOM     46  S   UNL A   1      35.681  32.046  30.375  1.00  0.00     0.127 S 
ATOM     47  O   UNL A   1      36.523  33.222  30.158  1.00  0.00    -0.237 OA
ATOM     48  O   UNL A   1      35.104  31.475  29.160  1.00  0.00    -0.237 OA
ATOM     49  O   UNL A   1      34.766  32.149  31.504  1.00  0.00    -0.744 OA
ENDBRANCH  43  46
ENDBRANCH  25  39
BRANCH  26  50
ATOM     50  C   UNL A   1      47.137  27.195  25.316  1.00  0.00     0.023 A 
ATOM     51  C   UNL A   1      48.108  26.423  25.985  1.00  0.00     0.012 A 
ATOM     52  C   UNL A   1      47.374  27.603  23.990  1.00  0.00     0.148 A 
ATOM     53  C   UNL A   1      49.303  26.080  25.352  1.00  0.00     0.002 A 
ATOM     54  C   UNL A   1      48.549  27.223  23.352  1.00  0.00     0.091 A 
ATOM     55  F   UNL A   1      46.442  28.346  23.379  1.00  0.00    -0.205 F 
ATOM     56  C   UNL A   1      49.519  26.472  24.034  1.00  0.00     0.022 A 
BRANCH  54  57
ATOM     57  S   UNL A   1      48.881  27.601  21.627  1.00  0.00     0.127 S 
ATOM     58  O   UNL A   1      49.421  28.955  21.716  1.00  0.00    -0.237 OA
ATOM     59  O   UNL A   1      49.858  26.570  21.275  1.00  0.00    -0.237 OA
ATOM     60  O   UNL A   1      47.600  27.475  20.944  1.00  0.00    -0.744 OA
ENDBRANCH  54  57
ENDBRANCH  26  50
BRANCH  38  61
ATOM     61  C   UNL A   1      45.115  32.741  29.035  1.00  0.00     0.023 A 
ATOM     62  C   UNL A   1      45.932  32.804  30.179  1.00  0.00     0.012 A 
ATOM     63  C   UNL A   1      45.031  33.852  28.173  1.00  0.00     0.148 A 
ATOM     64  C   UNL A   1      46.651  33.962  30.466  1.00  0.00     0.002 A 
ATOM     65  C   UNL A   1      45.777  34.992  28.448  1.00  0.00     0.091 A 
ATOM     66  F   UNL A   1      44.235  33.768  27.097  1.00  0.00    -0.205 F 
ATOM     67  C   UNL A   1      46.585  35.050  29.596  1.00  0.00     0.022 A 
BRANCH  65  68
ATOM     68  S   UNL A   1      45.815  36.409  27.345  1.00  0.00     0.127 S 
ATOM     69  O   UNL A   1      46.863  37.228  27.951  1.00  0.00    -0.237 OA
ATOM     70  O   UNL A   1      46.180  35.798  26.067  1.00  0.00    -0.237 OA
ATOM     71  O   UNL A   1      44.477  36.984  27.381  1.00  0.00    -0.744 OA
ENDBRANCH  65  68
ENDBRANCH  38  61
ENDBRANCH  12  13
ENDBRANCH   5   7
ENDBRANCH   2   3
ENDBRANCH   1   2
BRANCH   1  72
ATOM     72  C   UNL A   1      35.201  22.758  25.832  1.00  0.00     0.023 C 
BRANCH  72  73
ATOM     73  C   UNL A   1      34.434  23.433  24.698  1.00  0.00     0.116 C 
BRANCH  73  74
ATOM     74  N   UNL A   1      33.762  22.484  23.831  1.00  0.00    -0.352 N 
ATOM     75  C   UNL A   1      32.618  22.653  23.093  1.00  0.00     0.255 C 
ATOM     76  H   UNL A   1      34.185  21.597  23.762  1.00  0.00     0.163 HD
ATOM     77  O   UNL A   1      32.150  21.715  22.449  1.00  0.00    -0.269 OA
BRANCH  75  78
ATOM     78  C   UNL A   1      31.882  23.932  23.128  1.00  0.00     0.081 A 
ATOM     79  C   UNL A   1      32.260  24.907  22.196  1.00  0.00     0.018 A 
ATOM     80  C   UNL A   1      30.877  24.214  24.058  1.00  0.00     0.128 A 
ATOM     81  C   UNL A   1      31.600  26.137  22.161  1.00  0.00     0.010 A 
ATOM     82  C   UNL A   1      30.206  25.438  24.014  1.00  0.00     0.055 A 
ATOM     83  C   UNL A   1      30.557  26.405  23.058  1.00  0.00    -0.014 A 
BRANCH  80  84
ATOM     84  O   UNL A   1      30.539  23.297  25.014  1.00  0.00    -0.507 OA
ATOM     85  H   UNL A   1      30.627  23.512  25.922  1.00  0.00     0.293 HD
ENDBRANCH  80  84
BRANCH  83  86
ATOM     86  C   UNL A   1      29.836  27.694  23.026  1.00  0.00    -0.011 A 
ATOM     87  C   UNL A   1      30.520  28.965  22.876  1.00  0.00     0.027 A 
ATOM     88  C   UNL A   1      28.499  27.689  23.170  1.00  0.00     0.080 A 
ATOM     89  C   UNL A   1      29.835  30.114  22.894  1.00  0.00     0.095 A 
ATOM     90  C   UNL A   1      27.722  28.959  23.178  1.00  0.00     0.255 A 
ATOM     91  N   UNL A   1      28.461  30.121  23.045  1.00  0.00    -0.258 N 
ATOM     92  O   UNL A   1      26.501  28.899  23.304  1.00  0.00    -0.269 OA
BRANCH  91  93
ATOM     93  C   UNL A   1      27.735  31.364  23.069  1.00  0.00     0.451 C 
ATOM     94  F   UNL A   1      28.322  32.260  23.900  1.00  0.00    -0.185 F 
ATOM     95  F   UNL A   1      27.672  31.917  21.833  1.00  0.00    -0.185 F 
ENDBRANCH  91  93
ENDBRANCH  83  86
ENDBRANCH  75  78
ENDBRANCH  73  74
ENDBRANCH  72  73
ENDBRANCH   1  72
TORSDOF 17
ENDMDL
MODEL 3
REMARK VINA RESULT:     -12.3      5.829      8.220
REMARK SMILES O=C(NCCCCNC(=O)c1ccc(-c2ccn(C(F)F)c(=O)c2)cc1O)c1ccc(-c2c3nc(c(-c4cccc(S(=O)(=O)[O-])c4F)c4ccc([nH]4)c(-c4cccc(S(=O)(=O)[O-])c4F)c4nc(c(-c5cccc(S(=O)(=O)[O-])c5F)c5ccc2[nH]5)C=C4)C=C3)cc1
REMARK SMILES IDX 5 1 4 2 3 3 1 4 2 5 28 7 29 8 90 9 30 10 89 11 31 12 32 13
REMARK SMILES IDX 33 14 83 15 34 16 88 17 82 18 84 19 35 20 87 21 81 22 80 23
REMARK SMILES IDX 36 25 68 26 48 27 67 28 49 29 52 30 66 31 85 32 50 33 51 34
REMARK SMILES IDX 65 36 86 37 53 38 37 39 38 40 46 41 39 42 41 43 47 44 40 45
REMARK SMILES IDX 42 46 43 47 44 48 45 49 69 50 70 51 78 52 71 53 73 54 79 55
REMARK SMILES IDX 72 56 74 57 75 58 76 59 77 60 54 61 55 62 63 63 56 64 58 65
REMARK SMILES IDX 64 66 57 67 59 68 60 69 61 70 62 71 6 72 7 73 8 74 9 75
REMARK SMILES IDX 10 77 11 78 12 79 26 80 13 81 25 82 14 83 27 84 15 86 16 87
REMARK SMILES IDX 24 88 17 89 22 90 18 91 23 92 19 93 20 94 21 95
REMARK H PARENT 3 6 84 24 52 35 8 76 27 85
REMARK Flexibility Score: inf
ROOT
ATOM      1  C   UNL A   1      36.106  22.298  24.372  1.00  0.00     0.023 C 
ENDROOT
BRANCH   1   2
ATOM      2  C   UNL A   1      36.687  22.244  25.782  1.00  0.00     0.116 C 
BRANCH   2   3
ATOM      3  N   UNL A   1      37.707  21.217  25.924  1.00  0.00    -0.352 N 
ATOM      4  O   UNL A   1      39.778  20.360  26.101  1.00  0.00    -0.269 OA
ATOM      5  C   UNL A   1      39.048  21.346  26.188  1.00  0.00     0.251 C 
ATOM      6  H   UNL A   1      37.388  20.293  25.816  1.00  0.00     0.163 HD
BRANCH   5   7
ATOM      7  C   UNL A   1      39.621  22.657  26.566  1.00  0.00     0.039 A 
ATOM      8  C   UNL A   1      40.526  22.716  27.632  1.00  0.00     0.014 A 
ATOM      9  C   UNL A   1      39.235  23.832  25.915  1.00  0.00     0.014 A 
ATOM     10  C   UNL A   1      41.072  23.944  28.019  1.00  0.00     0.010 A 
ATOM     11  C   UNL A   1      39.822  25.047  26.265  1.00  0.00     0.010 A 
ATOM     12  C   UNL A   1      40.736  25.118  27.328  1.00  0.00    -0.014 A 
BRANCH  12  13
ATOM     13  C   UNL A   1      41.284  26.440  27.722  1.00  0.00     0.031 A 
ATOM     14  C   UNL A   1      42.721  26.773  27.411  1.00  0.00     0.074 A 
ATOM     15  C   UNL A   1      40.522  27.315  28.408  1.00  0.00     0.049 A 
ATOM     16  N   UNL A   1      43.426  27.807  27.788  1.00  0.00    -0.248 NA
ATOM     17  C   UNL A   1      43.466  25.811  26.580  1.00  0.00     0.031 C 
ATOM     18  C   UNL A   1      39.121  27.111  28.782  1.00  0.00     0.029 A 
ATOM     19  N   UNL A   1      40.826  28.548  28.930  1.00  0.00    -0.354 N 
ATOM     20  C   UNL A   1      44.702  27.603  27.276  1.00  0.00     0.074 A 
ATOM     21  C   UNL A   1      44.681  26.343  26.569  1.00  0.00     0.031 C 
ATOM     22  C   UNL A   1      38.685  28.186  29.460  1.00  0.00     0.029 A 
ATOM     23  C   UNL A   1      39.782  29.138  29.603  1.00  0.00     0.049 A 
ATOM     24  H   UNL A   1      41.710  28.971  28.831  1.00  0.00     0.167 HD
ATOM     25  C   UNL A   1      45.786  28.407  27.366  1.00  0.00     0.034 A 
ATOM     26  C   UNL A   1      39.718  30.310  30.267  1.00  0.00     0.034 A 
ATOM     27  C   UNL A   1      45.793  29.689  28.014  1.00  0.00     0.049 A 
ATOM     28  C   UNL A   1      40.938  31.187  30.337  1.00  0.00     0.074 A 
ATOM     29  C   UNL A   1      46.843  30.583  28.130  1.00  0.00     0.029 A 
ATOM     30  N   UNL A   1      44.699  30.269  28.632  1.00  0.00    -0.354 N 
ATOM     31  N   UNL A   1      42.121  30.992  29.809  1.00  0.00    -0.248 NA
ATOM     32  C   UNL A   1      40.808  32.455  31.073  1.00  0.00     0.031 C 
ATOM     33  C   UNL A   1      46.380  31.712  28.810  1.00  0.00     0.029 A 
ATOM     34  C   UNL A   1      45.042  31.520  29.109  1.00  0.00     0.049 A 
ATOM     35  H   UNL A   1      43.811  29.853  28.717  1.00  0.00     0.167 HD
ATOM     36  C   UNL A   1      42.861  32.132  30.107  1.00  0.00     0.074 A 
ATOM     37  C   UNL A   1      41.995  33.011  30.863  1.00  0.00     0.031 C 
ATOM     38  C   UNL A   1      44.146  32.416  29.790  1.00  0.00     0.034 A 
BRANCH  25  39
ATOM     39  C   UNL A   1      47.055  27.976  26.687  1.00  0.00     0.023 A 
ATOM     40  C   UNL A   1      48.046  27.325  27.448  1.00  0.00     0.012 A 
ATOM     41  C   UNL A   1      47.202  28.077  25.290  1.00  0.00     0.148 A 
ATOM     42  C   UNL A   1      49.166  26.776  26.826  1.00  0.00     0.002 A 
ATOM     43  C   UNL A   1      48.306  27.501  24.675  1.00  0.00     0.091 A 
ATOM     44  F   UNL A   1      46.244  28.706  24.593  1.00  0.00    -0.205 F 
ATOM     45  C   UNL A   1      49.289  26.852  25.441  1.00  0.00     0.022 A 
BRANCH  43  46
ATOM     46  S   UNL A   1      48.534  27.488  22.893  1.00  0.00     0.127 S 
ATOM     47  O   UNL A   1      49.861  28.088  22.760  1.00  0.00    -0.237 OA
ATOM     48  O   UNL A   1      48.477  26.059  22.589  1.00  0.00    -0.237 OA
ATOM     49  O   UNL A   1      47.445  28.281  22.338  1.00  0.00    -0.744 OA
ENDBRANCH  43  46
ENDBRANCH  25  39
BRANCH  26  50
ATOM     50  C   UNL A   1      38.426  30.767  30.848  1.00  0.00     0.023 A 
ATOM     51  C   UNL A   1      38.152  30.480  32.201  1.00  0.00     0.012 A 
ATOM     52  C   UNL A   1      37.485  31.489  30.092  1.00  0.00     0.148 A 
ATOM     53  C   UNL A   1      36.953  30.887  32.785  1.00  0.00     0.002 A 
ATOM     54  C   UNL A   1      36.309  31.927  30.691  1.00  0.00     0.091 A 
ATOM     55  F   UNL A   1      37.763  31.739  28.805  1.00  0.00    -0.205 F 
ATOM     56  C   UNL A   1      36.036  31.617  32.033  1.00  0.00     0.022 A 
BRANCH  54  57
ATOM     57  S   UNL A   1      35.108  32.952  29.834  1.00  0.00     0.127 S 
ATOM     58  O   UNL A   1      34.185  33.295  30.912  1.00  0.00    -0.237 OA
ATOM     59  O   UNL A   1      35.941  34.058  29.359  1.00  0.00    -0.237 OA
ATOM     60  O   UNL A   1      34.561  32.114  28.776  1.00  0.00    -0.744 OA
ENDBRANCH  54  57
ENDBRANCH  26  50
BRANCH  38  61
ATOM     61  C   UNL A   1      44.698  33.754  30.191  1.00  0.00     0.023 A 
ATOM     62  C   UNL A   1      45.422  33.879  31.390  1.00  0.00     0.012 A 
ATOM     63  C   UNL A   1      44.603  34.852  29.313  1.00  0.00     0.148 A 
ATOM     64  C   UNL A   1      46.040  35.085  31.716  1.00  0.00     0.002 A 
ATOM     65  C   UNL A   1      45.249  36.040  29.628  1.00  0.00     0.091 A 
ATOM     66  F   UNL A   1      43.896  34.708  28.183  1.00  0.00    -0.205 F 
ATOM     67  C   UNL A   1      45.965  36.160  30.832  1.00  0.00     0.022 A 
BRANCH  65  68
ATOM     68  S   UNL A   1      45.274  37.450  28.516  1.00  0.00     0.127 S 
ATOM     69  O   UNL A   1      45.848  36.864  27.306  1.00  0.00    -0.237 OA
ATOM     70  O   UNL A   1      43.856  37.791  28.414  1.00  0.00    -0.237 OA
ATOM     71  O   UNL A   1      46.096  38.463  29.166  1.00  0.00    -0.744 OA
ENDBRANCH  65  68
ENDBRANCH  38  61
ENDBRANCH  12  13
ENDBRANCH   5   7
ENDBRANCH   2   3
ENDBRANCH   1   2
BRANCH   1  72
ATOM     72  C   UNL A   1      34.796  23.077  24.225  1.00  0.00     0.023 C 
BRANCH  72  73
ATOM     73  C   UNL A   1      33.644  22.311  23.583  1.00  0.00     0.116 C 
BRANCH  73  74
ATOM     74  N   UNL A   1      32.788  21.661  24.558  1.00  0.00    -0.352 N 
ATOM     75  C   UNL A   1      31.656  22.141  25.167  1.00  0.00     0.255 C 
ATOM     76  H   UNL A   1      33.057  20.750  24.820  1.00  0.00     0.163 HD
ATOM     77  O   UNL A   1      31.078  21.472  26.021  1.00  0.00    -0.269 OA
BRANCH  75  78
ATOM     78  C   UNL A   1      31.162  23.501  24.871  1.00  0.00     0.081 A 
ATOM     79  C   UNL A   1      30.872  23.794  23.532  1.00  0.00     0.018 A 
ATOM     80  C   UNL A   1      31.015  24.492  25.845  1.00  0.00     0.128 A 
ATOM     81  C   UNL A   1      30.388  25.055  23.179  1.00  0.00     0.010 A 
ATOM     82  C   UNL A   1      30.518  25.749  25.496  1.00  0.00     0.055 A 
ATOM     83  C   UNL A   1      30.191  26.037  24.160  1.00  0.00    -0.014 A 
BRANCH  80  84
ATOM     84  O   UNL A   1      31.354  24.242  27.146  1.00  0.00    -0.507 OA
ATOM     85  H   UNL A   1      31.665  23.393  27.394  1.00  0.00     0.293 HD
ENDBRANCH  80  84
BRANCH  83  86
ATOM     86  C   UNL A   1      29.666  27.371  23.808  1.00  0.00    -0.011 A 
ATOM     87  C   UNL A   1      30.505  28.553  23.769  1.00  0.00     0.027 A 
ATOM     88  C   UNL A   1      28.353  27.497  23.543  1.00  0.00     0.080 A 
ATOM     89  C   UNL A   1      29.983  29.752  23.487  1.00  0.00     0.095 A 
ATOM     90  C   UNL A   1      27.760  28.822  23.214  1.00  0.00     0.255 A 
ATOM     91  N   UNL A   1      28.635  29.895  23.215  1.00  0.00    -0.258 N 
ATOM     92  O   UNL A   1      26.557  28.883  22.971  1.00  0.00    -0.269 OA
BRANCH  91  93
ATOM     93  C   UNL A   1      28.082  31.191  22.919  1.00  0.00     0.451 C 
ATOM     94  F   UNL A   1      27.547  31.224  21.674  1.00  0.00    -0.185 F 
ATOM     95  F   UNL A   1      27.109  31.520  23.804  1.00  0.00    -0.185 F 
ENDBRANCH  91  93
ENDBRANCH  83  86
ENDBRANCH  75  78
ENDBRANCH  73  74
ENDBRANCH  72  73
ENDBRANCH   1  72
TORSDOF 17
ENDMDL
