MODEL 1
REMARK VINA RESULT:      -9.5      0.000      0.000
REMARK SMILES C[N@@H+](CCCCC(=O)NCCCCNC(=O)c1ccc(-c2c3nc(c(-c4cccc(S(=O)(=O)[O-])c4F)c4ccc([nH]4)c(-c4cccc(S(=O)(=O)[O-])c4F)c4nc(c(-c5cccc(S(=O)(=O)[O-])c5F)c5ccc2[nH]5)C=C4)C=C3)cc1)CC(C)(C)O
REMARK SMILES IDX 7 1 8 2 9 3 6 5 5 6 4 7 3 8 2 9 1 10 80 12 81 13 82 14 83 15
REMARK SMILES IDX 84 16 10 18 11 19 12 20 13 21 14 22 15 23 16 25 17 26 18 27
REMARK SMILES IDX 79 28 19 29 78 30 20 31 21 32 22 33 72 34 23 35 77 36 71 37
REMARK SMILES IDX 73 38 24 39 76 40 70 41 69 42 25 44 57 45 37 46 56 47 38 48
REMARK SMILES IDX 41 49 55 50 74 51 39 52 40 53 54 55 75 56 42 57 26 58 27 59
REMARK SMILES IDX 35 60 28 61 30 62 36 63 29 64 31 65 32 66 33 67 34 68 58 69
REMARK SMILES IDX 59 70 67 71 60 72 62 73 68 74 61 75 63 76 64 77 65 78 66 79
REMARK SMILES IDX 43 80 44 81 52 82 45 83 47 84 53 85 46 86 48 87 49 88 50 89
REMARK SMILES IDX 51 90
REMARK H PARENT 9 4 2 11 84 17 14 24 73 43 41 54
REMARK Flexibility Score: inf
ROOT
ATOM      1  C   UNL A   1      35.240  22.894  26.087  1.00  0.00     0.219 C 
ATOM      2  O   UNL A   1      34.468  23.095  27.024  1.00  0.00    -0.275 OA
ATOM      3  N   UNL A   1      36.459  22.344  26.346  1.00  0.00    -0.356 N 
ATOM      4  H   UNL A   1      36.612  22.086  27.285  1.00  0.00     0.163 HD
ENDROOT
BRANCH   1   5
ATOM      5  C   UNL A   1      34.838  23.238  24.664  1.00  0.00     0.100 C 
BRANCH   5   6
ATOM      6  C   UNL A   1      34.795  24.744  24.388  1.00  0.00     0.016 C 
BRANCH   6   7
ATOM      7  C   UNL A   1      33.860  25.548  25.298  1.00  0.00     0.062 C 
BRANCH   7   8
ATOM      8  C   UNL A   1      32.367  25.226  25.194  1.00  0.00     0.262 C 
BRANCH   8   9
ATOM      9  N   UNL A   1      31.424  26.321  25.429  1.00  0.00    -0.335 N 
ATOM     10  C   UNL A   1      30.038  25.900  25.369  1.00  0.00     0.332 C 
ATOM     11  H   UNL A   1      31.542  26.588  26.407  1.00  0.00     0.347 HD
BRANCH   9  12
ATOM     12  C   UNL A   1      31.765  27.579  24.754  1.00  0.00     0.296 C 
BRANCH  12  13
ATOM     13  C   UNL A   1      31.833  27.746  23.194  1.00  0.00     0.108 C 
ATOM     14  C   UNL A   1      31.064  28.968  22.689  1.00  0.00     0.048 C 
ATOM     15  C   UNL A   1      33.311  27.872  22.794  1.00  0.00     0.048 C 
BRANCH  13  16
ATOM     16  O   UNL A   1      31.324  26.605  22.508  1.00  0.00    -0.385 OA
ATOM     17  H   UNL A   1      30.760  26.091  23.109  1.00  0.00     0.211 HD
ENDBRANCH  13  16
ENDBRANCH  12  13
ENDBRANCH   9  12
ENDBRANCH   8   9
ENDBRANCH   7   8
ENDBRANCH   6   7
ENDBRANCH   5   6
ENDBRANCH   1   5
BRANCH   3  18
ATOM     18  C   UNL A   1      37.564  22.082  25.446  1.00  0.00     0.116 C 
BRANCH  18  19
ATOM     19  C   UNL A   1      37.271  20.872  24.553  1.00  0.00     0.023 C 
BRANCH  19  20
ATOM     20  C   UNL A   1      38.126  19.644  24.800  1.00  0.00     0.023 C 
BRANCH  20  21
ATOM     21  C   UNL A   1      38.978  19.723  26.051  1.00  0.00     0.116 C 
BRANCH  21  22
ATOM     22  N   UNL A   1      40.249  19.006  25.978  1.00  0.00    -0.352 N 
ATOM     23  C   UNL A   1      41.494  19.525  26.272  1.00  0.00     0.251 C 
ATOM     24  H   UNL A   1      40.215  18.064  25.692  1.00  0.00     0.163 HD
ATOM     25  O   UNL A   1      42.518  18.865  26.143  1.00  0.00    -0.269 OA
BRANCH  23  26
ATOM     26  C   UNL A   1      41.539  20.937  26.696  1.00  0.00     0.039 A 
ATOM     27  C   UNL A   1      42.086  21.250  27.941  1.00  0.00     0.014 A 
ATOM     28  C   UNL A   1      41.272  21.929  25.752  1.00  0.00     0.014 A 
ATOM     29  C   UNL A   1      42.455  22.569  28.205  1.00  0.00     0.010 A 
ATOM     30  C   UNL A   1      41.747  23.212  25.974  1.00  0.00     0.010 A 
ATOM     31  C   UNL A   1      42.338  23.549  27.203  1.00  0.00    -0.014 A 
BRANCH  31  32
ATOM     32  C   UNL A   1      42.815  24.939  27.411  1.00  0.00     0.031 A 
ATOM     33  C   UNL A   1      41.892  25.946  28.045  1.00  0.00     0.074 A 
ATOM     34  C   UNL A   1      44.016  25.324  26.934  1.00  0.00     0.049 A 
ATOM     35  N   UNL A   1      42.072  27.227  28.230  1.00  0.00    -0.248 NA
ATOM     36  C   UNL A   1      40.572  25.458  28.481  1.00  0.00     0.031 C 
ATOM     37  C   UNL A   1      44.957  24.472  26.203  1.00  0.00     0.029 A 
ATOM     38  N   UNL A   1      44.642  26.545  26.973  1.00  0.00    -0.354 N 
ATOM     39  C   UNL A   1      40.872  27.704  28.743  1.00  0.00     0.074 A 
ATOM     40  C   UNL A   1      39.956  26.587  28.796  1.00  0.00     0.031 C 
ATOM     41  C   UNL A   1      46.048  25.189  25.883  1.00  0.00     0.029 A 
ATOM     42  C   UNL A   1      45.877  26.556  26.365  1.00  0.00     0.049 A 
ATOM     43  H   UNL A   1      44.245  27.340  27.396  1.00  0.00     0.167 HD
ATOM     44  C   UNL A   1      40.571  28.947  29.181  1.00  0.00     0.034 A 
ATOM     45  C   UNL A   1      46.772  27.555  26.225  1.00  0.00     0.034 A 
ATOM     46  C   UNL A   1      41.517  30.025  29.225  1.00  0.00     0.049 A 
ATOM     47  C   UNL A   1      46.456  28.901  26.819  1.00  0.00     0.074 A 
ATOM     48  C   UNL A   1      41.360  31.286  29.768  1.00  0.00     0.029 A 
ATOM     49  N   UNL A   1      42.805  29.962  28.717  1.00  0.00    -0.354 N 
ATOM     50  N   UNL A   1      45.381  29.286  27.466  1.00  0.00    -0.248 NA
ATOM     51  C   UNL A   1      47.489  29.941  26.704  1.00  0.00     0.031 C 
ATOM     52  C   UNL A   1      42.557  31.988  29.588  1.00  0.00     0.029 A 
ATOM     53  C   UNL A   1      43.459  31.160  28.937  1.00  0.00     0.049 A 
ATOM     54  H   UNL A   1      43.197  29.179  28.267  1.00  0.00     0.167 HD
ATOM     55  C   UNL A   1      45.622  30.595  27.863  1.00  0.00     0.074 A 
ATOM     56  C   UNL A   1      46.954  30.933  27.403  1.00  0.00     0.031 C 
ATOM     57  C   UNL A   1      44.809  31.449  28.532  1.00  0.00     0.034 A 
BRANCH  44  58
ATOM     58  C   UNL A   1      39.188  29.176  29.726  1.00  0.00     0.023 A 
ATOM     59  C   UNL A   1      38.889  28.778  31.046  1.00  0.00     0.012 A 
ATOM     60  C   UNL A   1      38.194  29.806  28.953  1.00  0.00     0.148 A 
ATOM     61  C   UNL A   1      37.613  28.963  31.573  1.00  0.00     0.002 A 
ATOM     62  C   UNL A   1      36.936  30.028  29.502  1.00  0.00     0.091 A 
ATOM     63  F   UNL A   1      38.487  30.153  27.691  1.00  0.00    -0.205 F 
ATOM     64  C   UNL A   1      36.641  29.597  30.805  1.00  0.00     0.022 A 
BRANCH  62  65
ATOM     65  S   UNL A   1      35.641  30.905  28.619  1.00  0.00     0.127 S 
ATOM     66  O   UNL A   1      34.909  29.802  27.997  1.00  0.00    -0.237 OA
ATOM     67  O   UNL A   1      34.925  31.575  29.706  1.00  0.00    -0.237 OA
ATOM     68  O   UNL A   1      36.323  31.805  27.700  1.00  0.00    -0.744 OA
ENDBRANCH  62  65
ENDBRANCH  44  58
BRANCH  45  69
ATOM     69  C   UNL A   1      48.097  27.290  25.592  1.00  0.00     0.023 A 
ATOM     70  C   UNL A   1      49.159  26.832  26.398  1.00  0.00     0.012 A 
ATOM     71  C   UNL A   1      48.310  27.459  24.211  1.00  0.00     0.148 A 
ATOM     72  C   UNL A   1      50.416  26.578  25.848  1.00  0.00     0.002 A 
ATOM     73  C   UNL A   1      49.552  27.156  23.660  1.00  0.00     0.091 A 
ATOM     74  F   UNL A   1      47.294  27.908  23.460  1.00  0.00    -0.205 F 
ATOM     75  C   UNL A   1      50.610  26.731  24.479  1.00  0.00     0.022 A 
BRANCH  73  76
ATOM     76  S   UNL A   1      49.855  27.205  21.889  1.00  0.00     0.127 S 
ATOM     77  O   UNL A   1      49.656  28.620  21.590  1.00  0.00    -0.237 OA
ATOM     78  O   UNL A   1      51.242  26.746  21.804  1.00  0.00    -0.237 OA
ATOM     79  O   UNL A   1      48.886  26.286  21.307  1.00  0.00    -0.744 OA
ENDBRANCH  73  76
ENDBRANCH  45  69
BRANCH  57  80
ATOM     80  C   UNL A   1      45.338  32.823  28.843  1.00  0.00     0.023 A 
ATOM     81  C   UNL A   1      46.043  33.040  30.042  1.00  0.00     0.012 A 
ATOM     82  C   UNL A   1      45.224  33.867  27.905  1.00  0.00     0.148 A 
ATOM     83  C   UNL A   1      46.609  34.285  30.314  1.00  0.00     0.002 A 
ATOM     84  C   UNL A   1      45.827  35.092  28.163  1.00  0.00     0.091 A 
ATOM     85  F   UNL A   1      44.529  33.644  26.778  1.00  0.00    -0.205 F 
ATOM     86  C   UNL A   1      46.512  35.305  29.370  1.00  0.00     0.022 A 
BRANCH  84  87
ATOM     87  S   UNL A   1      45.835  36.425  26.959  1.00  0.00     0.127 S 
ATOM     88  O   UNL A   1      46.303  35.738  25.756  1.00  0.00    -0.237 OA
ATOM     89  O   UNL A   1      44.428  36.825  26.924  1.00  0.00    -0.237 OA
ATOM     90  O   UNL A   1      46.733  37.439  27.495  1.00  0.00    -0.744 OA
ENDBRANCH  84  87
ENDBRANCH  57  80
ENDBRANCH  31  32
ENDBRANCH  23  26
ENDBRANCH  21  22
ENDBRANCH  20  21
ENDBRANCH  19  20
ENDBRANCH  18  19
ENDBRANCH   3  18
TORSDOF 21
ENDMDL
MODEL 2
REMARK VINA RESULT:      -9.4      6.477     10.054
REMARK SMILES C[N@@H+](CCCCC(=O)NCCCCNC(=O)c1ccc(-c2c3nc(c(-c4cccc(S(=O)(=O)[O-])c4F)c4ccc([nH]4)c(-c4cccc(S(=O)(=O)[O-])c4F)c4nc(c(-c5cccc(S(=O)(=O)[O-])c5F)c5ccc2[nH]5)C=C4)C=C3)cc1)CC(C)(C)O
REMARK SMILES IDX 7 1 8 2 9 3 6 5 5 6 4 7 3 8 2 9 1 10 80 12 81 13 82 14 83 15
REMARK SMILES IDX 84 16 10 18 11 19 12 20 13 21 14 22 15 23 16 25 17 26 18 27
REMARK SMILES IDX 79 28 19 29 78 30 20 31 21 32 22 33 72 34 23 35 77 36 71 37
REMARK SMILES IDX 73 38 24 39 76 40 70 41 69 42 25 44 57 45 37 46 56 47 38 48
REMARK SMILES IDX 41 49 55 50 74 51 39 52 40 53 54 55 75 56 42 57 26 58 27 59
REMARK SMILES IDX 35 60 28 61 30 62 36 63 29 64 31 65 32 66 33 67 34 68 58 69
REMARK SMILES IDX 59 70 67 71 60 72 62 73 68 74 61 75 63 76 64 77 65 78 66 79
REMARK SMILES IDX 43 80 44 81 52 82 45 83 47 84 53 85 46 86 48 87 49 88 50 89
REMARK SMILES IDX 51 90
REMARK H PARENT 9 4 2 11 84 17 14 24 73 43 41 54
REMARK Flexibility Score: inf
ROOT
ATOM      1  C   UNL A   1      31.668  27.021  26.058  1.00  0.00     0.219 C 
ATOM      2  O   UNL A   1      30.500  26.652  25.939  1.00  0.00    -0.275 OA
ATOM      3  N   UNL A   1      31.963  27.983  26.976  1.00  0.00    -0.356 N 
ATOM      4  H   UNL A   1      31.206  28.278  27.533  1.00  0.00     0.163 HD
ENDROOT
BRANCH   1   5
ATOM      5  C   UNL A   1      32.765  26.404  25.210  1.00  0.00     0.100 C 
BRANCH   5   6
ATOM      6  C   UNL A   1      33.475  25.228  25.887  1.00  0.00     0.016 C 
BRANCH   6   7
ATOM      7  C   UNL A   1      32.721  23.894  25.835  1.00  0.00     0.062 C 
BRANCH   7   8
ATOM      8  C   UNL A   1      33.560  22.630  26.041  1.00  0.00     0.262 C 
BRANCH   8   9
ATOM      9  N   UNL A   1      33.520  21.616  24.986  1.00  0.00    -0.335 N 
ATOM     10  C   UNL A   1      33.314  22.178  23.665  1.00  0.00     0.332 C 
ATOM     11  H   UNL A   1      34.464  21.233  24.928  1.00  0.00     0.347 HD
BRANCH   9  12
ATOM     12  C   UNL A   1      32.751  20.412  25.322  1.00  0.00     0.296 C 
BRANCH  12  13
ATOM     13  C   UNL A   1      33.118  18.969  24.824  1.00  0.00     0.108 C 
ATOM     14  C   UNL A   1      32.587  17.866  25.742  1.00  0.00     0.048 C 
ATOM     15  C   UNL A   1      32.532  18.788  23.416  1.00  0.00     0.048 C 
BRANCH  13  16
ATOM     16  O   UNL A   1      34.527  18.785  24.703  1.00  0.00    -0.385 OA
ATOM     17  H   UNL A   1      34.799  18.961  23.789  1.00  0.00     0.211 HD
ENDBRANCH  13  16
ENDBRANCH  12  13
ENDBRANCH   9  12
ENDBRANCH   8   9
ENDBRANCH   7   8
ENDBRANCH   6   7
ENDBRANCH   5   6
ENDBRANCH   1   5
BRANCH   3  18
ATOM     18  C   UNL A   1      33.226  28.637  27.253  1.00  0.00     0.116 C 
BRANCH  18  19
ATOM     19  C   UNL A   1      33.369  29.925  26.436  1.00  0.00     0.023 C 
BRANCH  19  20
ATOM     20  C   UNL A   1      32.616  31.131  26.963  1.00  0.00     0.023 C 
BRANCH  20  21
ATOM     21  C   UNL A   1      33.499  32.179  27.611  1.00  0.00     0.116 C 
BRANCH  21  22
ATOM     22  N   UNL A   1      32.878  33.492  27.776  1.00  0.00    -0.352 N 
ATOM     23  C   UNL A   1      33.263  34.465  28.676  1.00  0.00     0.251 C 
ATOM     24  H   UNL A   1      32.115  33.702  27.192  1.00  0.00     0.163 HD
ATOM     25  O   UNL A   1      32.659  35.526  28.780  1.00  0.00    -0.269 OA
BRANCH  23  26
ATOM     26  C   UNL A   1      34.405  34.143  29.552  1.00  0.00     0.039 A 
ATOM     27  C   UNL A   1      34.182  33.376  30.697  1.00  0.00     0.014 A 
ATOM     28  C   UNL A   1      35.697  34.394  29.088  1.00  0.00     0.014 A 
ATOM     29  C   UNL A   1      35.270  32.776  31.330  1.00  0.00     0.010 A 
ATOM     30  C   UNL A   1      36.758  33.702  29.651  1.00  0.00     0.010 A 
ATOM     31  C   UNL A   1      36.559  32.891  30.780  1.00  0.00    -0.014 A 
BRANCH  31  32
ATOM     32  C   UNL A   1      37.724  32.183  31.367  1.00  0.00     0.031 A 
ATOM     33  C   UNL A   1      38.311  32.679  32.662  1.00  0.00     0.074 A 
ATOM     34  C   UNL A   1      38.322  31.180  30.691  1.00  0.00     0.049 A 
ATOM     35  N   UNL A   1      39.378  32.270  33.294  1.00  0.00    -0.248 NA
ATOM     36  C   UNL A   1      37.636  33.820  33.305  1.00  0.00     0.031 C 
ATOM     37  C   UNL A   1      37.918  30.679  29.374  1.00  0.00     0.029 A 
ATOM     38  N   UNL A   1      39.416  30.416  31.010  1.00  0.00    -0.354 N 
ATOM     39  C   UNL A   1      39.535  33.138  34.367  1.00  0.00     0.074 A 
ATOM     40  C   UNL A   1      38.484  34.125  34.275  1.00  0.00     0.031 C 
ATOM     41  C   UNL A   1      38.738  29.678  29.011  1.00  0.00     0.029 A 
ATOM     42  C   UNL A   1      39.738  29.480  30.054  1.00  0.00     0.049 A 
ATOM     43  H   UNL A   1      39.924  30.527  31.846  1.00  0.00     0.167 HD
ATOM     44  C   UNL A   1      40.441  33.093  35.370  1.00  0.00     0.034 A 
ATOM     45  C   UNL A   1      40.723  28.559  30.031  1.00  0.00     0.034 A 
ATOM     46  C   UNL A   1      41.416  32.049  35.514  1.00  0.00     0.049 A 
ATOM     47  C   UNL A   1      41.650  28.458  31.213  1.00  0.00     0.074 A 
ATOM     48  C   UNL A   1      42.295  31.831  36.558  1.00  0.00     0.029 A 
ATOM     49  N   UNL A   1      41.629  31.040  34.589  1.00  0.00    -0.354 N 
ATOM     50  N   UNL A   1      41.670  29.178  32.310  1.00  0.00    -0.248 NA
ATOM     51  C   UNL A   1      42.666  27.395  31.177  1.00  0.00     0.031 C 
ATOM     52  C   UNL A   1      43.043  30.685  36.263  1.00  0.00     0.029 A 
ATOM     53  C   UNL A   1      42.623  30.190  35.037  1.00  0.00     0.049 A 
ATOM     54  H   UNL A   1      41.143  30.941  33.738  1.00  0.00     0.167 HD
ATOM     55  C   UNL A   1      42.670  28.634  33.106  1.00  0.00     0.074 A 
ATOM     56  C   UNL A   1      43.221  27.511  32.375  1.00  0.00     0.031 C 
ATOM     57  C   UNL A   1      43.107  29.037  34.325  1.00  0.00     0.034 A 
BRANCH  44  58
ATOM     58  C   UNL A   1      40.356  34.155  36.431  1.00  0.00     0.023 A 
ATOM     59  C   UNL A   1      40.834  35.453  36.152  1.00  0.00     0.012 A 
ATOM     60  C   UNL A   1      39.782  33.886  37.687  1.00  0.00     0.148 A 
ATOM     61  C   UNL A   1      40.782  36.453  37.120  1.00  0.00     0.002 A 
ATOM     62  C   UNL A   1      39.691  34.902  38.632  1.00  0.00     0.091 A 
ATOM     63  F   UNL A   1      39.357  32.640  37.945  1.00  0.00    -0.205 F 
ATOM     64  C   UNL A   1      40.202  36.180  38.355  1.00  0.00     0.022 A 
BRANCH  62  65
ATOM     65  S   UNL A   1      38.892  34.670  40.224  1.00  0.00     0.127 S 
ATOM     66  O   UNL A   1      37.764  33.811  39.865  1.00  0.00    -0.237 OA
ATOM     67  O   UNL A   1      39.939  34.007  41.003  1.00  0.00    -0.237 OA
ATOM     68  O   UNL A   1      38.543  36.003  40.693  1.00  0.00    -0.744 OA
ENDBRANCH  62  65
ENDBRANCH  44  58
BRANCH  45  69
ATOM     69  C   UNL A   1      40.813  27.586  28.904  1.00  0.00     0.023 A 
ATOM     70  C   UNL A   1      39.910  26.505  28.862  1.00  0.00     0.012 A 
ATOM     71  C   UNL A   1      41.756  27.731  27.868  1.00  0.00     0.148 A 
ATOM     72  C   UNL A   1      39.963  25.568  27.829  1.00  0.00     0.002 A 
ATOM     73  C   UNL A   1      41.771  26.822  26.814  1.00  0.00     0.091 A 
ATOM     74  F   UNL A   1      42.616  28.757  27.929  1.00  0.00    -0.205 F 
ATOM     75  C   UNL A   1      40.887  25.732  26.801  1.00  0.00     0.022 A 
BRANCH  73  76
ATOM     76  S   UNL A   1      42.842  27.025  25.386  1.00  0.00     0.127 S 
ATOM     77  O   UNL A   1      42.289  28.226  24.766  1.00  0.00    -0.237 OA
ATOM     78  O   UNL A   1      44.154  27.202  26.010  1.00  0.00    -0.237 OA
ATOM     79  O   UNL A   1      42.706  25.793  24.622  1.00  0.00    -0.744 OA
ENDBRANCH  73  76
ENDBRANCH  45  69
BRANCH  57  80
ATOM     80  C   UNL A   1      44.214  28.248  34.969  1.00  0.00     0.023 A 
ATOM     81  C   UNL A   1      45.549  28.491  34.593  1.00  0.00     0.012 A 
ATOM     82  C   UNL A   1      43.939  27.342  36.011  1.00  0.00     0.148 A 
ATOM     83  C   UNL A   1      46.595  27.826  35.233  1.00  0.00     0.002 A 
ATOM     84  C   UNL A   1      44.988  26.716  36.673  1.00  0.00     0.091 A 
ATOM     85  F   UNL A   1      42.658  27.110  36.339  1.00  0.00    -0.205 F 
ATOM     86  C   UNL A   1      46.315  26.950  36.280  1.00  0.00     0.022 A 
BRANCH  84  87
ATOM     87  S   UNL A   1      44.721  25.651  38.095  1.00  0.00     0.127 S 
ATOM     88  O   UNL A   1      43.791  26.447  38.893  1.00  0.00    -0.237 OA
ATOM     89  O   UNL A   1      44.136  24.456  37.487  1.00  0.00    -0.237 OA
ATOM     90  O   UNL A   1      46.036  25.441  38.685  1.00  0.00    -0.744 OA
ENDBRANCH  84  87
ENDBRANCH  57  80
ENDBRANCH  31  32
ENDBRANCH  23  26
ENDBRANCH  21  22
ENDBRANCH  20  21
ENDBRANCH  19  20
ENDBRANCH  18  19
ENDBRANCH   3  18
TORSDOF 21
ENDMDL
MODEL 3
REMARK VINA RESULT:      -8.7      2.116      2.514
REMARK SMILES C[N@@H+](CCCCC(=O)NCCCCNC(=O)c1ccc(-c2c3nc(c(-c4cccc(S(=O)(=O)[O-])c4F)c4ccc([nH]4)c(-c4cccc(S(=O)(=O)[O-])c4F)c4nc(c(-c5cccc(S(=O)(=O)[O-])c5F)c5ccc2[nH]5)C=C4)C=C3)cc1)CC(C)(C)O
REMARK SMILES IDX 7 1 8 2 9 3 6 5 5 6 4 7 3 8 2 9 1 10 80 12 81 13 82 14 83 15
REMARK SMILES IDX 84 16 10 18 11 19 12 20 13 21 14 22 15 23 16 25 17 26 18 27
REMARK SMILES IDX 79 28 19 29 78 30 20 31 21 32 22 33 72 34 23 35 77 36 71 37
REMARK SMILES IDX 73 38 24 39 76 40 70 41 69 42 25 44 57 45 37 46 56 47 38 48
REMARK SMILES IDX 41 49 55 50 74 51 39 52 40 53 54 55 75 56 42 57 26 58 27 59
REMARK SMILES IDX 35 60 28 61 30 62 36 63 29 64 31 65 32 66 33 67 34 68 58 69
REMARK SMILES IDX 59 70 67 71 60 72 62 73 68 74 61 75 63 76 64 77 65 78 66 79
REMARK SMILES IDX 43 80 44 81 52 82 45 83 47 84 53 85 46 86 48 87 49 88 50 89
REMARK SMILES IDX 51 90
REMARK H PARENT 9 4 2 11 84 17 14 24 73 43 41 54
REMARK Flexibility Score: inf
ROOT
ATOM      1  C   UNL A   1      35.382  22.427  25.833  1.00  0.00     0.219 C 
ATOM      2  O   UNL A   1      34.736  22.890  26.773  1.00  0.00    -0.275 OA
ATOM      3  N   UNL A   1      36.662  22.019  26.055  1.00  0.00    -0.356 N 
ATOM      4  H   UNL A   1      36.964  22.072  26.991  1.00  0.00     0.163 HD
ENDROOT
BRANCH   1   5
ATOM      5  C   UNL A   1      34.760  22.298  24.455  1.00  0.00     0.100 C 
BRANCH   5   6
ATOM      6  C   UNL A   1      34.898  23.562  23.600  1.00  0.00     0.016 C 
BRANCH   6   7
ATOM      7  C   UNL A   1      34.462  24.862  24.284  1.00  0.00     0.062 C 
BRANCH   7   8
ATOM      8  C   UNL A   1      32.956  25.127  24.345  1.00  0.00     0.262 C 
BRANCH   8   9
ATOM      9  N   UNL A   1      32.490  26.159  25.273  1.00  0.00    -0.335 N 
ATOM     10  C   UNL A   1      31.057  26.124  25.491  1.00  0.00     0.332 C 
ATOM     11  H   UNL A   1      32.868  25.907  26.187  1.00  0.00     0.347 HD
BRANCH   9  12
ATOM     12  C   UNL A   1      33.098  27.481  25.075  1.00  0.00     0.296 C 
BRANCH  12  13
ATOM     13  C   UNL A   1      32.823  28.394  23.827  1.00  0.00     0.108 C 
ATOM     14  C   UNL A   1      34.048  28.559  22.925  1.00  0.00     0.048 C 
ATOM     15  C   UNL A   1      31.677  27.765  23.022  1.00  0.00     0.048 C 
BRANCH  13  16
ATOM     16  O   UNL A   1      32.387  29.698  24.202  1.00  0.00    -0.385 OA
ATOM     17  H   UNL A   1      31.627  29.626  24.801  1.00  0.00     0.211 HD
ENDBRANCH  13  16
ENDBRANCH  12  13
ENDBRANCH   9  12
ENDBRANCH   8   9
ENDBRANCH   7   8
ENDBRANCH   6   7
ENDBRANCH   5   6
ENDBRANCH   1   5
BRANCH   3  18
ATOM     18  C   UNL A   1      37.646  21.519  25.116  1.00  0.00     0.116 C 
BRANCH  18  19
ATOM     19  C   UNL A   1      37.456  20.020  24.866  1.00  0.00     0.023 C 
BRANCH  19  20
ATOM     20  C   UNL A   1      38.539  19.113  25.422  1.00  0.00     0.023 C 
BRANCH  20  21
ATOM     21  C   UNL A   1      39.739  19.851  25.980  1.00  0.00     0.116 C 
BRANCH  21  22
ATOM     22  N   UNL A   1      41.002  19.119  25.905  1.00  0.00    -0.352 N 
ATOM     23  C   UNL A   1      42.258  19.641  26.137  1.00  0.00     0.251 C 
ATOM     24  H   UNL A   1      40.953  18.166  25.665  1.00  0.00     0.163 HD
ATOM     25  O   UNL A   1      43.273  18.967  26.010  1.00  0.00    -0.269 OA
BRANCH  23  26
ATOM     26  C   UNL A   1      42.327  21.071  26.492  1.00  0.00     0.039 A 
ATOM     27  C   UNL A   1      42.667  21.426  27.798  1.00  0.00     0.014 A 
ATOM     28  C   UNL A   1      42.299  22.018  25.467  1.00  0.00     0.014 A 
ATOM     29  C   UNL A   1      43.075  22.735  28.057  1.00  0.00     0.010 A 
ATOM     30  C   UNL A   1      42.816  23.281  25.707  1.00  0.00     0.010 A 
ATOM     31  C   UNL A   1      43.204  23.657  27.003  1.00  0.00    -0.014 A 
BRANCH  31  32
ATOM     32  C   UNL A   1      43.733  25.026  27.223  1.00  0.00     0.031 A 
ATOM     33  C   UNL A   1      42.836  26.071  27.833  1.00  0.00     0.074 A 
ATOM     34  C   UNL A   1      44.961  25.361  26.778  1.00  0.00     0.049 A 
ATOM     35  N   UNL A   1      43.064  27.344  28.022  1.00  0.00    -0.248 NA
ATOM     36  C   UNL A   1      41.486  25.639  28.234  1.00  0.00     0.031 C 
ATOM     37  C   UNL A   1      45.885  24.469  26.072  1.00  0.00     0.029 A 
ATOM     38  N   UNL A   1      45.636  26.554  26.834  1.00  0.00    -0.354 N 
ATOM     39  C   UNL A   1      41.872  27.870  28.504  1.00  0.00     0.074 A 
ATOM     40  C   UNL A   1      40.909  26.793  28.532  1.00  0.00     0.031 C 
ATOM     41  C   UNL A   1      47.013  25.140  25.782  1.00  0.00     0.029 A 
ATOM     42  C   UNL A   1      46.886  26.513  26.259  1.00  0.00     0.049 A 
ATOM     43  H   UNL A   1      45.261  27.365  27.246  1.00  0.00     0.167 HD
ATOM     44  C   UNL A   1      41.611  29.126  28.933  1.00  0.00     0.034 A 
ATOM     45  C   UNL A   1      47.826  27.474  26.142  1.00  0.00     0.034 A 
ATOM     46  C   UNL A   1      42.600  30.164  29.002  1.00  0.00     0.049 A 
ATOM     47  C   UNL A   1      47.550  28.833  26.728  1.00  0.00     0.074 A 
ATOM     48  C   UNL A   1      42.481  31.431  29.541  1.00  0.00     0.029 A 
ATOM     49  N   UNL A   1      43.897  30.046  28.529  1.00  0.00    -0.354 N 
ATOM     50  N   UNL A   1      46.475  29.263  27.346  1.00  0.00    -0.248 NA
ATOM     51  C   UNL A   1      48.628  29.829  26.640  1.00  0.00     0.031 C 
ATOM     52  C   UNL A   1      43.711  32.082  29.393  1.00  0.00     0.029 A 
ATOM     53  C   UNL A   1      44.594  31.216  28.766  1.00  0.00     0.049 A 
ATOM     54  H   UNL A   1      44.268  29.247  28.089  1.00  0.00     0.167 HD
ATOM     55  C   UNL A   1      46.760  30.561  27.750  1.00  0.00     0.074 A 
ATOM     56  C   UNL A   1      48.117  30.843  27.325  1.00  0.00     0.031 C 
ATOM     57  C   UNL A   1      45.966  31.449  28.397  1.00  0.00     0.034 A 
BRANCH  44  58
ATOM     58  C   UNL A   1      40.225  29.412  29.441  1.00  0.00     0.023 A 
ATOM     59  C   UNL A   1      39.263  29.955  28.562  1.00  0.00     0.012 A 
ATOM     60  C   UNL A   1      39.861  29.121  30.769  1.00  0.00     0.148 A 
ATOM     61  C   UNL A   1      37.976  30.245  29.009  1.00  0.00     0.002 A 
ATOM     62  C   UNL A   1      38.560  29.370  31.194  1.00  0.00     0.091 A 
ATOM     63  F   UNL A   1      40.794  28.630  31.597  1.00  0.00    -0.205 F 
ATOM     64  C   UNL A   1      37.622  29.943  30.320  1.00  0.00     0.022 A 
BRANCH  62  65
ATOM     65  S   UNL A   1      37.986  28.944  32.842  1.00  0.00     0.127 S 
ATOM     66  O   UNL A   1      38.908  29.708  33.682  1.00  0.00    -0.237 OA
ATOM     67  O   UNL A   1      36.612  29.448  32.831  1.00  0.00    -0.237 OA
ATOM     68  O   UNL A   1      38.099  27.496  32.941  1.00  0.00    -0.744 OA
ENDBRANCH  62  65
ENDBRANCH  44  58
BRANCH  45  69
ATOM     69  C   UNL A   1      49.154  27.153  25.545  1.00  0.00     0.023 A 
ATOM     70  C   UNL A   1      49.361  27.394  24.172  1.00  0.00     0.012 A 
ATOM     71  C   UNL A   1      50.215  26.642  26.317  1.00  0.00     0.148 A 
ATOM     72  C   UNL A   1      50.587  27.103  23.571  1.00  0.00     0.002 A 
ATOM     73  C   UNL A   1      51.450  26.400  25.723  1.00  0.00     0.091 A 
ATOM     74  F   UNL A   1      49.998  26.406  27.619  1.00  0.00    -0.205 F 
ATOM     75  C   UNL A   1      51.633  26.615  24.348  1.00  0.00     0.022 A 
BRANCH  73  76
ATOM     76  S   UNL A   1      52.889  25.891  26.671  1.00  0.00     0.127 S 
ATOM     77  O   UNL A   1      53.070  24.513  26.224  1.00  0.00    -0.237 OA
ATOM     78  O   UNL A   1      53.911  26.830  26.205  1.00  0.00    -0.237 OA
ATOM     79  O   UNL A   1      52.512  26.065  28.068  1.00  0.00    -0.744 OA
ENDBRANCH  73  76
ENDBRANCH  45  69
BRANCH  57  80
ATOM     80  C   UNL A   1      46.543  32.800  28.721  1.00  0.00     0.023 A 
ATOM     81  C   UNL A   1      47.320  32.960  29.884  1.00  0.00     0.012 A 
ATOM     82  C   UNL A   1      46.399  33.877  27.827  1.00  0.00     0.148 A 
ATOM     83  C   UNL A   1      47.929  34.184  30.163  1.00  0.00     0.002 A 
ATOM     84  C   UNL A   1      47.044  35.080  28.089  1.00  0.00     0.091 A 
ATOM     85  F   UNL A   1      45.637  33.708  26.735  1.00  0.00    -0.205 F 
ATOM     86  C   UNL A   1      47.802  35.238  29.261  1.00  0.00     0.022 A 
BRANCH  84  87
ATOM     87  S   UNL A   1      47.014  36.453  26.931  1.00  0.00     0.127 S 
ATOM     88  O   UNL A   1      47.960  37.382  27.545  1.00  0.00    -0.237 OA
ATOM     89  O   UNL A   1      47.486  35.831  25.694  1.00  0.00    -0.237 OA
ATOM     90  O   UNL A   1      45.629  36.902  26.886  1.00  0.00    -0.744 OA
ENDBRANCH  84  87
ENDBRANCH  57  80
ENDBRANCH  31  32
ENDBRANCH  23  26
ENDBRANCH  21  22
ENDBRANCH  20  21
ENDBRANCH  19  20
ENDBRANCH  18  19
ENDBRANCH   3  18
TORSDOF 21
ENDMDL
