MODEL 1
REMARK VINA RESULT:     -10.4      0.000      0.000
REMARK SMILES CC[N@@H+](CCC(C)(C)O)C[C@@H](C)C(=O)NCCCCNC(=O)c1ccc(-c2c3nc(c(-c4cccc(S(=O)(=O)[O-])c4F)c4ccc([nH]4)c(-c4cccc(S(=O)(=O)[O-])c4F)c4nc(c(-c5cccc(S(=O)(=O)[O-])c5F)c5ccc2[nH]5)C=C4)C=C3)cc1
REMARK SMILES IDX 16 1 15 2 13 3 14 4 11 6 12 7 10 8 3 9 2 11 1 12 4 13 5 14
REMARK SMILES IDX 6 15 7 16 8 17 9 18 17 20 18 21 19 22 20 23 21 24 22 26
REMARK SMILES IDX 23 27 24 28 85 29 25 30 84 31 26 32 27 33 28 34 78 35 29 36
REMARK SMILES IDX 83 37 77 38 79 39 30 40 82 41 76 42 75 43 31 45 63 46 43 47
REMARK SMILES IDX 62 48 44 49 47 50 61 51 80 52 45 53 46 54 60 56 81 57 48 58
REMARK SMILES IDX 32 59 33 60 41 61 34 62 36 63 42 64 35 65 37 66 38 67 39 68
REMARK SMILES IDX 40 69 64 70 65 71 73 72 66 73 68 74 74 75 67 76 69 77 70 78
REMARK SMILES IDX 71 79 72 80 49 81 50 82 58 83 51 84 53 85 59 86 52 87 54 88
REMARK SMILES IDX 55 89 56 90 57 91
REMARK H PARENT 15 5 3 10 9 19 20 25 79 44 47 55
REMARK Flexibility Score: inf
ROOT
ATOM      1  C   UNL A   1      33.895  23.643  23.946  1.00  0.00     0.116 C 
ENDROOT
BRANCH   1   2
ATOM      2  N   UNL A   1      33.778  24.138  22.590  1.00  0.00    -0.356 N 
ATOM      3  C   UNL A   1      32.867  24.991  22.050  1.00  0.00     0.228 C 
ATOM      4  O   UNL A   1      32.955  25.269  20.849  1.00  0.00    -0.275 OA
ATOM      5  H   UNL A   1      34.462  23.805  21.965  1.00  0.00     0.163 HD
BRANCH   3   6
ATOM      6  C   UNL A   1      31.755  25.607  22.888  1.00  0.00     0.130 C 
ATOM      7  C   UNL A   1      30.633  24.603  23.144  1.00  0.00     0.024 C 
BRANCH   6   8
ATOM      8  C   UNL A   1      31.400  27.010  22.344  1.00  0.00     0.275 C 
BRANCH   8   9
ATOM      9  N   UNL A   1      31.373  28.174  23.235  1.00  0.00    -0.334 N 
ATOM     10  H   UNL A   1      31.839  28.858  22.639  1.00  0.00     0.348 HD
BRANCH   9  11
ATOM     11  C   UNL A   1      30.103  28.855  23.438  1.00  0.00     0.258 C 
ATOM     12  C   UNL A   1      29.728  29.779  22.277  1.00  0.00     0.071 C 
ENDBRANCH   9  11
BRANCH   9  13
ATOM     13  C   UNL A   1      32.243  28.087  24.416  1.00  0.00     0.265 C 
BRANCH  13  14
ATOM     14  C   UNL A   1      33.091  29.317  24.791  1.00  0.00     0.096 C 
BRANCH  14  15
ATOM     15  C   UNL A   1      33.011  29.767  26.275  1.00  0.00     0.064 C 
ATOM     16  C   UNL A   1      31.861  30.758  26.480  1.00  0.00     0.042 C 
ATOM     17  C   UNL A   1      32.803  28.550  27.184  1.00  0.00     0.042 C 
BRANCH  15  18
ATOM     18  O   UNL A   1      34.190  30.461  26.671  1.00  0.00    -0.390 OA
ATOM     19  H   UNL A   1      34.828  29.831  27.040  1.00  0.00     0.211 HD
ENDBRANCH  15  18
ENDBRANCH  14  15
ENDBRANCH  13  14
ENDBRANCH   9  13
ENDBRANCH   8   9
ENDBRANCH   6   8
ENDBRANCH   3   6
ENDBRANCH   1   2
BRANCH   1  20
ATOM     20  C   UNL A   1      35.348  23.560  24.407  1.00  0.00     0.023 C 
BRANCH  20  21
ATOM     21  C   UNL A   1      35.928  22.146  24.451  1.00  0.00     0.023 C 
BRANCH  21  22
ATOM     22  C   UNL A   1      36.580  21.755  25.772  1.00  0.00     0.116 C 
BRANCH  22  23
ATOM     23  N   UNL A   1      37.661  20.787  25.630  1.00  0.00    -0.352 N 
ATOM     24  C   UNL A   1      38.987  20.959  25.946  1.00  0.00     0.251 C 
ATOM     25  H   UNL A   1      37.412  19.907  25.265  1.00  0.00     0.163 HD
ATOM     26  O   UNL A   1      39.801  20.064  25.750  1.00  0.00    -0.269 OA
BRANCH  24  27
ATOM     27  C   UNL A   1      39.414  22.268  26.469  1.00  0.00     0.039 A 
ATOM     28  C   UNL A   1      40.417  22.300  27.438  1.00  0.00     0.014 A 
ATOM     29  C   UNL A   1      38.902  23.448  25.922  1.00  0.00     0.014 A 
ATOM     30  C   UNL A   1      40.961  23.527  27.816  1.00  0.00     0.010 A 
ATOM     31  C   UNL A   1      39.490  24.662  26.252  1.00  0.00     0.010 A 
ATOM     32  C   UNL A   1      40.525  24.711  27.198  1.00  0.00    -0.014 A 
BRANCH  32  33
ATOM     33  C   UNL A   1      41.150  26.013  27.524  1.00  0.00     0.031 A 
ATOM     34  C   UNL A   1      42.558  26.296  27.084  1.00  0.00     0.074 A 
ATOM     35  C   UNL A   1      40.483  26.898  28.289  1.00  0.00     0.049 A 
ATOM     36  N   UNL A   1      43.292  27.354  27.307  1.00  0.00    -0.248 NA
ATOM     37  C   UNL A   1      43.242  25.239  26.319  1.00  0.00     0.031 C 
ATOM     38  C   UNL A   1      39.147  26.690  28.853  1.00  0.00     0.029 A 
ATOM     39  N   UNL A   1      40.847  28.138  28.748  1.00  0.00    -0.354 N 
ATOM     40  C   UNL A   1      44.532  27.077  26.742  1.00  0.00     0.074 A 
ATOM     41  C   UNL A   1      44.463  25.739  26.199  1.00  0.00     0.031 C 
ATOM     42  C   UNL A   1      38.804  27.766  29.579  1.00  0.00     0.029 A 
ATOM     43  C   UNL A   1      39.897  28.733  29.546  1.00  0.00     0.049 A 
ATOM     44  H   UNL A   1      41.706  28.564  28.526  1.00  0.00     0.167 HD
ATOM     45  C   UNL A   1      45.617  27.881  26.651  1.00  0.00     0.034 A 
ATOM     46  C   UNL A   1      39.908  29.925  30.174  1.00  0.00     0.034 A 
ATOM     47  C   UNL A   1      45.656  29.231  27.142  1.00  0.00     0.049 A 
ATOM     48  C   UNL A   1      41.096  30.830  29.992  1.00  0.00     0.074 A 
ATOM     49  C   UNL A   1      46.671  30.163  27.018  1.00  0.00     0.029 A 
ATOM     50  N   UNL A   1      44.633  29.844  27.847  1.00  0.00    -0.354 N 
ATOM     51  N   UNL A   1      42.194  30.619  29.305  1.00  0.00    -0.248 NA
ATOM     52  C   UNL A   1      41.032  32.151  30.631  1.00  0.00     0.031 C 
ATOM     53  C   UNL A   1      46.260  31.340  27.652  1.00  0.00     0.029 A 
ATOM     54  C   UNL A   1      44.987  31.143  28.163  1.00  0.00     0.049 A 
ATOM     55  H   UNL A   1      43.778  29.418  28.085  1.00  0.00     0.167 HD
ATOM     56  C   UNL A   1      42.937  31.789  29.405  1.00  0.00     0.074 A 
ATOM     57  C   UNL A   1      42.153  32.715  30.197  1.00  0.00     0.031 C 
ATOM     58  C   UNL A   1      44.166  32.068  28.902  1.00  0.00     0.034 A 
BRANCH  45  59
ATOM     59  C   UNL A   1      46.819  27.342  25.925  1.00  0.00     0.023 A 
ATOM     60  C   UNL A   1      47.679  26.444  26.590  1.00  0.00     0.012 A 
ATOM     61  C   UNL A   1      47.081  27.687  24.585  1.00  0.00     0.148 A 
ATOM     62  C   UNL A   1      48.799  25.924  25.946  1.00  0.00     0.002 A 
ATOM     63  C   UNL A   1      48.179  27.132  23.937  1.00  0.00     0.091 A 
ATOM     64  F   UNL A   1      46.268  28.563  23.976  1.00  0.00    -0.205 F 
ATOM     65  C   UNL A   1      49.044  26.260  24.618  1.00  0.00     0.022 A 
BRANCH  63  66
ATOM     66  S   UNL A   1      48.538  27.450  22.205  1.00  0.00     0.127 S 
ATOM     67  O   UNL A   1      49.772  28.228  22.298  1.00  0.00    -0.237 OA
ATOM     68  O   UNL A   1      48.709  26.100  21.669  1.00  0.00    -0.237 OA
ATOM     69  O   UNL A   1      47.380  28.164  21.685  1.00  0.00    -0.744 OA
ENDBRANCH  63  66
ENDBRANCH  45  59
BRANCH  46  70
ATOM     70  C   UNL A   1      38.715  30.364  30.951  1.00  0.00     0.023 A 
ATOM     71  C   UNL A   1      38.662  30.101  32.333  1.00  0.00     0.012 A 
ATOM     72  C   UNL A   1      37.660  31.073  30.346  1.00  0.00     0.148 A 
ATOM     73  C   UNL A   1      37.568  30.514  33.096  1.00  0.00     0.002 A 
ATOM     74  C   UNL A   1      36.596  31.524  31.120  1.00  0.00     0.091 A 
ATOM     75  F   UNL A   1      37.720  31.300  29.026  1.00  0.00    -0.205 F 
ATOM     76  C   UNL A   1      36.541  31.234  32.492  1.00  0.00     0.022 A 
BRANCH  74  77
ATOM     77  S   UNL A   1      35.301  32.571  30.445  1.00  0.00     0.127 S 
ATOM     78  O   UNL A   1      36.052  33.760  30.052  1.00  0.00    -0.237 OA
ATOM     79  O   UNL A   1      34.801  31.763  29.332  1.00  0.00    -0.237 OA
ATOM     80  O   UNL A   1      34.344  32.749  31.530  1.00  0.00    -0.744 OA
ENDBRANCH  74  77
ENDBRANCH  46  70
BRANCH  58  81
ATOM     81  C   UNL A   1      44.735  33.433  29.173  1.00  0.00     0.023 A 
ATOM     82  C   UNL A   1      45.477  33.653  30.350  1.00  0.00     0.012 A 
ATOM     83  C   UNL A   1      44.613  34.468  28.225  1.00  0.00     0.148 A 
ATOM     84  C   UNL A   1      46.069  34.892  30.591  1.00  0.00     0.002 A 
ATOM     85  C   UNL A   1      45.241  35.686  28.453  1.00  0.00     0.091 A 
ATOM     86  F   UNL A   1      43.883  34.245  27.123  1.00  0.00    -0.205 F 
ATOM     87  C   UNL A   1      45.963  35.902  29.638  1.00  0.00     0.022 A 
BRANCH  85  88
ATOM     88  S   UNL A   1      45.230  37.009  27.237  1.00  0.00     0.127 S 
ATOM     89  O   UNL A   1      45.965  36.402  26.129  1.00  0.00    -0.237 OA
ATOM     90  O   UNL A   1      43.800  37.199  26.991  1.00  0.00    -0.237 OA
ATOM     91  O   UNL A   1      45.882  38.143  27.880  1.00  0.00    -0.744 OA
ENDBRANCH  85  88
ENDBRANCH  58  81
ENDBRANCH  32  33
ENDBRANCH  24  27
ENDBRANCH  22  23
ENDBRANCH  21  22
ENDBRANCH  20  21
ENDBRANCH   1  20
TORSDOF 21
ENDMDL
MODEL 2
REMARK VINA RESULT:     -10.1      3.022      8.979
REMARK SMILES CC[N@@H+](CCC(C)(C)O)C[C@@H](C)C(=O)NCCCCNC(=O)c1ccc(-c2c3nc(c(-c4cccc(S(=O)(=O)[O-])c4F)c4ccc([nH]4)c(-c4cccc(S(=O)(=O)[O-])c4F)c4nc(c(-c5cccc(S(=O)(=O)[O-])c5F)c5ccc2[nH]5)C=C4)C=C3)cc1
REMARK SMILES IDX 16 1 15 2 13 3 14 4 11 6 12 7 10 8 3 9 2 11 1 12 4 13 5 14
REMARK SMILES IDX 6 15 7 16 8 17 9 18 17 20 18 21 19 22 20 23 21 24 22 26
REMARK SMILES IDX 23 27 24 28 85 29 25 30 84 31 26 32 27 33 28 34 78 35 29 36
REMARK SMILES IDX 83 37 77 38 79 39 30 40 82 41 76 42 75 43 31 45 63 46 43 47
REMARK SMILES IDX 62 48 44 49 47 50 61 51 80 52 45 53 46 54 60 56 81 57 48 58
REMARK SMILES IDX 32 59 33 60 41 61 34 62 36 63 42 64 35 65 37 66 38 67 39 68
REMARK SMILES IDX 40 69 64 70 65 71 73 72 66 73 68 74 74 75 67 76 69 77 70 78
REMARK SMILES IDX 71 79 72 80 49 81 50 82 58 83 51 84 53 85 59 86 52 87 54 88
REMARK SMILES IDX 55 89 56 90 57 91
REMARK H PARENT 15 5 3 10 9 19 20 25 79 44 47 55
REMARK Flexibility Score: inf
ROOT
ATOM      1  C   UNL A   1      36.431  21.701  25.141  1.00  0.00     0.116 C 
ENDROOT
BRANCH   1   2
ATOM      2  N   UNL A   1      35.743  21.494  26.399  1.00  0.00    -0.356 N 
ATOM      3  C   UNL A   1      34.501  21.888  26.788  1.00  0.00     0.228 C 
ATOM      4  O   UNL A   1      34.120  21.605  27.929  1.00  0.00    -0.275 OA
ATOM      5  H   UNL A   1      36.253  20.991  27.075  1.00  0.00     0.163 HD
BRANCH   3   6
ATOM      6  C   UNL A   1      33.579  22.660  25.853  1.00  0.00     0.130 C 
ATOM      7  C   UNL A   1      33.290  24.059  26.392  1.00  0.00     0.024 C 
BRANCH   6   8
ATOM      8  C   UNL A   1      32.399  21.762  25.417  1.00  0.00     0.275 C 
BRANCH   8   9
ATOM      9  N   UNL A   1      32.093  21.565  23.996  1.00  0.00    -0.334 N 
ATOM     10  H   UNL A   1      31.121  21.263  24.069  1.00  0.00     0.348 HD
BRANCH   9  11
ATOM     11  C   UNL A   1      31.917  22.744  23.161  1.00  0.00     0.258 C 
ATOM     12  C   UNL A   1      33.088  22.980  22.205  1.00  0.00     0.071 C 
ENDBRANCH   9  11
BRANCH   9  13
ATOM     13  C   UNL A   1      32.766  20.427  23.356  1.00  0.00     0.265 C 
BRANCH  13  14
ATOM     14  C   UNL A   1      32.316  19.004  23.738  1.00  0.00     0.096 C 
BRANCH  14  15
ATOM     15  C   UNL A   1      33.404  18.099  24.377  1.00  0.00     0.064 C 
ATOM     16  C   UNL A   1      32.829  17.309  25.557  1.00  0.00     0.042 C 
ATOM     17  C   UNL A   1      33.959  17.124  23.332  1.00  0.00     0.042 C 
BRANCH  15  18
ATOM     18  O   UNL A   1      34.470  18.874  24.918  1.00  0.00    -0.390 OA
ATOM     19  H   UNL A   1      34.792  19.495  24.247  1.00  0.00     0.211 HD
ENDBRANCH  15  18
ENDBRANCH  14  15
ENDBRANCH  13  14
ENDBRANCH   9  13
ENDBRANCH   8   9
ENDBRANCH   6   8
ENDBRANCH   3   6
ENDBRANCH   1   2
BRANCH   1  20
ATOM     20  C   UNL A   1      37.704  20.865  25.035  1.00  0.00     0.023 C 
BRANCH  20  21
ATOM     21  C   UNL A   1      38.945  21.505  25.656  1.00  0.00     0.023 C 
BRANCH  21  22
ATOM     22  C   UNL A   1      39.632  20.674  26.733  1.00  0.00     0.116 C 
BRANCH  22  23
ATOM     23  N   UNL A   1      40.466  19.601  26.206  1.00  0.00    -0.352 N 
ATOM     24  C   UNL A   1      41.818  19.632  25.964  1.00  0.00     0.251 C 
ATOM     25  H   UNL A   1      40.006  18.755  25.998  1.00  0.00     0.163 HD
ATOM     26  O   UNL A   1      42.395  18.659  25.490  1.00  0.00    -0.269 OA
BRANCH  24  27
ATOM     27  C   UNL A   1      42.545  20.884  26.232  1.00  0.00     0.039 A 
ATOM     28  C   UNL A   1      42.773  21.759  25.169  1.00  0.00     0.014 A 
ATOM     29  C   UNL A   1      42.894  21.232  27.539  1.00  0.00     0.014 A 
ATOM     30  C   UNL A   1      43.297  23.025  25.429  1.00  0.00     0.010 A 
ATOM     31  C   UNL A   1      43.355  22.516  27.802  1.00  0.00     0.010 A 
ATOM     32  C   UNL A   1      43.557  23.422  26.751  1.00  0.00    -0.014 A 
BRANCH  32  33
ATOM     33  C   UNL A   1      44.032  24.792  27.053  1.00  0.00     0.031 A 
ATOM     34  C   UNL A   1      43.074  25.811  27.600  1.00  0.00     0.074 A 
ATOM     35  C   UNL A   1      45.298  25.138  26.751  1.00  0.00     0.049 A 
ATOM     36  N   UNL A   1      43.286  27.068  27.888  1.00  0.00    -0.248 NA
ATOM     37  C   UNL A   1      41.687  25.368  27.825  1.00  0.00     0.031 C 
ATOM     38  C   UNL A   1      46.289  24.257  26.128  1.00  0.00     0.029 A 
ATOM     39  N   UNL A   1      45.961  26.329  26.902  1.00  0.00    -0.354 N 
ATOM     40  C   UNL A   1      42.056  27.574  28.293  1.00  0.00     0.074 A 
ATOM     41  C   UNL A   1      41.096  26.499  28.180  1.00  0.00     0.031 C 
ATOM     42  C   UNL A   1      47.433  24.939  25.952  1.00  0.00     0.029 A 
ATOM     43  C   UNL A   1      47.254  26.305  26.435  1.00  0.00     0.049 A 
ATOM     44  H   UNL A   1      45.549  27.126  27.307  1.00  0.00     0.167 HD
ATOM     45  C   UNL A   1      41.763  28.812  28.754  1.00  0.00     0.034 A 
ATOM     46  C   UNL A   1      48.189  27.275  26.406  1.00  0.00     0.034 A 
ATOM     47  C   UNL A   1      42.736  29.856  28.919  1.00  0.00     0.049 A 
ATOM     48  C   UNL A   1      47.859  28.619  26.996  1.00  0.00     0.074 A 
ATOM     49  C   UNL A   1      42.564  31.115  29.465  1.00  0.00     0.029 A 
ATOM     50  N   UNL A   1      44.066  29.761  28.543  1.00  0.00    -0.354 N 
ATOM     51  N   UNL A   1      46.735  29.027  27.537  1.00  0.00    -0.248 NA
ATOM     52  C   UNL A   1      48.932  29.621  27.013  1.00  0.00     0.031 C 
ATOM     53  C   UNL A   1      43.793  31.782  29.416  1.00  0.00     0.029 A 
ATOM     54  C   UNL A   1      44.730  30.935  28.846  1.00  0.00     0.049 A 
ATOM     55  H   UNL A   1      44.479  28.972  28.122  1.00  0.00     0.167 HD
ATOM     56  C   UNL A   1      46.975  30.320  27.985  1.00  0.00     0.074 A 
ATOM     57  C   UNL A   1      48.358  30.619  27.674  1.00  0.00     0.031 C 
ATOM     58  C   UNL A   1      46.123  31.190  28.583  1.00  0.00     0.034 A 
BRANCH  45  59
ATOM     59  C   UNL A   1      40.345  29.071  29.186  1.00  0.00     0.023 A 
ATOM     60  C   UNL A   1      39.381  29.407  28.214  1.00  0.00     0.012 A 
ATOM     61  C   UNL A   1      39.956  28.950  30.534  1.00  0.00     0.148 A 
ATOM     62  C   UNL A   1      38.059  29.652  28.580  1.00  0.00     0.002 A 
ATOM     63  C   UNL A   1      38.626  29.157  30.885  1.00  0.00     0.091 A 
ATOM     64  F   UNL A   1      40.892  28.657  31.449  1.00  0.00    -0.205 F 
ATOM     65  C   UNL A   1      37.680  29.517  29.912  1.00  0.00     0.022 A 
BRANCH  63  66
ATOM     66  S   UNL A   1      38.029  28.939  32.565  1.00  0.00     0.127 S 
ATOM     67  O   UNL A   1      36.642  29.388  32.445  1.00  0.00    -0.237 OA
ATOM     68  O   UNL A   1      38.185  27.498  32.767  1.00  0.00    -0.237 OA
ATOM     69  O   UNL A   1      38.889  29.762  33.403  1.00  0.00    -0.744 OA
ENDBRANCH  63  66
ENDBRANCH  45  59
BRANCH  46  70
ATOM     70  C   UNL A   1      49.551  26.975  25.884  1.00  0.00     0.023 A 
ATOM     71  C   UNL A   1      50.485  26.341  26.726  1.00  0.00     0.012 A 
ATOM     72  C   UNL A   1      49.915  27.270  24.556  1.00  0.00     0.148 A 
ATOM     73  C   UNL A   1      51.764  26.028  26.265  1.00  0.00     0.002 A 
ATOM     74  C   UNL A   1      51.176  26.912  24.087  1.00  0.00     0.091 A 
ATOM     75  F   UNL A   1      49.020  27.888  23.773  1.00  0.00    -0.205 F 
ATOM     76  C   UNL A   1      52.106  26.303  24.944  1.00  0.00     0.022 A 
BRANCH  74  77
ATOM     77  S   UNL A   1      51.646  27.110  22.365  1.00  0.00     0.127 S 
ATOM     78  O   UNL A   1      51.878  28.550  22.282  1.00  0.00    -0.237 OA
ATOM     79  O   UNL A   1      52.852  26.286  22.278  1.00  0.00    -0.237 OA
ATOM     80  O   UNL A   1      50.519  26.599  21.596  1.00  0.00    -0.744 OA
ENDBRANCH  74  77
ENDBRANCH  46  70
BRANCH  58  81
ATOM     81  C   UNL A   1      46.661  32.542  28.961  1.00  0.00     0.023 A 
ATOM     82  C   UNL A   1      47.298  32.711  30.205  1.00  0.00     0.012 A 
ATOM     83  C   UNL A   1      46.615  33.618  28.052  1.00  0.00     0.148 A 
ATOM     84  C   UNL A   1      47.862  33.940  30.550  1.00  0.00     0.002 A 
ATOM     85  C   UNL A   1      47.215  34.826  28.386  1.00  0.00     0.091 A 
ATOM     86  F   UNL A   1      45.983  33.443  26.883  1.00  0.00    -0.205 F 
ATOM     87  C   UNL A   1      47.833  34.991  29.637  1.00  0.00     0.022 A 
BRANCH  85  88
ATOM     88  S   UNL A   1      47.301  36.200  27.233  1.00  0.00     0.127 S 
ATOM     89  O   UNL A   1      47.968  35.587  26.086  1.00  0.00    -0.237 OA
ATOM     90  O   UNL A   1      45.890  36.521  27.019  1.00  0.00    -0.237 OA
ATOM     91  O   UNL A   1      48.055  37.244  27.916  1.00  0.00    -0.744 OA
ENDBRANCH  85  88
ENDBRANCH  58  81
ENDBRANCH  32  33
ENDBRANCH  24  27
ENDBRANCH  22  23
ENDBRANCH  21  22
ENDBRANCH  20  21
ENDBRANCH   1  20
TORSDOF 21
ENDMDL
MODEL 3
REMARK VINA RESULT:      -9.8      2.712      3.310
REMARK SMILES CC[N@@H+](CCC(C)(C)O)C[C@@H](C)C(=O)NCCCCNC(=O)c1ccc(-c2c3nc(c(-c4cccc(S(=O)(=O)[O-])c4F)c4ccc([nH]4)c(-c4cccc(S(=O)(=O)[O-])c4F)c4nc(c(-c5cccc(S(=O)(=O)[O-])c5F)c5ccc2[nH]5)C=C4)C=C3)cc1
REMARK SMILES IDX 16 1 15 2 13 3 14 4 11 6 12 7 10 8 3 9 2 11 1 12 4 13 5 14
REMARK SMILES IDX 6 15 7 16 8 17 9 18 17 20 18 21 19 22 20 23 21 24 22 26
REMARK SMILES IDX 23 27 24 28 85 29 25 30 84 31 26 32 27 33 28 34 78 35 29 36
REMARK SMILES IDX 83 37 77 38 79 39 30 40 82 41 76 42 75 43 31 45 63 46 43 47
REMARK SMILES IDX 62 48 44 49 47 50 61 51 80 52 45 53 46 54 60 56 81 57 48 58
REMARK SMILES IDX 32 59 33 60 41 61 34 62 36 63 42 64 35 65 37 66 38 67 39 68
REMARK SMILES IDX 40 69 64 70 65 71 73 72 66 73 68 74 74 75 67 76 69 77 70 78
REMARK SMILES IDX 71 79 72 80 49 81 50 82 58 83 51 84 53 85 59 86 52 87 54 88
REMARK SMILES IDX 55 89 56 90 57 91
REMARK H PARENT 15 5 3 10 9 19 20 25 79 44 47 55
REMARK Flexibility Score: inf
ROOT
ATOM      1  C   UNL A   1      33.301  25.243  24.187  1.00  0.00     0.116 C 
ENDROOT
BRANCH   1   2
ATOM      2  N   UNL A   1      33.281  24.909  22.778  1.00  0.00    -0.356 N 
ATOM      3  C   UNL A   1      33.115  25.713  21.694  1.00  0.00     0.228 C 
ATOM      4  O   UNL A   1      33.123  25.200  20.570  1.00  0.00    -0.275 OA
ATOM      5  H   UNL A   1      33.407  23.953  22.574  1.00  0.00     0.163 HD
BRANCH   3   6
ATOM      6  C   UNL A   1      32.926  27.217  21.837  1.00  0.00     0.130 C 
ATOM      7  C   UNL A   1      34.241  27.910  22.187  1.00  0.00     0.024 C 
BRANCH   6   8
ATOM      8  C   UNL A   1      31.670  27.512  22.689  1.00  0.00     0.275 C 
BRANCH   8   9
ATOM      9  N   UNL A   1      31.311  28.889  23.042  1.00  0.00    -0.334 N 
ATOM     10  H   UNL A   1      32.021  29.394  22.511  1.00  0.00     0.348 HD
BRANCH   9  11
ATOM     11  C   UNL A   1      30.112  29.461  22.448  1.00  0.00     0.258 C 
ATOM     12  C   UNL A   1      29.256  30.235  23.453  1.00  0.00     0.071 C 
ENDBRANCH   9  11
BRANCH   9  13
ATOM     13  C   UNL A   1      31.577  29.275  24.435  1.00  0.00     0.265 C 
BRANCH  13  14
ATOM     14  C   UNL A   1      33.036  29.266  24.930  1.00  0.00     0.096 C 
BRANCH  14  15
ATOM     15  C   UNL A   1      33.237  29.536  26.446  1.00  0.00     0.064 C 
ATOM     16  C   UNL A   1      31.898  29.841  27.125  1.00  0.00     0.042 C 
ATOM     17  C   UNL A   1      33.883  28.319  27.117  1.00  0.00     0.042 C 
BRANCH  15  18
ATOM     18  O   UNL A   1      34.048  30.687  26.665  1.00  0.00    -0.390 OA
ATOM     19  H   UNL A   1      33.764  31.400  26.071  1.00  0.00     0.211 HD
ENDBRANCH  15  18
ENDBRANCH  14  15
ENDBRANCH  13  14
ENDBRANCH   9  13
ENDBRANCH   8   9
ENDBRANCH   6   8
ENDBRANCH   3   6
ENDBRANCH   1   2
BRANCH   1  20
ATOM     20  C   UNL A   1      34.718  25.277  24.753  1.00  0.00     0.023 C 
BRANCH  20  21
ATOM     21  C   UNL A   1      35.162  23.991  25.451  1.00  0.00     0.023 C 
BRANCH  21  22
ATOM     22  C   UNL A   1      36.467  24.095  26.230  1.00  0.00     0.116 C 
BRANCH  22  23
ATOM     23  N   UNL A   1      37.351  22.950  26.053  1.00  0.00    -0.352 N 
ATOM     24  C   UNL A   1      38.695  22.878  26.324  1.00  0.00     0.251 C 
ATOM     25  H   UNL A   1      36.935  22.131  25.697  1.00  0.00     0.163 HD
ATOM     26  O   UNL A   1      39.329  21.852  26.101  1.00  0.00    -0.269 OA
BRANCH  24  27
ATOM     27  C   UNL A   1      39.369  24.086  26.831  1.00  0.00     0.039 A 
ATOM     28  C   UNL A   1      39.939  24.965  25.909  1.00  0.00     0.014 A 
ATOM     29  C   UNL A   1      39.334  24.394  28.193  1.00  0.00     0.014 A 
ATOM     30  C   UNL A   1      40.421  26.197  26.349  1.00  0.00     0.010 A 
ATOM     31  C   UNL A   1      39.756  25.647  28.619  1.00  0.00     0.010 A 
ATOM     32  C   UNL A   1      40.299  26.558  27.701  1.00  0.00    -0.014 A 
BRANCH  32  33
ATOM     33  C   UNL A   1      40.727  27.896  28.172  1.00  0.00     0.031 A 
ATOM     34  C   UNL A   1      42.187  28.244  28.208  1.00  0.00     0.074 A 
ATOM     35  C   UNL A   1      39.808  28.757  28.649  1.00  0.00     0.049 A 
ATOM     36  N   UNL A   1      42.761  29.342  28.625  1.00  0.00    -0.248 NA
ATOM     37  C   UNL A   1      43.129  27.212  27.742  1.00  0.00     0.031 C 
ATOM     38  C   UNL A   1      38.371  28.489  28.751  1.00  0.00     0.029 A 
ATOM     39  N   UNL A   1      39.947  30.021  29.162  1.00  0.00    -0.354 N 
ATOM     40  C   UNL A   1      44.128  29.120  28.505  1.00  0.00     0.074 A 
ATOM     41  C   UNL A   1      44.299  27.772  28.011  1.00  0.00     0.031 C 
ATOM     42  C   UNL A   1      37.762  29.558  29.291  1.00  0.00     0.029 A 
ATOM     43  C   UNL A   1      38.763  30.578  29.587  1.00  0.00     0.049 A 
ATOM     44  H   UNL A   1      40.812  30.487  29.219  1.00  0.00     0.167 HD
ATOM     45  C   UNL A   1      45.147  29.977  28.748  1.00  0.00     0.034 A 
ATOM     46  C   UNL A   1      38.516  31.779  30.145  1.00  0.00     0.034 A 
ATOM     47  C   UNL A   1      44.964  31.335  29.182  1.00  0.00     0.049 A 
ATOM     48  C   UNL A   1      39.657  32.741  30.333  1.00  0.00     0.074 A 
ATOM     49  C   UNL A   1      45.922  32.315  29.368  1.00  0.00     0.029 A 
ATOM     50  N   UNL A   1      43.741  31.905  29.494  1.00  0.00    -0.354 N 
ATOM     51  N   UNL A   1      40.928  32.576  30.050  1.00  0.00    -0.248 NA
ATOM     52  C   UNL A   1      39.329  34.067  30.874  1.00  0.00     0.031 C 
ATOM     53  C   UNL A   1      45.275  33.480  29.795  1.00  0.00     0.029 A 
ATOM     54  C   UNL A   1      43.914  33.225  29.868  1.00  0.00     0.049 A 
ATOM     55  H   UNL A   1      42.874  31.439  29.453  1.00  0.00     0.167 HD
ATOM     56  C   UNL A   1      41.545  33.784  30.350  1.00  0.00     0.074 A 
ATOM     57  C   UNL A   1      40.505  34.681  30.813  1.00  0.00     0.031 C 
ATOM     58  C   UNL A   1      42.857  34.118  30.268  1.00  0.00     0.034 A 
BRANCH  45  59
ATOM     59  C   UNL A   1      46.543  29.489  28.472  1.00  0.00     0.023 A 
ATOM     60  C   UNL A   1      47.112  29.717  27.202  1.00  0.00     0.012 A 
ATOM     61  C   UNL A   1      47.303  28.842  29.465  1.00  0.00     0.148 A 
ATOM     62  C   UNL A   1      48.403  29.280  26.913  1.00  0.00     0.002 A 
ATOM     63  C   UNL A   1      48.605  28.445  29.181  1.00  0.00     0.091 A 
ATOM     64  F   UNL A   1      46.736  28.609  30.657  1.00  0.00    -0.205 F 
ATOM     65  C   UNL A   1      49.153  28.654  27.904  1.00  0.00     0.022 A 
BRANCH  63  66
ATOM     66  S   UNL A   1      49.673  27.692  30.414  1.00  0.00     0.127 S 
ATOM     67  O   UNL A   1      50.908  27.498  29.656  1.00  0.00    -0.237 OA
ATOM     68  O   UNL A   1      49.746  28.733  31.440  1.00  0.00    -0.237 OA
ATOM     69  O   UNL A   1      48.995  26.475  30.837  1.00  0.00    -0.744 OA
ENDBRANCH  63  66
ENDBRANCH  45  59
BRANCH  46  70
ATOM     70  C   UNL A   1      37.116  32.168  30.476  1.00  0.00     0.023 A 
ATOM     71  C   UNL A   1      36.628  31.939  31.777  1.00  0.00     0.012 A 
ATOM     72  C   UNL A   1      36.283  32.799  29.532  1.00  0.00     0.148 A 
ATOM     73  C   UNL A   1      35.329  32.308  32.127  1.00  0.00     0.002 A 
ATOM     74  C   UNL A   1      35.005  33.208  29.901  1.00  0.00     0.091 A 
ATOM     75  F   UNL A   1      36.757  32.994  28.293  1.00  0.00    -0.205 F 
ATOM     76  C   UNL A   1      34.521  32.951  31.193  1.00  0.00     0.022 A 
BRANCH  74  77
ATOM     77  S   UNL A   1      33.952  34.160  28.799  1.00  0.00     0.127 S 
ATOM     78  O   UNL A   1      34.861  35.212  28.353  1.00  0.00    -0.237 OA
ATOM     79  O   UNL A   1      33.604  33.172  27.776  1.00  0.00    -0.237 OA
ATOM     80  O   UNL A   1      32.826  34.591  29.618  1.00  0.00    -0.744 OA
ENDBRANCH  74  77
ENDBRANCH  46  70
BRANCH  58  81
ATOM     81  C   UNL A   1      43.247  35.514  30.667  1.00  0.00     0.023 A 
ATOM     82  C   UNL A   1      43.634  35.772  31.996  1.00  0.00     0.012 A 
ATOM     83  C   UNL A   1      43.314  36.547  29.711  1.00  0.00     0.148 A 
ATOM     84  C   UNL A   1      44.062  37.045  32.373  1.00  0.00     0.002 A 
ATOM     85  C   UNL A   1      43.781  37.801  30.085  1.00  0.00     0.091 A 
ATOM     86  F   UNL A   1      42.918  36.286  28.457  1.00  0.00    -0.205 F 
ATOM     87  C   UNL A   1      44.148  38.054  31.417  1.00  0.00     0.022 A 
BRANCH  85  88
ATOM     88  S   UNL A   1      44.008  39.129  28.897  1.00  0.00     0.127 S 
ATOM     89  O   UNL A   1      42.644  39.335  28.415  1.00  0.00    -0.237 OA
ATOM     90  O   UNL A   1      44.531  40.212  29.731  1.00  0.00    -0.237 OA
ATOM     91  O   UNL A   1      44.955  38.622  27.913  1.00  0.00    -0.744 OA
ENDBRANCH  85  88
ENDBRANCH  58  81
ENDBRANCH  32  33
ENDBRANCH  24  27
ENDBRANCH  22  23
ENDBRANCH  21  22
ENDBRANCH  20  21
ENDBRANCH   1  20
TORSDOF 21
ENDMDL
