MODEL 1
REMARK VINA RESULT:     -12.1      0.000      0.000
REMARK SMILES CCCc1cc(OC(F)(F)F)cc2c1O[C@@H](C(F)(F)F)C(C(=O)NCCCCNC(=O)c1ccc(-c3c4nc(c(-c5cccc(S(=O)(=O)[O-])c5F)c5ccc([nH]5)c(-c5cccc(S(=O)(=O)[O-])c5F)c5nc(c(-c6cccc(S(=O)(=O)[O-])c6F)c6ccc3[nH]6)C=C5)C=C4)cc1)=C2
REMARK SMILES IDX 27 1 26 2 25 3 24 4 22 5 23 6 21 8 4 9 5 10 14 11 6 12 13 13
REMARK SMILES IDX 15 14 12 15 95 16 16 17 3 18 2 19 1 20 7 21 8 22 9 23 10 24
REMARK SMILES IDX 11 25 17 26 18 27 19 28 20 29 28 30 29 31 30 32 31 34 32 35
REMARK SMILES IDX 33 36 94 37 34 38 93 39 35 40 36 41 37 42 87 43 38 44 92 45
REMARK SMILES IDX 86 46 88 47 39 48 91 49 85 50 84 51 40 53 72 54 52 55 71 56
REMARK SMILES IDX 53 57 56 58 70 59 89 60 54 61 55 62 69 64 90 65 57 66 41 67
REMARK SMILES IDX 42 68 50 69 43 70 45 71 51 72 44 73 46 74 47 75 48 76 49 77
REMARK SMILES IDX 73 78 74 79 82 80 75 81 77 82 83 83 76 84 78 85 79 86 80 87
REMARK SMILES IDX 81 88 58 89 59 90 67 91 60 92 62 93 68 94 61 95 63 96 64 97
REMARK SMILES IDX 65 98 66 99
REMARK H PARENT 24 7 29 33 88 52 56 63
REMARK Flexibility Score: inf
ROOT
ATOM      1  C   UNL A   1      35.700  21.747  24.539  1.00  0.00     0.023 C 
ENDROOT
BRANCH   1   2
ATOM      2  C   UNL A   1      36.066  22.613  23.331  1.00  0.00     0.023 C 
BRANCH   2   3
ATOM      3  C   UNL A   1      34.970  23.597  22.909  1.00  0.00     0.116 C 
BRANCH   3   4
ATOM      4  N   UNL A   1      33.695  22.910  22.834  1.00  0.00    -0.352 N 
ATOM      5  C   UNL A   1      32.442  23.279  23.202  1.00  0.00     0.251 C 
ATOM      6  O   UNL A   1      31.564  22.420  23.207  1.00  0.00    -0.270 OA
ATOM      7  H   UNL A   1      33.749  22.008  22.444  1.00  0.00     0.163 HD
BRANCH   5   8
ATOM      8  C   UNL A   1      32.072  24.680  23.537  1.00  0.00     0.067 C 
ATOM      9  C   UNL A   1      31.203  28.598  24.814  1.00  0.00    -0.002 A 
ATOM     10  C   UNL A   1      30.594  29.483  23.896  1.00  0.00     0.054 A 
ATOM     11  C   UNL A   1      31.435  27.277  24.405  1.00  0.00     0.131 A 
ATOM     12  C   UNL A   1      30.272  29.078  22.598  1.00  0.00     0.130 A 
ATOM     13  C   UNL A   1      31.177  26.883  23.092  1.00  0.00     0.021 A 
ATOM     14  O   UNL A   1      31.828  26.363  25.337  1.00  0.00    -0.475 OA
ATOM     15  C   UNL A   1      30.595  27.783  22.195  1.00  0.00     0.058 A 
ATOM     16  C   UNL A   1      31.469  25.518  22.679  1.00  0.00     0.025 C 
ATOM     17  C   UNL A   1      32.572  25.199  24.878  1.00  0.00     0.314 C 
BRANCH   9  18
ATOM     18  C   UNL A   1      31.521  29.137  26.196  1.00  0.00     0.039 C 
BRANCH  18  19
ATOM     19  C   UNL A   1      32.902  29.747  26.479  1.00  0.00     0.001 C 
ATOM     20  C   UNL A   1      34.074  28.834  26.142  1.00  0.00     0.004 C 
ENDBRANCH  18  19
ENDBRANCH   9  18
BRANCH  12  21
ATOM     21  O   UNL A   1      29.654  29.826  21.638  1.00  0.00    -0.406 OA
BRANCH  21  22
ATOM     22  C   UNL A   1      28.298  30.178  21.839  1.00  0.00     0.573 C 
ATOM     23  F   UNL A   1      28.171  31.147  22.770  1.00  0.00    -0.132 F 
ATOM     24  F   UNL A   1      27.729  30.587  20.684  1.00  0.00    -0.132 F 
ATOM     25  F   UNL A   1      27.626  29.089  22.274  1.00  0.00    -0.132 F 
ENDBRANCH  21  22
ENDBRANCH  12  21
BRANCH  17  26
ATOM     26  C   UNL A   1      32.603  24.201  26.060  1.00  0.00     0.429 C 
ATOM     27  F   UNL A   1      33.812  23.623  26.232  1.00  0.00    -0.167 F 
ATOM     28  F   UNL A   1      32.346  24.842  27.236  1.00  0.00    -0.167 F 
ATOM     29  F   UNL A   1      31.671  23.227  25.943  1.00  0.00    -0.167 F 
ENDBRANCH  17  26
ENDBRANCH   5   8
ENDBRANCH   3   4
ENDBRANCH   2   3
ENDBRANCH   1   2
BRANCH   1  30
ATOM     30  C   UNL A   1      36.651  21.875  25.720  1.00  0.00     0.116 C 
BRANCH  30  31
ATOM     31  N   UNL A   1      37.683  20.849  25.735  1.00  0.00    -0.352 N 
ATOM     32  C   UNL A   1      39.012  20.987  26.064  1.00  0.00     0.251 C 
ATOM     33  H   UNL A   1      37.395  19.943  25.479  1.00  0.00     0.163 HD
ATOM     34  O   UNL A   1      39.786  20.053  25.928  1.00  0.00    -0.269 OA
BRANCH  32  35
ATOM     35  C   UNL A   1      39.488  22.301  26.543  1.00  0.00     0.039 A 
ATOM     36  C   UNL A   1      40.512  22.338  27.491  1.00  0.00     0.014 A 
ATOM     37  C   UNL A   1      38.963  23.481  26.013  1.00  0.00     0.014 A 
ATOM     38  C   UNL A   1      41.056  23.568  27.864  1.00  0.00     0.010 A 
ATOM     39  C   UNL A   1      39.552  24.699  26.334  1.00  0.00     0.010 A 
ATOM     40  C   UNL A   1      40.601  24.754  27.264  1.00  0.00    -0.014 A 
BRANCH  40  41
ATOM     41  C   UNL A   1      41.217  26.064  27.585  1.00  0.00     0.031 A 
ATOM     42  C   UNL A   1      42.636  26.347  27.179  1.00  0.00     0.074 A 
ATOM     43  C   UNL A   1      40.530  26.955  28.325  1.00  0.00     0.049 A 
ATOM     44  N   UNL A   1      43.364  27.405  27.418  1.00  0.00    -0.248 NA
ATOM     45  C   UNL A   1      43.340  25.290  26.433  1.00  0.00     0.031 C 
ATOM     46  C   UNL A   1      39.178  26.755  28.853  1.00  0.00     0.029 A 
ATOM     47  N   UNL A   1      40.885  28.199  28.785  1.00  0.00    -0.354 N 
ATOM     48  C   UNL A   1      44.618  27.131  26.888  1.00  0.00     0.074 A 
ATOM     49  C   UNL A   1      44.564  25.791  26.345  1.00  0.00     0.031 C 
ATOM     50  C   UNL A   1      38.818  27.837  29.562  1.00  0.00     0.029 A 
ATOM     51  C   UNL A   1      39.918  28.797  29.559  1.00  0.00     0.049 A 
ATOM     52  H   UNL A   1      41.750  28.621  28.582  1.00  0.00     0.167 HD
ATOM     53  C   UNL A   1      45.708  27.933  26.828  1.00  0.00     0.034 A 
ATOM     54  C   UNL A   1      39.919  29.985  30.195  1.00  0.00     0.034 A 
ATOM     55  C   UNL A   1      45.738  29.281  27.322  1.00  0.00     0.049 A 
ATOM     56  C   UNL A   1      41.120  30.882  30.060  1.00  0.00     0.074 A 
ATOM     57  C   UNL A   1      46.758  30.212  27.222  1.00  0.00     0.029 A 
ATOM     58  N   UNL A   1      44.702  29.895  28.010  1.00  0.00    -0.354 N 
ATOM     59  N   UNL A   1      42.236  30.671  29.405  1.00  0.00    -0.248 NA
ATOM     60  C   UNL A   1      41.048  32.194  30.718  1.00  0.00     0.031 C 
ATOM     61  C   UNL A   1      46.343  31.384  27.863  1.00  0.00     0.029 A 
ATOM     62  C   UNL A   1      45.058  31.189  28.347  1.00  0.00     0.049 A 
ATOM     63  H   UNL A   1      43.841  29.472  28.228  1.00  0.00     0.167 HD
ATOM     64  C   UNL A   1      42.984  31.834  29.542  1.00  0.00     0.074 A 
ATOM     65  C   UNL A   1      42.185  32.754  30.325  1.00  0.00     0.031 C 
ATOM     66  C   UNL A   1      44.227  32.111  29.076  1.00  0.00     0.034 A 
BRANCH  53  67
ATOM     67  C   UNL A   1      46.935  27.391  26.145  1.00  0.00     0.023 A 
ATOM     68  C   UNL A   1      47.117  27.620  24.765  1.00  0.00     0.012 A 
ATOM     69  C   UNL A   1      47.929  26.703  26.866  1.00  0.00     0.148 A 
ATOM     70  C   UNL A   1      48.248  27.143  24.107  1.00  0.00     0.002 A 
ATOM     71  C   UNL A   1      49.075  26.268  26.212  1.00  0.00     0.091 A 
ATOM     72  F   UNL A   1      47.729  26.472  28.172  1.00  0.00    -0.205 F 
ATOM     73  C   UNL A   1      49.231  26.476  24.831  1.00  0.00     0.022 A 
BRANCH  71  74
ATOM     74  S   UNL A   1      50.434  25.465  27.073  1.00  0.00     0.127 S 
ATOM     75  O   UNL A   1      51.382  25.241  25.982  1.00  0.00    -0.237 OA
ATOM     76  O   UNL A   1      50.841  26.492  28.032  1.00  0.00    -0.237 OA
ATOM     77  O   UNL A   1      49.872  24.265  27.674  1.00  0.00    -0.744 OA
ENDBRANCH  71  74
ENDBRANCH  53  67
BRANCH  54  78
ATOM     78  C   UNL A   1      38.709  30.429  30.942  1.00  0.00     0.023 A 
ATOM     79  C   UNL A   1      38.622  30.170  32.324  1.00  0.00     0.012 A 
ATOM     80  C   UNL A   1      37.668  31.133  30.308  1.00  0.00     0.148 A 
ATOM     81  C   UNL A   1      37.506  30.578  33.056  1.00  0.00     0.002 A 
ATOM     82  C   UNL A   1      36.583  31.583  31.053  1.00  0.00     0.091 A 
ATOM     83  F   UNL A   1      37.764  31.358  28.990  1.00  0.00    -0.205 F 
ATOM     84  C   UNL A   1      36.492  31.293  32.423  1.00  0.00     0.022 A 
BRANCH  82  85
ATOM     85  S   UNL A   1      35.300  32.624  30.349  1.00  0.00     0.127 S 
ATOM     86  O   UNL A   1      34.832  31.808  29.232  1.00  0.00    -0.237 OA
ATOM     87  O   UNL A   1      34.358  32.743  31.463  1.00  0.00    -0.237 OA
ATOM     88  O   UNL A   1      35.962  33.871  29.992  1.00  0.00    -0.744 OA
ENDBRANCH  82  85
ENDBRANCH  54  78
BRANCH  66  89
ATOM     89  C   UNL A   1      44.796  33.473  29.371  1.00  0.00     0.023 A 
ATOM     90  C   UNL A   1      45.487  33.694  30.579  1.00  0.00     0.012 A 
ATOM     91  C   UNL A   1      44.718  34.509  28.418  1.00  0.00     0.148 A 
ATOM     92  C   UNL A   1      46.069  34.933  30.846  1.00  0.00     0.002 A 
ATOM     93  C   UNL A   1      45.339  35.726  28.672  1.00  0.00     0.091 A 
ATOM     94  F   UNL A   1      44.038  34.285  27.285  1.00  0.00    -0.205 F 
ATOM     95  C   UNL A   1      46.005  35.943  29.888  1.00  0.00     0.022 A 
BRANCH  93  96
ATOM     96  S   UNL A   1      45.389  37.047  27.457  1.00  0.00     0.127 S 
ATOM     97  O   UNL A   1      43.968  37.338  27.274  1.00  0.00    -0.237 OA
ATOM     98  O   UNL A   1      46.139  38.089  28.158  1.00  0.00    -0.237 OA
ATOM     99  O   UNL A   1      46.071  36.495  26.294  1.00  0.00    -0.744 OA
ENDBRANCH  93  96
ENDBRANCH  66  89
ENDBRANCH  40  41
ENDBRANCH  32  35
ENDBRANCH  30  31
ENDBRANCH   1  30
TORSDOF 19
ENDMDL
MODEL 2
REMARK VINA RESULT:     -11.9      2.424      7.905
REMARK SMILES CCCc1cc(OC(F)(F)F)cc2c1O[C@@H](C(F)(F)F)C(C(=O)NCCCCNC(=O)c1ccc(-c3c4nc(c(-c5cccc(S(=O)(=O)[O-])c5F)c5ccc([nH]5)c(-c5cccc(S(=O)(=O)[O-])c5F)c5nc(c(-c6cccc(S(=O)(=O)[O-])c6F)c6ccc3[nH]6)C=C5)C=C4)cc1)=C2
REMARK SMILES IDX 27 1 26 2 25 3 24 4 22 5 23 6 21 8 4 9 5 10 14 11 6 12 13 13
REMARK SMILES IDX 15 14 12 15 95 16 16 17 3 18 2 19 1 20 7 21 8 22 9 23 10 24
REMARK SMILES IDX 11 25 17 26 18 27 19 28 20 29 28 30 29 31 30 32 31 34 32 35
REMARK SMILES IDX 33 36 94 37 34 38 93 39 35 40 36 41 37 42 87 43 38 44 92 45
REMARK SMILES IDX 86 46 88 47 39 48 91 49 85 50 84 51 40 53 72 54 52 55 71 56
REMARK SMILES IDX 53 57 56 58 70 59 89 60 54 61 55 62 69 64 90 65 57 66 41 67
REMARK SMILES IDX 42 68 50 69 43 70 45 71 51 72 44 73 46 74 47 75 48 76 49 77
REMARK SMILES IDX 73 78 74 79 82 80 75 81 77 82 83 83 76 84 78 85 79 86 80 87
REMARK SMILES IDX 81 88 58 89 59 90 67 91 60 92 62 93 68 94 61 95 63 96 64 97
REMARK SMILES IDX 65 98 66 99
REMARK H PARENT 24 7 29 33 88 52 56 63
REMARK Flexibility Score: inf
ROOT
ATOM      1  C   UNL A   1      37.730  20.416  24.857  1.00  0.00     0.023 C 
ENDROOT
BRANCH   1   2
ATOM      2  C   UNL A   1      37.087  21.680  24.281  1.00  0.00     0.023 C 
BRANCH   2   3
ATOM      3  C   UNL A   1      36.554  22.652  25.339  1.00  0.00     0.116 C 
BRANCH   3   4
ATOM      4  N   UNL A   1      35.407  22.069  26.009  1.00  0.00    -0.352 N 
ATOM      5  C   UNL A   1      34.181  22.566  26.306  1.00  0.00     0.251 C 
ATOM      6  O   UNL A   1      33.459  21.916  27.059  1.00  0.00    -0.270 OA
ATOM      7  H   UNL A   1      35.544  21.139  26.301  1.00  0.00     0.163 HD
BRANCH   5   8
ATOM      8  C   UNL A   1      33.647  23.824  25.717  1.00  0.00     0.067 C 
ATOM      9  C   UNL A   1      31.931  27.167  23.817  1.00  0.00    -0.002 A 
ATOM     10  C   UNL A   1      32.193  28.450  24.350  1.00  0.00     0.054 A 
ATOM     11  C   UNL A   1      32.553  26.062  24.415  1.00  0.00     0.131 A 
ATOM     12  C   UNL A   1      33.010  28.619  25.471  1.00  0.00     0.130 A 
ATOM     13  C   UNL A   1      33.316  26.215  25.572  1.00  0.00     0.021 A 
ATOM     14  O   UNL A   1      32.476  24.852  23.792  1.00  0.00    -0.475 OA
ATOM     15  C   UNL A   1      33.542  27.491  26.095  1.00  0.00     0.058 A 
ATOM     16  C   UNL A   1      33.913  25.046  26.202  1.00  0.00     0.025 C 
ATOM     17  C   UNL A   1      32.615  23.655  24.610  1.00  0.00     0.314 C 
BRANCH   9  18
ATOM     18  C   UNL A   1      31.025  27.090  22.602  1.00  0.00     0.039 C 
BRANCH  18  19
ATOM     19  C   UNL A   1      30.001  28.205  22.340  1.00  0.00     0.001 C 
ATOM     20  C   UNL A   1      28.704  28.064  23.126  1.00  0.00     0.004 C 
ENDBRANCH  18  19
ENDBRANCH   9  18
BRANCH  12  21
ATOM     21  O   UNL A   1      33.362  29.802  26.054  1.00  0.00    -0.406 OA
BRANCH  21  22
ATOM     22  C   UNL A   1      32.374  30.502  26.787  1.00  0.00     0.573 C 
ATOM     23  F   UNL A   1      32.927  31.413  27.616  1.00  0.00    -0.132 F 
ATOM     24  F   UNL A   1      31.503  31.117  25.958  1.00  0.00    -0.132 F 
ATOM     25  F   UNL A   1      31.683  29.617  27.540  1.00  0.00    -0.132 F 
ENDBRANCH  21  22
ENDBRANCH  12  21
BRANCH  17  26
ATOM     26  C   UNL A   1      32.810  22.473  23.631  1.00  0.00     0.429 C 
ATOM     27  F   UNL A   1      32.515  21.276  24.183  1.00  0.00    -0.167 F 
ATOM     28  F   UNL A   1      31.967  22.588  22.565  1.00  0.00    -0.167 F 
ATOM     29  F   UNL A   1      34.063  22.418  23.124  1.00  0.00    -0.167 F 
ENDBRANCH  17  26
ENDBRANCH   5   8
ENDBRANCH   3   4
ENDBRANCH   2   3
ENDBRANCH   1   2
BRANCH   1  30
ATOM     30  C   UNL A   1      38.885  20.675  25.814  1.00  0.00     0.116 C 
BRANCH  30  31
ATOM     31  N   UNL A   1      39.793  19.544  25.932  1.00  0.00    -0.352 N 
ATOM     32  C   UNL A   1      41.145  19.564  26.186  1.00  0.00     0.251 C 
ATOM     33  H   UNL A   1      39.389  18.653  25.817  1.00  0.00     0.163 HD
ATOM     34  O   UNL A   1      41.798  18.533  26.151  1.00  0.00    -0.269 OA
BRANCH  32  35
ATOM     35  C   UNL A   1      41.793  20.863  26.456  1.00  0.00     0.039 A 
ATOM     36  C   UNL A   1      42.158  21.668  25.375  1.00  0.00     0.014 A 
ATOM     37  C   UNL A   1      41.980  21.302  27.769  1.00  0.00     0.014 A 
ATOM     38  C   UNL A   1      42.660  22.949  25.613  1.00  0.00     0.010 A 
ATOM     39  C   UNL A   1      42.415  22.602  28.001  1.00  0.00     0.010 A 
ATOM     40  C   UNL A   1      42.761  23.436  26.927  1.00  0.00    -0.014 A 
BRANCH  40  41
ATOM     41  C   UNL A   1      43.215  24.820  27.201  1.00  0.00     0.031 A 
ATOM     42  C   UNL A   1      42.302  25.786  27.902  1.00  0.00     0.074 A 
ATOM     43  C   UNL A   1      44.410  25.230  26.733  1.00  0.00     0.049 A 
ATOM     44  N   UNL A   1      42.496  27.049  28.178  1.00  0.00    -0.248 NA
ATOM     45  C   UNL A   1      40.984  25.276  28.319  1.00  0.00     0.031 C 
ATOM     46  C   UNL A   1      45.344  24.408  25.961  1.00  0.00     0.029 A 
ATOM     47  N   UNL A   1      45.031  26.451  26.813  1.00  0.00    -0.354 N 
ATOM     48  C   UNL A   1      41.319  27.493  28.765  1.00  0.00     0.074 A 
ATOM     49  C   UNL A   1      40.401  26.375  28.774  1.00  0.00     0.031 C 
ATOM     50  C   UNL A   1      46.419  25.147  25.641  1.00  0.00     0.029 A 
ATOM     51  C   UNL A   1      46.243  26.498  26.164  1.00  0.00     0.049 A 
ATOM     52  H   UNL A   1      44.645  27.221  27.289  1.00  0.00     0.167 HD
ATOM     53  C   UNL A   1      41.037  28.713  29.282  1.00  0.00     0.034 A 
ATOM     54  C   UNL A   1      47.112  27.516  26.008  1.00  0.00     0.034 A 
ATOM     55  C   UNL A   1      41.972  29.804  29.318  1.00  0.00     0.049 A 
ATOM     56  C   UNL A   1      46.800  28.843  26.645  1.00  0.00     0.074 A 
ATOM     57  C   UNL A   1      41.821  31.047  29.907  1.00  0.00     0.029 A 
ATOM     58  N   UNL A   1      43.233  29.783  28.743  1.00  0.00    -0.354 N 
ATOM     59  N   UNL A   1      45.751  29.194  27.348  1.00  0.00    -0.248 NA
ATOM     60  C   UNL A   1      47.808  29.903  26.501  1.00  0.00     0.031 C 
ATOM     61  C   UNL A   1      42.987  31.783  29.674  1.00  0.00     0.029 A 
ATOM     62  C   UNL A   1      43.870  30.992  28.955  1.00  0.00     0.049 A 
ATOM     63  H   UNL A   1      43.617  29.021  28.253  1.00  0.00     0.167 HD
ATOM     64  C   UNL A   1      45.986  30.500  27.760  1.00  0.00     0.074 A 
ATOM     65  C   UNL A   1      47.288  30.871  27.244  1.00  0.00     0.031 C 
ATOM     66  C   UNL A   1      45.191  31.324  28.485  1.00  0.00     0.034 A 
BRANCH  53  67
ATOM     67  C   UNL A   1      39.682  28.909  29.910  1.00  0.00     0.023 A 
ATOM     68  C   UNL A   1      39.444  28.413  31.209  1.00  0.00     0.012 A 
ATOM     69  C   UNL A   1      38.665  29.619  29.245  1.00  0.00     0.148 A 
ATOM     70  C   UNL A   1      38.205  28.589  31.822  1.00  0.00     0.002 A 
ATOM     71  C   UNL A   1      37.446  29.828  29.880  1.00  0.00     0.091 A 
ATOM     72  F   UNL A   1      38.900  30.061  28.002  1.00  0.00    -0.205 F 
ATOM     73  C   UNL A   1      37.211  29.305  31.162  1.00  0.00     0.022 A 
BRANCH  71  74
ATOM     74  S   UNL A   1      36.127  30.803  29.143  1.00  0.00     0.127 S 
ATOM     75  O   UNL A   1      35.419  29.793  28.358  1.00  0.00    -0.237 OA
ATOM     76  O   UNL A   1      35.400  31.278  30.321  1.00  0.00    -0.237 OA
ATOM     77  O   UNL A   1      36.786  31.849  28.376  1.00  0.00    -0.744 OA
ENDBRANCH  71  74
ENDBRANCH  53  67
BRANCH  54  78
ATOM     78  C   UNL A   1      48.397  27.291  25.289  1.00  0.00     0.023 A 
ATOM     79  C   UNL A   1      49.513  26.820  26.008  1.00  0.00     0.012 A 
ATOM     80  C   UNL A   1      48.513  27.502  23.902  1.00  0.00     0.148 A 
ATOM     81  C   UNL A   1      50.730  26.591  25.364  1.00  0.00     0.002 A 
ATOM     82  C   UNL A   1      49.713  27.223  23.257  1.00  0.00     0.091 A 
ATOM     83  F   UNL A   1      47.443  27.962  23.238  1.00  0.00    -0.205 F 
ATOM     84  C   UNL A   1      50.827  26.782  23.989  1.00  0.00     0.022 A 
BRANCH  82  85
ATOM     85  S   UNL A   1      49.888  27.312  21.472  1.00  0.00     0.127 S 
ATOM     86  O   UNL A   1      49.719  28.742  21.226  1.00  0.00    -0.237 OA
ATOM     87  O   UNL A   1      51.247  26.808  21.273  1.00  0.00    -0.237 OA
ATOM     88  O   UNL A   1      48.847  26.447  20.934  1.00  0.00    -0.744 OA
ENDBRANCH  82  85
ENDBRANCH  54  78
BRANCH  66  89
ATOM     89  C   UNL A   1      45.711  32.703  28.794  1.00  0.00     0.023 A 
ATOM     90  C   UNL A   1      46.484  32.912  29.954  1.00  0.00     0.012 A 
ATOM     91  C   UNL A   1      45.506  33.769  27.897  1.00  0.00     0.148 A 
ATOM     92  C   UNL A   1      47.021  34.169  30.230  1.00  0.00     0.002 A 
ATOM     93  C   UNL A   1      46.082  35.007  28.154  1.00  0.00     0.091 A 
ATOM     94  F   UNL A   1      44.751  33.554  26.810  1.00  0.00    -0.205 F 
ATOM     95  C   UNL A   1      46.831  35.211  29.324  1.00  0.00     0.022 A 
BRANCH  93  96
ATOM     96  S   UNL A   1      45.970  36.376  26.998  1.00  0.00     0.127 S 
ATOM     97  O   UNL A   1      46.788  37.392  27.659  1.00  0.00    -0.237 OA
ATOM     98  O   UNL A   1      46.562  35.812  25.785  1.00  0.00    -0.237 OA
ATOM     99  O   UNL A   1      44.551  36.689  26.886  1.00  0.00    -0.744 OA
ENDBRANCH  93  96
ENDBRANCH  66  89
ENDBRANCH  40  41
ENDBRANCH  32  35
ENDBRANCH  30  31
ENDBRANCH   1  30
TORSDOF 19
ENDMDL
MODEL 3
REMARK VINA RESULT:     -11.8      1.887      2.525
REMARK SMILES CCCc1cc(OC(F)(F)F)cc2c1O[C@@H](C(F)(F)F)C(C(=O)NCCCCNC(=O)c1ccc(-c3c4nc(c(-c5cccc(S(=O)(=O)[O-])c5F)c5ccc([nH]5)c(-c5cccc(S(=O)(=O)[O-])c5F)c5nc(c(-c6cccc(S(=O)(=O)[O-])c6F)c6ccc3[nH]6)C=C5)C=C4)cc1)=C2
REMARK SMILES IDX 27 1 26 2 25 3 24 4 22 5 23 6 21 8 4 9 5 10 14 11 6 12 13 13
REMARK SMILES IDX 15 14 12 15 95 16 16 17 3 18 2 19 1 20 7 21 8 22 9 23 10 24
REMARK SMILES IDX 11 25 17 26 18 27 19 28 20 29 28 30 29 31 30 32 31 34 32 35
REMARK SMILES IDX 33 36 94 37 34 38 93 39 35 40 36 41 37 42 87 43 38 44 92 45
REMARK SMILES IDX 86 46 88 47 39 48 91 49 85 50 84 51 40 53 72 54 52 55 71 56
REMARK SMILES IDX 53 57 56 58 70 59 89 60 54 61 55 62 69 64 90 65 57 66 41 67
REMARK SMILES IDX 42 68 50 69 43 70 45 71 51 72 44 73 46 74 47 75 48 76 49 77
REMARK SMILES IDX 73 78 74 79 82 80 75 81 77 82 83 83 76 84 78 85 79 86 80 87
REMARK SMILES IDX 81 88 58 89 59 90 67 91 60 92 62 93 68 94 61 95 63 96 64 97
REMARK SMILES IDX 65 98 66 99
REMARK H PARENT 24 7 29 33 88 52 56 63
REMARK Flexibility Score: inf
ROOT
ATOM      1  C   UNL A   1      36.821  23.403  24.379  1.00  0.00     0.023 C 
ENDROOT
BRANCH   1   2
ATOM      2  C   UNL A   1      35.699  22.612  23.699  1.00  0.00     0.023 C 
BRANCH   2   3
ATOM      3  C   UNL A   1      34.819  23.450  22.765  1.00  0.00     0.116 C 
BRANCH   3   4
ATOM      4  N   UNL A   1      33.488  22.878  22.700  1.00  0.00    -0.352 N 
ATOM      5  C   UNL A   1      32.297  23.291  23.201  1.00  0.00     0.251 C 
ATOM      6  O   UNL A   1      31.350  22.509  23.164  1.00  0.00    -0.270 OA
ATOM      7  H   UNL A   1      33.440  22.033  22.198  1.00  0.00     0.163 HD
BRANCH   5   8
ATOM      8  C   UNL A   1      32.069  24.662  23.734  1.00  0.00     0.067 C 
ATOM      9  C   UNL A   1      31.635  28.441  25.541  1.00  0.00    -0.002 A 
ATOM     10  C   UNL A   1      30.999  29.466  24.806  1.00  0.00     0.054 A 
ATOM     11  C   UNL A   1      31.723  27.168  24.960  1.00  0.00     0.131 A 
ATOM     12  C   UNL A   1      30.510  29.242  23.516  1.00  0.00     0.130 A 
ATOM     13  C   UNL A   1      31.298  26.952  23.649  1.00  0.00     0.021 A 
ATOM     14  O   UNL A   1      32.145  26.125  25.731  1.00  0.00    -0.475 OA
ATOM     15  C   UNL A   1      30.692  27.988  22.933  1.00  0.00     0.058 A 
ATOM     16  C   UNL A   1      31.443  25.632  23.052  1.00  0.00     0.025 C 
ATOM     17  C   UNL A   1      32.748  24.983  25.059  1.00  0.00     0.314 C 
BRANCH   9  18
ATOM     18  C   UNL A   1      32.139  28.788  26.929  1.00  0.00     0.039 C 
BRANCH  18  19
ATOM     19  C   UNL A   1      33.617  28.564  27.285  1.00  0.00     0.001 C 
ATOM     20  C   UNL A   1      34.499  29.793  27.107  1.00  0.00     0.004 C 
ENDBRANCH  18  19
ENDBRANCH   9  18
BRANCH  12  21
ATOM     21  O   UNL A   1      29.851  30.138  22.725  1.00  0.00    -0.406 OA
BRANCH  21  22
ATOM     22  C   UNL A   1      28.475  30.360  22.975  1.00  0.00     0.573 C 
ATOM     23  F   UNL A   1      28.292  31.238  23.984  1.00  0.00    -0.132 F 
ATOM     24  F   UNL A   1      27.850  30.812  21.866  1.00  0.00    -0.132 F 
ATOM     25  F   UNL A   1      27.903  29.188  23.331  1.00  0.00    -0.132 F 
ENDBRANCH  21  22
ENDBRANCH  12  21
BRANCH  17  26
ATOM     26  C   UNL A   1      32.831  23.848  26.109  1.00  0.00     0.429 C 
ATOM     27  F   UNL A   1      33.884  23.979  26.945  1.00  0.00    -0.167 F 
ATOM     28  F   UNL A   1      31.733  23.861  26.917  1.00  0.00    -0.167 F 
ATOM     29  F   UNL A   1      32.877  22.620  25.544  1.00  0.00    -0.167 F 
ENDBRANCH  17  26
ENDBRANCH   5   8
ENDBRANCH   3   4
ENDBRANCH   2   3
ENDBRANCH   1   2
BRANCH   1  30
ATOM     30  C   UNL A   1      36.981  23.120  25.866  1.00  0.00     0.116 C 
BRANCH  30  31
ATOM     31  N   UNL A   1      38.114  22.257  26.164  1.00  0.00    -0.352 N 
ATOM     32  C   UNL A   1      39.347  22.615  26.657  1.00  0.00     0.251 C 
ATOM     33  H   UNL A   1      37.982  21.296  25.991  1.00  0.00     0.163 HD
ATOM     34  O   UNL A   1      40.240  21.788  26.758  1.00  0.00    -0.269 OA
BRANCH  32  35
ATOM     35  C   UNL A   1      39.578  24.028  27.021  1.00  0.00     0.039 A 
ATOM     36  C   UNL A   1      39.365  24.423  28.343  1.00  0.00     0.014 A 
ATOM     37  C   UNL A   1      40.057  24.934  26.072  1.00  0.00     0.014 A 
ATOM     38  C   UNL A   1      39.694  25.724  28.730  1.00  0.00     0.010 A 
ATOM     39  C   UNL A   1      40.448  26.206  26.475  1.00  0.00     0.010 A 
ATOM     40  C   UNL A   1      40.268  26.613  27.806  1.00  0.00    -0.014 A 
BRANCH  40  41
ATOM     41  C   UNL A   1      40.699  27.972  28.212  1.00  0.00     0.031 A 
ATOM     42  C   UNL A   1      42.159  28.329  28.213  1.00  0.00     0.074 A 
ATOM     43  C   UNL A   1      39.784  28.848  28.672  1.00  0.00     0.049 A 
ATOM     44  N   UNL A   1      42.734  29.441  28.589  1.00  0.00    -0.248 NA
ATOM     45  C   UNL A   1      43.100  27.290  27.762  1.00  0.00     0.031 C 
ATOM     46  C   UNL A   1      38.350  28.583  28.803  1.00  0.00     0.029 A 
ATOM     47  N   UNL A   1      39.929  30.129  29.142  1.00  0.00    -0.354 N 
ATOM     48  C   UNL A   1      44.099  29.226  28.456  1.00  0.00     0.074 A 
ATOM     49  C   UNL A   1      44.271  27.864  27.999  1.00  0.00     0.031 C 
ATOM     50  C   UNL A   1      37.747  29.668  29.316  1.00  0.00     0.029 A 
ATOM     51  C   UNL A   1      38.752  30.696  29.571  1.00  0.00     0.049 A 
ATOM     52  H   UNL A   1      40.794  30.597  29.170  1.00  0.00     0.167 HD
ATOM     53  C   UNL A   1      45.119  30.093  28.663  1.00  0.00     0.034 A 
ATOM     54  C   UNL A   1      38.510  31.907  30.110  1.00  0.00     0.034 A 
ATOM     55  C   UNL A   1      44.939  31.460  29.065  1.00  0.00     0.049 A 
ATOM     56  C   UNL A   1      39.653  32.872  30.272  1.00  0.00     0.074 A 
ATOM     57  C   UNL A   1      45.896  32.449  29.207  1.00  0.00     0.029 A 
ATOM     58  N   UNL A   1      43.719  32.034  29.392  1.00  0.00    -0.354 N 
ATOM     59  N   UNL A   1      40.920  32.707  29.976  1.00  0.00    -0.248 NA
ATOM     60  C   UNL A   1      39.329  34.203  30.805  1.00  0.00     0.031 C 
ATOM     61  C   UNL A   1      45.256  33.617  29.633  1.00  0.00     0.029 A 
ATOM     62  C   UNL A   1      43.898  33.361  29.740  1.00  0.00     0.049 A 
ATOM     63  H   UNL A   1      42.854  31.566  29.379  1.00  0.00     0.167 HD
ATOM     64  C   UNL A   1      41.538  33.921  30.254  1.00  0.00     0.074 A 
ATOM     65  C   UNL A   1      40.502  34.819  30.721  1.00  0.00     0.031 C 
ATOM     66  C   UNL A   1      42.847  34.257  30.147  1.00  0.00     0.034 A 
BRANCH  53  67
ATOM     67  C   UNL A   1      46.517  29.604  28.392  1.00  0.00     0.023 A 
ATOM     68  C   UNL A   1      47.073  29.776  27.107  1.00  0.00     0.012 A 
ATOM     69  C   UNL A   1      47.296  29.021  29.408  1.00  0.00     0.148 A 
ATOM     70  C   UNL A   1      48.368  29.346  26.828  1.00  0.00     0.002 A 
ATOM     71  C   UNL A   1      48.603  28.633  29.134  1.00  0.00     0.091 A 
ATOM     72  F   UNL A   1      46.744  28.841  30.616  1.00  0.00    -0.205 F 
ATOM     73  C   UNL A   1      49.136  28.784  27.843  1.00  0.00     0.022 A 
BRANCH  71  74
ATOM     74  S   UNL A   1      49.698  27.968  30.395  1.00  0.00     0.127 S 
ATOM     75  O   UNL A   1      48.946  26.801  30.853  1.00  0.00    -0.237 OA
ATOM     76  O   UNL A   1      50.901  27.653  29.624  1.00  0.00    -0.237 OA
ATOM     77  O   UNL A   1      49.869  29.031  31.375  1.00  0.00    -0.744 OA
ENDBRANCH  71  74
ENDBRANCH  53  67
BRANCH  54  78
ATOM     78  C   UNL A   1      37.115  32.302  30.453  1.00  0.00     0.023 A 
ATOM     79  C   UNL A   1      36.654  32.119  31.771  1.00  0.00     0.012 A 
ATOM     80  C   UNL A   1      36.260  32.890  29.502  1.00  0.00     0.148 A 
ATOM     81  C   UNL A   1      35.356  32.485  32.129  1.00  0.00     0.002 A 
ATOM     82  C   UNL A   1      34.986  33.300  29.877  1.00  0.00     0.091 A 
ATOM     83  F   UNL A   1      36.714  33.044  28.250  1.00  0.00    -0.205 F 
ATOM     84  C   UNL A   1      34.526  33.085  31.186  1.00  0.00     0.022 A 
BRANCH  82  85
ATOM     85  S   UNL A   1      33.900  34.201  28.765  1.00  0.00     0.127 S 
ATOM     86  O   UNL A   1      34.760  35.297  28.329  1.00  0.00    -0.237 OA
ATOM     87  O   UNL A   1      33.613  33.197  27.740  1.00  0.00    -0.237 OA
ATOM     88  O   UNL A   1      32.745  34.579  29.569  1.00  0.00    -0.744 OA
ENDBRANCH  82  85
ENDBRANCH  54  78
BRANCH  66  89
ATOM     89  C   UNL A   1      43.238  35.664  30.512  1.00  0.00     0.023 A 
ATOM     90  C   UNL A   1      43.681  35.948  31.819  1.00  0.00     0.012 A 
ATOM     91  C   UNL A   1      43.245  36.685  29.541  1.00  0.00     0.148 A 
ATOM     92  C   UNL A   1      44.100  37.233  32.162  1.00  0.00     0.002 A 
ATOM     93  C   UNL A   1      43.707  37.952  29.877  1.00  0.00     0.091 A 
ATOM     94  F   UNL A   1      42.800  36.399  28.310  1.00  0.00    -0.205 F 
ATOM     95  C   UNL A   1      44.125  38.231  31.189  1.00  0.00     0.022 A 
BRANCH  93  96
ATOM     96  S   UNL A   1      43.864  39.268  28.666  1.00  0.00     0.127 S 
ATOM     97  O   UNL A   1      44.431  40.349  29.472  1.00  0.00    -0.237 OA
ATOM     98  O   UNL A   1      44.786  38.687  27.690  1.00  0.00    -0.237 OA
ATOM     99  O   UNL A   1      42.519  39.505  28.157  1.00  0.00    -0.744 OA
ENDBRANCH  93  96
ENDBRANCH  66  89
ENDBRANCH  40  41
ENDBRANCH  32  35
ENDBRANCH  30  31
ENDBRANCH   1  30
TORSDOF 19
ENDMDL
