MODEL 1
REMARK VINA RESULT:     -11.7      0.000      0.000
REMARK SMILES COc1ccc(F)c(NC(=O)N2CCCC[C@@H]2C(=O)NCCCCNC(=O)c2ccc(-c3c4nc(c(-c5cccc(S(=O)(=O)[O-])c5F)c5ccc([nH]5)c(-c5cccc(S(=O)(=O)[O-])c5F)c5nc(c(-c6cccc(S(=O)(=O)[O-])c6F)c6ccc3[nH]6)C=C5)C=C4)cc2)c1
REMARK SMILES IDX 22 1 21 2 20 3 18 4 19 5 17 7 12 8 13 9 14 10 16 11 15 12
REMARK SMILES IDX 10 13 9 14 11 16 8 17 3 18 4 19 91 20 5 21 6 22 7 23 2 24
REMARK SMILES IDX 1 25 23 26 24 27 25 28 26 29 27 31 28 32 29 33 90 34 30 35
REMARK SMILES IDX 89 36 31 37 32 38 33 39 83 40 34 41 88 42 82 43 84 44 35 45
REMARK SMILES IDX 87 46 81 47 80 48 36 50 68 51 48 52 67 53 49 54 52 55 66 56
REMARK SMILES IDX 85 57 50 58 51 59 65 61 86 62 53 63 37 64 38 65 46 66 39 67
REMARK SMILES IDX 41 68 47 69 40 70 42 71 43 72 44 73 45 74 69 75 70 76 78 77
REMARK SMILES IDX 71 78 73 79 79 80 72 81 74 82 75 83 76 84 77 85 54 86 55 87
REMARK SMILES IDX 63 88 56 89 58 90 64 91 57 92 59 93 60 94 61 95 62 96
REMARK H PARENT 20 6 9 15 25 30 84 49 52 60
REMARK Flexibility Score: inf
ROOT
ATOM      1  C   UNL A   1      33.857  26.747  24.812  1.00  0.00     0.023 C 
ENDROOT
BRANCH   1   2
ATOM      2  C   UNL A   1      33.820  25.230  25.018  1.00  0.00     0.116 C 
BRANCH   2   3
ATOM      3  N   UNL A   1      32.996  24.596  24.008  1.00  0.00    -0.354 N 
ATOM      4  C   UNL A   1      33.178  23.411  23.360  1.00  0.00     0.242 C 
ATOM      5  O   UNL A   1      32.506  23.199  22.346  1.00  0.00    -0.273 OA
ATOM      6  H   UNL A   1      32.188  25.094  23.751  1.00  0.00     0.163 HD
BRANCH   4   7
ATOM      7  C   UNL A   1      34.262  22.398  23.797  1.00  0.00     0.176 C 
ATOM      8  N   UNL A   1      34.121  21.943  25.208  1.00  0.00    -0.313 N 
ATOM      9  C   UNL A   1      35.301  21.460  25.920  1.00  0.00     0.122 C 
ATOM     10  C   UNL A   1      36.614  22.123  25.541  1.00  0.00     0.022 C 
ATOM     11  C   UNL A   1      35.642  22.979  23.444  1.00  0.00     0.035 C 
ATOM     12  C   UNL A   1      36.778  22.162  24.033  1.00  0.00     0.004 C 
BRANCH   8  13
ATOM     13  C   UNL A   1      32.917  21.615  25.814  1.00  0.00     0.322 C 
ATOM     14  N   UNL A   1      32.129  20.629  25.315  1.00  0.00    -0.305 N 
ATOM     15  H   UNL A   1      31.166  20.832  25.324  1.00  0.00     0.171 HD
ATOM     16  O   UNL A   1      32.502  22.252  26.786  1.00  0.00    -0.248 OA
BRANCH  14  17
ATOM     17  C   UNL A   1      32.455  19.364  24.788  1.00  0.00     0.082 A 
ATOM     18  C   UNL A   1      33.357  17.138  24.973  1.00  0.00     0.121 A 
ATOM     19  C   UNL A   1      33.326  16.980  23.589  1.00  0.00     0.049 A 
ATOM     20  C   UNL A   1      32.842  18.283  25.578  1.00  0.00     0.075 A 
ATOM     21  C   UNL A   1      32.804  18.003  22.799  1.00  0.00     0.045 A 
ATOM     22  C   UNL A   1      32.382  19.187  23.402  1.00  0.00     0.147 A 
ATOM     23  F   UNL A   1      31.920  20.181  22.627  1.00  0.00    -0.205 F 
BRANCH  18  24
ATOM     24  O   UNL A   1      33.928  16.194  25.785  1.00  0.00    -0.497 OA
ATOM     25  C   UNL A   1      35.205  15.812  25.260  1.00  0.00     0.278 C 
ENDBRANCH  18  24
ENDBRANCH  14  17
ENDBRANCH   8  13
ENDBRANCH   4   7
ENDBRANCH   2   3
ENDBRANCH   1   2
BRANCH   1  26
ATOM     26  C   UNL A   1      33.522  27.566  26.059  1.00  0.00     0.023 C 
BRANCH  26  27
ATOM     27  C   UNL A   1      34.613  28.533  26.504  1.00  0.00     0.116 C 
BRANCH  27  28
ATOM     28  N   UNL A   1      34.097  29.866  26.801  1.00  0.00    -0.352 N 
ATOM     29  C   UNL A   1      34.581  30.792  27.689  1.00  0.00     0.251 C 
ATOM     30  H   UNL A   1      33.295  30.135  26.298  1.00  0.00     0.163 HD
ATOM     31  O   UNL A   1      33.958  31.815  27.932  1.00  0.00    -0.269 OA
BRANCH  29  32
ATOM     32  C   UNL A   1      35.860  30.514  28.375  1.00  0.00     0.039 A 
ATOM     33  C   UNL A   1      35.862  29.694  29.505  1.00  0.00     0.014 A 
ATOM     34  C   UNL A   1      37.059  31.004  27.846  1.00  0.00     0.014 A 
ATOM     35  C   UNL A   1      37.077  29.288  30.056  1.00  0.00     0.010 A 
ATOM     36  C   UNL A   1      38.269  30.554  28.363  1.00  0.00     0.010 A 
ATOM     37  C   UNL A   1      38.288  29.677  29.458  1.00  0.00    -0.014 A 
BRANCH  37  38
ATOM     38  C   UNL A   1      39.591  29.130  29.912  1.00  0.00     0.031 A 
ATOM     39  C   UNL A   1      40.358  29.817  31.006  1.00  0.00     0.074 A 
ATOM     40  C   UNL A   1      40.131  28.085  29.254  1.00  0.00     0.049 A 
ATOM     41  N   UNL A   1      41.564  29.569  31.443  1.00  0.00    -0.248 NA
ATOM     42  C   UNL A   1      39.692  30.943  31.683  1.00  0.00     0.031 C 
ATOM     43  C   UNL A   1      39.506  27.377  28.134  1.00  0.00     0.029 A 
ATOM     44  N   UNL A   1      41.342  27.457  29.408  1.00  0.00    -0.354 N 
ATOM     45  C   UNL A   1      41.817  30.522  32.421  1.00  0.00     0.074 A 
ATOM     46  C   UNL A   1      40.645  31.368  32.501  1.00  0.00     0.031 C 
ATOM     47  C   UNL A   1      40.337  26.414  27.703  1.00  0.00     0.029 A 
ATOM     48  C   UNL A   1      41.565  26.456  28.490  1.00  0.00     0.049 A 
ATOM     49  H   UNL A   1      41.990  27.699  30.108  1.00  0.00     0.167 HD
ATOM     50  C   UNL A   1      42.916  30.663  33.199  1.00  0.00     0.034 A 
ATOM     51  C   UNL A   1      42.640  25.665  28.299  1.00  0.00     0.034 A 
ATOM     52  C   UNL A   1      44.059  29.793  33.144  1.00  0.00     0.049 A 
ATOM     53  C   UNL A   1      43.827  25.818  29.212  1.00  0.00     0.074 A 
ATOM     54  C   UNL A   1      45.205  29.833  33.919  1.00  0.00     0.029 A 
ATOM     55  N   UNL A   1      44.198  28.720  32.278  1.00  0.00    -0.354 N 
ATOM     56  N   UNL A   1      44.000  26.654  30.206  1.00  0.00    -0.248 NA
ATOM     57  C   UNL A   1      44.952  24.894  29.003  1.00  0.00     0.031 C 
ATOM     58  C   UNL A   1      46.037  28.783  33.524  1.00  0.00     0.029 A 
ATOM     59  C   UNL A   1      45.404  28.081  32.511  1.00  0.00     0.049 A 
ATOM     60  H   UNL A   1      43.539  28.452  31.598  1.00  0.00     0.167 HD
ATOM     61  C   UNL A   1      45.229  26.330  30.767  1.00  0.00     0.074 A 
ATOM     62  C   UNL A   1      45.752  25.211  30.013  1.00  0.00     0.031 C 
ATOM     63  C   UNL A   1      45.873  26.918  31.804  1.00  0.00     0.034 A 
BRANCH  50  64
ATOM     64  C   UNL A   1      42.915  31.753  34.235  1.00  0.00     0.023 A 
ATOM     65  C   UNL A   1      43.466  33.007  33.908  1.00  0.00     0.012 A 
ATOM     66  C   UNL A   1      42.274  31.578  35.478  1.00  0.00     0.148 A 
ATOM     67  C   UNL A   1      43.390  34.072  34.805  1.00  0.00     0.002 A 
ATOM     68  C   UNL A   1      42.167  32.655  36.351  1.00  0.00     0.091 A 
ATOM     69  F   UNL A   1      41.772  30.371  35.774  1.00  0.00    -0.205 F 
ATOM     70  C   UNL A   1      42.730  33.899  36.019  1.00  0.00     0.022 A 
BRANCH  68  71
ATOM     71  S   UNL A   1      41.270  32.563  37.905  1.00  0.00     0.127 S 
ATOM     72  O   UNL A   1      41.231  33.968  38.307  1.00  0.00    -0.237 OA
ATOM     73  O   UNL A   1      39.982  32.013  37.482  1.00  0.00    -0.237 OA
ATOM     74  O   UNL A   1      42.052  31.693  38.772  1.00  0.00    -0.744 OA
ENDBRANCH  68  71
ENDBRANCH  50  64
BRANCH  51  75
ATOM     75  C   UNL A   1      42.604  24.599  27.258  1.00  0.00     0.023 A 
ATOM     76  C   UNL A   1      43.210  24.842  26.010  1.00  0.00     0.012 A 
ATOM     77  C   UNL A   1      42.018  23.342  27.502  1.00  0.00     0.148 A 
ATOM     78  C   UNL A   1      43.207  23.866  25.014  1.00  0.00     0.002 A 
ATOM     79  C   UNL A   1      42.068  22.354  26.524  1.00  0.00     0.091 A 
ATOM     80  F   UNL A   1      41.430  23.132  28.688  1.00  0.00    -0.205 F 
ATOM     81  C   UNL A   1      42.647  22.619  25.274  1.00  0.00     0.022 A 
BRANCH  79  82
ATOM     82  S   UNL A   1      41.500  20.678  26.834  1.00  0.00     0.127 S 
ATOM     83  O   UNL A   1      40.087  20.890  27.135  1.00  0.00    -0.237 OA
ATOM     84  O   UNL A   1      41.765  20.019  25.554  1.00  0.00    -0.237 OA
ATOM     85  O   UNL A   1      42.323  20.191  27.933  1.00  0.00    -0.744 OA
ENDBRANCH  79  82
ENDBRANCH  51  75
BRANCH  63  86
ATOM     86  C   UNL A   1      47.196  26.341  32.231  1.00  0.00     0.023 A 
ATOM     87  C   UNL A   1      48.391  26.864  31.699  1.00  0.00     0.012 A 
ATOM     88  C   UNL A   1      47.258  25.355  33.235  1.00  0.00     0.148 A 
ATOM     89  C   UNL A   1      49.626  26.397  32.143  1.00  0.00     0.002 A 
ATOM     90  C   UNL A   1      48.494  24.926  33.704  1.00  0.00     0.091 A 
ATOM     91  F   UNL A   1      46.109  24.853  33.714  1.00  0.00    -0.205 F 
ATOM     92  C   UNL A   1      49.678  25.439  33.153  1.00  0.00     0.022 A 
BRANCH  90  93
ATOM     93  S   UNL A   1      48.641  23.769  35.071  1.00  0.00     0.127 S 
ATOM     94  O   UNL A   1      47.955  24.484  36.144  1.00  0.00    -0.237 OA
ATOM     95  O   UNL A   1      47.929  22.593  34.569  1.00  0.00    -0.237 OA
ATOM     96  O   UNL A   1      50.072  23.565  35.260  1.00  0.00    -0.744 OA
ENDBRANCH  90  93
ENDBRANCH  63  86
ENDBRANCH  37  38
ENDBRANCH  29  32
ENDBRANCH  27  28
ENDBRANCH  26  27
ENDBRANCH   1  26
TORSDOF 17
ENDMDL
MODEL 2
REMARK VINA RESULT:     -11.2      2.449      7.990
REMARK SMILES COc1ccc(F)c(NC(=O)N2CCCC[C@@H]2C(=O)NCCCCNC(=O)c2ccc(-c3c4nc(c(-c5cccc(S(=O)(=O)[O-])c5F)c5ccc([nH]5)c(-c5cccc(S(=O)(=O)[O-])c5F)c5nc(c(-c6cccc(S(=O)(=O)[O-])c6F)c6ccc3[nH]6)C=C5)C=C4)cc2)c1
REMARK SMILES IDX 22 1 21 2 20 3 18 4 19 5 17 7 12 8 13 9 14 10 16 11 15 12
REMARK SMILES IDX 10 13 9 14 11 16 8 17 3 18 4 19 91 20 5 21 6 22 7 23 2 24
REMARK SMILES IDX 1 25 23 26 24 27 25 28 26 29 27 31 28 32 29 33 90 34 30 35
REMARK SMILES IDX 89 36 31 37 32 38 33 39 83 40 34 41 88 42 82 43 84 44 35 45
REMARK SMILES IDX 87 46 81 47 80 48 36 50 68 51 48 52 67 53 49 54 52 55 66 56
REMARK SMILES IDX 85 57 50 58 51 59 65 61 86 62 53 63 37 64 38 65 46 66 39 67
REMARK SMILES IDX 41 68 47 69 40 70 42 71 43 72 44 73 45 74 69 75 70 76 78 77
REMARK SMILES IDX 71 78 73 79 79 80 72 81 74 82 75 83 76 84 77 85 54 86 55 87
REMARK SMILES IDX 63 88 56 89 58 90 64 91 57 92 59 93 60 94 61 95 62 96
REMARK H PARENT 20 6 9 15 25 30 84 49 52 60
REMARK Flexibility Score: inf
ROOT
ATOM      1  C   UNL A   1      31.609  29.146  25.591  1.00  0.00     0.023 C 
ENDROOT
BRANCH   1   2
ATOM      2  C   UNL A   1      31.553  28.113  26.719  1.00  0.00     0.116 C 
BRANCH   2   3
ATOM      3  N   UNL A   1      32.708  27.238  26.671  1.00  0.00    -0.354 N 
ATOM      4  C   UNL A   1      33.148  26.439  25.659  1.00  0.00     0.242 C 
ATOM      5  O   UNL A   1      33.989  25.575  25.930  1.00  0.00    -0.273 OA
ATOM      6  H   UNL A   1      33.254  27.218  27.489  1.00  0.00     0.163 HD
BRANCH   4   7
ATOM      7  C   UNL A   1      32.550  26.518  24.235  1.00  0.00     0.176 C 
ATOM      8  N   UNL A   1      31.623  25.399  23.913  1.00  0.00    -0.313 N 
ATOM      9  C   UNL A   1      31.421  25.021  22.517  1.00  0.00     0.122 C 
ATOM     10  C   UNL A   1      32.626  25.195  21.609  1.00  0.00     0.022 C 
ATOM     11  C   UNL A   1      33.703  26.706  23.233  1.00  0.00     0.035 C 
ATOM     12  C   UNL A   1      33.241  26.571  21.793  1.00  0.00     0.004 C 
BRANCH   8  13
ATOM     13  C   UNL A   1      30.669  24.891  24.782  1.00  0.00     0.322 C 
ATOM     14  N   UNL A   1      30.627  23.566  25.079  1.00  0.00    -0.305 N 
ATOM     15  H   UNL A   1      29.720  23.187  25.124  1.00  0.00     0.171 HD
ATOM     16  O   UNL A   1      29.795  25.619  25.261  1.00  0.00    -0.248 OA
BRANCH  14  17
ATOM     17  C   UNL A   1      31.660  22.643  25.332  1.00  0.00     0.082 A 
ATOM     18  C   UNL A   1      32.950  20.680  24.800  1.00  0.00     0.121 A 
ATOM     19  C   UNL A   1      33.548  20.698  26.058  1.00  0.00     0.049 A 
ATOM     20  C   UNL A   1      32.082  21.695  24.402  1.00  0.00     0.075 A 
ATOM     21  C   UNL A   1      33.239  21.729  26.944  1.00  0.00     0.045 A 
ATOM     22  C   UNL A   1      32.294  22.686  26.579  1.00  0.00     0.147 A 
ATOM     23  F   UNL A   1      31.973  23.650  27.455  1.00  0.00    -0.205 F 
BRANCH  18  24
ATOM     24  O   UNL A   1      33.166  19.649  23.924  1.00  0.00    -0.497 OA
ATOM     25  C   UNL A   1      33.866  18.590  24.586  1.00  0.00     0.278 C 
ENDBRANCH  18  24
ENDBRANCH  14  17
ENDBRANCH   8  13
ENDBRANCH   4   7
ENDBRANCH   2   3
ENDBRANCH   1   2
BRANCH   1  26
ATOM     26  C   UNL A   1      32.617  30.275  25.811  1.00  0.00     0.023 C 
BRANCH  26  27
ATOM     27  C   UNL A   1      32.713  30.779  27.245  1.00  0.00     0.116 C 
BRANCH  27  28
ATOM     28  N   UNL A   1      32.767  32.236  27.327  1.00  0.00    -0.352 N 
ATOM     29  C   UNL A   1      33.779  33.028  27.805  1.00  0.00     0.251 C 
ATOM     30  H   UNL A   1      31.971  32.712  26.998  1.00  0.00     0.163 HD
ATOM     31  O   UNL A   1      33.622  34.234  27.940  1.00  0.00    -0.269 OA
BRANCH  29  32
ATOM     32  C   UNL A   1      35.057  32.392  28.186  1.00  0.00     0.039 A 
ATOM     33  C   UNL A   1      36.229  33.150  28.158  1.00  0.00     0.014 A 
ATOM     34  C   UNL A   1      35.072  31.070  28.642  1.00  0.00     0.014 A 
ATOM     35  C   UNL A   1      37.407  32.611  28.676  1.00  0.00     0.010 A 
ATOM     36  C   UNL A   1      36.233  30.555  29.207  1.00  0.00     0.010 A 
ATOM     37  C   UNL A   1      37.404  31.328  29.248  1.00  0.00    -0.014 A 
BRANCH  37  38
ATOM     38  C   UNL A   1      38.591  30.789  29.957  1.00  0.00     0.031 A 
ATOM     39  C   UNL A   1      39.442  29.733  29.311  1.00  0.00     0.074 A 
ATOM     40  C   UNL A   1      38.826  31.170  31.228  1.00  0.00     0.049 A 
ATOM     41  N   UNL A   1      40.432  29.050  29.823  1.00  0.00    -0.248 NA
ATOM     42  C   UNL A   1      39.125  29.382  27.916  1.00  0.00     0.031 C 
ATOM     43  C   UNL A   1      38.030  32.143  31.981  1.00  0.00     0.029 A 
ATOM     44  N   UNL A   1      39.783  30.762  32.125  1.00  0.00    -0.354 N 
ATOM     45  C   UNL A   1      40.838  28.169  28.829  1.00  0.00     0.074 A 
ATOM     46  C   UNL A   1      39.974  28.388  27.689  1.00  0.00     0.031 C 
ATOM     47  C   UNL A   1      38.529  32.256  33.222  1.00  0.00     0.029 A 
ATOM     48  C   UNL A   1      39.658  31.342  33.367  1.00  0.00     0.049 A 
ATOM     49  H   UNL A   1      40.491  30.116  31.900  1.00  0.00     0.167 HD
ATOM     50  C   UNL A   1      41.855  27.276  28.857  1.00  0.00     0.034 A 
ATOM     51  C   UNL A   1      40.369  31.154  34.497  1.00  0.00     0.034 A 
ATOM     52  C   UNL A   1      42.737  27.093  29.978  1.00  0.00     0.049 A 
ATOM     53  C   UNL A   1      41.522  30.188  34.480  1.00  0.00     0.074 A 
ATOM     54  C   UNL A   1      43.821  26.239  30.086  1.00  0.00     0.029 A 
ATOM     55  N   UNL A   1      42.648  27.781  31.177  1.00  0.00    -0.354 N 
ATOM     56  N   UNL A   1      41.960  29.445  33.492  1.00  0.00    -0.248 NA
ATOM     57  C   UNL A   1      42.304  30.060  35.719  1.00  0.00     0.031 C 
ATOM     58  C   UNL A   1      44.389  26.412  31.350  1.00  0.00     0.029 A 
ATOM     59  C   UNL A   1      43.667  27.383  32.025  1.00  0.00     0.049 A 
ATOM     60  H   UNL A   1      41.962  28.453  31.394  1.00  0.00     0.167 HD
ATOM     61  C   UNL A   1      43.091  28.797  33.975  1.00  0.00     0.074 A 
ATOM     62  C   UNL A   1      43.280  29.246  35.339  1.00  0.00     0.031 C 
ATOM     63  C   UNL A   1      43.889  27.899  33.350  1.00  0.00     0.034 A 
BRANCH  50  64
ATOM     64  C   UNL A   1      42.127  26.474  27.614  1.00  0.00     0.023 A 
ATOM     65  C   UNL A   1      42.837  27.073  26.555  1.00  0.00     0.012 A 
ATOM     66  C   UNL A   1      41.790  25.107  27.539  1.00  0.00     0.148 A 
ATOM     67  C   UNL A   1      43.198  26.330  25.433  1.00  0.00     0.002 A 
ATOM     68  C   UNL A   1      42.188  24.364  26.434  1.00  0.00     0.091 A 
ATOM     69  F   UNL A   1      41.101  24.563  28.551  1.00  0.00    -0.205 F 
ATOM     70  C   UNL A   1      42.886  24.975  25.378  1.00  0.00     0.022 A 
BRANCH  68  71
ATOM     71  S   UNL A   1      41.906  22.594  26.299  1.00  0.00     0.127 S 
ATOM     72  O   UNL A   1      42.581  22.095  27.496  1.00  0.00    -0.237 OA
ATOM     73  O   UNL A   1      40.445  22.514  26.343  1.00  0.00    -0.237 OA
ATOM     74  O   UNL A   1      42.503  22.185  25.035  1.00  0.00    -0.744 OA
ENDBRANCH  68  71
ENDBRANCH  50  64
BRANCH  51  75
ATOM     75  C   UNL A   1      40.065  31.966  35.711  1.00  0.00     0.023 A 
ATOM     76  C   UNL A   1      40.870  33.083  36.003  1.00  0.00     0.012 A 
ATOM     77  C   UNL A   1      38.973  31.669  36.548  1.00  0.00     0.148 A 
ATOM     78  C   UNL A   1      40.611  33.874  37.123  1.00  0.00     0.002 A 
ATOM     79  C   UNL A   1      38.687  32.494  37.631  1.00  0.00     0.091 A 
ATOM     80  F   UNL A   1      38.227  30.591  36.266  1.00  0.00    -0.205 F 
ATOM     81  C   UNL A   1      39.514  33.587  37.930  1.00  0.00     0.022 A 
BRANCH  79  82
ATOM     82  S   UNL A   1      37.210  32.276  38.631  1.00  0.00     0.127 S 
ATOM     83  O   UNL A   1      37.583  32.952  39.870  1.00  0.00    -0.237 OA
ATOM     84  O   UNL A   1      36.193  32.966  37.835  1.00  0.00    -0.237 OA
ATOM     85  O   UNL A   1      37.016  30.835  38.720  1.00  0.00    -0.744 OA
ENDBRANCH  79  82
ENDBRANCH  51  75
BRANCH  63  86
ATOM     86  C   UNL A   1      45.079  27.368  34.104  1.00  0.00     0.023 A 
ATOM     87  C   UNL A   1      46.298  28.072  34.071  1.00  0.00     0.012 A 
ATOM     88  C   UNL A   1      44.957  26.232  34.928  1.00  0.00     0.148 A 
ATOM     89  C   UNL A   1      47.385  27.639  34.828  1.00  0.00     0.002 A 
ATOM     90  C   UNL A   1      46.031  25.832  35.713  1.00  0.00     0.091 A 
ATOM     91  F   UNL A   1      43.795  25.561  34.930  1.00  0.00    -0.205 F 
ATOM     92  C   UNL A   1      47.248  26.529  35.658  1.00  0.00     0.022 A 
BRANCH  90  93
ATOM     93  S   UNL A   1      45.900  24.472  36.881  1.00  0.00     0.127 S 
ATOM     94  O   UNL A   1      47.300  24.092  37.056  1.00  0.00    -0.237 OA
ATOM     95  O   UNL A   1      45.292  25.114  38.048  1.00  0.00    -0.237 OA
ATOM     96  O   UNL A   1      45.051  23.480  36.235  1.00  0.00    -0.744 OA
ENDBRANCH  90  93
ENDBRANCH  63  86
ENDBRANCH  37  38
ENDBRANCH  29  32
ENDBRANCH  27  28
ENDBRANCH  26  27
ENDBRANCH   1  26
TORSDOF 17
ENDMDL
MODEL 3
REMARK VINA RESULT:     -11.2      2.666      7.882
REMARK SMILES COc1ccc(F)c(NC(=O)N2CCCC[C@@H]2C(=O)NCCCCNC(=O)c2ccc(-c3c4nc(c(-c5cccc(S(=O)(=O)[O-])c5F)c5ccc([nH]5)c(-c5cccc(S(=O)(=O)[O-])c5F)c5nc(c(-c6cccc(S(=O)(=O)[O-])c6F)c6ccc3[nH]6)C=C5)C=C4)cc2)c1
REMARK SMILES IDX 22 1 21 2 20 3 18 4 19 5 17 7 12 8 13 9 14 10 16 11 15 12
REMARK SMILES IDX 10 13 9 14 11 16 8 17 3 18 4 19 91 20 5 21 6 22 7 23 2 24
REMARK SMILES IDX 1 25 23 26 24 27 25 28 26 29 27 31 28 32 29 33 90 34 30 35
REMARK SMILES IDX 89 36 31 37 32 38 33 39 83 40 34 41 88 42 82 43 84 44 35 45
REMARK SMILES IDX 87 46 81 47 80 48 36 50 68 51 48 52 67 53 49 54 52 55 66 56
REMARK SMILES IDX 85 57 50 58 51 59 65 61 86 62 53 63 37 64 38 65 46 66 39 67
REMARK SMILES IDX 41 68 47 69 40 70 42 71 43 72 44 73 45 74 69 75 70 76 78 77
REMARK SMILES IDX 71 78 73 79 79 80 72 81 74 82 75 83 76 84 77 85 54 86 55 87
REMARK SMILES IDX 63 88 56 89 58 90 64 91 57 92 59 93 60 94 61 95 62 96
REMARK H PARENT 20 6 9 15 25 30 84 49 52 60
REMARK Flexibility Score: inf
ROOT
ATOM      1  C   UNL A   1      33.724  27.132  23.951  1.00  0.00     0.023 C 
ENDROOT
BRANCH   1   2
ATOM      2  C   UNL A   1      33.727  25.637  24.283  1.00  0.00     0.116 C 
BRANCH   2   3
ATOM      3  N   UNL A   1      33.167  24.868  23.189  1.00  0.00    -0.354 N 
ATOM      4  C   UNL A   1      33.495  23.622  22.749  1.00  0.00     0.242 C 
ATOM      5  O   UNL A   1      33.083  23.276  21.636  1.00  0.00    -0.273 OA
ATOM      6  H   UNL A   1      32.443  25.312  22.691  1.00  0.00     0.163 HD
BRANCH   4   7
ATOM      7  C   UNL A   1      34.441  22.695  23.546  1.00  0.00     0.176 C 
ATOM      8  N   UNL A   1      34.022  22.487  24.960  1.00  0.00    -0.313 N 
ATOM      9  C   UNL A   1      35.029  22.128  25.955  1.00  0.00     0.122 C 
ATOM     10  C   UNL A   1      36.412  22.715  25.730  1.00  0.00     0.022 C 
ATOM     11  C   UNL A   1      35.883  23.205  23.373  1.00  0.00     0.035 C 
ATOM     12  C   UNL A   1      36.859  22.497  24.296  1.00  0.00     0.004 C 
BRANCH   8  13
ATOM     13  C   UNL A   1      32.715  22.268  25.370  1.00  0.00     0.322 C 
ATOM     14  N   UNL A   1      31.956  21.297  24.801  1.00  0.00    -0.305 N 
ATOM     15  H   UNL A   1      31.021  21.556  24.635  1.00  0.00     0.171 HD
ATOM     16  O   UNL A   1      32.188  22.991  26.221  1.00  0.00    -0.248 OA
BRANCH  14  17
ATOM     17  C   UNL A   1      32.279  19.984  24.408  1.00  0.00     0.082 A 
ATOM     18  C   UNL A   1      33.160  17.782  24.829  1.00  0.00     0.121 A 
ATOM     19  C   UNL A   1      33.147  17.486  23.467  1.00  0.00     0.049 A 
ATOM     20  C   UNL A   1      32.645  18.985  25.308  1.00  0.00     0.075 A 
ATOM     21  C   UNL A   1      32.646  18.428  22.571  1.00  0.00     0.045 A 
ATOM     22  C   UNL A   1      32.224  19.669  23.045  1.00  0.00     0.147 A 
ATOM     23  F   UNL A   1      31.782  20.584  22.168  1.00  0.00    -0.205 F 
BRANCH  18  24
ATOM     24  O   UNL A   1      33.711  16.920  25.740  1.00  0.00    -0.497 OA
ATOM     25  C   UNL A   1      33.542  15.570  25.291  1.00  0.00     0.278 C 
ENDBRANCH  18  24
ENDBRANCH  14  17
ENDBRANCH   8  13
ENDBRANCH   4   7
ENDBRANCH   2   3
ENDBRANCH   1   2
BRANCH   1  26
ATOM     26  C   UNL A   1      33.068  28.018  25.011  1.00  0.00     0.023 C 
BRANCH  26  27
ATOM     27  C   UNL A   1      34.039  28.807  25.880  1.00  0.00     0.116 C 
BRANCH  27  28
ATOM     28  N   UNL A   1      33.500  30.097  26.297  1.00  0.00    -0.352 N 
ATOM     29  C   UNL A   1      34.007  30.979  27.218  1.00  0.00     0.251 C 
ATOM     30  H   UNL A   1      32.660  30.371  25.862  1.00  0.00     0.163 HD
ATOM     31  O   UNL A   1      33.366  31.960  27.566  1.00  0.00    -0.269 OA
BRANCH  29  32
ATOM     32  C   UNL A   1      35.333  30.702  27.807  1.00  0.00     0.039 A 
ATOM     33  C   UNL A   1      36.247  31.748  27.948  1.00  0.00     0.014 A 
ATOM     34  C   UNL A   1      35.632  29.422  28.287  1.00  0.00     0.014 A 
ATOM     35  C   UNL A   1      37.430  31.535  28.656  1.00  0.00     0.010 A 
ATOM     36  C   UNL A   1      36.786  29.227  29.039  1.00  0.00     0.010 A 
ATOM     37  C   UNL A   1      37.683  30.285  29.246  1.00  0.00    -0.014 A 
BRANCH  37  38
ATOM     38  C   UNL A   1      38.845  30.070  30.144  1.00  0.00     0.031 A 
ATOM     39  C   UNL A   1      39.932  29.108  29.756  1.00  0.00     0.074 A 
ATOM     40  C   UNL A   1      38.855  30.656  31.358  1.00  0.00     0.049 A 
ATOM     41  N   UNL A   1      40.949  28.691  30.462  1.00  0.00    -0.248 NA
ATOM     42  C   UNL A   1      39.853  28.520  28.408  1.00  0.00     0.031 C 
ATOM     43  C   UNL A   1      37.823  31.561  31.870  1.00  0.00     0.029 A 
ATOM     44  N   UNL A   1      39.747  30.551  32.397  1.00  0.00    -0.354 N 
ATOM     45  C   UNL A   1      41.614  27.771  29.662  1.00  0.00     0.074 A 
ATOM     46  C   UNL A   1      40.874  27.675  28.421  1.00  0.00     0.031 C 
ATOM     47  C   UNL A   1      38.139  31.928  33.121  1.00  0.00     0.029 A 
ATOM     48  C   UNL A   1      39.376  31.262  33.517  1.00  0.00     0.049 A 
ATOM     49  H   UNL A   1      40.574  30.020  32.346  1.00  0.00     0.167 HD
ATOM     50  C   UNL A   1      42.753  27.089  29.927  1.00  0.00     0.034 A 
ATOM     51  C   UNL A   1      39.962  31.359  34.727  1.00  0.00     0.034 A 
ATOM     52  C   UNL A   1      43.507  27.221  31.145  1.00  0.00     0.049 A 
ATOM     53  C   UNL A   1      41.251  30.624  34.973  1.00  0.00     0.074 A 
ATOM     54  C   UNL A   1      44.694  26.599  31.490  1.00  0.00     0.029 A 
ATOM     55  N   UNL A   1      43.158  28.037  32.209  1.00  0.00    -0.354 N 
ATOM     56  N   UNL A   1      41.924  29.846  34.160  1.00  0.00    -0.248 NA
ATOM     57  C   UNL A   1      41.884  30.808  36.287  1.00  0.00     0.031 C 
ATOM     58  C   UNL A   1      45.065  27.040  32.762  1.00  0.00     0.029 A 
ATOM     59  C   UNL A   1      44.115  27.947  33.204  1.00  0.00     0.049 A 
ATOM     60  H   UNL A   1      42.349  28.597  32.251  1.00  0.00     0.167 HD
ATOM     61  C   UNL A   1      43.077  29.484  34.846  1.00  0.00     0.074 A 
ATOM     62  C   UNL A   1      43.020  30.139  36.136  1.00  0.00     0.031 C 
ATOM     63  C   UNL A   1      44.084  28.669  34.449  1.00  0.00     0.034 A 
BRANCH  50  64
ATOM     64  C   UNL A   1      43.306  26.188  28.856  1.00  0.00     0.023 A 
ATOM     65  C   UNL A   1      42.815  24.872  28.749  1.00  0.00     0.012 A 
ATOM     66  C   UNL A   1      44.214  26.672  27.893  1.00  0.00     0.148 A 
ATOM     67  C   UNL A   1      43.226  24.044  27.707  1.00  0.00     0.002 A 
ATOM     68  C   UNL A   1      44.589  25.854  26.835  1.00  0.00     0.091 A 
ATOM     69  F   UNL A   1      44.680  27.922  28.026  1.00  0.00    -0.205 F 
ATOM     70  C   UNL A   1      44.102  24.538  26.743  1.00  0.00     0.022 A 
BRANCH  68  71
ATOM     71  S   UNL A   1      45.650  26.416  25.498  1.00  0.00     0.127 S 
ATOM     72  O   UNL A   1      46.905  26.669  26.203  1.00  0.00    -0.237 OA
ATOM     73  O   UNL A   1      45.671  25.249  24.614  1.00  0.00    -0.237 OA
ATOM     74  O   UNL A   1      45.005  27.596  24.939  1.00  0.00    -0.744 OA
ENDBRANCH  68  71
ENDBRANCH  50  64
BRANCH  51  75
ATOM     75  C   UNL A   1      39.381  32.259  35.764  1.00  0.00     0.023 A 
ATOM     76  C   UNL A   1      38.368  31.763  36.607  1.00  0.00     0.012 A 
ATOM     77  C   UNL A   1      39.845  33.574  35.951  1.00  0.00     0.148 A 
ATOM     78  C   UNL A   1      37.806  32.570  37.597  1.00  0.00     0.002 A 
ATOM     79  C   UNL A   1      39.321  34.355  36.976  1.00  0.00     0.091 A 
ATOM     80  F   UNL A   1      40.798  34.037  35.129  1.00  0.00    -0.205 F 
ATOM     81  C   UNL A   1      38.290  33.860  37.790  1.00  0.00     0.022 A 
BRANCH  79  82
ATOM     82  S   UNL A   1      39.990  35.972  37.381  1.00  0.00     0.127 S 
ATOM     83  O   UNL A   1      41.403  35.668  37.592  1.00  0.00    -0.237 OA
ATOM     84  O   UNL A   1      39.699  36.740  36.169  1.00  0.00    -0.237 OA
ATOM     85  O   UNL A   1      39.248  36.412  38.555  1.00  0.00    -0.744 OA
ENDBRANCH  79  82
ENDBRANCH  51  75
BRANCH  63  86
ATOM     86  C   UNL A   1      45.241  28.468  35.390  1.00  0.00     0.023 A 
ATOM     87  C   UNL A   1      46.340  29.348  35.343  1.00  0.00     0.012 A 
ATOM     88  C   UNL A   1      45.190  27.475  36.387  1.00  0.00     0.148 A 
ATOM     89  C   UNL A   1      47.382  29.225  36.260  1.00  0.00     0.002 A 
ATOM     90  C   UNL A   1      46.212  27.387  37.325  1.00  0.00     0.091 A 
ATOM     91  F   UNL A   1      44.147  26.631  36.402  1.00  0.00    -0.205 F 
ATOM     92  C   UNL A   1      47.313  28.256  37.258  1.00  0.00     0.022 A 
BRANCH  90  93
ATOM     93  S   UNL A   1      46.145  26.229  38.698  1.00  0.00     0.127 S 
ATOM     94  O   UNL A   1      47.368  26.558  39.426  1.00  0.00    -0.237 OA
ATOM     95  O   UNL A   1      44.908  26.616  39.378  1.00  0.00    -0.237 OA
ATOM     96  O   UNL A   1      46.106  24.904  38.093  1.00  0.00    -0.744 OA
ENDBRANCH  90  93
ENDBRANCH  63  86
ENDBRANCH  37  38
ENDBRANCH  29  32
ENDBRANCH  27  28
ENDBRANCH  26  27
ENDBRANCH   1  26
TORSDOF 17
ENDMDL
