MODEL 1
REMARK VINA RESULT:     -12.0      0.000      0.000
REMARK SMILES CC1=Nn2c(nnc(CCC(=O)NCCCCNC(=O)c3ccc(-c4c5nc(c(-c6cccc(S(=O)(=O)[O-])c6F)c6ccc([nH]6)c(-c6cccc(S(=O)(=O)[O-])c6F)c6nc(c(-c7cccc(S(=O)(=O)[O-])c7F)c7ccc4[nH]7)C=C6)C=C5)cc3)c2=O)SC1
REMARK SMILES IDX 16 1 15 2 14 3 13 4 11 5 12 6 10 8 9 9 8 10 1 11 2 12 3 13
REMARK SMILES IDX 87 14 4 15 86 16 5 17 84 18 6 19 85 20 7 21 17 22 18 23
REMARK SMILES IDX 19 24 20 26 21 27 22 28 83 29 23 30 82 31 24 32 25 33 26 34
REMARK SMILES IDX 76 35 27 36 81 37 75 38 77 39 28 40 80 41 74 42 73 43 29 45
REMARK SMILES IDX 61 46 41 47 60 48 42 49 45 50 59 51 78 52 43 53 44 54 58 56
REMARK SMILES IDX 79 57 46 58 30 59 31 60 39 61 32 62 34 63 40 64 33 65 35 66
REMARK SMILES IDX 36 67 37 68 38 69 62 70 63 71 71 72 64 73 66 74 72 75 65 76
REMARK SMILES IDX 67 77 68 78 69 79 70 80 47 81 48 82 56 83 49 84 51 85 57 86
REMARK SMILES IDX 50 87 52 88 53 89 54 90 55 91
REMARK H PARENT 13 7 18 25 77 44 45 55
REMARK Flexibility Score: inf
ROOT
ATOM      1  C   UNL A   1      31.189  32.087  26.504  1.00  0.00     0.023 C 
ENDROOT
BRANCH   1   2
ATOM      2  C   UNL A   1      31.084  30.898  25.559  1.00  0.00     0.023 C 
BRANCH   2   3
ATOM      3  C   UNL A   1      32.235  29.903  25.652  1.00  0.00     0.116 C 
BRANCH   3   4
ATOM      4  N   UNL A   1      32.851  29.719  24.353  1.00  0.00    -0.356 N 
ATOM      5  C   UNL A   1      32.571  28.801  23.387  1.00  0.00     0.220 C 
ATOM      6  O   UNL A   1      33.283  28.759  22.384  1.00  0.00    -0.275 OA
ATOM      7  H   UNL A   1      33.578  30.347  24.138  1.00  0.00     0.163 HD
BRANCH   5   8
ATOM      8  C   UNL A   1      31.397  27.854  23.548  1.00  0.00     0.106 C 
BRANCH   8   9
ATOM      9  C   UNL A   1      31.194  26.974  22.316  1.00  0.00     0.074 C 
BRANCH   9  10
ATOM     10  C   UNL A   1      31.533  25.518  22.568  1.00  0.00     0.131 A 
ATOM     11  C   UNL A   1      36.569  22.507  23.674  1.00  0.00     0.064 C 
ATOM     12  C   UNL A   1      35.070  22.591  23.503  1.00  0.00     0.046 C 
ATOM     13  N   UNL A   1      34.610  23.554  22.763  1.00  0.00    -0.172 NA
ATOM     14  C   UNL A   1      34.235  21.664  24.340  1.00  0.00     0.131 C 
ATOM     15  N   UNL A   1      33.255  23.828  22.727  1.00  0.00    -0.169 N 
ATOM     16  S   UNL A   1      32.652  21.362  23.561  1.00  0.00    -0.078 SA
ATOM     17  C   UNL A   1      32.255  23.022  23.213  1.00  0.00     0.214 A 
ATOM     18  C   UNL A   1      32.895  25.026  22.140  1.00  0.00     0.296 A 
ATOM     19  N   UNL A   1      31.028  23.404  23.385  1.00  0.00    -0.123 NA
ATOM     20  O   UNL A   1      33.561  25.718  21.382  1.00  0.00    -0.265 OA
ATOM     21  N   UNL A   1      30.678  24.741  23.158  1.00  0.00    -0.147 NA
ENDBRANCH   9  10
ENDBRANCH   8   9
ENDBRANCH   5   8
ENDBRANCH   3   4
ENDBRANCH   2   3
ENDBRANCH   1   2
BRANCH   1  22
ATOM     22  C   UNL A   1      32.572  32.268  27.113  1.00  0.00     0.116 C 
BRANCH  22  23
ATOM     23  N   UNL A   1      32.888  33.661  27.414  1.00  0.00    -0.352 N 
ATOM     24  C   UNL A   1      33.878  34.236  28.174  1.00  0.00     0.251 C 
ATOM     25  H   UNL A   1      32.278  34.309  26.994  1.00  0.00     0.163 HD
ATOM     26  O   UNL A   1      33.831  35.444  28.400  1.00  0.00    -0.269 OA
BRANCH  24  27
ATOM     27  C   UNL A   1      34.958  33.426  28.776  1.00  0.00     0.039 A 
ATOM     28  C   UNL A   1      34.628  32.260  29.479  1.00  0.00     0.014 A 
ATOM     29  C   UNL A   1      36.288  33.823  28.689  1.00  0.00     0.014 A 
ATOM     30  C   UNL A   1      35.639  31.465  30.027  1.00  0.00     0.010 A 
ATOM     31  C   UNL A   1      37.296  32.972  29.116  1.00  0.00     0.010 A 
ATOM     32  C   UNL A   1      36.983  31.807  29.826  1.00  0.00    -0.014 A 
BRANCH  32  33
ATOM     33  C   UNL A   1      38.099  31.052  30.441  1.00  0.00     0.031 A 
ATOM     34  C   UNL A   1      38.489  31.373  31.861  1.00  0.00     0.074 A 
ATOM     35  C   UNL A   1      38.819  30.180  29.712  1.00  0.00     0.049 A 
ATOM     36  N   UNL A   1      39.529  30.975  32.543  1.00  0.00    -0.248 NA
ATOM     37  C   UNL A   1      37.617  32.312  32.592  1.00  0.00     0.031 C 
ATOM     38  C   UNL A   1      38.573  29.837  28.311  1.00  0.00     0.029 A 
ATOM     39  N   UNL A   1      39.925  29.441  30.047  1.00  0.00    -0.354 N 
ATOM     40  C   UNL A   1      39.464  31.656  33.753  1.00  0.00     0.074 A 
ATOM     41  C   UNL A   1      38.322  32.537  33.690  1.00  0.00     0.031 C 
ATOM     42  C   UNL A   1      39.492  28.944  27.910  1.00  0.00     0.029 A 
ATOM     43  C   UNL A   1      40.409  28.674  29.014  1.00  0.00     0.049 A 
ATOM     44  H   UNL A   1      40.335  29.459  30.942  1.00  0.00     0.167 HD
ATOM     45  C   UNL A   1      40.252  31.521  34.844  1.00  0.00     0.034 A 
ATOM     46  C   UNL A   1      41.473  27.847  28.971  1.00  0.00     0.034 A 
ATOM     47  C   UNL A   1      41.321  30.570  34.934  1.00  0.00     0.049 A 
ATOM     48  C   UNL A   1      42.312  27.678  30.210  1.00  0.00     0.074 A 
ATOM     49  C   UNL A   1      42.113  30.267  36.024  1.00  0.00     0.029 A 
ATOM     50  N   UNL A   1      41.733  29.752  33.893  1.00  0.00    -0.354 N 
ATOM     51  N   UNL A   1      42.158  28.229  31.391  1.00  0.00    -0.248 NA
ATOM     52  C   UNL A   1      43.456  26.760  30.122  1.00  0.00     0.031 C 
ATOM     53  C   UNL A   1      43.008  29.265  35.641  1.00  0.00     0.029 A 
ATOM     54  C   UNL A   1      42.770  28.942  34.313  1.00  0.00     0.049 A 
ATOM     55  H   UNL A   1      41.344  29.748  32.988  1.00  0.00     0.167 HD
ATOM     56  C   UNL A   1      43.167  27.707  32.192  1.00  0.00     0.074 A 
ATOM     57  C   UNL A   1      43.915  26.780  31.368  1.00  0.00     0.031 C 
ATOM     58  C   UNL A   1      43.463  27.986  33.486  1.00  0.00     0.034 A 
BRANCH  45  59
ATOM     59  C   UNL A   1      39.913  32.353  36.052  1.00  0.00     0.023 A 
ATOM     60  C   UNL A   1      40.634  33.541  36.292  1.00  0.00     0.012 A 
ATOM     61  C   UNL A   1      38.878  31.984  36.932  1.00  0.00     0.148 A 
ATOM     62  C   UNL A   1      40.365  34.325  37.412  1.00  0.00     0.002 A 
ATOM     63  C   UNL A   1      38.584  32.795  38.023  1.00  0.00     0.091 A 
ATOM     64  F   UNL A   1      38.218  30.839  36.703  1.00  0.00    -0.205 F 
ATOM     65  C   UNL A   1      39.335  33.957  38.271  1.00  0.00     0.022 A 
BRANCH  63  66
ATOM     66  S   UNL A   1      37.230  32.449  39.152  1.00  0.00     0.127 S 
ATOM     67  O   UNL A   1      37.466  31.041  39.470  1.00  0.00    -0.237 OA
ATOM     68  O   UNL A   1      37.500  33.376  40.251  1.00  0.00    -0.237 OA
ATOM     69  O   UNL A   1      36.009  32.728  38.408  1.00  0.00    -0.744 OA
ENDBRANCH  63  66
ENDBRANCH  45  59
BRANCH  46  70
ATOM     70  C   UNL A   1      41.734  27.041  27.744  1.00  0.00     0.023 A 
ATOM     71  C   UNL A   1      42.323  27.676  26.632  1.00  0.00     0.012 A 
ATOM     72  C   UNL A   1      41.471  25.659  27.685  1.00  0.00     0.148 A 
ATOM     73  C   UNL A   1      42.630  26.954  25.478  1.00  0.00     0.002 A 
ATOM     74  C   UNL A   1      41.823  24.936  26.549  1.00  0.00     0.091 A 
ATOM     75  F   UNL A   1      40.905  25.076  28.751  1.00  0.00    -0.205 F 
ATOM     76  C   UNL A   1      42.390  25.583  25.440  1.00  0.00     0.022 A 
BRANCH  74  77
ATOM     77  S   UNL A   1      41.669  23.149  26.450  1.00  0.00     0.127 S 
ATOM     78  O   UNL A   1      42.341  22.721  27.674  1.00  0.00    -0.237 OA
ATOM     79  O   UNL A   1      40.217  22.973  26.450  1.00  0.00    -0.237 OA
ATOM     80  O   UNL A   1      42.324  22.766  25.206  1.00  0.00    -0.744 OA
ENDBRANCH  74  77
ENDBRANCH  46  70
BRANCH  58  81
ATOM     81  C   UNL A   1      44.643  27.291  34.110  1.00  0.00     0.023 A 
ATOM     82  C   UNL A   1      45.901  27.923  34.083  1.00  0.00     0.012 A 
ATOM     83  C   UNL A   1      44.473  26.107  34.853  1.00  0.00     0.148 A 
ATOM     84  C   UNL A   1      46.977  27.383  34.785  1.00  0.00     0.002 A 
ATOM     85  C   UNL A   1      45.538  25.600  35.589  1.00  0.00     0.091 A 
ATOM     86  F   UNL A   1      43.267  25.520  34.852  1.00  0.00    -0.205 F 
ATOM     87  C   UNL A   1      46.791  26.233  35.551  1.00  0.00     0.022 A 
BRANCH  85  88
ATOM     88  S   UNL A   1      45.367  24.191  36.690  1.00  0.00     0.127 S 
ATOM     89  O   UNL A   1      44.940  23.142  35.765  1.00  0.00    -0.237 OA
ATOM     90  O   UNL A   1      46.729  24.035  37.203  1.00  0.00    -0.237 OA
ATOM     91  O   UNL A   1      44.381  24.576  37.690  1.00  0.00    -0.744 OA
ENDBRANCH  85  88
ENDBRANCH  58  81
ENDBRANCH  32  33
ENDBRANCH  24  27
ENDBRANCH  22  23
ENDBRANCH   1  22
TORSDOF 16
ENDMDL
MODEL 2
REMARK VINA RESULT:     -11.9      1.795      7.964
REMARK SMILES CC1=Nn2c(nnc(CCC(=O)NCCCCNC(=O)c3ccc(-c4c5nc(c(-c6cccc(S(=O)(=O)[O-])c6F)c6ccc([nH]6)c(-c6cccc(S(=O)(=O)[O-])c6F)c6nc(c(-c7cccc(S(=O)(=O)[O-])c7F)c7ccc4[nH]7)C=C6)C=C5)cc3)c2=O)SC1
REMARK SMILES IDX 16 1 15 2 14 3 13 4 11 5 12 6 10 8 9 9 8 10 1 11 2 12 3 13
REMARK SMILES IDX 87 14 4 15 86 16 5 17 84 18 6 19 85 20 7 21 17 22 18 23
REMARK SMILES IDX 19 24 20 26 21 27 22 28 83 29 23 30 82 31 24 32 25 33 26 34
REMARK SMILES IDX 76 35 27 36 81 37 75 38 77 39 28 40 80 41 74 42 73 43 29 45
REMARK SMILES IDX 61 46 41 47 60 48 42 49 45 50 59 51 78 52 43 53 44 54 58 56
REMARK SMILES IDX 79 57 46 58 30 59 31 60 39 61 32 62 34 63 40 64 33 65 35 66
REMARK SMILES IDX 36 67 37 68 38 69 62 70 63 71 71 72 64 73 66 74 72 75 65 76
REMARK SMILES IDX 67 77 68 78 69 79 70 80 47 81 48 82 56 83 49 84 51 85 57 86
REMARK SMILES IDX 50 87 52 88 53 89 54 90 55 91
REMARK H PARENT 13 7 18 25 77 44 45 55
REMARK Flexibility Score: inf
ROOT
ATOM      1  C   UNL A   1      31.556  32.120  26.817  1.00  0.00     0.023 C 
ENDROOT
BRANCH   1   2
ATOM      2  C   UNL A   1      31.800  30.641  26.556  1.00  0.00     0.023 C 
BRANCH   2   3
ATOM      3  C   UNL A   1      31.174  30.105  25.273  1.00  0.00     0.116 C 
BRANCH   3   4
ATOM      4  N   UNL A   1      32.205  29.718  24.331  1.00  0.00    -0.356 N 
ATOM      5  C   UNL A   1      32.212  28.697  23.430  1.00  0.00     0.220 C 
ATOM      6  O   UNL A   1      33.237  28.485  22.782  1.00  0.00    -0.275 OA
ATOM      7  H   UNL A   1      33.019  30.272  24.344  1.00  0.00     0.163 HD
BRANCH   5   8
ATOM      8  C   UNL A   1      30.974  27.843  23.230  1.00  0.00     0.106 C 
BRANCH   8   9
ATOM      9  C   UNL A   1      31.106  26.911  22.028  1.00  0.00     0.074 C 
BRANCH   9  10
ATOM     10  C   UNL A   1      31.511  25.502  22.415  1.00  0.00     0.131 A 
ATOM     11  C   UNL A   1      36.710  22.774  23.503  1.00  0.00     0.064 C 
ATOM     12  C   UNL A   1      35.201  22.798  23.426  1.00  0.00     0.046 C 
ATOM     13  N   UNL A   1      34.661  23.658  22.617  1.00  0.00    -0.172 NA
ATOM     14  C   UNL A   1      34.454  21.948  24.415  1.00  0.00     0.131 C 
ATOM     15  N   UNL A   1      33.297  23.889  22.643  1.00  0.00    -0.169 N 
ATOM     16  S   UNL A   1      32.836  21.517  23.784  1.00  0.00    -0.078 SA
ATOM     17  C   UNL A   1      32.359  23.116  23.282  1.00  0.00     0.214 A 
ATOM     18  C   UNL A   1      32.858  25.003  21.954  1.00  0.00     0.296 A 
ATOM     19  N   UNL A   1      31.134  23.480  23.494  1.00  0.00    -0.123 NA
ATOM     20  O   UNL A   1      33.450  25.623  21.080  1.00  0.00    -0.265 OA
ATOM     21  N   UNL A   1      30.723  24.774  23.144  1.00  0.00    -0.147 NA
ENDBRANCH   9  10
ENDBRANCH   8   9
ENDBRANCH   5   8
ENDBRANCH   3   4
ENDBRANCH   2   3
ENDBRANCH   1   2
BRANCH   1  22
ATOM     22  C   UNL A   1      32.825  32.910  27.104  1.00  0.00     0.116 C 
BRANCH  22  23
ATOM     23  N   UNL A   1      32.565  34.203  27.732  1.00  0.00    -0.352 N 
ATOM     24  C   UNL A   1      33.123  34.822  28.825  1.00  0.00     0.251 C 
ATOM     25  H   UNL A   1      31.859  34.728  27.290  1.00  0.00     0.163 HD
ATOM     26  O   UNL A   1      32.610  35.857  29.249  1.00  0.00    -0.269 OA
BRANCH  24  27
ATOM     27  C   UNL A   1      34.280  34.241  29.536  1.00  0.00     0.039 A 
ATOM     28  C   UNL A   1      34.057  33.439  30.663  1.00  0.00     0.014 A 
ATOM     29  C   UNL A   1      35.582  34.508  29.129  1.00  0.00     0.014 A 
ATOM     30  C   UNL A   1      35.138  32.854  31.328  1.00  0.00     0.010 A 
ATOM     31  C   UNL A   1      36.644  33.826  29.704  1.00  0.00     0.010 A 
ATOM     32  C   UNL A   1      36.439  33.027  30.835  1.00  0.00    -0.014 A 
BRANCH  32  33
ATOM     33  C   UNL A   1      37.634  32.499  31.533  1.00  0.00     0.031 A 
ATOM     34  C   UNL A   1      38.395  31.363  30.901  1.00  0.00     0.074 A 
ATOM     35  C   UNL A   1      37.966  32.951  32.757  1.00  0.00     0.049 A 
ATOM     36  N   UNL A   1      39.355  30.631  31.400  1.00  0.00    -0.248 NA
ATOM     37  C   UNL A   1      37.983  30.963  29.542  1.00  0.00     0.031 C 
ATOM     38  C   UNL A   1      37.264  34.002  33.493  1.00  0.00     0.029 A 
ATOM     39  N   UNL A   1      38.967  32.558  33.608  1.00  0.00    -0.354 N 
ATOM     40  C   UNL A   1      39.617  29.657  30.444  1.00  0.00     0.074 A 
ATOM     41  C   UNL A   1      38.678  29.851  29.364  1.00  0.00     0.031 C 
ATOM     42  C   UNL A   1      37.866  34.182  34.681  1.00  0.00     0.029 A 
ATOM     43  C   UNL A   1      38.975  33.239  34.802  1.00  0.00     0.049 A 
ATOM     44  H   UNL A   1      39.619  31.854  33.386  1.00  0.00     0.167 HD
ATOM     45  C   UNL A   1      40.590  28.718  30.436  1.00  0.00     0.034 A 
ATOM     46  C   UNL A   1      39.789  33.113  35.869  1.00  0.00     0.034 A 
ATOM     47  C   UNL A   1      41.582  28.599  31.464  1.00  0.00     0.049 A 
ATOM     48  C   UNL A   1      40.893  32.090  35.822  1.00  0.00     0.074 A 
ATOM     49  C   UNL A   1      42.678  27.761  31.508  1.00  0.00     0.029 A 
ATOM     50  N   UNL A   1      41.606  29.360  32.623  1.00  0.00    -0.354 N 
ATOM     51  N   UNL A   1      41.213  31.265  34.853  1.00  0.00    -0.248 NA
ATOM     52  C   UNL A   1      41.764  31.993  37.003  1.00  0.00     0.031 C 
ATOM     53  C   UNL A   1      43.366  28.014  32.698  1.00  0.00     0.029 A 
ATOM     54  C   UNL A   1      42.698  29.012  33.392  1.00  0.00     0.049 A 
ATOM     55  H   UNL A   1      40.942  30.047  32.862  1.00  0.00     0.167 HD
ATOM     56  C   UNL A   1      42.332  30.570  35.295  1.00  0.00     0.074 A 
ATOM     57  C   UNL A   1      42.649  31.085  36.611  1.00  0.00     0.031 C 
ATOM     58  C   UNL A   1      43.023  29.579  34.677  1.00  0.00     0.034 A 
BRANCH  45  59
ATOM     59  C   UNL A   1      40.679  27.821  29.230  1.00  0.00     0.023 A 
ATOM     60  C   UNL A   1      39.867  26.669  29.169  1.00  0.00     0.012 A 
ATOM     61  C   UNL A   1      41.535  28.119  28.153  1.00  0.00     0.148 A 
ATOM     62  C   UNL A   1      39.939  25.802  28.080  1.00  0.00     0.002 A 
ATOM     63  C   UNL A   1      41.569  27.275  27.049  1.00  0.00     0.091 A 
ATOM     64  F   UNL A   1      42.318  29.206  28.237  1.00  0.00    -0.205 F 
ATOM     65  C   UNL A   1      40.782  26.110  27.017  1.00  0.00     0.022 A 
BRANCH  63  66
ATOM     66  S   UNL A   1      42.567  27.617  25.596  1.00  0.00     0.127 S 
ATOM     67  O   UNL A   1      42.008  28.892  25.148  1.00  0.00    -0.237 OA
ATOM     68  O   UNL A   1      43.914  27.708  26.161  1.00  0.00    -0.237 OA
ATOM     69  O   UNL A   1      42.362  26.491  24.695  1.00  0.00    -0.744 OA
ENDBRANCH  63  66
ENDBRANCH  45  59
BRANCH  46  70
ATOM     70  C   UNL A   1      39.651  34.051  37.020  1.00  0.00     0.023 A 
ATOM     71  C   UNL A   1      40.011  35.401  36.837  1.00  0.00     0.012 A 
ATOM     72  C   UNL A   1      39.114  33.645  38.257  1.00  0.00     0.148 A 
ATOM     73  C   UNL A   1      39.855  36.327  37.870  1.00  0.00     0.002 A 
ATOM     74  C   UNL A   1      38.917  34.583  39.266  1.00  0.00     0.091 A 
ATOM     75  F   UNL A   1      38.783  32.356  38.412  1.00  0.00    -0.205 F 
ATOM     76  C   UNL A   1      39.299  35.921  39.079  1.00  0.00     0.022 A 
BRANCH  74  77
ATOM     77  S   UNL A   1      38.095  34.187  40.814  1.00  0.00     0.127 S 
ATOM     78  O   UNL A   1      36.942  33.418  40.352  1.00  0.00    -0.237 OA
ATOM     79  O   UNL A   1      39.120  33.405  41.505  1.00  0.00    -0.237 OA
ATOM     80  O   UNL A   1      37.789  35.468  41.436  1.00  0.00    -0.744 OA
ENDBRANCH  74  77
ENDBRANCH  46  70
BRANCH  58  81
ATOM     81  C   UNL A   1      44.194  28.972  35.401  1.00  0.00     0.023 A 
ATOM     82  C   UNL A   1      45.437  29.633  35.364  1.00  0.00     0.012 A 
ATOM     83  C   UNL A   1      44.024  27.853  36.239  1.00  0.00     0.148 A 
ATOM     84  C   UNL A   1      46.498  29.185  36.149  1.00  0.00     0.002 A 
ATOM     85  C   UNL A   1      45.071  27.441  37.054  1.00  0.00     0.091 A 
ATOM     86  F   UNL A   1      42.833  27.237  36.246  1.00  0.00    -0.205 F 
ATOM     87  C   UNL A   1      46.310  28.102  37.005  1.00  0.00     0.022 A 
BRANCH  85  88
ATOM     88  S   UNL A   1      44.892  26.129  38.268  1.00  0.00     0.127 S 
ATOM     89  O   UNL A   1      43.674  26.536  38.967  1.00  0.00    -0.237 OA
ATOM     90  O   UNL A   1      44.744  24.945  37.421  1.00  0.00    -0.237 OA
ATOM     91  O   UNL A   1      46.107  26.153  39.071  1.00  0.00    -0.744 OA
ENDBRANCH  85  88
ENDBRANCH  58  81
ENDBRANCH  32  33
ENDBRANCH  24  27
ENDBRANCH  22  23
ENDBRANCH   1  22
TORSDOF 16
ENDMDL
MODEL 3
REMARK VINA RESULT:     -11.8      2.622      3.448
REMARK SMILES CC1=Nn2c(nnc(CCC(=O)NCCCCNC(=O)c3ccc(-c4c5nc(c(-c6cccc(S(=O)(=O)[O-])c6F)c6ccc([nH]6)c(-c6cccc(S(=O)(=O)[O-])c6F)c6nc(c(-c7cccc(S(=O)(=O)[O-])c7F)c7ccc4[nH]7)C=C6)C=C5)cc3)c2=O)SC1
REMARK SMILES IDX 16 1 15 2 14 3 13 4 11 5 12 6 10 8 9 9 8 10 1 11 2 12 3 13
REMARK SMILES IDX 87 14 4 15 86 16 5 17 84 18 6 19 85 20 7 21 17 22 18 23
REMARK SMILES IDX 19 24 20 26 21 27 22 28 83 29 23 30 82 31 24 32 25 33 26 34
REMARK SMILES IDX 76 35 27 36 81 37 75 38 77 39 28 40 80 41 74 42 73 43 29 45
REMARK SMILES IDX 61 46 41 47 60 48 42 49 45 50 59 51 78 52 43 53 44 54 58 56
REMARK SMILES IDX 79 57 46 58 30 59 31 60 39 61 32 62 34 63 40 64 33 65 35 66
REMARK SMILES IDX 36 67 37 68 38 69 62 70 63 71 71 72 64 73 66 74 72 75 65 76
REMARK SMILES IDX 67 77 68 78 69 79 70 80 47 81 48 82 56 83 49 84 51 85 57 86
REMARK SMILES IDX 50 87 52 88 53 89 54 90 55 91
REMARK H PARENT 13 7 18 25 77 44 45 55
REMARK Flexibility Score: inf
ROOT
ATOM      1  C   UNL A   1      32.426  28.365  26.732  1.00  0.00     0.023 C 
ENDROOT
BRANCH   1   2
ATOM      2  C   UNL A   1      31.774  29.389  25.814  1.00  0.00     0.023 C 
BRANCH   2   3
ATOM      3  C   UNL A   1      32.184  29.290  24.350  1.00  0.00     0.116 C 
BRANCH   3   4
ATOM      4  N   UNL A   1      31.080  29.663  23.488  1.00  0.00    -0.356 N 
ATOM      5  C   UNL A   1      30.200  28.868  22.820  1.00  0.00     0.220 C 
ATOM      6  O   UNL A   1      29.385  29.393  22.060  1.00  0.00    -0.275 OA
ATOM      7  H   UNL A   1      30.948  30.631  23.367  1.00  0.00     0.163 HD
BRANCH   5   8
ATOM      8  C   UNL A   1      30.224  27.365  23.015  1.00  0.00     0.106 C 
BRANCH   8   9
ATOM      9  C   UNL A   1      31.140  26.668  22.012  1.00  0.00     0.074 C 
BRANCH   9  10
ATOM     10  C   UNL A   1      31.551  25.278  22.455  1.00  0.00     0.131 A 
ATOM     11  C   UNL A   1      36.760  22.627  23.681  1.00  0.00     0.064 C 
ATOM     12  C   UNL A   1      35.251  22.638  23.592  1.00  0.00     0.046 C 
ATOM     13  N   UNL A   1      34.711  23.463  22.747  1.00  0.00    -0.172 NA
ATOM     14  C   UNL A   1      34.502  21.820  24.606  1.00  0.00     0.131 C 
ATOM     15  N   UNL A   1      33.346  23.686  22.755  1.00  0.00    -0.169 N 
ATOM     16  S   UNL A   1      32.892  21.355  23.980  1.00  0.00    -0.078 SA
ATOM     17  C   UNL A   1      32.408  22.931  23.416  1.00  0.00     0.214 A 
ATOM     18  C   UNL A   1      32.905  24.770  22.021  1.00  0.00     0.296 A 
ATOM     19  N   UNL A   1      31.179  23.294  23.604  1.00  0.00    -0.123 NA
ATOM     20  O   UNL A   1      33.499  25.362  21.129  1.00  0.00    -0.265 OA
ATOM     21  N   UNL A   1      30.763  24.571  23.204  1.00  0.00    -0.147 NA
ENDBRANCH   9  10
ENDBRANCH   8   9
ENDBRANCH   5   8
ENDBRANCH   3   4
ENDBRANCH   2   3
ENDBRANCH   1   2
BRANCH   1  22
ATOM     22  C   UNL A   1      33.783  28.796  27.268  1.00  0.00     0.116 C 
BRANCH  22  23
ATOM     23  N   UNL A   1      33.826  30.204  27.652  1.00  0.00    -0.352 N 
ATOM     24  C   UNL A   1      34.773  30.947  28.317  1.00  0.00     0.251 C 
ATOM     25  H   UNL A   1      33.029  30.716  27.386  1.00  0.00     0.163 HD
ATOM     26  O   UNL A   1      34.495  32.095  28.660  1.00  0.00    -0.269 OA
BRANCH  24  27
ATOM     27  C   UNL A   1      36.086  30.377  28.682  1.00  0.00     0.039 A 
ATOM     28  C   UNL A   1      36.183  29.547  29.807  1.00  0.00     0.014 A 
ATOM     29  C   UNL A   1      37.230  30.681  27.951  1.00  0.00     0.014 A 
ATOM     30  C   UNL A   1      37.411  28.973  30.147  1.00  0.00     0.010 A 
ATOM     31  C   UNL A   1      38.417  30.011  28.208  1.00  0.00     0.010 A 
ATOM     32  C   UNL A   1      38.531  29.184  29.332  1.00  0.00    -0.014 A 
BRANCH  32  33
ATOM     33  C   UNL A   1      39.877  28.669  29.676  1.00  0.00     0.031 A 
ATOM     34  C   UNL A   1      40.664  29.371  30.753  1.00  0.00     0.074 A 
ATOM     35  C   UNL A   1      40.428  27.667  28.966  1.00  0.00     0.049 A 
ATOM     36  N   UNL A   1      41.913  29.214  31.100  1.00  0.00    -0.248 NA
ATOM     37  C   UNL A   1      39.963  30.431  31.502  1.00  0.00     0.031 C 
ATOM     38  C   UNL A   1      39.784  26.956  27.861  1.00  0.00     0.029 A 
ATOM     39  N   UNL A   1      41.670  27.093  29.055  1.00  0.00    -0.354 N 
ATOM     40  C   UNL A   1      42.158  30.187  32.061  1.00  0.00     0.074 A 
ATOM     41  C   UNL A   1      40.952  30.969  32.199  1.00  0.00     0.031 C 
ATOM     42  C   UNL A   1      40.632  26.029  27.384  1.00  0.00     0.029 A 
ATOM     43  C   UNL A   1      41.887  26.102  28.127  1.00  0.00     0.049 A 
ATOM     44  H   UNL A   1      42.344  27.365  29.719  1.00  0.00     0.167 HD
ATOM     45  C   UNL A   1      43.270  30.380  32.807  1.00  0.00     0.034 A 
ATOM     46  C   UNL A   1      42.978  25.340  27.908  1.00  0.00     0.034 A 
ATOM     47  C   UNL A   1      44.425  29.534  32.736  1.00  0.00     0.049 A 
ATOM     48  C   UNL A   1      44.190  25.542  28.779  1.00  0.00     0.074 A 
ATOM     49  C   UNL A   1      45.562  29.566  33.519  1.00  0.00     0.029 A 
ATOM     50  N   UNL A   1      44.579  28.489  31.838  1.00  0.00    -0.354 N 
ATOM     51  N   UNL A   1      44.360  26.379  29.775  1.00  0.00    -0.248 NA
ATOM     52  C   UNL A   1      45.353  24.684  28.512  1.00  0.00     0.031 C 
ATOM     53  C   UNL A   1      46.408  28.538  33.091  1.00  0.00     0.029 A 
ATOM     54  C   UNL A   1      45.794  27.866  32.045  1.00  0.00     0.049 A 
ATOM     55  H   UNL A   1      43.919  28.229  31.155  1.00  0.00     0.167 HD
ATOM     56  C   UNL A   1      45.635  26.132  30.270  1.00  0.00     0.074 A 
ATOM     57  C   UNL A   1      46.187  25.053  29.477  1.00  0.00     0.031 C 
ATOM     58  C   UNL A   1      46.298  26.756  31.275  1.00  0.00     0.034 A 
BRANCH  45  59
ATOM     59  C   UNL A   1      43.238  31.487  33.828  1.00  0.00     0.023 A 
ATOM     60  C   UNL A   1      43.776  32.746  33.492  1.00  0.00     0.012 A 
ATOM     61  C   UNL A   1      42.661  31.298  35.098  1.00  0.00     0.148 A 
ATOM     62  C   UNL A   1      43.785  33.787  34.418  1.00  0.00     0.002 A 
ATOM     63  C   UNL A   1      42.632  32.355  36.002  1.00  0.00     0.091 A 
ATOM     64  F   UNL A   1      42.175  30.088  35.410  1.00  0.00    -0.205 F 
ATOM     65  C   UNL A   1      43.206  33.595  35.668  1.00  0.00     0.022 A 
BRANCH  63  66
ATOM     66  S   UNL A   1      41.847  32.233  37.612  1.00  0.00     0.127 S 
ATOM     67  O   UNL A   1      42.630  31.171  38.242  1.00  0.00    -0.237 OA
ATOM     68  O   UNL A   1      42.072  33.568  38.167  1.00  0.00    -0.237 OA
ATOM     69  O   UNL A   1      40.450  31.913  37.352  1.00  0.00    -0.744 OA
ENDBRANCH  63  66
ENDBRANCH  45  59
BRANCH  46  70
ATOM     70  C   UNL A   1      42.927  24.251  26.892  1.00  0.00     0.023 A 
ATOM     71  C   UNL A   1      43.611  24.432  25.673  1.00  0.00     0.012 A 
ATOM     72  C   UNL A   1      42.275  23.027  27.137  1.00  0.00     0.148 A 
ATOM     73  C   UNL A   1      43.632  23.423  24.710  1.00  0.00     0.002 A 
ATOM     74  C   UNL A   1      42.340  22.008  26.192  1.00  0.00     0.091 A 
ATOM     75  F   UNL A   1      41.625  22.877  28.300  1.00  0.00    -0.205 F 
ATOM     76  C   UNL A   1      43.007  22.207  24.973  1.00  0.00     0.022 A 
BRANCH  74  77
ATOM     77  S   UNL A   1      41.673  20.365  26.487  1.00  0.00     0.127 S 
ATOM     78  O   UNL A   1      40.235  20.608  26.412  1.00  0.00    -0.237 OA
ATOM     79  O   UNL A   1      42.231  19.611  25.365  1.00  0.00    -0.237 OA
ATOM     80  O   UNL A   1      42.176  19.965  27.794  1.00  0.00    -0.744 OA
ENDBRANCH  74  77
ENDBRANCH  46  70
BRANCH  58  81
ATOM     81  C   UNL A   1      47.698  26.303  31.590  1.00  0.00     0.023 A 
ATOM     82  C   UNL A   1      48.778  26.894  30.905  1.00  0.00     0.012 A 
ATOM     83  C   UNL A   1      47.949  25.425  32.663  1.00  0.00     0.148 A 
ATOM     84  C   UNL A   1      50.090  26.612  31.281  1.00  0.00     0.002 A 
ATOM     85  C   UNL A   1      49.258  25.187  33.062  1.00  0.00     0.091 A 
ATOM     86  F   UNL A   1      46.902  24.869  33.290  1.00  0.00    -0.205 F 
ATOM     87  C   UNL A   1      50.329  25.775  32.369  1.00  0.00     0.022 A 
BRANCH  85  88
ATOM     88  S   UNL A   1      49.663  24.213  34.516  1.00  0.00     0.127 S 
ATOM     89  O   UNL A   1      49.275  22.869  34.090  1.00  0.00    -0.237 OA
ATOM     90  O   UNL A   1      51.106  24.423  34.636  1.00  0.00    -0.237 OA
ATOM     91  O   UNL A   1      48.876  24.770  35.608  1.00  0.00    -0.744 OA
ENDBRANCH  85  88
ENDBRANCH  58  81
ENDBRANCH  32  33
ENDBRANCH  24  27
ENDBRANCH  22  23
ENDBRANCH   1  22
TORSDOF 16
ENDMDL
