MODEL 1
REMARK VINA RESULT:     -10.9      0.000      0.000
REMARK SMILES CC(C)(C)OCC[C@@H]1CCC[C@]1([NH2+]C1CC1)C(=O)NCCCCNC(=O)c1ccc(-c2c3nc(c(-c4cccc(S(=O)(=O)[O-])c4F)c4ccc([nH]4)c(-c4cccc(S(=O)(=O)[O-])c4F)c4nc(c(-c5cccc(S(=O)(=O)[O-])c5F)c5ccc2[nH]5)C=C4)C=C3)cc1
REMARK SMILES IDX 21 1 20 2 19 3 17 4 18 5 12 7 8 8 9 9 10 10 11 11 7 12 6 13
REMARK SMILES IDX 5 14 2 15 1 16 3 17 4 18 13 19 14 22 15 23 16 24 22 25 23 26
REMARK SMILES IDX 24 27 25 28 26 30 27 31 28 32 89 33 29 34 88 35 30 36 31 37
REMARK SMILES IDX 32 38 82 39 33 40 87 41 81 42 83 43 34 44 86 45 80 46 79 47
REMARK SMILES IDX 35 49 67 50 47 51 66 52 48 53 51 54 65 55 84 56 49 57 50 58
REMARK SMILES IDX 64 60 85 61 52 62 36 63 37 64 45 65 38 66 40 67 46 68 39 69
REMARK SMILES IDX 41 70 42 71 43 72 44 73 68 74 69 75 77 76 70 77 72 78 78 79
REMARK SMILES IDX 71 80 73 81 74 82 75 83 76 84 53 85 54 86 62 87 55 88 57 89
REMARK SMILES IDX 63 90 56 91 58 92 59 93 60 94 61 95
REMARK H PARENT 19 6 13 20 13 21 24 29 83 48 51 59
REMARK Flexibility Score: inf
ROOT
ATOM      1  C   UNL A   1      32.229  27.473  26.189  1.00  0.00     0.023 C 
ENDROOT
BRANCH   1   2
ATOM      2  C   UNL A   1      33.376  26.995  25.299  1.00  0.00     0.116 C 
BRANCH   2   3
ATOM      3  N   UNL A   1      32.886  26.165  24.227  1.00  0.00    -0.351 N 
ATOM      4  C   UNL A   1      32.890  24.813  24.068  1.00  0.00     0.281 C 
ATOM      5  O   UNL A   1      32.376  24.404  23.017  1.00  0.00    -0.268 OA
ATOM      6  H   UNL A   1      32.480  26.662  23.480  1.00  0.00     0.163 HD
BRANCH   4   7
ATOM      7  C   UNL A   1      33.498  23.810  25.109  1.00  0.00     0.178 C 
ATOM      8  C   UNL A   1      33.008  22.321  25.001  1.00  0.00     0.063 C 
ATOM      9  C   UNL A   1      31.541  22.440  25.449  1.00  0.00     0.011 C 
ATOM     10  C   UNL A   1      31.569  23.409  26.616  1.00  0.00     0.008 C 
ATOM     11  C   UNL A   1      32.913  24.133  26.522  1.00  0.00     0.079 C 
BRANCH   8  12
ATOM     12  C   UNL A   1      33.060  21.435  23.747  1.00  0.00     0.039 C 
BRANCH  12  13
ATOM     13  C   UNL A   1      32.223  20.152  23.645  1.00  0.00     0.161 C 
BRANCH  13  14
ATOM     14  O   UNL A   1      32.429  19.177  24.669  1.00  0.00    -0.376 OA
BRANCH  14  15
ATOM     15  C   UNL A   1      33.174  17.984  24.399  1.00  0.00     0.060 C 
ATOM     16  C   UNL A   1      32.867  17.625  22.934  1.00  0.00     0.042 C 
ATOM     17  C   UNL A   1      32.646  16.851  25.291  1.00  0.00     0.042 C 
ATOM     18  C   UNL A   1      34.696  18.152  24.483  1.00  0.00     0.042 C 
ENDBRANCH  14  15
ENDBRANCH  13  14
ENDBRANCH  12  13
ENDBRANCH   8  12
BRANCH   7  19
ATOM     19  N   UNL A   1      34.971  23.885  25.169  1.00  0.00    -0.331 N 
ATOM     20  H   UNL A   1      35.195  24.733  25.688  1.00  0.00     0.347 HD
ATOM     21  H   UNL A   1      35.231  23.828  24.183  1.00  0.00     0.347 HD
BRANCH  19  22
ATOM     22  C   UNL A   1      35.775  22.811  25.764  1.00  0.00     0.183 C 
ATOM     23  C   UNL A   1      36.617  21.790  25.063  1.00  0.00     0.071 C 
ATOM     24  C   UNL A   1      37.278  22.975  25.692  1.00  0.00     0.071 C 
ENDBRANCH  19  22
ENDBRANCH   7  19
ENDBRANCH   4   7
ENDBRANCH   2   3
ENDBRANCH   1   2
BRANCH   1  25
ATOM     25  C   UNL A   1      31.784  28.903  25.929  1.00  0.00     0.023 C 
BRANCH  25  26
ATOM     26  C   UNL A   1      32.927  29.896  25.831  1.00  0.00     0.116 C 
BRANCH  26  27
ATOM     27  N   UNL A   1      32.618  31.199  26.417  1.00  0.00    -0.352 N 
ATOM     28  C   UNL A   1      33.357  31.916  27.329  1.00  0.00     0.251 C 
ATOM     29  H   UNL A   1      31.775  31.615  26.123  1.00  0.00     0.163 HD
ATOM     30  O   UNL A   1      32.927  32.957  27.814  1.00  0.00    -0.269 OA
BRANCH  28  31
ATOM     31  C   UNL A   1      34.667  31.376  27.741  1.00  0.00     0.039 A 
ATOM     32  C   UNL A   1      35.734  32.253  27.946  1.00  0.00     0.014 A 
ATOM     33  C   UNL A   1      34.784  30.022  28.055  1.00  0.00     0.014 A 
ATOM     34  C   UNL A   1      36.895  31.781  28.560  1.00  0.00     0.010 A 
ATOM     35  C   UNL A   1      35.890  29.585  28.767  1.00  0.00     0.010 A 
ATOM     36  C   UNL A   1      36.962  30.456  29.023  1.00  0.00    -0.014 A 
BRANCH  36  37
ATOM     37  C   UNL A   1      38.134  29.941  29.775  1.00  0.00     0.031 A 
ATOM     38  C   UNL A   1      38.376  30.415  31.183  1.00  0.00     0.074 A 
ATOM     39  C   UNL A   1      39.039  29.154  29.159  1.00  0.00     0.049 A 
ATOM     40  N   UNL A   1      39.398  30.192  31.966  1.00  0.00    -0.248 NA
ATOM     41  C   UNL A   1      37.353  31.298  31.774  1.00  0.00     0.031 C 
ATOM     42  C   UNL A   1      38.971  28.706  27.766  1.00  0.00     0.029 A 
ATOM     43  N   UNL A   1      40.213  28.612  29.621  1.00  0.00    -0.354 N 
ATOM     44  C   UNL A   1      39.170  30.949  33.108  1.00  0.00     0.074 A 
ATOM     45  C   UNL A   1      37.938  31.674  32.900  1.00  0.00     0.031 C 
ATOM     46  C   UNL A   1      40.045  27.947  27.493  1.00  0.00     0.029 A 
ATOM     47  C   UNL A   1      40.894  27.877  28.678  1.00  0.00     0.049 A 
ATOM     48  H   UNL A   1      40.538  28.739  30.542  1.00  0.00     0.167 HD
ATOM     49  C   UNL A   1      39.897  31.004  34.249  1.00  0.00     0.034 A 
ATOM     50  C   UNL A   1      42.067  27.219  28.761  1.00  0.00     0.034 A 
ATOM     51  C   UNL A   1      41.071  30.213  34.485  1.00  0.00     0.049 A 
ATOM     52  C   UNL A   1      42.810  27.224  30.072  1.00  0.00     0.074 A 
ATOM     53  C   UNL A   1      41.818  30.107  35.643  1.00  0.00     0.029 A 
ATOM     54  N   UNL A   1      41.662  29.382  33.546  1.00  0.00    -0.354 N 
ATOM     55  N   UNL A   1      42.494  27.818  31.197  1.00  0.00    -0.248 NA
ATOM     56  C   UNL A   1      44.052  26.439  30.136  1.00  0.00     0.031 C 
ATOM     57  C   UNL A   1      42.866  29.212  35.404  1.00  0.00     0.029 A 
ATOM     58  C   UNL A   1      42.763  28.754  34.099  1.00  0.00     0.049 A 
ATOM     59  H   UNL A   1      41.346  29.257  32.623  1.00  0.00     0.167 HD
ATOM     60  C   UNL A   1      43.474  27.451  32.111  1.00  0.00     0.074 A 
ATOM     61  C   UNL A   1      44.385  26.567  31.413  1.00  0.00     0.031 C 
ATOM     62  C   UNL A   1      43.619  27.825  33.406  1.00  0.00     0.034 A 
BRANCH  49  63
ATOM     63  C   UNL A   1      39.388  31.889  35.355  1.00  0.00     0.023 A 
ATOM     64  C   UNL A   1      38.443  31.379  36.270  1.00  0.00     0.012 A 
ATOM     65  C   UNL A   1      39.861  33.206  35.513  1.00  0.00     0.148 A 
ATOM     66  C   UNL A   1      37.945  32.178  37.298  1.00  0.00     0.002 A 
ATOM     67  C   UNL A   1      39.395  33.980  36.569  1.00  0.00     0.091 A 
ATOM     68  F   UNL A   1      40.740  33.683  34.620  1.00  0.00    -0.205 F 
ATOM     69  C   UNL A   1      38.427  33.474  37.453  1.00  0.00     0.022 A 
BRANCH  67  70
ATOM     70  S   UNL A   1      40.012  35.635  36.900  1.00  0.00     0.127 S 
ATOM     71  O   UNL A   1      41.453  35.402  36.982  1.00  0.00    -0.237 OA
ATOM     72  O   UNL A   1      39.581  36.370  35.711  1.00  0.00    -0.237 OA
ATOM     73  O   UNL A   1      39.374  36.059  38.138  1.00  0.00    -0.744 OA
ENDBRANCH  67  70
ENDBRANCH  49  63
BRANCH  50  74
ATOM     74  C   UNL A   1      42.563  26.423  27.603  1.00  0.00     0.023 A 
ATOM     75  C   UNL A   1      43.438  27.030  26.681  1.00  0.00     0.012 A 
ATOM     76  C   UNL A   1      42.205  25.073  27.422  1.00  0.00     0.148 A 
ATOM     77  C   UNL A   1      43.925  26.318  25.584  1.00  0.00     0.002 A 
ATOM     78  C   UNL A   1      42.735  24.354  26.354  1.00  0.00     0.091 A 
ATOM     79  F   UNL A   1      41.363  24.515  28.303  1.00  0.00    -0.205 F 
ATOM     80  C   UNL A   1      43.581  24.979  25.426  1.00  0.00     0.022 A 
BRANCH  78  81
ATOM     81  S   UNL A   1      42.448  22.592  26.146  1.00  0.00     0.127 S 
ATOM     82  O   UNL A   1      43.066  22.045  27.351  1.00  0.00    -0.237 OA
ATOM     83  O   UNL A   1      40.986  22.523  26.117  1.00  0.00    -0.237 OA
ATOM     84  O   UNL A   1      43.087  22.241  24.886  1.00  0.00    -0.744 OA
ENDBRANCH  78  81
ENDBRANCH  50  74
BRANCH  62  85
ATOM     85  C   UNL A   1      44.782  27.257  34.174  1.00  0.00     0.023 A 
ATOM     86  C   UNL A   1      46.017  27.934  34.166  1.00  0.00     0.012 A 
ATOM     87  C   UNL A   1      44.622  26.111  34.976  1.00  0.00     0.148 A 
ATOM     88  C   UNL A   1      47.084  27.463  34.929  1.00  0.00     0.002 A 
ATOM     89  C   UNL A   1      45.677  25.674  35.768  1.00  0.00     0.091 A 
ATOM     90  F   UNL A   1      43.443  25.472  34.953  1.00  0.00    -0.205 F 
ATOM     91  C   UNL A   1      46.911  26.343  35.739  1.00  0.00     0.022 A 
BRANCH  89  92
ATOM     92  S   UNL A   1      45.511  24.300  36.913  1.00  0.00     0.127 S 
ATOM     93  O   UNL A   1      45.176  23.199  36.011  1.00  0.00    -0.237 OA
ATOM     94  O   UNL A   1      46.849  24.220  37.501  1.00  0.00    -0.237 OA
ATOM     95  O   UNL A   1      44.465  24.685  37.850  1.00  0.00    -0.744 OA
ENDBRANCH  89  92
ENDBRANCH  62  85
ENDBRANCH  36  37
ENDBRANCH  28  31
ENDBRANCH  26  27
ENDBRANCH  25  26
ENDBRANCH   1  25
TORSDOF 20
ENDMDL
MODEL 2
REMARK VINA RESULT:     -10.8      1.073      7.888
REMARK SMILES CC(C)(C)OCC[C@@H]1CCC[C@]1([NH2+]C1CC1)C(=O)NCCCCNC(=O)c1ccc(-c2c3nc(c(-c4cccc(S(=O)(=O)[O-])c4F)c4ccc([nH]4)c(-c4cccc(S(=O)(=O)[O-])c4F)c4nc(c(-c5cccc(S(=O)(=O)[O-])c5F)c5ccc2[nH]5)C=C4)C=C3)cc1
REMARK SMILES IDX 21 1 20 2 19 3 17 4 18 5 12 7 8 8 9 9 10 10 11 11 7 12 6 13
REMARK SMILES IDX 5 14 2 15 1 16 3 17 4 18 13 19 14 22 15 23 16 24 22 25 23 26
REMARK SMILES IDX 24 27 25 28 26 30 27 31 28 32 89 33 29 34 88 35 30 36 31 37
REMARK SMILES IDX 32 38 82 39 33 40 87 41 81 42 83 43 34 44 86 45 80 46 79 47
REMARK SMILES IDX 35 49 67 50 47 51 66 52 48 53 51 54 65 55 84 56 49 57 50 58
REMARK SMILES IDX 64 60 85 61 52 62 36 63 37 64 45 65 38 66 40 67 46 68 39 69
REMARK SMILES IDX 41 70 42 71 43 72 44 73 68 74 69 75 77 76 70 77 72 78 78 79
REMARK SMILES IDX 71 80 73 81 74 82 75 83 76 84 53 85 54 86 62 87 55 88 57 89
REMARK SMILES IDX 63 90 56 91 58 92 59 93 60 94 61 95
REMARK H PARENT 19 6 13 20 13 21 24 29 83 48 51 59
REMARK Flexibility Score: inf
ROOT
ATOM      1  C   UNL A   1      32.180  27.026  26.427  1.00  0.00     0.023 C 
ENDROOT
BRANCH   1   2
ATOM      2  C   UNL A   1      31.024  26.155  25.936  1.00  0.00     0.116 C 
BRANCH   2   3
ATOM      3  N   UNL A   1      30.898  24.964  26.739  1.00  0.00    -0.351 N 
ATOM      4  C   UNL A   1      31.563  23.778  26.691  1.00  0.00     0.281 C 
ATOM      5  O   UNL A   1      31.218  22.944  27.540  1.00  0.00    -0.268 OA
ATOM      6  H   UNL A   1      30.211  25.017  27.442  1.00  0.00     0.163 HD
BRANCH   4   7
ATOM      7  C   UNL A   1      32.685  23.444  25.647  1.00  0.00     0.178 C 
ATOM      8  C   UNL A   1      33.099  21.932  25.538  1.00  0.00     0.063 C 
ATOM      9  C   UNL A   1      33.801  21.700  26.888  1.00  0.00     0.011 C 
ATOM     10  C   UNL A   1      34.621  22.956  27.119  1.00  0.00     0.008 C 
ATOM     11  C   UNL A   1      34.046  24.008  26.170  1.00  0.00     0.079 C 
BRANCH   8  12
ATOM     12  C   UNL A   1      32.157  20.747  25.273  1.00  0.00     0.039 C 
BRANCH  12  13
ATOM     13  C   UNL A   1      32.413  19.771  24.117  1.00  0.00     0.161 C 
BRANCH  13  14
ATOM     14  O   UNL A   1      32.405  18.382  24.445  1.00  0.00    -0.376 OA
BRANCH  14  15
ATOM     15  C   UNL A   1      33.607  17.607  24.363  1.00  0.00     0.060 C 
ATOM     16  C   UNL A   1      33.520  16.585  25.511  1.00  0.00     0.042 C 
ATOM     17  C   UNL A   1      34.813  18.522  24.626  1.00  0.00     0.042 C 
ATOM     18  C   UNL A   1      33.749  16.786  23.076  1.00  0.00     0.042 C 
ENDBRANCH  14  15
ENDBRANCH  13  14
ENDBRANCH  12  13
ENDBRANCH   8  12
BRANCH   7  19
ATOM     19  N   UNL A   1      32.405  24.019  24.316  1.00  0.00    -0.331 N 
ATOM     20  H   UNL A   1      32.045  24.959  24.479  1.00  0.00     0.347 HD
ATOM     21  H   UNL A   1      31.787  23.319  23.904  1.00  0.00     0.347 HD
BRANCH  19  22
ATOM     22  C   UNL A   1      33.451  24.148  23.296  1.00  0.00     0.183 C 
ATOM     23  C   UNL A   1      34.454  23.121  22.865  1.00  0.00     0.071 C 
ATOM     24  C   UNL A   1      33.246  23.364  22.016  1.00  0.00     0.071 C 
ENDBRANCH  19  22
ENDBRANCH   7  19
ENDBRANCH   4   7
ENDBRANCH   2   3
ENDBRANCH   1   2
BRANCH   1  25
ATOM     25  C   UNL A   1      31.797  28.462  26.747  1.00  0.00     0.023 C 
BRANCH  25  26
ATOM     26  C   UNL A   1      32.700  29.498  26.103  1.00  0.00     0.116 C 
BRANCH  26  27
ATOM     27  N   UNL A   1      32.347  30.873  26.451  1.00  0.00    -0.352 N 
ATOM     28  C   UNL A   1      33.082  31.779  27.181  1.00  0.00     0.251 C 
ATOM     29  H   UNL A   1      31.475  31.191  26.123  1.00  0.00     0.163 HD
ATOM     30  O   UNL A   1      32.617  32.873  27.483  1.00  0.00    -0.269 OA
BRANCH  28  31
ATOM     31  C   UNL A   1      34.431  31.382  27.627  1.00  0.00     0.039 A 
ATOM     32  C   UNL A   1      35.417  32.359  27.776  1.00  0.00     0.014 A 
ATOM     33  C   UNL A   1      34.662  30.065  28.028  1.00  0.00     0.014 A 
ATOM     34  C   UNL A   1      36.611  32.028  28.420  1.00  0.00     0.010 A 
ATOM     35  C   UNL A   1      35.797  29.772  28.767  1.00  0.00     0.010 A 
ATOM     36  C   UNL A   1      36.788  30.746  28.967  1.00  0.00    -0.014 A 
BRANCH  36  37
ATOM     37  C   UNL A   1      37.996  30.384  29.750  1.00  0.00     0.031 A 
ATOM     38  C   UNL A   1      38.991  29.414  29.169  1.00  0.00     0.074 A 
ATOM     39  C   UNL A   1      38.137  30.823  31.017  1.00  0.00     0.049 A 
ATOM     40  N   UNL A   1      40.038  28.870  29.730  1.00  0.00    -0.248 NA
ATOM     41  C   UNL A   1      38.749  28.958  27.788  1.00  0.00     0.031 C 
ATOM     42  C   UNL A   1      37.192  31.686  31.730  1.00  0.00     0.029 A 
ATOM     43  N   UNL A   1      39.121  30.578  31.943  1.00  0.00    -0.354 N 
ATOM     44  C   UNL A   1      40.540  27.971  28.798  1.00  0.00     0.074 A 
ATOM     45  C   UNL A   1      39.658  28.006  27.653  1.00  0.00     0.031 C 
ATOM     46  C   UNL A   1      37.649  31.911  32.973  1.00  0.00     0.029 A 
ATOM     47  C   UNL A   1      38.902  31.186  33.158  1.00  0.00     0.049 A 
ATOM     48  H   UNL A   1      39.909  30.018  31.755  1.00  0.00     0.167 HD
ATOM     49  C   UNL A   1      41.660  27.214  28.866  1.00  0.00     0.034 A 
ATOM     50  C   UNL A   1      39.631  31.163  34.292  1.00  0.00     0.034 A 
ATOM     51  C   UNL A   1      42.581  27.249  29.967  1.00  0.00     0.049 A 
ATOM     52  C   UNL A   1      40.920  30.383  34.309  1.00  0.00     0.074 A 
ATOM     53  C   UNL A   1      43.800  26.610  30.090  1.00  0.00     0.029 A 
ATOM     54  N   UNL A   1      42.387  27.976  31.131  1.00  0.00    -0.354 N 
ATOM     55  N   UNL A   1      41.463  29.664  33.356  1.00  0.00    -0.248 NA
ATOM     56  C   UNL A   1      41.716  30.440  35.544  1.00  0.00     0.031 C 
ATOM     57  C   UNL A   1      44.344  26.948  31.333  1.00  0.00     0.029 A 
ATOM     58  C   UNL A   1      43.466  27.805  31.978  1.00  0.00     0.049 A 
ATOM     59  H   UNL A   1      41.598  28.530  31.327  1.00  0.00     0.167 HD
ATOM     60  C   UNL A   1      42.677  29.215  33.861  1.00  0.00     0.074 A 
ATOM     61  C   UNL A   1      42.799  29.758  35.199  1.00  0.00     0.031 C 
ATOM     62  C   UNL A   1      43.600  28.410  33.280  1.00  0.00     0.034 A 
BRANCH  49  63
ATOM     63  C   UNL A   1      41.988  26.349  27.678  1.00  0.00     0.023 A 
ATOM     64  C   UNL A   1      42.608  26.929  26.551  1.00  0.00     0.012 A 
ATOM     65  C   UNL A   1      41.717  24.967  27.682  1.00  0.00     0.148 A 
ATOM     66  C   UNL A   1      42.914  26.157  25.432  1.00  0.00     0.002 A 
ATOM     67  C   UNL A   1      42.068  24.196  26.581  1.00  0.00     0.091 A 
ATOM     68  F   UNL A   1      41.104  24.438  28.751  1.00  0.00    -0.205 F 
ATOM     69  C   UNL A   1      42.654  24.790  25.450  1.00  0.00     0.022 A 
BRANCH  67  70
ATOM     70  S   UNL A   1      41.844  22.413  26.539  1.00  0.00     0.127 S 
ATOM     71  O   UNL A   1      42.617  21.991  27.706  1.00  0.00    -0.237 OA
ATOM     72  O   UNL A   1      40.395  22.280  26.688  1.00  0.00    -0.237 OA
ATOM     73  O   UNL A   1      42.363  21.976  25.250  1.00  0.00    -0.744 OA
ENDBRANCH  67  70
ENDBRANCH  49  63
BRANCH  50  74
ATOM     74  C   UNL A   1      39.213  31.977  35.468  1.00  0.00     0.023 A 
ATOM     75  C   UNL A   1      38.362  31.400  36.431  1.00  0.00     0.012 A 
ATOM     76  C   UNL A   1      39.668  33.296  35.658  1.00  0.00     0.148 A 
ATOM     77  C   UNL A   1      37.948  32.128  37.546  1.00  0.00     0.002 A 
ATOM     78  C   UNL A   1      39.293  34.000  36.798  1.00  0.00     0.091 A 
ATOM     79  F   UNL A   1      40.468  33.833  34.726  1.00  0.00    -0.205 F 
ATOM     80  C   UNL A   1      38.421  33.424  37.735  1.00  0.00     0.022 A 
BRANCH  78  81
ATOM     81  S   UNL A   1      39.955  35.625  37.186  1.00  0.00     0.127 S 
ATOM     82  O   UNL A   1      39.232  35.957  38.411  1.00  0.00    -0.237 OA
ATOM     83  O   UNL A   1      41.379  35.338  37.369  1.00  0.00    -0.237 OA
ATOM     84  O   UNL A   1      39.657  36.453  36.026  1.00  0.00    -0.744 OA
ENDBRANCH  78  81
ENDBRANCH  50  74
BRANCH  62  85
ATOM     85  C   UNL A   1      44.845  28.090  34.062  1.00  0.00     0.023 A 
ATOM     86  C   UNL A   1      45.952  28.958  33.993  1.00  0.00     0.012 A 
ATOM     87  C   UNL A   1      44.881  26.986  34.934  1.00  0.00     0.148 A 
ATOM     88  C   UNL A   1      47.086  28.718  34.765  1.00  0.00     0.002 A 
ATOM     89  C   UNL A   1      45.998  26.778  35.734  1.00  0.00     0.091 A 
ATOM     90  F   UNL A   1      43.823  26.161  34.969  1.00  0.00    -0.205 F 
ATOM     91  C   UNL A   1      47.105  27.638  35.644  1.00  0.00     0.022 A 
BRANCH  89  92
ATOM     92  S   UNL A   1      46.068  25.470  36.963  1.00  0.00     0.127 S 
ATOM     93  O   UNL A   1      46.478  24.323  36.155  1.00  0.00    -0.237 OA
ATOM     94  O   UNL A   1      47.092  25.963  37.886  1.00  0.00    -0.237 OA
ATOM     95  O   UNL A   1      44.731  25.389  37.537  1.00  0.00    -0.744 OA
ENDBRANCH  89  92
ENDBRANCH  62  85
ENDBRANCH  36  37
ENDBRANCH  28  31
ENDBRANCH  26  27
ENDBRANCH  25  26
ENDBRANCH   1  25
TORSDOF 20
ENDMDL
MODEL 3
REMARK VINA RESULT:     -10.8      4.805     10.356
REMARK SMILES CC(C)(C)OCC[C@@H]1CCC[C@]1([NH2+]C1CC1)C(=O)NCCCCNC(=O)c1ccc(-c2c3nc(c(-c4cccc(S(=O)(=O)[O-])c4F)c4ccc([nH]4)c(-c4cccc(S(=O)(=O)[O-])c4F)c4nc(c(-c5cccc(S(=O)(=O)[O-])c5F)c5ccc2[nH]5)C=C4)C=C3)cc1
REMARK SMILES IDX 21 1 20 2 19 3 17 4 18 5 12 7 8 8 9 9 10 10 11 11 7 12 6 13
REMARK SMILES IDX 5 14 2 15 1 16 3 17 4 18 13 19 14 22 15 23 16 24 22 25 23 26
REMARK SMILES IDX 24 27 25 28 26 30 27 31 28 32 89 33 29 34 88 35 30 36 31 37
REMARK SMILES IDX 32 38 82 39 33 40 87 41 81 42 83 43 34 44 86 45 80 46 79 47
REMARK SMILES IDX 35 49 67 50 47 51 66 52 48 53 51 54 65 55 84 56 49 57 50 58
REMARK SMILES IDX 64 60 85 61 52 62 36 63 37 64 45 65 38 66 40 67 46 68 39 69
REMARK SMILES IDX 41 70 42 71 43 72 44 73 68 74 69 75 77 76 70 77 72 78 78 79
REMARK SMILES IDX 71 80 73 81 74 82 75 83 76 84 53 85 54 86 62 87 55 88 57 89
REMARK SMILES IDX 63 90 56 91 58 92 59 93 60 94 61 95
REMARK H PARENT 19 6 13 20 13 21 24 29 83 48 51 59
REMARK Flexibility Score: inf
ROOT
ATOM      1  C   UNL A   1      35.576  22.916  23.481  1.00  0.00     0.023 C 
ENDROOT
BRANCH   1   2
ATOM      2  C   UNL A   1      34.621  23.904  24.150  1.00  0.00     0.116 C 
BRANCH   2   3
ATOM      3  N   UNL A   1      33.996  24.761  23.172  1.00  0.00    -0.351 N 
ATOM      4  C   UNL A   1      32.961  25.637  23.281  1.00  0.00     0.281 C 
ATOM      5  O   UNL A   1      32.665  26.236  22.238  1.00  0.00    -0.268 OA
ATOM      6  H   UNL A   1      34.385  24.701  22.269  1.00  0.00     0.163 HD
BRANCH   4   7
ATOM      7  C   UNL A   1      32.167  25.893  24.609  1.00  0.00     0.178 C 
ATOM      8  C   UNL A   1      31.441  27.283  24.723  1.00  0.00     0.063 C 
ATOM      9  C   UNL A   1      32.632  28.250  24.838  1.00  0.00     0.011 C 
ATOM     10  C   UNL A   1      33.615  27.549  25.757  1.00  0.00     0.008 C 
ATOM     11  C   UNL A   1      33.186  26.081  25.779  1.00  0.00     0.079 C 
BRANCH   8  12
ATOM     12  C   UNL A   1      30.437  27.869  23.718  1.00  0.00     0.039 C 
BRANCH  12  13
ATOM     13  C   UNL A   1      30.527  29.335  23.269  1.00  0.00     0.161 C 
BRANCH  13  14
ATOM     14  O   UNL A   1      29.505  30.209  23.749  1.00  0.00    -0.376 OA
BRANCH  14  15
ATOM     15  C   UNL A   1      28.553  30.781  22.845  1.00  0.00     0.060 C 
ATOM     16  C   UNL A   1      27.386  31.267  23.724  1.00  0.00     0.042 C 
ATOM     17  C   UNL A   1      28.024  29.681  21.911  1.00  0.00     0.042 C 
ATOM     18  C   UNL A   1      29.055  32.017  22.089  1.00  0.00     0.042 C 
ENDBRANCH  14  15
ENDBRANCH  13  14
ENDBRANCH  12  13
ENDBRANCH   8  12
BRANCH   7  19
ATOM     19  N   UNL A   1      31.251  24.784  24.941  1.00  0.00    -0.331 N 
ATOM     20  H   UNL A   1      31.344  24.100  24.189  1.00  0.00     0.347 HD
ATOM     21  H   UNL A   1      30.360  25.267  25.060  1.00  0.00     0.347 HD
BRANCH  19  22
ATOM     22  C   UNL A   1      31.369  24.035  26.197  1.00  0.00     0.183 C 
ATOM     23  C   UNL A   1      30.435  23.003  26.749  1.00  0.00     0.071 C 
ATOM     24  C   UNL A   1      31.695  22.561  26.075  1.00  0.00     0.071 C 
ENDBRANCH  19  22
ENDBRANCH   7  19
ENDBRANCH   4   7
ENDBRANCH   2   3
ENDBRANCH   1   2
BRANCH   1  25
ATOM     25  C   UNL A   1      35.876  21.673  24.304  1.00  0.00     0.023 C 
BRANCH  25  26
ATOM     26  C   UNL A   1      36.861  21.907  25.434  1.00  0.00     0.116 C 
BRANCH  26  27
ATOM     27  N   UNL A   1      37.891  20.873  25.530  1.00  0.00    -0.352 N 
ATOM     28  C   UNL A   1      39.162  20.987  26.045  1.00  0.00     0.251 C 
ATOM     29  H   UNL A   1      37.645  19.986  25.183  1.00  0.00     0.163 HD
ATOM     30  O   UNL A   1      39.960  20.059  25.971  1.00  0.00    -0.269 OA
BRANCH  28  31
ATOM     31  C   UNL A   1      39.554  22.273  26.654  1.00  0.00     0.039 A 
ATOM     32  C   UNL A   1      40.628  22.309  27.544  1.00  0.00     0.014 A 
ATOM     33  C   UNL A   1      38.940  23.451  26.224  1.00  0.00     0.014 A 
ATOM     34  C   UNL A   1      41.149  23.545  27.932  1.00  0.00     0.010 A 
ATOM     35  C   UNL A   1      39.531  24.669  26.520  1.00  0.00     0.010 A 
ATOM     36  C   UNL A   1      40.638  24.732  27.382  1.00  0.00    -0.014 A 
BRANCH  36  37
ATOM     37  C   UNL A   1      41.230  26.060  27.685  1.00  0.00     0.031 A 
ATOM     38  C   UNL A   1      42.647  26.351  27.265  1.00  0.00     0.074 A 
ATOM     39  C   UNL A   1      40.549  26.949  28.435  1.00  0.00     0.049 A 
ATOM     40  N   UNL A   1      43.393  27.389  27.538  1.00  0.00    -0.248 NA
ATOM     41  C   UNL A   1      43.333  25.315  26.472  1.00  0.00     0.031 C 
ATOM     42  C   UNL A   1      39.208  26.746  28.988  1.00  0.00     0.029 A 
ATOM     43  N   UNL A   1      40.906  28.195  28.888  1.00  0.00    -0.354 N 
ATOM     44  C   UNL A   1      44.643  27.105  27.005  1.00  0.00     0.074 A 
ATOM     45  C   UNL A   1      44.572  25.779  26.433  1.00  0.00     0.031 C 
ATOM     46  C   UNL A   1      38.850  27.833  29.690  1.00  0.00     0.029 A 
ATOM     47  C   UNL A   1      39.944  28.798  29.665  1.00  0.00     0.049 A 
ATOM     48  H   UNL A   1      41.770  28.616  28.677  1.00  0.00     0.167 HD
ATOM     49  C   UNL A   1      45.743  27.892  26.954  1.00  0.00     0.034 A 
ATOM     50  C   UNL A   1      39.944  29.996  30.284  1.00  0.00     0.034 A 
ATOM     51  C   UNL A   1      45.782  29.241  27.444  1.00  0.00     0.049 A 
ATOM     52  C   UNL A   1      41.148  30.889  30.135  1.00  0.00     0.074 A 
ATOM     53  C   UNL A   1      46.806  30.164  27.343  1.00  0.00     0.029 A 
ATOM     54  N   UNL A   1      44.742  29.864  28.116  1.00  0.00    -0.354 N 
ATOM     55  N   UNL A   1      42.266  30.666  29.487  1.00  0.00    -0.248 NA
ATOM     56  C   UNL A   1      41.077  32.213  30.772  1.00  0.00     0.031 C 
ATOM     57  C   UNL A   1      46.386  31.348  27.959  1.00  0.00     0.029 A 
ATOM     58  C   UNL A   1      45.097  31.162  28.434  1.00  0.00     0.049 A 
ATOM     59  H   UNL A   1      43.879  29.444  28.336  1.00  0.00     0.167 HD
ATOM     60  C   UNL A   1      43.014  31.831  29.606  1.00  0.00     0.074 A 
ATOM     61  C   UNL A   1      42.215  32.765  30.373  1.00  0.00     0.031 C 
ATOM     62  C   UNL A   1      44.259  32.098  29.140  1.00  0.00     0.034 A 
BRANCH  49  63
ATOM     63  C   UNL A   1      46.965  27.337  26.272  1.00  0.00     0.023 A 
ATOM     64  C   UNL A   1      47.095  27.468  24.873  1.00  0.00     0.012 A 
ATOM     65  C   UNL A   1      47.994  26.717  27.006  1.00  0.00     0.148 A 
ATOM     66  C   UNL A   1      48.209  26.954  24.211  1.00  0.00     0.002 A 
ATOM     67  C   UNL A   1      49.123  26.250  26.344  1.00  0.00     0.091 A 
ATOM     68  F   UNL A   1      47.843  26.578  28.331  1.00  0.00    -0.205 F 
ATOM     69  C   UNL A   1      49.226  26.355  24.947  1.00  0.00     0.022 A 
BRANCH  67  70
ATOM     70  S   UNL A   1      50.524  25.531  27.211  1.00  0.00     0.127 S 
ATOM     71  O   UNL A   1      50.771  26.529  28.251  1.00  0.00    -0.237 OA
ATOM     72  O   UNL A   1      49.970  24.268  27.700  1.00  0.00    -0.237 OA
ATOM     73  O   UNL A   1      51.577  25.386  26.217  1.00  0.00    -0.744 OA
ENDBRANCH  67  70
ENDBRANCH  49  63
BRANCH  50  74
ATOM     74  C   UNL A   1      38.731  30.460  31.016  1.00  0.00     0.023 A 
ATOM     75  C   UNL A   1      38.623  30.197  32.396  1.00  0.00     0.012 A 
ATOM     76  C   UNL A   1      37.707  31.181  30.374  1.00  0.00     0.148 A 
ATOM     77  C   UNL A   1      37.505  30.615  33.117  1.00  0.00     0.002 A 
ATOM     78  C   UNL A   1      36.618  31.640  31.110  1.00  0.00     0.091 A 
ATOM     79  F   UNL A   1      37.821  31.414  29.059  1.00  0.00    -0.205 F 
ATOM     80  C   UNL A   1      36.507  31.345  32.477  1.00  0.00     0.022 A 
BRANCH  78  81
ATOM     81  S   UNL A   1      35.351  32.696  30.395  1.00  0.00     0.127 S 
ATOM     82  O   UNL A   1      36.142  33.823  29.908  1.00  0.00    -0.237 OA
ATOM     83  O   UNL A   1      34.794  31.837  29.349  1.00  0.00    -0.237 OA
ATOM     84  O   UNL A   1      34.428  32.987  31.482  1.00  0.00    -0.744 OA
ENDBRANCH  78  81
ENDBRANCH  50  74
BRANCH  62  85
ATOM     85  C   UNL A   1      44.830  33.465  29.408  1.00  0.00     0.023 A 
ATOM     86  C   UNL A   1      45.580  33.687  30.579  1.00  0.00     0.012 A 
ATOM     87  C   UNL A   1      44.703  34.495  28.457  1.00  0.00     0.148 A 
ATOM     88  C   UNL A   1      46.177  34.925  30.810  1.00  0.00     0.002 A 
ATOM     89  C   UNL A   1      45.339  35.712  28.673  1.00  0.00     0.091 A 
ATOM     90  F   UNL A   1      43.968  34.266  27.358  1.00  0.00    -0.205 F 
ATOM     91  C   UNL A   1      46.069  35.931  29.853  1.00  0.00     0.022 A 
BRANCH  89  92
ATOM     92  S   UNL A   1      45.333  37.027  27.450  1.00  0.00     0.127 S 
ATOM     93  O   UNL A   1      43.903  37.299  27.312  1.00  0.00    -0.237 OA
ATOM     94  O   UNL A   1      46.092  38.082  28.123  1.00  0.00    -0.237 OA
ATOM     95  O   UNL A   1      45.985  36.478  26.269  1.00  0.00    -0.744 OA
ENDBRANCH  89  92
ENDBRANCH  62  85
ENDBRANCH  36  37
ENDBRANCH  28  31
ENDBRANCH  26  27
ENDBRANCH  25  26
ENDBRANCH   1  25
TORSDOF 20
ENDMDL
