MODEL 1
REMARK VINA RESULT:     -12.8      0.000      0.000
REMARK SMILES C[N@@H+](Cc1ccc2nsnc2c1)Cc1ccccc1C(=O)NCCCCNC(=O)c1ccc(-c2c3nc(c(-c4cccc(S(=O)(=O)[O-])c4F)c4ccc([nH]4)c(-c4cccc(S(=O)(=O)[O-])c4F)c4nc(c(-c5cccc(S(=O)(=O)[O-])c5F)c5ccc2[nH]5)C=C4)C=C3)cc1
REMARK SMILES IDX 24 1 23 2 22 3 20 4 21 5 19 7 14 8 15 9 16 10 18 11 17 12
REMARK SMILES IDX 13 13 2 14 1 15 3 17 4 18 5 19 12 20 6 21 11 22 7 23 10 24
REMARK SMILES IDX 8 25 9 26 25 27 26 28 27 29 28 30 29 32 30 33 31 34 92 35
REMARK SMILES IDX 32 36 91 37 33 38 34 39 35 40 85 41 36 42 90 43 84 44 86 45
REMARK SMILES IDX 37 46 89 47 83 48 82 49 38 51 70 52 50 53 69 54 51 55 54 56
REMARK SMILES IDX 68 57 87 58 52 59 53 60 67 62 88 63 55 64 39 65 40 66 48 67
REMARK SMILES IDX 41 68 43 69 49 70 42 71 44 72 45 73 46 74 47 75 71 76 72 77
REMARK SMILES IDX 80 78 73 79 75 80 81 81 74 82 76 83 77 84 78 85 79 86 56 87
REMARK SMILES IDX 57 88 65 89 58 90 60 91 66 92 59 93 61 94 62 95 63 96 64 97
REMARK H PARENT 22 6 2 16 27 31 86 50 54 61
REMARK Flexibility Score: inf
ROOT
ATOM      1  C   UNL A   1      35.028  22.763  23.872  1.00  0.00     0.023 C 
ENDROOT
BRANCH   1   2
ATOM      2  C   UNL A   1      34.630  23.929  24.783  1.00  0.00     0.116 C 
BRANCH   2   3
ATOM      3  N   UNL A   1      34.166  25.048  24.007  1.00  0.00    -0.352 N 
ATOM      4  C   UNL A   1      33.660  26.295  24.183  1.00  0.00     0.251 C 
ATOM      5  O   UNL A   1      33.604  26.909  23.105  1.00  0.00    -0.269 OA
ATOM      6  H   UNL A   1      34.238  24.846  23.045  1.00  0.00     0.163 HD
BRANCH   4   7
ATOM      7  C   UNL A   1      33.149  27.016  25.411  1.00  0.00     0.048 A 
ATOM      8  C   UNL A   1      31.941  26.939  26.145  1.00  0.00     0.019 A 
ATOM      9  C   UNL A   1      31.684  27.938  27.135  1.00  0.00     0.010 A 
ATOM     10  C   UNL A   1      32.560  28.983  27.410  1.00  0.00     0.001 A 
ATOM     11  C   UNL A   1      34.033  28.084  25.756  1.00  0.00     0.014 A 
ATOM     12  C   UNL A   1      33.748  29.052  26.719  1.00  0.00     0.001 A 
BRANCH   8  13
ATOM     13  C   UNL A   1      30.824  25.932  26.027  1.00  0.00     0.299 C 
BRANCH  13  14
ATOM     14  N   UNL A   1      30.846  24.949  24.956  1.00  0.00    -0.330 N 
ATOM     15  C   UNL A   1      30.951  23.566  25.370  1.00  0.00     0.333 C 
ATOM     16  H   UNL A   1      31.769  25.222  24.621  1.00  0.00     0.348 HD
BRANCH  14  17
ATOM     17  C   UNL A   1      30.274  25.210  23.646  1.00  0.00     0.299 C 
BRANCH  17  18
ATOM     18  C   UNL A   1      29.610  26.553  23.417  1.00  0.00     0.009 A 
ATOM     19  C   UNL A   1      28.268  26.719  23.880  1.00  0.00     0.012 A 
ATOM     20  C   UNL A   1      30.293  27.591  22.751  1.00  0.00     0.041 A 
ATOM     21  C   UNL A   1      27.475  27.850  23.619  1.00  0.00     0.032 A 
ATOM     22  C   UNL A   1      29.537  28.746  22.445  1.00  0.00     0.105 A 
ATOM     23  C   UNL A   1      28.100  28.873  22.876  1.00  0.00     0.104 A 
ATOM     24  N   UNL A   1      29.982  29.813  21.760  1.00  0.00    -0.173 NA
ATOM     25  N   UNL A   1      27.530  30.021  22.480  1.00  0.00    -0.173 NA
ATOM     26  S   UNL A   1      28.694  30.855  21.642  1.00  0.00     0.069 S 
ENDBRANCH  17  18
ENDBRANCH  14  17
ENDBRANCH  13  14
ENDBRANCH   8  13
ENDBRANCH   4   7
ENDBRANCH   2   3
ENDBRANCH   1   2
BRANCH   1  27
ATOM     27  C   UNL A   1      36.495  22.366  23.957  1.00  0.00     0.023 C 
BRANCH  27  28
ATOM     28  C   UNL A   1      36.981  21.996  25.345  1.00  0.00     0.116 C 
BRANCH  28  29
ATOM     29  N   UNL A   1      37.910  20.872  25.375  1.00  0.00    -0.352 N 
ATOM     30  C   UNL A   1      39.154  20.847  25.967  1.00  0.00     0.251 C 
ATOM     31  H   UNL A   1      37.619  20.046  24.927  1.00  0.00     0.163 HD
ATOM     32  O   UNL A   1      39.879  19.861  25.897  1.00  0.00    -0.269 OA
BRANCH  30  33
ATOM     33  C   UNL A   1      39.601  22.079  26.645  1.00  0.00     0.039 A 
ATOM     34  C   UNL A   1      40.678  22.013  27.529  1.00  0.00     0.014 A 
ATOM     35  C   UNL A   1      39.093  23.306  26.217  1.00  0.00     0.014 A 
ATOM     36  C   UNL A   1      41.311  23.194  27.917  1.00  0.00     0.010 A 
ATOM     37  C   UNL A   1      39.798  24.462  26.509  1.00  0.00     0.010 A 
ATOM     38  C   UNL A   1      40.911  24.423  27.367  1.00  0.00    -0.014 A 
BRANCH  38  39
ATOM     39  C   UNL A   1      41.614  25.696  27.673  1.00  0.00     0.031 A 
ATOM     40  C   UNL A   1      40.890  26.756  28.461  1.00  0.00     0.074 A 
ATOM     41  C   UNL A   1      42.828  25.955  27.144  1.00  0.00     0.049 A 
ATOM     42  N   UNL A   1      41.229  27.997  28.684  1.00  0.00    -0.248 NA
ATOM     43  C   UNL A   1      39.576  26.386  29.018  1.00  0.00     0.031 C 
ATOM     44  C   UNL A   1      43.597  25.052  26.285  1.00  0.00     0.029 A 
ATOM     45  N   UNL A   1      43.617  27.077  27.228  1.00  0.00    -0.354 N 
ATOM     46  C   UNL A   1      40.145  28.571  29.337  1.00  0.00     0.074 A 
ATOM     47  C   UNL A   1      39.120  27.557  29.434  1.00  0.00     0.031 C 
ATOM     48  C   UNL A   1      44.750  25.648  25.935  1.00  0.00     0.029 A 
ATOM     49  C   UNL A   1      44.792  26.985  26.516  1.00  0.00     0.049 A 
ATOM     50  H   UNL A   1      43.366  27.873  27.750  1.00  0.00     0.167 HD
ATOM     51  C   UNL A   1      40.025  29.816  29.852  1.00  0.00     0.034 A 
ATOM     52  C   UNL A   1      45.788  27.880  26.355  1.00  0.00     0.034 A 
ATOM     53  C   UNL A   1      41.089  30.780  29.856  1.00  0.00     0.049 A 
ATOM     54  C   UNL A   1      45.684  29.215  27.046  1.00  0.00     0.074 A 
ATOM     55  C   UNL A   1      41.117  32.027  30.449  1.00  0.00     0.029 A 
ATOM     56  N   UNL A   1      42.325  30.587  29.259  1.00  0.00    -0.354 N 
ATOM     57  N   UNL A   1      44.707  29.687  27.783  1.00  0.00    -0.248 NA
ATOM     58  C   UNL A   1      46.831  30.125  26.917  1.00  0.00     0.031 C 
ATOM     59  C   UNL A   1      42.378  32.588  30.218  1.00  0.00     0.029 A 
ATOM     60  C   UNL A   1      43.133  31.686  29.485  1.00  0.00     0.049 A 
ATOM     61  H   UNL A   1      42.588  29.788  28.749  1.00  0.00     0.167 HD
ATOM     62  C   UNL A   1      45.140  30.927  28.242  1.00  0.00     0.074 A 
ATOM     63  C   UNL A   1      46.472  31.127  27.711  1.00  0.00     0.031 C 
ATOM     64  C   UNL A   1      44.487  31.824  29.018  1.00  0.00     0.034 A 
BRANCH  51  65
ATOM     65  C   UNL A   1      38.730  30.168  30.532  1.00  0.00     0.023 A 
ATOM     66  C   UNL A   1      38.490  29.710  31.845  1.00  0.00     0.012 A 
ATOM     67  C   UNL A   1      37.766  30.972  29.894  1.00  0.00     0.148 A 
ATOM     68  C   UNL A   1      37.295  30.009  32.495  1.00  0.00     0.002 A 
ATOM     69  C   UNL A   1      36.597  31.305  30.567  1.00  0.00     0.091 A 
ATOM     70  F   UNL A   1      38.000  31.378  28.637  1.00  0.00    -0.205 F 
ATOM     71  C   UNL A   1      36.353  30.814  31.860  1.00  0.00     0.022 A 
BRANCH  69  72
ATOM     72  S   UNL A   1      35.359  32.403  29.867  1.00  0.00     0.127 S 
ATOM     73  O   UNL A   1      34.415  32.528  30.976  1.00  0.00    -0.237 OA
ATOM     74  O   UNL A   1      36.138  33.612  29.591  1.00  0.00    -0.237 OA
ATOM     75  O   UNL A   1      34.850  31.727  28.681  1.00  0.00    -0.744 OA
ENDBRANCH  69  72
ENDBRANCH  51  65
BRANCH  52  76
ATOM     76  C   UNL A   1      47.015  27.508  25.593  1.00  0.00     0.023 A 
ATOM     77  C   UNL A   1      48.037  26.796  26.251  1.00  0.00     0.012 A 
ATOM     78  C   UNL A   1      47.171  27.825  24.230  1.00  0.00     0.148 A 
ATOM     79  C   UNL A   1      49.206  26.436  25.578  1.00  0.00     0.002 A 
ATOM     80  C   UNL A   1      48.317  27.421  23.551  1.00  0.00     0.091 A 
ATOM     81  F   UNL A   1      46.196  28.515  23.622  1.00  0.00    -0.205 F 
ATOM     82  C   UNL A   1      49.342  26.741  24.227  1.00  0.00     0.022 A 
BRANCH  80  83
ATOM     83  S   UNL A   1      48.518  27.660  21.782  1.00  0.00     0.127 S 
ATOM     84  O   UNL A   1      48.776  26.298  21.322  1.00  0.00    -0.237 OA
ATOM     85  O   UNL A   1      47.214  28.203  21.396  1.00  0.00    -0.237 OA
ATOM     86  O   UNL A   1      49.620  28.602  21.643  1.00  0.00    -0.744 OA
ENDBRANCH  80  83
ENDBRANCH  52  76
BRANCH  64  87
ATOM     87  C   UNL A   1      45.211  33.086  29.400  1.00  0.00     0.023 A 
ATOM     88  C   UNL A   1      46.035  33.099  30.541  1.00  0.00     0.012 A 
ATOM     89  C   UNL A   1      45.165  34.217  28.562  1.00  0.00     0.148 A 
ATOM     90  C   UNL A   1      46.792  34.227  30.852  1.00  0.00     0.002 A 
ATOM     91  C   UNL A   1      45.955  35.321  28.854  1.00  0.00     0.091 A 
ATOM     92  F   UNL A   1      44.357  34.188  27.491  1.00  0.00    -0.205 F 
ATOM     93  C   UNL A   1      46.763  35.332  30.002  1.00  0.00     0.022 A 
BRANCH  91  94
ATOM     94  S   UNL A   1      46.052  36.745  27.762  1.00  0.00     0.127 S 
ATOM     95  O   UNL A   1      46.995  37.605  28.477  1.00  0.00    -0.237 OA
ATOM     96  O   UNL A   1      46.576  36.158  26.528  1.00  0.00    -0.237 OA
ATOM     97  O   UNL A   1      44.693  37.258  27.653  1.00  0.00    -0.744 OA
ENDBRANCH  91  94
ENDBRANCH  64  87
ENDBRANCH  38  39
ENDBRANCH  30  33
ENDBRANCH  28  29
ENDBRANCH  27  28
ENDBRANCH   1  27
TORSDOF 18
ENDMDL
MODEL 2
REMARK VINA RESULT:     -12.8      1.049      7.507
REMARK SMILES C[N@@H+](Cc1ccc2nsnc2c1)Cc1ccccc1C(=O)NCCCCNC(=O)c1ccc(-c2c3nc(c(-c4cccc(S(=O)(=O)[O-])c4F)c4ccc([nH]4)c(-c4cccc(S(=O)(=O)[O-])c4F)c4nc(c(-c5cccc(S(=O)(=O)[O-])c5F)c5ccc2[nH]5)C=C4)C=C3)cc1
REMARK SMILES IDX 24 1 23 2 22 3 20 4 21 5 19 7 14 8 15 9 16 10 18 11 17 12
REMARK SMILES IDX 13 13 2 14 1 15 3 17 4 18 5 19 12 20 6 21 11 22 7 23 10 24
REMARK SMILES IDX 8 25 9 26 25 27 26 28 27 29 28 30 29 32 30 33 31 34 92 35
REMARK SMILES IDX 32 36 91 37 33 38 34 39 35 40 85 41 36 42 90 43 84 44 86 45
REMARK SMILES IDX 37 46 89 47 83 48 82 49 38 51 70 52 50 53 69 54 51 55 54 56
REMARK SMILES IDX 68 57 87 58 52 59 53 60 67 62 88 63 55 64 39 65 40 66 48 67
REMARK SMILES IDX 41 68 43 69 49 70 42 71 44 72 45 73 46 74 47 75 71 76 72 77
REMARK SMILES IDX 80 78 73 79 75 80 81 81 74 82 76 83 77 84 78 85 79 86 56 87
REMARK SMILES IDX 57 88 65 89 58 90 60 91 66 92 59 93 61 94 62 95 63 96 64 97
REMARK H PARENT 22 6 2 16 27 31 86 50 54 61
REMARK Flexibility Score: inf
ROOT
ATOM      1  C   UNL A   1      36.269  22.820  23.500  1.00  0.00     0.023 C 
ENDROOT
BRANCH   1   2
ATOM      2  C   UNL A   1      35.155  23.856  23.320  1.00  0.00     0.116 C 
BRANCH   2   3
ATOM      3  N   UNL A   1      34.325  23.924  24.493  1.00  0.00    -0.352 N 
ATOM      4  C   UNL A   1      33.590  24.824  25.194  1.00  0.00     0.251 C 
ATOM      5  O   UNL A   1      32.907  24.259  26.065  1.00  0.00    -0.269 OA
ATOM      6  H   UNL A   1      34.274  23.039  24.923  1.00  0.00     0.163 HD
BRANCH   4   7
ATOM      7  C   UNL A   1      33.491  26.331  25.115  1.00  0.00     0.048 A 
ATOM      8  C   UNL A   1      33.550  27.249  24.040  1.00  0.00     0.019 A 
ATOM      9  C   UNL A   1      33.652  28.643  24.342  1.00  0.00     0.010 A 
ATOM     10  C   UNL A   1      33.698  29.141  25.640  1.00  0.00     0.001 A 
ATOM     11  C   UNL A   1      33.504  26.893  26.429  1.00  0.00     0.014 A 
ATOM     12  C   UNL A   1      33.617  28.258  26.693  1.00  0.00     0.001 A 
BRANCH   8  13
ATOM     13  C   UNL A   1      33.541  26.972  22.557  1.00  0.00     0.299 C 
BRANCH  13  14
ATOM     14  N   UNL A   1      32.358  26.397  21.936  1.00  0.00    -0.330 N 
ATOM     15  C   UNL A   1      32.589  25.616  20.740  1.00  0.00     0.333 C 
ATOM     16  H   UNL A   1      31.989  27.296  21.628  1.00  0.00     0.348 HD
BRANCH  14  17
ATOM     17  C   UNL A   1      31.138  26.131  22.679  1.00  0.00     0.299 C 
BRANCH  17  18
ATOM     18  C   UNL A   1      30.146  27.266  22.843  1.00  0.00     0.009 A 
ATOM     19  C   UNL A   1      28.907  26.978  23.495  1.00  0.00     0.012 A 
ATOM     20  C   UNL A   1      30.435  28.553  22.347  1.00  0.00     0.041 A 
ATOM     21  C   UNL A   1      27.837  27.884  23.597  1.00  0.00     0.032 A 
ATOM     22  C   UNL A   1      29.387  29.500  22.406  1.00  0.00     0.105 A 
ATOM     23  C   UNL A   1      28.061  29.156  23.031  1.00  0.00     0.104 A 
ATOM     24  N   UNL A   1      29.438  30.754  21.927  1.00  0.00    -0.173 NA
ATOM     25  N   UNL A   1      27.175  30.162  22.977  1.00  0.00    -0.173 NA
ATOM     26  S   UNL A   1      27.942  31.417  22.209  1.00  0.00     0.069 S 
ENDBRANCH  17  18
ENDBRANCH  14  17
ENDBRANCH  13  14
ENDBRANCH   8  13
ENDBRANCH   4   7
ENDBRANCH   2   3
ENDBRANCH   1   2
BRANCH   1  27
ATOM     27  C   UNL A   1      35.978  21.755  24.548  1.00  0.00     0.023 C 
BRANCH  27  28
ATOM     28  C   UNL A   1      36.912  21.757  25.741  1.00  0.00     0.116 C 
BRANCH  28  29
ATOM     29  N   UNL A   1      38.038  20.836  25.624  1.00  0.00    -0.352 N 
ATOM     30  C   UNL A   1      39.329  21.053  26.054  1.00  0.00     0.251 C 
ATOM     31  H   UNL A   1      37.856  19.970  25.193  1.00  0.00     0.163 HD
ATOM     32  O   UNL A   1      40.215  20.227  25.867  1.00  0.00    -0.269 OA
BRANCH  30  33
ATOM     33  C   UNL A   1      39.612  22.346  26.705  1.00  0.00     0.039 A 
ATOM     34  C   UNL A   1      40.634  22.419  27.652  1.00  0.00     0.014 A 
ATOM     35  C   UNL A   1      39.016  23.501  26.196  1.00  0.00     0.014 A 
ATOM     36  C   UNL A   1      41.126  23.670  28.026  1.00  0.00     0.010 A 
ATOM     37  C   UNL A   1      39.588  24.731  26.480  1.00  0.00     0.010 A 
ATOM     38  C   UNL A   1      40.644  24.833  27.402  1.00  0.00    -0.014 A 
BRANCH  38  39
ATOM     39  C   UNL A   1      41.202  26.179  27.694  1.00  0.00     0.031 A 
ATOM     40  C   UNL A   1      42.601  26.502  27.239  1.00  0.00     0.074 A 
ATOM     41  C   UNL A   1      40.522  27.052  28.467  1.00  0.00     0.049 A 
ATOM     42  N   UNL A   1      43.352  27.527  27.538  1.00  0.00    -0.248 NA
ATOM     43  C   UNL A   1      43.267  25.502  26.384  1.00  0.00     0.031 C 
ATOM     44  C   UNL A   1      39.198  26.825  29.051  1.00  0.00     0.029 A 
ATOM     45  N   UNL A   1      40.871  28.300  28.921  1.00  0.00    -0.354 N 
ATOM     46  C   UNL A   1      44.593  27.260  26.973  1.00  0.00     0.074 A 
ATOM     47  C   UNL A   1      44.509  25.958  26.353  1.00  0.00     0.031 C 
ATOM     48  C   UNL A   1      38.842  27.902  29.772  1.00  0.00     0.029 A 
ATOM     49  C   UNL A   1      39.920  28.883  29.729  1.00  0.00     0.049 A 
ATOM     50  H   UNL A   1      41.722  28.738  28.691  1.00  0.00     0.167 HD
ATOM     51  C   UNL A   1      45.694  28.046  26.932  1.00  0.00     0.034 A 
ATOM     52  C   UNL A   1      39.923  30.075  30.361  1.00  0.00     0.034 A 
ATOM     53  C   UNL A   1      45.735  29.385  27.447  1.00  0.00     0.049 A 
ATOM     54  C   UNL A   1      41.113  30.983  30.193  1.00  0.00     0.074 A 
ATOM     55  C   UNL A   1      46.758  30.309  27.359  1.00  0.00     0.029 A 
ATOM     56  N   UNL A   1      44.691  29.997  28.123  1.00  0.00    -0.354 N 
ATOM     57  N   UNL A   1      42.225  30.770  29.532  1.00  0.00    -0.248 NA
ATOM     58  C   UNL A   1      41.036  32.310  30.824  1.00  0.00     0.031 C 
ATOM     59  C   UNL A   1      46.328  31.489  27.976  1.00  0.00     0.029 A 
ATOM     60  C   UNL A   1      45.037  31.297  28.442  1.00  0.00     0.049 A 
ATOM     61  H   UNL A   1      43.832  29.571  28.343  1.00  0.00     0.167 HD
ATOM     62  C   UNL A   1      42.958  31.948  29.628  1.00  0.00     0.074 A 
ATOM     63  C   UNL A   1      42.159  32.876  30.401  1.00  0.00     0.031 C 
ATOM     64  C   UNL A   1      44.189  32.230  29.137  1.00  0.00     0.034 A 
BRANCH  51  65
ATOM     65  C   UNL A   1      46.910  27.505  26.229  1.00  0.00     0.023 A 
ATOM     66  C   UNL A   1      47.795  26.658  26.928  1.00  0.00     0.012 A 
ATOM     67  C   UNL A   1      47.162  27.803  24.876  1.00  0.00     0.148 A 
ATOM     68  C   UNL A   1      48.935  26.153  26.307  1.00  0.00     0.002 A 
ATOM     69  C   UNL A   1      48.277  27.257  24.250  1.00  0.00     0.091 A 
ATOM     70  F   UNL A   1      46.324  28.629  24.234  1.00  0.00    -0.205 F 
ATOM     71  C   UNL A   1      49.171  26.443  24.966  1.00  0.00     0.022 A 
BRANCH  69  72
ATOM     72  S   UNL A   1      48.623  27.505  22.505  1.00  0.00     0.127 S 
ATOM     73  O   UNL A   1      49.897  28.218  22.555  1.00  0.00    -0.237 OA
ATOM     74  O   UNL A   1      48.712  26.131  22.008  1.00  0.00    -0.237 OA
ATOM     75  O   UNL A   1      47.497  28.265  21.979  1.00  0.00    -0.744 OA
ENDBRANCH  69  72
ENDBRANCH  51  65
BRANCH  52  76
ATOM     76  C   UNL A   1      38.721  30.524  31.122  1.00  0.00     0.023 A 
ATOM     77  C   UNL A   1      38.669  30.296  32.512  1.00  0.00     0.012 A 
ATOM     78  C   UNL A   1      37.649  31.190  30.498  1.00  0.00     0.148 A 
ATOM     79  C   UNL A   1      37.560  30.691  33.260  1.00  0.00     0.002 A 
ATOM     80  C   UNL A   1      36.568  31.626  31.257  1.00  0.00     0.091 A 
ATOM     81  F   UNL A   1      37.708  31.387  29.173  1.00  0.00    -0.205 F 
ATOM     82  C   UNL A   1      36.513  31.363  32.635  1.00  0.00     0.022 A 
BRANCH  80  83
ATOM     83  S   UNL A   1      35.238  32.610  30.556  1.00  0.00     0.127 S 
ATOM     84  O   UNL A   1      34.285  32.659  31.662  1.00  0.00    -0.237 OA
ATOM     85  O   UNL A   1      35.913  33.877  30.269  1.00  0.00    -0.237 OA
ATOM     86  O   UNL A   1      34.805  31.884  29.370  1.00  0.00    -0.744 OA
ENDBRANCH  80  83
ENDBRANCH  52  76
BRANCH  64  87
ATOM     87  C   UNL A   1      44.738  33.612  29.359  1.00  0.00     0.023 A 
ATOM     88  C   UNL A   1      45.430  33.904  30.549  1.00  0.00     0.012 A 
ATOM     89  C   UNL A   1      44.669  34.581  28.339  1.00  0.00     0.148 A 
ATOM     90  C   UNL A   1      46.034  35.147  30.728  1.00  0.00     0.002 A 
ATOM     91  C   UNL A   1      45.309  35.802  28.506  1.00  0.00     0.091 A 
ATOM     92  F   UNL A   1      43.987  34.286  27.222  1.00  0.00    -0.205 F 
ATOM     93  C   UNL A   1      45.985  36.091  29.703  1.00  0.00     0.022 A 
BRANCH  91  94
ATOM     94  S   UNL A   1      45.379  37.033  27.200  1.00  0.00     0.127 S 
ATOM     95  O   UNL A   1      46.241  38.052  27.796  1.00  0.00    -0.237 OA
ATOM     96  O   UNL A   1      45.990  36.286  26.099  1.00  0.00    -0.237 OA
ATOM     97  O   UNL A   1      44.001  37.438  26.959  1.00  0.00    -0.744 OA
ENDBRANCH  91  94
ENDBRANCH  64  87
ENDBRANCH  38  39
ENDBRANCH  30  33
ENDBRANCH  28  29
ENDBRANCH  27  28
ENDBRANCH   1  27
TORSDOF 18
ENDMDL
MODEL 3
REMARK VINA RESULT:     -12.7      1.509      7.888
REMARK SMILES C[N@@H+](Cc1ccc2nsnc2c1)Cc1ccccc1C(=O)NCCCCNC(=O)c1ccc(-c2c3nc(c(-c4cccc(S(=O)(=O)[O-])c4F)c4ccc([nH]4)c(-c4cccc(S(=O)(=O)[O-])c4F)c4nc(c(-c5cccc(S(=O)(=O)[O-])c5F)c5ccc2[nH]5)C=C4)C=C3)cc1
REMARK SMILES IDX 24 1 23 2 22 3 20 4 21 5 19 7 14 8 15 9 16 10 18 11 17 12
REMARK SMILES IDX 13 13 2 14 1 15 3 17 4 18 5 19 12 20 6 21 11 22 7 23 10 24
REMARK SMILES IDX 8 25 9 26 25 27 26 28 27 29 28 30 29 32 30 33 31 34 92 35
REMARK SMILES IDX 32 36 91 37 33 38 34 39 35 40 85 41 36 42 90 43 84 44 86 45
REMARK SMILES IDX 37 46 89 47 83 48 82 49 38 51 70 52 50 53 69 54 51 55 54 56
REMARK SMILES IDX 68 57 87 58 52 59 53 60 67 62 88 63 55 64 39 65 40 66 48 67
REMARK SMILES IDX 41 68 43 69 49 70 42 71 44 72 45 73 46 74 47 75 71 76 72 77
REMARK SMILES IDX 80 78 73 79 75 80 81 81 74 82 76 83 77 84 78 85 79 86 56 87
REMARK SMILES IDX 57 88 65 89 58 90 60 91 66 92 59 93 61 94 62 95 63 96 64 97
REMARK H PARENT 22 6 2 16 27 31 86 50 54 61
REMARK Flexibility Score: inf
ROOT
ATOM      1  C   UNL A   1      35.237  23.497  23.918  1.00  0.00     0.023 C 
ENDROOT
BRANCH   1   2
ATOM      2  C   UNL A   1      34.606  23.710  22.538  1.00  0.00     0.116 C 
BRANCH   2   3
ATOM      3  N   UNL A   1      33.173  23.603  22.609  1.00  0.00    -0.352 N 
ATOM      4  C   UNL A   1      32.217  22.838  23.197  1.00  0.00     0.251 C 
ATOM      5  O   UNL A   1      31.090  23.337  23.040  1.00  0.00    -0.269 OA
ATOM      6  H   UNL A   1      32.753  24.304  22.059  1.00  0.00     0.163 HD
BRANCH   4   7
ATOM      7  C   UNL A   1      32.289  21.528  23.949  1.00  0.00     0.048 A 
ATOM      8  C   UNL A   1      32.505  21.204  25.309  1.00  0.00     0.019 A 
ATOM      9  C   UNL A   1      32.744  19.837  25.652  1.00  0.00     0.010 A 
ATOM     10  C   UNL A   1      32.777  18.810  24.714  1.00  0.00     0.001 A 
ATOM     11  C   UNL A   1      32.296  20.435  23.029  1.00  0.00     0.014 A 
ATOM     12  C   UNL A   1      32.545  19.111  23.391  1.00  0.00     0.001 A 
BRANCH   8  13
ATOM     13  C   UNL A   1      32.542  22.121  26.507  1.00  0.00     0.299 C 
BRANCH  13  14
ATOM     14  N   UNL A   1      31.627  23.249  26.583  1.00  0.00    -0.330 N 
ATOM     15  C   UNL A   1      30.248  22.925  26.877  1.00  0.00     0.333 C 
ATOM     16  H   UNL A   1      31.671  23.450  25.584  1.00  0.00     0.348 HD
BRANCH  14  17
ATOM     17  C   UNL A   1      32.075  24.597  26.891  1.00  0.00     0.299 C 
BRANCH  17  18
ATOM     18  C   UNL A   1      32.127  25.603  25.758  1.00  0.00     0.009 A 
ATOM     19  C   UNL A   1      33.412  26.073  25.345  1.00  0.00     0.012 A 
ATOM     20  C   UNL A   1      30.943  26.069  25.153  1.00  0.00     0.041 A 
ATOM     21  C   UNL A   1      33.615  27.103  24.410  1.00  0.00     0.032 A 
ATOM     22  C   UNL A   1      31.086  27.120  24.218  1.00  0.00     0.105 A 
ATOM     23  C   UNL A   1      32.445  27.654  23.849  1.00  0.00     0.104 A 
ATOM     24  N   UNL A   1      30.080  27.746  23.584  1.00  0.00    -0.173 NA
ATOM     25  N   UNL A   1      32.393  28.666  22.969  1.00  0.00    -0.173 NA
ATOM     26  S   UNL A   1      30.786  28.919  22.644  1.00  0.00     0.069 S 
ENDBRANCH  17  18
ENDBRANCH  14  17
ENDBRANCH  13  14
ENDBRANCH   8  13
ENDBRANCH   4   7
ENDBRANCH   2   3
ENDBRANCH   1   2
BRANCH   1  27
ATOM     27  C   UNL A   1      36.110  22.255  24.028  1.00  0.00     0.023 C 
BRANCH  27  28
ATOM     28  C   UNL A   1      36.771  22.053  25.377  1.00  0.00     0.116 C 
BRANCH  28  29
ATOM     29  N   UNL A   1      37.821  21.040  25.386  1.00  0.00    -0.352 N 
ATOM     30  C   UNL A   1      39.072  21.155  25.952  1.00  0.00     0.251 C 
ATOM     31  H   UNL A   1      37.615  20.187  24.941  1.00  0.00     0.163 HD
ATOM     32  O   UNL A   1      39.902  20.257  25.864  1.00  0.00    -0.269 OA
BRANCH  30  33
ATOM     33  C   UNL A   1      39.391  22.429  26.624  1.00  0.00     0.039 A 
ATOM     34  C   UNL A   1      40.449  22.469  27.534  1.00  0.00     0.014 A 
ATOM     35  C   UNL A   1      38.787  23.602  26.168  1.00  0.00     0.014 A 
ATOM     36  C   UNL A   1      40.965  23.705  27.921  1.00  0.00     0.010 A 
ATOM     37  C   UNL A   1      39.380  24.819  26.462  1.00  0.00     0.010 A 
ATOM     38  C   UNL A   1      40.471  24.888  27.345  1.00  0.00    -0.014 A 
BRANCH  38  39
ATOM     39  C   UNL A   1      41.051  26.222  27.651  1.00  0.00     0.031 A 
ATOM     40  C   UNL A   1      42.460  26.521  27.209  1.00  0.00     0.074 A 
ATOM     41  C   UNL A   1      40.382  27.102  28.424  1.00  0.00     0.049 A 
ATOM     42  N   UNL A   1      43.228  27.531  27.520  1.00  0.00    -0.248 NA
ATOM     43  C   UNL A   1      43.114  25.515  26.353  1.00  0.00     0.031 C 
ATOM     44  C   UNL A   1      39.049  26.897  28.996  1.00  0.00     0.029 A 
ATOM     45  N   UNL A   1      40.750  28.341  28.889  1.00  0.00    -0.354 N 
ATOM     46  C   UNL A   1      44.468  27.244  26.964  1.00  0.00     0.074 A 
ATOM     47  C   UNL A   1      44.365  25.948  26.335  1.00  0.00     0.031 C 
ATOM     48  C   UNL A   1      38.707  27.976  29.721  1.00  0.00     0.029 A 
ATOM     49  C   UNL A   1      39.804  28.937  29.693  1.00  0.00     0.049 A 
ATOM     50  H   UNL A   1      41.611  28.765  28.668  1.00  0.00     0.167 HD
ATOM     51  C   UNL A   1      45.584  28.009  26.937  1.00  0.00     0.034 A 
ATOM     52  C   UNL A   1      39.823  30.124  30.333  1.00  0.00     0.034 A 
ATOM     53  C   UNL A   1      45.645  29.344  27.461  1.00  0.00     0.049 A 
ATOM     54  C   UNL A   1      41.032  31.011  30.180  1.00  0.00     0.074 A 
ATOM     55  C   UNL A   1      46.685  30.250  27.387  1.00  0.00     0.029 A 
ATOM     56  N   UNL A   1      44.607  29.972  28.132  1.00  0.00    -0.354 N 
ATOM     57  N   UNL A   1      42.145  30.782  29.526  1.00  0.00    -0.248 NA
ATOM     58  C   UNL A   1      40.974  32.335  30.819  1.00  0.00     0.031 C 
ATOM     59  C   UNL A   1      46.273  31.434  28.008  1.00  0.00     0.029 A 
ATOM     60  C   UNL A   1      44.975  31.263  28.463  1.00  0.00     0.049 A 
ATOM     61  H   UNL A   1      43.739  29.560  28.343  1.00  0.00     0.167 HD
ATOM     62  C   UNL A   1      42.899  31.945  29.636  1.00  0.00     0.074 A 
ATOM     63  C   UNL A   1      42.111  32.883  30.409  1.00  0.00     0.031 C 
ATOM     64  C   UNL A   1      44.138  32.207  29.157  1.00  0.00     0.034 A 
BRANCH  51  65
ATOM     65  C   UNL A   1      46.795  27.451  26.240  1.00  0.00     0.023 A 
ATOM     66  C   UNL A   1      47.640  26.557  26.930  1.00  0.00     0.012 A 
ATOM     67  C   UNL A   1      47.081  27.778  24.901  1.00  0.00     0.148 A 
ATOM     68  C   UNL A   1      48.775  26.034  26.316  1.00  0.00     0.002 A 
ATOM     69  C   UNL A   1      48.189  27.214  24.279  1.00  0.00     0.091 A 
ATOM     70  F   UNL A   1      46.280  28.647  24.268  1.00  0.00    -0.205 F 
ATOM     71  C   UNL A   1      49.044  26.354  24.987  1.00  0.00     0.022 A 
BRANCH  69  72
ATOM     72  S   UNL A   1      48.574  27.499  22.547  1.00  0.00     0.127 S 
ATOM     73  O   UNL A   1      49.866  28.176  22.640  1.00  0.00    -0.237 OA
ATOM     74  O   UNL A   1      48.636  26.137  22.015  1.00  0.00    -0.237 OA
ATOM     75  O   UNL A   1      47.479  28.304  22.023  1.00  0.00    -0.744 OA
ENDBRANCH  69  72
ENDBRANCH  51  65
BRANCH  52  76
ATOM     76  C   UNL A   1      38.624  30.591  31.087  1.00  0.00     0.023 A 
ATOM     77  C   UNL A   1      38.554  30.351  32.474  1.00  0.00     0.012 A 
ATOM     78  C   UNL A   1      37.572  31.285  30.459  1.00  0.00     0.148 A 
ATOM     79  C   UNL A   1      37.446  30.762  33.216  1.00  0.00     0.002 A 
ATOM     80  C   UNL A   1      36.492  31.736  31.213  1.00  0.00     0.091 A 
ATOM     81  F   UNL A   1      37.647  31.493  29.137  1.00  0.00    -0.205 F 
ATOM     82  C   UNL A   1      36.420  31.461  32.588  1.00  0.00     0.022 A 
BRANCH  80  83
ATOM     83  S   UNL A   1      35.190  32.754  30.509  1.00  0.00     0.127 S 
ATOM     84  O   UNL A   1      34.702  31.908  29.423  1.00  0.00    -0.237 OA
ATOM     85  O   UNL A   1      34.269  32.897  31.639  1.00  0.00    -0.237 OA
ATOM     86  O   UNL A   1      35.842  33.994  30.112  1.00  0.00    -0.744 OA
ENDBRANCH  80  83
ENDBRANCH  52  76
BRANCH  64  87
ATOM     87  C   UNL A   1      44.712  33.577  29.392  1.00  0.00     0.023 A 
ATOM     88  C   UNL A   1      45.413  33.844  30.583  1.00  0.00     0.012 A 
ATOM     89  C   UNL A   1      44.655  34.558  28.383  1.00  0.00     0.148 A 
ATOM     90  C   UNL A   1      46.038  35.075  30.773  1.00  0.00     0.002 A 
ATOM     91  C   UNL A   1      45.315  35.766  28.561  1.00  0.00     0.091 A 
ATOM     92  F   UNL A   1      43.964  34.287  27.266  1.00  0.00    -0.205 F 
ATOM     93  C   UNL A   1      46.001  36.031  29.759  1.00  0.00     0.022 A 
BRANCH  91  94
ATOM     94  S   UNL A   1      45.401  37.011  27.269  1.00  0.00     0.127 S 
ATOM     95  O   UNL A   1      46.220  38.043  27.903  1.00  0.00    -0.237 OA
ATOM     96  O   UNL A   1      46.065  36.288  26.183  1.00  0.00    -0.237 OA
ATOM     97  O   UNL A   1      44.023  37.388  26.986  1.00  0.00    -0.744 OA
ENDBRANCH  91  94
ENDBRANCH  64  87
ENDBRANCH  38  39
ENDBRANCH  30  33
ENDBRANCH  28  29
ENDBRANCH  27  28
ENDBRANCH   1  27
TORSDOF 18
ENDMDL
