MODEL 1
REMARK VINA RESULT:     -13.0      0.000      0.000
REMARK SMILES CC1(C)CCCC[C@H]1NC(=O)Nc1ccccc1C(=O)NCCCCNC(=O)c1ccc(-c2c3nc(c(-c4cccc(S(=O)(=O)[O-])c4F)c4ccc([nH]4)c(-c4cccc(S(=O)(=O)[O-])c4F)c4nc(c(-c5cccc(S(=O)(=O)[O-])c5F)c5ccc2[nH]5)C=C4)C=C3)cc1
REMARK SMILES IDX 24 1 23 2 22 3 21 4 19 5 20 6 18 8 13 9 14 10 15 11 17 12
REMARK SMILES IDX 16 13 12 14 9 15 10 16 11 18 8 20 1 21 2 22 3 23 4 24 5 25
REMARK SMILES IDX 7 26 6 27 25 28 26 29 27 30 28 32 29 33 30 34 91 35 31 36
REMARK SMILES IDX 90 37 32 38 33 39 34 40 84 41 35 42 89 43 83 44 85 45 36 46
REMARK SMILES IDX 88 47 82 48 81 49 37 51 69 52 49 53 68 54 50 55 53 56 67 57
REMARK SMILES IDX 86 58 51 59 52 60 66 62 87 63 54 64 38 65 39 66 47 67 40 68
REMARK SMILES IDX 42 69 48 70 41 71 43 72 44 73 45 74 46 75 70 76 71 77 79 78
REMARK SMILES IDX 72 79 74 80 80 81 73 82 75 83 76 84 77 85 78 86 55 87 56 88
REMARK SMILES IDX 64 89 57 90 59 91 65 92 58 93 60 94 61 95 62 96 63 97
REMARK H PARENT 21 7 9 17 12 19 26 31 85 50 53 61
REMARK Flexibility Score: inf
ROOT
ATOM      1  C   UNL A   1      31.902  31.591  26.944  1.00  0.00     0.023 C 
ENDROOT
BRANCH   1   2
ATOM      2  C   UNL A   1      32.287  30.246  26.314  1.00  0.00     0.023 C 
BRANCH   2   3
ATOM      3  C   UNL A   1      32.276  29.051  27.259  1.00  0.00     0.116 C 
BRANCH   3   4
ATOM      4  N   UNL A   1      32.950  27.878  26.756  1.00  0.00    -0.352 N 
ATOM      5  C   UNL A   1      32.553  26.935  25.844  1.00  0.00     0.253 C 
ATOM      6  O   UNL A   1      33.340  26.007  25.630  1.00  0.00    -0.269 OA
ATOM      7  H   UNL A   1      33.848  27.731  27.131  1.00  0.00     0.163 HD
BRANCH   5   8
ATOM      8  C   UNL A   1      31.213  26.883  25.173  1.00  0.00     0.063 A 
ATOM      9  C   UNL A   1      30.126  26.012  25.387  1.00  0.00     0.055 A 
ATOM     10  C   UNL A   1      29.034  26.052  24.489  1.00  0.00     0.027 A 
ATOM     11  C   UNL A   1      28.923  27.033  23.506  1.00  0.00     0.002 A 
ATOM     12  C   UNL A   1      31.062  27.884  24.177  1.00  0.00     0.016 A 
ATOM     13  C   UNL A   1      29.925  27.978  23.373  1.00  0.00     0.001 A 
BRANCH   9  14
ATOM     14  N   UNL A   1      29.911  25.112  26.448  1.00  0.00    -0.307 N 
ATOM     15  N   UNL A   1      30.591  22.961  25.714  1.00  0.00    -0.335 N 
ATOM     16  C   UNL A   1      29.947  23.770  26.572  1.00  0.00     0.319 C 
ATOM     17  H   UNL A   1      30.261  22.034  25.688  1.00  0.00     0.165 HD
ATOM     18  O   UNL A   1      29.406  23.268  27.562  1.00  0.00    -0.248 OA
ATOM     19  H   UNL A   1      29.680  25.566  27.290  1.00  0.00     0.171 HD
BRANCH  15  20
ATOM     20  C   UNL A   1      31.699  23.247  24.820  1.00  0.00     0.089 C 
ATOM     21  C   UNL A   1      32.565  20.821  24.639  1.00  0.00     0.013 C 
ATOM     22  C   UNL A   1      32.910  22.282  24.997  1.00  0.00    -0.015 C 
ATOM     23  C   UNL A   1      33.416  22.293  26.455  1.00  0.00     0.013 C 
ATOM     24  C   UNL A   1      34.045  22.809  24.080  1.00  0.00     0.008 C 
ATOM     25  C   UNL A   1      33.618  23.010  22.621  1.00  0.00     0.001 C 
ATOM     26  C   UNL A   1      31.224  23.298  23.365  1.00  0.00     0.025 C 
ATOM     27  C   UNL A   1      32.341  23.834  22.479  1.00  0.00     0.002 C 
ENDBRANCH  15  20
ENDBRANCH   9  14
ENDBRANCH   5   8
ENDBRANCH   3   4
ENDBRANCH   2   3
ENDBRANCH   1   2
BRANCH   1  28
ATOM     28  C   UNL A   1      33.047  32.490  27.423  1.00  0.00     0.116 C 
BRANCH  28  29
ATOM     29  N   UNL A   1      32.652  33.871  27.677  1.00  0.00    -0.352 N 
ATOM     30  C   UNL A   1      33.134  34.785  28.588  1.00  0.00     0.251 C 
ATOM     31  H   UNL A   1      31.923  34.204  27.104  1.00  0.00     0.163 HD
ATOM     32  O   UNL A   1      32.583  35.866  28.739  1.00  0.00    -0.269 OA
BRANCH  30  33
ATOM     33  C   UNL A   1      34.315  34.442  29.412  1.00  0.00     0.039 A 
ATOM     34  C   UNL A   1      34.125  33.893  30.682  1.00  0.00     0.014 A 
ATOM     35  C   UNL A   1      35.607  34.641  28.920  1.00  0.00     0.014 A 
ATOM     36  C   UNL A   1      35.228  33.434  31.409  1.00  0.00     0.010 A 
ATOM     37  C   UNL A   1      36.696  34.116  29.610  1.00  0.00     0.010 A 
ATOM     38  C   UNL A   1      36.517  33.485  30.852  1.00  0.00    -0.014 A 
BRANCH  38  39
ATOM     39  C   UNL A   1      37.678  32.827  31.511  1.00  0.00     0.031 A 
ATOM     40  C   UNL A   1      38.371  31.661  30.861  1.00  0.00     0.074 A 
ATOM     41  C   UNL A   1      38.024  33.199  32.762  1.00  0.00     0.049 A 
ATOM     42  N   UNL A   1      39.333  30.908  31.330  1.00  0.00    -0.248 NA
ATOM     43  C   UNL A   1      37.903  31.269  29.521  1.00  0.00     0.031 C 
ATOM     44  C   UNL A   1      37.365  34.247  33.547  1.00  0.00     0.029 A 
ATOM     45  N   UNL A   1      38.989  32.711  33.609  1.00  0.00    -0.354 N 
ATOM     46  C   UNL A   1      39.554  29.929  30.370  1.00  0.00     0.074 A 
ATOM     47  C   UNL A   1      38.610  30.169  29.300  1.00  0.00     0.031 C 
ATOM     48  C   UNL A   1      37.942  34.321  34.756  1.00  0.00     0.029 A 
ATOM     49  C   UNL A   1      38.990  33.309  34.849  1.00  0.00     0.049 A 
ATOM     50  H   UNL A   1      39.620  32.001  33.354  1.00  0.00     0.167 HD
ATOM     51  C   UNL A   1      40.478  28.939  30.363  1.00  0.00     0.034 A 
ATOM     52  C   UNL A   1      39.741  33.067  35.942  1.00  0.00     0.034 A 
ATOM     53  C   UNL A   1      41.455  28.738  31.400  1.00  0.00     0.049 A 
ATOM     54  C   UNL A   1      40.804  32.005  35.881  1.00  0.00     0.074 A 
ATOM     55  C   UNL A   1      42.506  27.838  31.427  1.00  0.00     0.029 A 
ATOM     56  N   UNL A   1      41.501  29.441  32.594  1.00  0.00    -0.354 N 
ATOM     57  N   UNL A   1      41.122  31.214  34.886  1.00  0.00    -0.248 NA
ATOM     58  C   UNL A   1      41.637  31.827  37.079  1.00  0.00     0.031 C 
ATOM     59  C   UNL A   1      43.177  27.984  32.646  1.00  0.00     0.029 A 
ATOM     60  C   UNL A   1      42.555  28.988  33.370  1.00  0.00     0.049 A 
ATOM     61  H   UNL A   1      40.875  30.156  32.852  1.00  0.00     0.167 HD
ATOM     62  C   UNL A   1      42.209  30.467  35.326  1.00  0.00     0.074 A 
ATOM     63  C   UNL A   1      42.513  30.918  36.668  1.00  0.00     0.031 C 
ATOM     64  C   UNL A   1      42.883  29.483  34.682  1.00  0.00     0.034 A 
BRANCH  51  65
ATOM     65  C   UNL A   1      40.522  28.028  29.165  1.00  0.00     0.023 A 
ATOM     66  C   UNL A   1      39.577  26.988  29.052  1.00  0.00     0.012 A 
ATOM     67  C   UNL A   1      41.446  28.238  28.124  1.00  0.00     0.148 A 
ATOM     68  C   UNL A   1      39.570  26.152  27.937  1.00  0.00     0.002 A 
ATOM     69  C   UNL A   1      41.407  27.427  26.995  1.00  0.00     0.091 A 
ATOM     70  F   UNL A   1      42.350  29.219  28.258  1.00  0.00    -0.205 F 
ATOM     71  C   UNL A   1      40.477  26.377  26.906  1.00  0.00     0.022 A 
BRANCH  69  72
ATOM     72  S   UNL A   1      42.481  27.684  25.579  1.00  0.00     0.127 S 
ATOM     73  O   UNL A   1      42.209  26.490  24.781  1.00  0.00    -0.237 OA
ATOM     74  O   UNL A   1      41.954  28.927  25.013  1.00  0.00    -0.237 OA
ATOM     75  O   UNL A   1      43.832  27.786  26.113  1.00  0.00    -0.744 OA
ENDBRANCH  69  72
ENDBRANCH  51  65
BRANCH  52  76
ATOM     76  C   UNL A   1      39.559  33.895  37.168  1.00  0.00     0.023 A 
ATOM     77  C   UNL A   1      40.041  35.219  37.183  1.00  0.00     0.012 A 
ATOM     78  C   UNL A   1      38.890  33.396  38.302  1.00  0.00     0.148 A 
ATOM     79  C   UNL A   1      39.890  36.019  38.316  1.00  0.00     0.002 A 
ATOM     80  C   UNL A   1      38.695  34.216  39.408  1.00  0.00     0.091 A 
ATOM     81  F   UNL A   1      38.451  32.130  38.275  1.00  0.00    -0.205 F 
ATOM     82  C   UNL A   1      39.208  35.523  39.424  1.00  0.00     0.022 A 
BRANCH  80  83
ATOM     83  S   UNL A   1      37.713  33.702  40.822  1.00  0.00     0.127 S 
ATOM     84  O   UNL A   1      37.423  34.980  41.466  1.00  0.00    -0.237 OA
ATOM     85  O   UNL A   1      36.565  33.061  40.180  1.00  0.00    -0.237 OA
ATOM     86  O   UNL A   1      38.562  32.788  41.573  1.00  0.00    -0.744 OA
ENDBRANCH  80  83
ENDBRANCH  52  76
BRANCH  64  87
ATOM     87  C   UNL A   1      44.036  28.836  35.402  1.00  0.00     0.023 A 
ATOM     88  C   UNL A   1      45.339  29.347  35.232  1.00  0.00     0.012 A 
ATOM     89  C   UNL A   1      43.821  27.777  36.306  1.00  0.00     0.148 A 
ATOM     90  C   UNL A   1      46.412  28.796  35.930  1.00  0.00     0.002 A 
ATOM     91  C   UNL A   1      44.890  27.263  37.032  1.00  0.00     0.091 A 
ATOM     92  F   UNL A   1      42.579  27.291  36.439  1.00  0.00    -0.205 F 
ATOM     93  C   UNL A   1      46.187  27.765  36.839  1.00  0.00     0.022 A 
BRANCH  91  94
ATOM     94  S   UNL A   1      44.675  25.999  38.291  1.00  0.00     0.127 S 
ATOM     95  O   UNL A   1      46.053  25.775  38.727  1.00  0.00    -0.237 OA
ATOM     96  O   UNL A   1      43.829  26.678  39.274  1.00  0.00    -0.237 OA
ATOM     97  O   UNL A   1      44.037  24.873  37.623  1.00  0.00    -0.744 OA
ENDBRANCH  91  94
ENDBRANCH  64  87
ENDBRANCH  38  39
ENDBRANCH  30  33
ENDBRANCH  28  29
ENDBRANCH   1  28
TORSDOF 16
ENDMDL
MODEL 2
REMARK VINA RESULT:     -13.0      2.610      8.208
REMARK SMILES CC1(C)CCCC[C@H]1NC(=O)Nc1ccccc1C(=O)NCCCCNC(=O)c1ccc(-c2c3nc(c(-c4cccc(S(=O)(=O)[O-])c4F)c4ccc([nH]4)c(-c4cccc(S(=O)(=O)[O-])c4F)c4nc(c(-c5cccc(S(=O)(=O)[O-])c5F)c5ccc2[nH]5)C=C4)C=C3)cc1
REMARK SMILES IDX 24 1 23 2 22 3 21 4 19 5 20 6 18 8 13 9 14 10 15 11 17 12
REMARK SMILES IDX 16 13 12 14 9 15 10 16 11 18 8 20 1 21 2 22 3 23 4 24 5 25
REMARK SMILES IDX 7 26 6 27 25 28 26 29 27 30 28 32 29 33 30 34 91 35 31 36
REMARK SMILES IDX 90 37 32 38 33 39 34 40 84 41 35 42 89 43 83 44 85 45 36 46
REMARK SMILES IDX 88 47 82 48 81 49 37 51 69 52 49 53 68 54 50 55 53 56 67 57
REMARK SMILES IDX 86 58 51 59 52 60 66 62 87 63 54 64 38 65 39 66 47 67 40 68
REMARK SMILES IDX 42 69 48 70 41 71 43 72 44 73 45 74 46 75 70 76 71 77 79 78
REMARK SMILES IDX 72 79 74 80 80 81 73 82 75 83 76 84 77 85 78 86 55 87 56 88
REMARK SMILES IDX 64 89 57 90 59 91 65 92 58 93 60 94 61 95 62 96 63 97
REMARK H PARENT 21 7 9 17 12 19 26 31 85 50 53 61
REMARK Flexibility Score: inf
ROOT
ATOM      1  C   UNL A   1      32.291  30.013  25.345  1.00  0.00     0.023 C 
ENDROOT
BRANCH   1   2
ATOM      2  C   UNL A   1      33.275  29.036  24.686  1.00  0.00     0.023 C 
BRANCH   2   3
ATOM      3  C   UNL A   1      33.232  28.988  23.164  1.00  0.00     0.116 C 
BRANCH   3   4
ATOM      4  N   UNL A   1      31.938  29.260  22.588  1.00  0.00    -0.352 N 
ATOM      5  C   UNL A   1      30.770  28.541  22.623  1.00  0.00     0.253 C 
ATOM      6  O   UNL A   1      29.813  29.013  21.999  1.00  0.00    -0.269 OA
ATOM      7  H   UNL A   1      31.883  30.104  22.085  1.00  0.00     0.163 HD
BRANCH   5   8
ATOM      8  C   UNL A   1      30.594  27.195  23.260  1.00  0.00     0.063 A 
ATOM      9  C   UNL A   1      30.844  25.910  22.743  1.00  0.00     0.055 A 
ATOM     10  C   UNL A   1      30.418  24.782  23.483  1.00  0.00     0.027 A 
ATOM     11  C   UNL A   1      29.913  24.897  24.777  1.00  0.00     0.002 A 
ATOM     12  C   UNL A   1      30.097  27.281  24.587  1.00  0.00     0.016 A 
ATOM     13  C   UNL A   1      29.786  26.152  25.347  1.00  0.00     0.001 A 
BRANCH   9  14
ATOM     14  N   UNL A   1      31.551  25.547  21.580  1.00  0.00    -0.307 N 
ATOM     15  N   UNL A   1      33.806  25.151  22.204  1.00  0.00    -0.335 N 
ATOM     16  C   UNL A   1      32.854  25.371  21.282  1.00  0.00     0.319 C 
ATOM     17  H   UNL A   1      34.719  25.395  21.928  1.00  0.00     0.165 HD
ATOM     18  O   UNL A   1      33.175  25.353  20.090  1.00  0.00    -0.248 OA
ATOM     19  H   UNL A   1      30.960  25.386  20.811  1.00  0.00     0.171 HD
BRANCH  15  20
ATOM     20  C   UNL A   1      33.691  24.610  23.547  1.00  0.00     0.089 C 
ATOM     21  C   UNL A   1      35.632  22.919  23.349  1.00  0.00     0.013 C 
ATOM     22  C   UNL A   1      34.135  23.120  23.660  1.00  0.00    -0.015 C 
ATOM     23  C   UNL A   1      33.336  22.231  22.682  1.00  0.00     0.013 C 
ATOM     24  C   UNL A   1      33.818  22.664  25.108  1.00  0.00     0.008 C 
ATOM     25  C   UNL A   1      34.416  23.573  26.188  1.00  0.00     0.001 C 
ATOM     26  C   UNL A   1      34.427  25.497  24.555  1.00  0.00     0.025 C 
ATOM     27  C   UNL A   1      34.093  25.049  25.972  1.00  0.00     0.002 C 
ENDBRANCH  15  20
ENDBRANCH   9  14
ENDBRANCH   5   8
ENDBRANCH   3   4
ENDBRANCH   2   3
ENDBRANCH   1   2
BRANCH   1  28
ATOM     28  C   UNL A   1      32.552  30.384  26.809  1.00  0.00     0.116 C 
BRANCH  28  29
ATOM     29  N   UNL A   1      32.665  31.818  27.048  1.00  0.00    -0.352 N 
ATOM     30  C   UNL A   1      33.667  32.546  27.652  1.00  0.00     0.251 C 
ATOM     31  H   UNL A   1      31.904  32.352  26.724  1.00  0.00     0.163 HD
ATOM     32  O   UNL A   1      33.522  33.740  27.874  1.00  0.00    -0.269 OA
BRANCH  30  33
ATOM     33  C   UNL A   1      34.919  31.871  28.059  1.00  0.00     0.039 A 
ATOM     34  C   UNL A   1      36.088  32.623  28.194  1.00  0.00     0.014 A 
ATOM     35  C   UNL A   1      34.931  30.501  28.331  1.00  0.00     0.014 A 
ATOM     36  C   UNL A   1      37.239  32.024  28.716  1.00  0.00     0.010 A 
ATOM     37  C   UNL A   1      36.054  29.925  28.920  1.00  0.00     0.010 A 
ATOM     38  C   UNL A   1      37.214  30.685  29.140  1.00  0.00    -0.014 A 
BRANCH  38  39
ATOM     39  C   UNL A   1      38.354  30.080  29.879  1.00  0.00     0.031 A 
ATOM     40  C   UNL A   1      38.716  30.557  31.259  1.00  0.00     0.074 A 
ATOM     41  C   UNL A   1      39.148  29.187  29.251  1.00  0.00     0.049 A 
ATOM     42  N   UNL A   1      39.731  30.213  32.010  1.00  0.00    -0.248 NA
ATOM     43  C   UNL A   1      37.843  31.578  31.863  1.00  0.00     0.031 C 
ATOM     44  C   UNL A   1      38.968  28.716  27.874  1.00  0.00     0.029 A 
ATOM     45  N   UNL A   1      40.288  28.546  29.671  1.00  0.00    -0.354 N 
ATOM     46  C   UNL A   1      39.647  31.003  33.150  1.00  0.00     0.074 A 
ATOM     47  C   UNL A   1      38.494  31.861  32.983  1.00  0.00     0.031 C 
ATOM     48  C   UNL A   1      39.961  27.866  27.566  1.00  0.00     0.029 A 
ATOM     49  C   UNL A   1      40.864  27.753  28.706  1.00  0.00     0.049 A 
ATOM     50  H   UNL A   1      40.658  28.645  30.578  1.00  0.00     0.167 HD
ATOM     51  C   UNL A   1      40.437  30.995  34.250  1.00  0.00     0.034 A 
ATOM     52  C   UNL A   1      41.997  27.023  28.728  1.00  0.00     0.034 A 
ATOM     53  C   UNL A   1      41.547  30.100  34.441  1.00  0.00     0.049 A 
ATOM     54  C   UNL A   1      42.819  26.981  29.987  1.00  0.00     0.074 A 
ATOM     55  C   UNL A   1      42.334  29.935  35.568  1.00  0.00     0.029 A 
ATOM     56  N   UNL A   1      42.033  29.224  33.483  1.00  0.00    -0.354 N 
ATOM     57  N   UNL A   1      42.612  27.595  31.126  1.00  0.00    -0.248 NA
ATOM     58  C   UNL A   1      44.009  26.118  29.978  1.00  0.00     0.031 C 
ATOM     59  C   UNL A   1      43.307  28.970  35.285  1.00  0.00     0.029 A 
ATOM     60  C   UNL A   1      43.115  28.522  33.988  1.00  0.00     0.049 A 
ATOM     61  H   UNL A   1      41.664  29.117  32.577  1.00  0.00     0.167 HD
ATOM     62  C   UNL A   1      43.626  27.170  31.978  1.00  0.00     0.074 A 
ATOM     63  C   UNL A   1      44.431  26.226  31.232  1.00  0.00     0.031 C 
ATOM     64  C   UNL A   1      43.877  27.543  33.257  1.00  0.00     0.034 A 
BRANCH  51  65
ATOM     65  C   UNL A   1      40.094  31.943  35.368  1.00  0.00     0.023 A 
ATOM     66  C   UNL A   1      40.779  33.171  35.468  1.00  0.00     0.012 A 
ATOM     67  C   UNL A   1      39.056  31.655  36.275  1.00  0.00     0.148 A 
ATOM     68  C   UNL A   1      40.458  34.084  36.471  1.00  0.00     0.002 A 
ATOM     69  C   UNL A   1      38.713  32.588  37.247  1.00  0.00     0.091 A 
ATOM     70  F   UNL A   1      38.430  30.473  36.177  1.00  0.00    -0.205 F 
ATOM     71  C   UNL A   1      39.420  33.798  37.352  1.00  0.00     0.022 A 
BRANCH  69  72
ATOM     72  S   UNL A   1      37.341  32.347  38.381  1.00  0.00     0.127 S 
ATOM     73  O   UNL A   1      36.252  33.021  37.675  1.00  0.00    -0.237 OA
ATOM     74  O   UNL A   1      37.227  30.889  38.423  1.00  0.00    -0.237 OA
ATOM     75  O   UNL A   1      37.747  32.960  39.637  1.00  0.00    -0.744 OA
ENDBRANCH  69  72
ENDBRANCH  51  65
BRANCH  52  76
ATOM     76  C   UNL A   1      42.385  26.214  27.537  1.00  0.00     0.023 A 
ATOM     77  C   UNL A   1      43.163  26.808  26.524  1.00  0.00     0.012 A 
ATOM     78  C   UNL A   1      42.016  24.860  27.413  1.00  0.00     0.148 A 
ATOM     79  C   UNL A   1      43.539  26.081  25.395  1.00  0.00     0.002 A 
ATOM     80  C   UNL A   1      42.440  24.125  26.312  1.00  0.00     0.091 A 
ATOM     81  F   UNL A   1      41.264  24.315  28.379  1.00  0.00    -0.205 F 
ATOM     82  C   UNL A   1      43.188  24.737  25.293  1.00  0.00     0.022 A 
BRANCH  80  83
ATOM     83  S   UNL A   1      42.146  22.358  26.167  1.00  0.00     0.127 S 
ATOM     84  O   UNL A   1      42.891  22.029  24.954  1.00  0.00    -0.237 OA
ATOM     85  O   UNL A   1      42.733  21.849  27.407  1.00  0.00    -0.237 OA
ATOM     86  O   UNL A   1      40.700  22.211  26.088  1.00  0.00    -0.744 OA
ENDBRANCH  80  83
ENDBRANCH  52  76
BRANCH  64  87
ATOM     87  C   UNL A   1      45.056  26.915  33.951  1.00  0.00     0.023 A 
ATOM     88  C   UNL A   1      46.314  27.549  33.897  1.00  0.00     0.012 A 
ATOM     89  C   UNL A   1      44.903  25.745  34.721  1.00  0.00     0.148 A 
ATOM     90  C   UNL A   1      47.407  27.012  34.576  1.00  0.00     0.002 A 
ATOM     91  C   UNL A   1      45.987  25.242  35.432  1.00  0.00     0.091 A 
ATOM     92  F   UNL A   1      43.703  25.146  34.744  1.00  0.00    -0.205 F 
ATOM     93  C   UNL A   1      47.241  25.868  35.353  1.00  0.00     0.022 A 
BRANCH  91  94
ATOM     94  S   UNL A   1      45.839  23.828  36.531  1.00  0.00     0.127 S 
ATOM     95  O   UNL A   1      47.236  23.572  36.877  1.00  0.00    -0.237 OA
ATOM     96  O   UNL A   1      45.030  24.367  37.626  1.00  0.00    -0.237 OA
ATOM     97  O   UNL A   1      45.183  22.785  35.755  1.00  0.00    -0.744 OA
ENDBRANCH  91  94
ENDBRANCH  64  87
ENDBRANCH  38  39
ENDBRANCH  30  33
ENDBRANCH  28  29
ENDBRANCH   1  28
TORSDOF 16
ENDMDL
MODEL 3
REMARK VINA RESULT:     -12.8      0.463      7.676
REMARK SMILES CC1(C)CCCC[C@H]1NC(=O)Nc1ccccc1C(=O)NCCCCNC(=O)c1ccc(-c2c3nc(c(-c4cccc(S(=O)(=O)[O-])c4F)c4ccc([nH]4)c(-c4cccc(S(=O)(=O)[O-])c4F)c4nc(c(-c5cccc(S(=O)(=O)[O-])c5F)c5ccc2[nH]5)C=C4)C=C3)cc1
REMARK SMILES IDX 24 1 23 2 22 3 21 4 19 5 20 6 18 8 13 9 14 10 15 11 17 12
REMARK SMILES IDX 16 13 12 14 9 15 10 16 11 18 8 20 1 21 2 22 3 23 4 24 5 25
REMARK SMILES IDX 7 26 6 27 25 28 26 29 27 30 28 32 29 33 30 34 91 35 31 36
REMARK SMILES IDX 90 37 32 38 33 39 34 40 84 41 35 42 89 43 83 44 85 45 36 46
REMARK SMILES IDX 88 47 82 48 81 49 37 51 69 52 49 53 68 54 50 55 53 56 67 57
REMARK SMILES IDX 86 58 51 59 52 60 66 62 87 63 54 64 38 65 39 66 47 67 40 68
REMARK SMILES IDX 42 69 48 70 41 71 43 72 44 73 45 74 46 75 70 76 71 77 79 78
REMARK SMILES IDX 72 79 74 80 80 81 73 82 75 83 76 84 77 85 78 86 55 87 56 88
REMARK SMILES IDX 64 89 57 90 59 91 65 92 58 93 60 94 61 95 62 96 63 97
REMARK H PARENT 21 7 9 17 12 19 26 31 85 50 53 61
REMARK Flexibility Score: inf
ROOT
ATOM      1  C   UNL A   1      31.933  31.681  27.051  1.00  0.00     0.023 C 
ENDROOT
BRANCH   1   2
ATOM      2  C   UNL A   1      32.256  30.336  26.387  1.00  0.00     0.023 C 
BRANCH   2   3
ATOM      3  C   UNL A   1      32.142  29.114  27.290  1.00  0.00     0.116 C 
BRANCH   3   4
ATOM      4  N   UNL A   1      32.835  27.943  26.810  1.00  0.00    -0.352 N 
ATOM      5  C   UNL A   1      32.454  26.977  25.915  1.00  0.00     0.253 C 
ATOM      6  O   UNL A   1      33.256  26.057  25.720  1.00  0.00    -0.269 OA
ATOM      7  H   UNL A   1      33.735  27.816  27.190  1.00  0.00     0.163 HD
BRANCH   5   8
ATOM      8  C   UNL A   1      31.117  26.892  25.242  1.00  0.00     0.063 A 
ATOM      9  C   UNL A   1      30.057  25.988  25.446  1.00  0.00     0.055 A 
ATOM     10  C   UNL A   1      28.964  26.003  24.548  1.00  0.00     0.027 A 
ATOM     11  C   UNL A   1      28.825  26.990  23.574  1.00  0.00     0.002 A 
ATOM     12  C   UNL A   1      30.937  27.897  24.256  1.00  0.00     0.016 A 
ATOM     13  C   UNL A   1      29.799  27.965  23.451  1.00  0.00     0.001 A 
BRANCH   9  14
ATOM     14  N   UNL A   1      29.867  25.071  26.499  1.00  0.00    -0.307 N 
ATOM     15  N   UNL A   1      30.591  22.944  25.739  1.00  0.00    -0.335 N 
ATOM     16  C   UNL A   1      29.934  23.729  26.608  1.00  0.00     0.319 C 
ATOM     17  H   UNL A   1      30.282  22.010  25.704  1.00  0.00     0.165 HD
ATOM     18  O   UNL A   1      29.410  23.205  27.595  1.00  0.00    -0.248 OA
ATOM     19  H   UNL A   1      29.631  25.511  27.347  1.00  0.00     0.171 HD
BRANCH  15  20
ATOM     20  C   UNL A   1      31.688  23.265  24.842  1.00  0.00     0.089 C 
ATOM     21  C   UNL A   1      32.541  20.846  24.544  1.00  0.00     0.013 C 
ATOM     22  C   UNL A   1      32.897  22.288  24.960  1.00  0.00    -0.015 C 
ATOM     23  C   UNL A   1      33.423  22.235  26.409  1.00  0.00     0.013 C 
ATOM     24  C   UNL A   1      34.021  22.851  24.050  1.00  0.00     0.008 C 
ATOM     25  C   UNL A   1      33.575  23.115  22.607  1.00  0.00     0.001 C 
ATOM     26  C   UNL A   1      31.192  23.380  23.397  1.00  0.00     0.025 C 
ATOM     27  C   UNL A   1      32.300  23.950  22.520  1.00  0.00     0.002 C 
ENDBRANCH  15  20
ENDBRANCH   9  14
ENDBRANCH   5   8
ENDBRANCH   3   4
ENDBRANCH   2   3
ENDBRANCH   1   2
BRANCH   1  28
ATOM     28  C   UNL A   1      33.109  32.630  27.311  1.00  0.00     0.116 C 
BRANCH  28  29
ATOM     29  N   UNL A   1      32.710  33.982  27.684  1.00  0.00    -0.352 N 
ATOM     30  C   UNL A   1      33.152  34.794  28.706  1.00  0.00     0.251 C 
ATOM     31  H   UNL A   1      32.013  34.379  27.113  1.00  0.00     0.163 HD
ATOM     32  O   UNL A   1      32.601  35.860  28.938  1.00  0.00    -0.269 OA
BRANCH  30  33
ATOM     33  C   UNL A   1      34.289  34.357  29.547  1.00  0.00     0.039 A 
ATOM     34  C   UNL A   1      34.032  33.742  30.775  1.00  0.00     0.014 A 
ATOM     35  C   UNL A   1      35.604  34.534  29.112  1.00  0.00     0.014 A 
ATOM     36  C   UNL A   1      35.090  33.197  31.509  1.00  0.00     0.010 A 
ATOM     37  C   UNL A   1      36.647  33.926  29.806  1.00  0.00     0.010 A 
ATOM     38  C   UNL A   1      36.400  33.231  31.001  1.00  0.00    -0.014 A 
BRANCH  38  39
ATOM     39  C   UNL A   1      37.510  32.490  31.658  1.00  0.00     0.031 A 
ATOM     40  C   UNL A   1      38.085  32.966  32.964  1.00  0.00     0.074 A 
ATOM     41  C   UNL A   1      38.090  31.459  31.008  1.00  0.00     0.049 A 
ATOM     42  N   UNL A   1      39.112  32.503  33.630  1.00  0.00    -0.248 NA
ATOM     43  C   UNL A   1      37.444  34.134  33.590  1.00  0.00     0.031 C 
ATOM     44  C   UNL A   1      37.695  30.961  29.687  1.00  0.00     0.029 A 
ATOM     45  N   UNL A   1      39.160  30.669  31.351  1.00  0.00    -0.354 N 
ATOM     46  C   UNL A   1      39.269  33.345  34.723  1.00  0.00     0.074 A 
ATOM     47  C   UNL A   1      38.246  34.363  34.620  1.00  0.00     0.031 C 
ATOM     48  C   UNL A   1      38.511  29.956  29.333  1.00  0.00     0.029 A 
ATOM     49  C   UNL A   1      39.505  29.754  30.382  1.00  0.00     0.049 A 
ATOM     50  H   UNL A   1      39.636  30.749  32.208  1.00  0.00     0.167 HD
ATOM     51  C   UNL A   1      40.163  33.264  35.737  1.00  0.00     0.034 A 
ATOM     52  C   UNL A   1      40.512  28.859  30.335  1.00  0.00     0.034 A 
ATOM     53  C   UNL A   1      41.141  32.217  35.871  1.00  0.00     0.049 A 
ATOM     54  C   UNL A   1      41.449  28.747  31.507  1.00  0.00     0.074 A 
ATOM     55  C   UNL A   1      42.010  31.982  36.921  1.00  0.00     0.029 A 
ATOM     56  N   UNL A   1      41.385  31.235  34.923  1.00  0.00    -0.354 N 
ATOM     57  N   UNL A   1      41.459  29.434  32.622  1.00  0.00    -0.248 NA
ATOM     58  C   UNL A   1      42.489  27.711  31.431  1.00  0.00     0.031 C 
ATOM     59  C   UNL A   1      42.793  30.867  36.602  1.00  0.00     0.029 A 
ATOM     60  C   UNL A   1      42.399  30.398  35.360  1.00  0.00     0.049 A 
ATOM     61  H   UNL A   1      40.909  31.147  34.066  1.00  0.00     0.167 HD
ATOM     62  C   UNL A   1      42.483  28.896  33.393  1.00  0.00     0.074 A 
ATOM     63  C   UNL A   1      43.054  27.807  32.628  1.00  0.00     0.031 C 
ATOM     64  C   UNL A   1      42.923  29.282  34.616  1.00  0.00     0.034 A 
BRANCH  51  65
ATOM     65  C   UNL A   1      40.087  34.301  36.826  1.00  0.00     0.023 A 
ATOM     66  C   UNL A   1      40.489  35.624  36.549  1.00  0.00     0.012 A 
ATOM     67  C   UNL A   1      39.558  33.991  38.094  1.00  0.00     0.148 A 
ATOM     68  C   UNL A   1      40.396  36.614  37.526  1.00  0.00     0.002 A 
ATOM     69  C   UNL A   1      39.429  34.992  39.049  1.00  0.00     0.091 A 
ATOM     70  F   UNL A   1      39.200  32.723  38.345  1.00  0.00    -0.205 F 
ATOM     71  C   UNL A   1      39.857  36.301  38.770  1.00  0.00     0.022 A 
BRANCH  69  72
ATOM     72  S   UNL A   1      38.676  34.708  40.655  1.00  0.00     0.127 S 
ATOM     73  O   UNL A   1      37.551  33.842  40.305  1.00  0.00    -0.237 OA
ATOM     74  O   UNL A   1      39.752  34.039  41.388  1.00  0.00    -0.237 OA
ATOM     75  O   UNL A   1      38.319  36.023  41.169  1.00  0.00    -0.744 OA
ENDBRANCH  69  72
ENDBRANCH  51  65
BRANCH  52  76
ATOM     76  C   UNL A   1      40.645  27.949  29.162  1.00  0.00     0.023 A 
ATOM     77  C   UNL A   1      39.828  26.804  29.082  1.00  0.00     0.012 A 
ATOM     78  C   UNL A   1      41.548  28.221  28.116  1.00  0.00     0.148 A 
ATOM     79  C   UNL A   1      39.930  25.930  28.000  1.00  0.00     0.002 A 
ATOM     80  C   UNL A   1      41.606  27.375  27.014  1.00  0.00     0.091 A 
ATOM     81  F   UNL A   1      42.328  29.307  28.216  1.00  0.00    -0.205 F 
ATOM     82  C   UNL A   1      40.810  26.220  26.961  1.00  0.00     0.022 A 
BRANCH  80  83
ATOM     83  S   UNL A   1      42.614  27.746  25.573  1.00  0.00     0.127 S 
ATOM     84  O   UNL A   1      43.952  27.822  26.155  1.00  0.00    -0.237 OA
ATOM     85  O   UNL A   1      42.375  26.577  24.726  1.00  0.00    -0.237 OA
ATOM     86  O   UNL A   1      42.081  28.990  25.036  1.00  0.00    -0.744 OA
ENDBRANCH  80  83
ENDBRANCH  52  76
BRANCH  64  87
ATOM     87  C   UNL A   1      44.063  28.510  35.226  1.00  0.00     0.023 A 
ATOM     88  C   UNL A   1      45.390  28.852  34.896  1.00  0.00     0.012 A 
ATOM     89  C   UNL A   1      43.825  27.504  36.183  1.00  0.00     0.148 A 
ATOM     90  C   UNL A   1      46.461  28.185  35.490  1.00  0.00     0.002 A 
ATOM     91  C   UNL A   1      44.899  26.875  36.803  1.00  0.00     0.091 A 
ATOM     92  F   UNL A   1      42.555  27.179  36.468  1.00  0.00    -0.205 F 
ATOM     93  C   UNL A   1      46.217  27.208  36.451  1.00  0.00     0.022 A 
BRANCH  91  94
ATOM     94  S   UNL A   1      44.676  25.672  38.120  1.00  0.00     0.127 S 
ATOM     95  O   UNL A   1      43.934  26.449  39.111  1.00  0.00    -0.237 OA
ATOM     96  O   UNL A   1      43.895  24.626  37.457  1.00  0.00    -0.237 OA
ATOM     97  O   UNL A   1      46.015  25.262  38.517  1.00  0.00    -0.744 OA
ENDBRANCH  91  94
ENDBRANCH  64  87
ENDBRANCH  38  39
ENDBRANCH  30  33
ENDBRANCH  28  29
ENDBRANCH   1  28
TORSDOF 16
ENDMDL
