MODEL 1
REMARK VINA RESULT:     -12.6      0.000      0.000
REMARK SMILES O=C(NCCCCNC(=O)c1ccc(S(=O)(=O)N[C@@H]2CC[N@@H+]3CCC[C@H]23)cc1)c1ccc(-c2c3nc(c(-c4cccc(S(=O)(=O)[O-])c4F)c4ccc([nH]4)c(-c4cccc(S(=O)(=O)[O-])c4F)c4nc(c(-c5cccc(S(=O)(=O)[O-])c5F)c5ccc2[nH]5)C=C4)C=C3)cc1
REMARK SMILES IDX 5 1 4 2 3 3 1 4 2 5 29 7 30 8 91 9 31 10 90 11 32 12 33 13
REMARK SMILES IDX 34 14 84 15 35 16 89 17 83 18 85 19 36 20 88 21 82 22 81 23
REMARK SMILES IDX 37 25 69 26 49 27 68 28 50 29 53 30 67 31 86 32 51 33 52 34
REMARK SMILES IDX 66 36 87 37 54 38 38 39 39 40 47 41 40 42 42 43 48 44 41 45
REMARK SMILES IDX 43 46 44 47 45 48 46 49 70 50 71 51 79 52 72 53 74 54 80 55
REMARK SMILES IDX 73 56 75 57 76 58 77 59 78 60 55 61 56 62 64 63 57 64 59 65
REMARK SMILES IDX 65 66 58 67 60 68 61 69 62 70 63 71 6 72 7 73 8 74 9 75
REMARK SMILES IDX 10 77 11 78 12 79 28 80 13 81 27 82 14 83 15 84 16 85 17 86
REMARK SMILES IDX 18 87 19 89 20 90 26 91 21 92 22 93 25 94 23 95 24 97
REMARK H PARENT 3 6 85 24 53 35 8 76 18 88 22 96
REMARK Flexibility Score: inf
ROOT
ATOM      1  C   UNL A   1      37.800  19.546  24.865  1.00  0.00     0.023 C 
ENDROOT
BRANCH   1   2
ATOM      2  C   UNL A   1      38.898  20.114  25.755  1.00  0.00     0.116 C 
BRANCH   2   3
ATOM      3  N   UNL A   1      40.028  19.210  25.893  1.00  0.00    -0.352 N 
ATOM      4  O   UNL A   1      42.195  18.623  26.052  1.00  0.00    -0.269 OA
ATOM      5  C   UNL A   1      41.349  19.508  26.134  1.00  0.00     0.251 C 
ATOM      6  H   UNL A   1      39.819  18.252  25.803  1.00  0.00     0.163 HD
BRANCH   5   7
ATOM      7  C   UNL A   1      41.738  20.896  26.464  1.00  0.00     0.039 A 
ATOM      8  C   UNL A   1      41.908  21.289  27.794  1.00  0.00     0.014 A 
ATOM      9  C   UNL A   1      41.938  21.812  25.428  1.00  0.00     0.014 A 
ATOM     10  C   UNL A   1      42.154  22.625  28.095  1.00  0.00     0.010 A 
ATOM     11  C   UNL A   1      42.261  23.137  25.730  1.00  0.00     0.010 A 
ATOM     12  C   UNL A   1      42.351  23.559  27.066  1.00  0.00    -0.014 A 
BRANCH  12  13
ATOM     13  C   UNL A   1      42.763  24.943  27.403  1.00  0.00     0.031 A 
ATOM     14  C   UNL A   1      41.813  25.910  28.051  1.00  0.00     0.074 A 
ATOM     15  C   UNL A   1      44.010  25.333  27.072  1.00  0.00     0.049 A 
ATOM     16  N   UNL A   1      42.022  27.156  28.392  1.00  0.00    -0.248 NA
ATOM     17  C   UNL A   1      40.456  25.427  28.349  1.00  0.00     0.031 C 
ATOM     18  C   UNL A   1      44.997  24.493  26.387  1.00  0.00     0.029 A 
ATOM     19  N   UNL A   1      44.656  26.530  27.244  1.00  0.00    -0.354 N 
ATOM     20  C   UNL A   1      40.816  27.621  28.902  1.00  0.00     0.074 A 
ATOM     21  C   UNL A   1      39.878  26.522  28.832  1.00  0.00     0.031 C 
ATOM     22  C   UNL A   1      46.119  25.199  26.194  1.00  0.00     0.029 A 
ATOM     23  C   UNL A   1      45.917  26.553  26.697  1.00  0.00     0.049 A 
ATOM     24  H   UNL A   1      44.256  27.298  27.712  1.00  0.00     0.167 HD
ATOM     25  C   UNL A   1      40.528  28.850  29.394  1.00  0.00     0.034 A 
ATOM     26  C   UNL A   1      46.807  27.558  26.585  1.00  0.00     0.034 A 
ATOM     27  C   UNL A   1      41.484  29.919  29.507  1.00  0.00     0.049 A 
ATOM     28  C   UNL A   1      46.461  28.900  27.158  1.00  0.00     0.074 A 
ATOM     29  C   UNL A   1      41.322  31.155  30.112  1.00  0.00     0.029 A 
ATOM     30  N   UNL A   1      42.769  29.892  28.990  1.00  0.00    -0.354 N 
ATOM     31  N   UNL A   1      45.380  29.263  27.805  1.00  0.00    -0.248 NA
ATOM     32  C   UNL A   1      47.460  29.966  27.006  1.00  0.00     0.031 C 
ATOM     33  C   UNL A   1      42.503  31.885  29.935  1.00  0.00     0.029 A 
ATOM     34  C   UNL A   1      43.401  31.101  29.231  1.00  0.00     0.049 A 
ATOM     35  H   UNL A   1      43.172  29.128  28.519  1.00  0.00     0.167 HD
ATOM     36  C   UNL A   1      45.572  30.596  28.146  1.00  0.00     0.074 A 
ATOM     37  C   UNL A   1      46.888  30.965  27.665  1.00  0.00     0.031 C 
ATOM     38  C   UNL A   1      44.725  31.443  28.780  1.00  0.00     0.034 A 
BRANCH  25  39
ATOM     39  C   UNL A   1      39.133  29.109  29.897  1.00  0.00     0.023 A 
ATOM     40  C   UNL A   1      38.794  28.748  31.215  1.00  0.00     0.012 A 
ATOM     41  C   UNL A   1      38.200  29.809  29.107  1.00  0.00     0.148 A 
ATOM     42  C   UNL A   1      37.541  29.071  31.738  1.00  0.00     0.002 A 
ATOM     43  C   UNL A   1      36.965  30.153  29.645  1.00  0.00     0.091 A 
ATOM     44  F   UNL A   1      38.536  30.123  27.848  1.00  0.00    -0.205 F 
ATOM     45  C   UNL A   1      36.632  29.782  30.958  1.00  0.00     0.022 A 
BRANCH  43  46
ATOM     46  S   UNL A   1      35.752  31.127  28.743  1.00  0.00     0.127 S 
ATOM     47  O   UNL A   1      35.095  30.101  27.935  1.00  0.00    -0.237 OA
ATOM     48  O   UNL A   1      34.929  31.672  29.824  1.00  0.00    -0.237 OA
ATOM     49  O   UNL A   1      36.510  32.121  27.998  1.00  0.00    -0.744 OA
ENDBRANCH  43  46
ENDBRANCH  25  39
BRANCH  26  50
ATOM     50  C   UNL A   1      48.115  27.309  25.920  1.00  0.00     0.023 A 
ATOM     51  C   UNL A   1      49.200  26.834  26.678  1.00  0.00     0.012 A 
ATOM     52  C   UNL A   1      48.272  27.485  24.531  1.00  0.00     0.148 A 
ATOM     53  C   UNL A   1      50.423  26.555  26.068  1.00  0.00     0.002 A 
ATOM     54  C   UNL A   1      49.474  27.147  23.920  1.00  0.00     0.091 A 
ATOM     55  F   UNL A   1      47.235  27.961  23.825  1.00  0.00    -0.205 F 
ATOM     56  C   UNL A   1      50.557  26.696  24.688  1.00  0.00     0.022 A 
BRANCH  54  57
ATOM     57  S   UNL A   1      49.653  27.159  22.132  1.00  0.00     0.127 S 
ATOM     58  O   UNL A   1      49.402  28.561  21.814  1.00  0.00    -0.237 OA
ATOM     59  O   UNL A   1      51.039  26.725  21.954  1.00  0.00    -0.237 OA
ATOM     60  O   UNL A   1      48.667  26.200  21.649  1.00  0.00    -0.744 OA
ENDBRANCH  54  57
ENDBRANCH  26  50
BRANCH  38  61
ATOM     61  C   UNL A   1      45.189  32.859  28.984  1.00  0.00     0.023 A 
ATOM     62  C   UNL A   1      45.909  33.184  30.150  1.00  0.00     0.012 A 
ATOM     63  C   UNL A   1      44.981  33.843  27.999  1.00  0.00     0.148 A 
ATOM     64  C   UNL A   1      46.395  34.476  30.345  1.00  0.00     0.002 A 
ATOM     65  C   UNL A   1      45.506  35.117  28.179  1.00  0.00     0.091 A 
ATOM     66  F   UNL A   1      44.277  33.514  26.905  1.00  0.00    -0.205 F 
ATOM     67  C   UNL A   1      46.205  35.437  29.355  1.00  0.00     0.022 A 
BRANCH  65  68
ATOM     68  S   UNL A   1      45.384  36.395  26.923  1.00  0.00     0.127 S 
ATOM     69  O   UNL A   1      43.939  36.468  26.712  1.00  0.00    -0.237 OA
ATOM     70  O   UNL A   1      45.960  37.556  27.603  1.00  0.00    -0.237 OA
ATOM     71  O   UNL A   1      46.158  35.915  25.787  1.00  0.00    -0.744 OA
ENDBRANCH  65  68
ENDBRANCH  38  61
ENDBRANCH  12  13
ENDBRANCH   5   7
ENDBRANCH   2   3
ENDBRANCH   1   2
BRANCH   1  72
ATOM     72  C   UNL A   1      36.580  20.445  24.692  1.00  0.00     0.023 C 
BRANCH  72  73
ATOM     73  C   UNL A   1      36.583  21.714  25.533  1.00  0.00     0.116 C 
BRANCH  73  74
ATOM     74  N   UNL A   1      35.514  21.750  26.520  1.00  0.00    -0.352 N 
ATOM     75  C   UNL A   1      34.399  22.550  26.571  1.00  0.00     0.251 C 
ATOM     76  H   UNL A   1      35.604  21.106  27.259  1.00  0.00     0.163 HD
ATOM     77  O   UNL A   1      33.665  22.535  27.555  1.00  0.00    -0.269 OA
BRANCH  75  78
ATOM     78  C   UNL A   1      34.083  23.449  25.440  1.00  0.00     0.039 A 
ATOM     79  C   UNL A   1      33.336  22.960  24.362  1.00  0.00     0.015 A 
ATOM     80  C   UNL A   1      34.536  24.770  25.440  1.00  0.00     0.015 A 
ATOM     81  C   UNL A   1      33.000  23.810  23.305  1.00  0.00     0.022 A 
ATOM     82  C   UNL A   1      34.141  25.634  24.426  1.00  0.00     0.022 A 
ATOM     83  C   UNL A   1      33.397  25.151  23.348  1.00  0.00     0.082 A 
BRANCH  83  84
ATOM     84  S   UNL A   1      32.996  26.207  21.979  1.00  0.00     0.241 S 
ATOM     85  O   UNL A   1      34.038  27.198  21.852  1.00  0.00    -0.207 OA
ATOM     86  O   UNL A   1      32.605  25.351  20.880  1.00  0.00    -0.207 OA
BRANCH  84  87
ATOM     87  N   UNL A   1      31.601  26.996  22.456  1.00  0.00    -0.202 NA
ATOM     88  H   UNL A   1      31.287  26.538  23.311  1.00  0.00     0.141 HD
BRANCH  87  89
ATOM     89  C   UNL A   1      31.607  28.434  22.731  1.00  0.00     0.133 C 
ATOM     90  C   UNL A   1      31.804  28.684  24.225  1.00  0.00     0.087 C 
ATOM     91  C   UNL A   1      30.301  29.142  22.398  1.00  0.00     0.202 C 
ATOM     92  C   UNL A   1      30.883  29.845  24.577  1.00  0.00     0.264 C 
ATOM     93  N   UNL A   1      30.288  30.302  23.315  1.00  0.00    -0.331 N 
ATOM     94  C   UNL A   1      29.011  28.399  22.717  1.00  0.00     0.072 C 
ATOM     95  C   UNL A   1      28.886  30.700  23.468  1.00  0.00     0.262 C 
ATOM     96  H   UNL A   1      30.819  31.105  22.978  1.00  0.00     0.348 HD
ATOM     97  C   UNL A   1      28.031  29.516  23.027  1.00  0.00     0.068 C 
ENDBRANCH  87  89
ENDBRANCH  84  87
ENDBRANCH  83  84
ENDBRANCH  75  78
ENDBRANCH  73  74
ENDBRANCH  72  73
ENDBRANCH   1  72
TORSDOF 17
ENDMDL
MODEL 2
REMARK VINA RESULT:     -12.5      5.595     11.351
REMARK SMILES O=C(NCCCCNC(=O)c1ccc(S(=O)(=O)N[C@@H]2CC[N@@H+]3CCC[C@H]23)cc1)c1ccc(-c2c3nc(c(-c4cccc(S(=O)(=O)[O-])c4F)c4ccc([nH]4)c(-c4cccc(S(=O)(=O)[O-])c4F)c4nc(c(-c5cccc(S(=O)(=O)[O-])c5F)c5ccc2[nH]5)C=C4)C=C3)cc1
REMARK SMILES IDX 5 1 4 2 3 3 1 4 2 5 29 7 30 8 91 9 31 10 90 11 32 12 33 13
REMARK SMILES IDX 34 14 84 15 35 16 89 17 83 18 85 19 36 20 88 21 82 22 81 23
REMARK SMILES IDX 37 25 69 26 49 27 68 28 50 29 53 30 67 31 86 32 51 33 52 34
REMARK SMILES IDX 66 36 87 37 54 38 38 39 39 40 47 41 40 42 42 43 48 44 41 45
REMARK SMILES IDX 43 46 44 47 45 48 46 49 70 50 71 51 79 52 72 53 74 54 80 55
REMARK SMILES IDX 73 56 75 57 76 58 77 59 78 60 55 61 56 62 64 63 57 64 59 65
REMARK SMILES IDX 65 66 58 67 60 68 61 69 62 70 63 71 6 72 7 73 8 74 9 75
REMARK SMILES IDX 10 77 11 78 12 79 28 80 13 81 27 82 14 83 15 84 16 85 17 86
REMARK SMILES IDX 18 87 19 89 20 90 26 91 21 92 22 93 25 94 23 95 24 97
REMARK H PARENT 3 6 85 24 53 35 8 76 18 88 22 96
REMARK Flexibility Score: inf
ROOT
ATOM      1  C   UNL A   1      31.297  31.910  26.476  1.00  0.00     0.023 C 
ENDROOT
BRANCH   1   2
ATOM      2  C   UNL A   1      32.564  32.337  27.205  1.00  0.00     0.116 C 
BRANCH   2   3
ATOM      3  N   UNL A   1      32.562  33.750  27.549  1.00  0.00    -0.352 N 
ATOM      4  O   UNL A   1      33.128  35.593  28.709  1.00  0.00    -0.269 OA
ATOM      5  C   UNL A   1      33.384  34.429  28.416  1.00  0.00     0.251 C 
ATOM      6  H   UNL A   1      31.879  34.294  27.096  1.00  0.00     0.163 HD
BRANCH   5   7
ATOM      7  C   UNL A   1      34.554  33.743  29.006  1.00  0.00     0.039 A 
ATOM      8  C   UNL A   1      35.852  34.118  28.650  1.00  0.00     0.014 A 
ATOM      9  C   UNL A   1      34.346  32.715  29.929  1.00  0.00     0.014 A 
ATOM     10  C   UNL A   1      36.938  33.385  29.118  1.00  0.00     0.010 A 
ATOM     11  C   UNL A   1      35.444  32.029  30.458  1.00  0.00     0.010 A 
ATOM     12  C   UNL A   1      36.746  32.345  30.041  1.00  0.00    -0.014 A 
BRANCH  12  13
ATOM     13  C   UNL A   1      37.924  31.677  30.645  1.00  0.00     0.031 A 
ATOM     14  C   UNL A   1      38.691  30.617  29.907  1.00  0.00     0.074 A 
ATOM     15  C   UNL A   1      38.269  32.014  31.904  1.00  0.00     0.049 A 
ATOM     16  N   UNL A   1      39.731  29.932  30.308  1.00  0.00    -0.248 NA
ATOM     17  C   UNL A   1      38.234  30.272  28.551  1.00  0.00     0.031 C 
ATOM     18  C   UNL A   1      37.558  32.989  32.736  1.00  0.00     0.029 A 
ATOM     19  N   UNL A   1      39.283  31.567  32.711  1.00  0.00    -0.354 N 
ATOM     20  C   UNL A   1      40.028  29.047  29.279  1.00  0.00     0.074 A 
ATOM     21  C   UNL A   1      39.061  29.283  28.228  1.00  0.00     0.031 C 
ATOM     22  C   UNL A   1      38.153  33.064  33.933  1.00  0.00     0.029 A 
ATOM     23  C   UNL A   1      39.257  32.112  33.973  1.00  0.00     0.049 A 
ATOM     24  H   UNL A   1      39.963  30.918  32.416  1.00  0.00     0.167 HD
ATOM     25  C   UNL A   1      41.025  28.132  29.215  1.00  0.00     0.034 A 
ATOM     26  C   UNL A   1      40.017  31.856  35.055  1.00  0.00     0.034 A 
ATOM     27  C   UNL A   1      42.013  27.942  30.245  1.00  0.00     0.049 A 
ATOM     28  C   UNL A   1      41.122  30.850  34.943  1.00  0.00     0.074 A 
ATOM     29  C   UNL A   1      43.137  27.134  30.216  1.00  0.00     0.029 A 
ATOM     30  N   UNL A   1      41.987  28.548  31.490  1.00  0.00    -0.354 N 
ATOM     31  N   UNL A   1      41.502  30.159  33.896  1.00  0.00    -0.248 NA
ATOM     32  C   UNL A   1      41.921  30.601  36.151  1.00  0.00     0.031 C 
ATOM     33  C   UNL A   1      43.776  27.231  31.457  1.00  0.00     0.029 A 
ATOM     34  C   UNL A   1      43.056  28.107  32.253  1.00  0.00     0.049 A 
ATOM     35  H   UNL A   1      41.308  29.195  31.790  1.00  0.00     0.167 HD
ATOM     36  C   UNL A   1      42.588  29.401  34.315  1.00  0.00     0.074 A 
ATOM     37  C   UNL A   1      42.827  29.744  35.702  1.00  0.00     0.031 C 
ATOM     38  C   UNL A   1      43.305  28.486  33.619  1.00  0.00     0.034 A 
BRANCH  25  39
ATOM     39  C   UNL A   1      41.140  27.285  27.977  1.00  0.00     0.023 A 
ATOM     40  C   UNL A   1      41.748  27.822  26.825  1.00  0.00     0.012 A 
ATOM     41  C   UNL A   1      40.755  25.930  27.990  1.00  0.00     0.148 A 
ATOM     42  C   UNL A   1      41.960  27.026  25.699  1.00  0.00     0.002 A 
ATOM     43  C   UNL A   1      40.997  25.135  26.876  1.00  0.00     0.091 A 
ATOM     44  F   UNL A   1      40.160  25.446  29.089  1.00  0.00    -0.205 F 
ATOM     45  C   UNL A   1      41.595  25.682  25.728  1.00  0.00     0.022 A 
BRANCH  43  46
ATOM     46  S   UNL A   1      40.625  23.377  26.839  1.00  0.00     0.127 S 
ATOM     47  O   UNL A   1      41.471  22.921  25.738  1.00  0.00    -0.237 OA
ATOM     48  O   UNL A   1      41.064  22.941  28.165  1.00  0.00    -0.237 OA
ATOM     49  O   UNL A   1      39.191  23.275  26.611  1.00  0.00    -0.744 OA
ENDBRANCH  43  46
ENDBRANCH  25  39
BRANCH  26  50
ATOM     50  C   UNL A   1      39.757  32.591  36.324  1.00  0.00     0.023 A 
ATOM     51  C   UNL A   1      40.464  33.776  36.596  1.00  0.00     0.012 A 
ATOM     52  C   UNL A   1      38.773  32.153  37.232  1.00  0.00     0.148 A 
ATOM     53  C   UNL A   1      40.208  34.503  37.759  1.00  0.00     0.002 A 
ATOM     54  C   UNL A   1      38.480  32.914  38.357  1.00  0.00     0.091 A 
ATOM     55  F   UNL A   1      38.124  31.009  36.969  1.00  0.00    -0.205 F 
ATOM     56  C   UNL A   1      39.207  34.082  38.632  1.00  0.00     0.022 A 
BRANCH  54  57
ATOM     57  S   UNL A   1      37.098  32.506  39.431  1.00  0.00     0.127 S 
ATOM     58  O   UNL A   1      37.407  31.131  39.810  1.00  0.00    -0.237 OA
ATOM     59  O   UNL A   1      37.239  33.488  40.507  1.00  0.00    -0.237 OA
ATOM     60  O   UNL A   1      35.912  32.698  38.607  1.00  0.00    -0.744 OA
ENDBRANCH  54  57
ENDBRANCH  26  50
BRANCH  38  61
ATOM     61  C   UNL A   1      44.416  27.780  34.348  1.00  0.00     0.023 A 
ATOM     62  C   UNL A   1      45.690  28.379  34.405  1.00  0.00     0.012 A 
ATOM     63  C   UNL A   1      44.185  26.573  35.035  1.00  0.00     0.148 A 
ATOM     64  C   UNL A   1      46.725  27.774  35.115  1.00  0.00     0.002 A 
ATOM     65  C   UNL A   1      45.210  25.997  35.777  1.00  0.00     0.091 A 
ATOM     66  F   UNL A   1      42.969  26.012  34.951  1.00  0.00    -0.205 F 
ATOM     67  C   UNL A   1      46.483  26.592  35.810  1.00  0.00     0.022 A 
BRANCH  65  68
ATOM     68  S   UNL A   1      44.968  24.522  36.772  1.00  0.00     0.127 S 
ATOM     69  O   UNL A   1      46.285  24.357  37.384  1.00  0.00    -0.237 OA
ATOM     70  O   UNL A   1      43.913  24.939  37.696  1.00  0.00    -0.237 OA
ATOM     71  O   UNL A   1      44.575  23.472  35.842  1.00  0.00    -0.744 OA
ENDBRANCH  65  68
ENDBRANCH  38  61
ENDBRANCH  12  13
ENDBRANCH   5   7
ENDBRANCH   2   3
ENDBRANCH   1   2
BRANCH   1  72
ATOM     72  C   UNL A   1      31.398  30.586  25.725  1.00  0.00     0.023 C 
BRANCH  72  73
ATOM     73  C   UNL A   1      32.780  29.945  25.722  1.00  0.00     0.116 C 
BRANCH  73  74
ATOM     74  N   UNL A   1      33.280  29.669  24.383  1.00  0.00    -0.352 N 
ATOM     75  C   UNL A   1      33.460  28.464  23.750  1.00  0.00     0.251 C 
ATOM     76  H   UNL A   1      33.526  30.463  23.856  1.00  0.00     0.163 HD
ATOM     77  O   UNL A   1      34.022  28.411  22.660  1.00  0.00    -0.269 OA
BRANCH  75  78
ATOM     78  C   UNL A   1      32.987  27.217  24.387  1.00  0.00     0.039 A 
ATOM     79  C   UNL A   1      33.868  26.476  25.184  1.00  0.00     0.015 A 
ATOM     80  C   UNL A   1      31.677  26.775  24.188  1.00  0.00     0.015 A 
ATOM     81  C   UNL A   1      33.421  25.315  25.822  1.00  0.00     0.022 A 
ATOM     82  C   UNL A   1      31.212  25.663  24.880  1.00  0.00     0.022 A 
ATOM     83  C   UNL A   1      32.087  24.919  25.675  1.00  0.00     0.082 A 
BRANCH  83  84
ATOM     84  S   UNL A   1      31.546  23.423  26.460  1.00  0.00     0.241 S 
ATOM     85  O   UNL A   1      32.261  23.282  27.707  1.00  0.00    -0.207 OA
ATOM     86  O   UNL A   1      30.101  23.404  26.391  1.00  0.00    -0.207 OA
BRANCH  84  87
ATOM     87  N   UNL A   1      32.064  22.205  25.438  1.00  0.00    -0.202 NA
ATOM     88  H   UNL A   1      32.453  22.664  24.615  1.00  0.00     0.141 HD
BRANCH  87  89
ATOM     89  C   UNL A   1      33.058  21.225  25.879  1.00  0.00     0.133 C 
ATOM     90  C   UNL A   1      34.441  21.602  25.350  1.00  0.00     0.087 C 
ATOM     91  C   UNL A   1      32.824  19.815  25.354  1.00  0.00     0.202 C 
ATOM     92  C   UNL A   1      35.101  20.292  24.942  1.00  0.00     0.264 C 
ATOM     93  N   UNL A   1      34.178  19.220  25.335  1.00  0.00    -0.331 N 
ATOM     94  C   UNL A   1      32.337  19.683  23.918  1.00  0.00     0.072 C 
ATOM     95  C   UNL A   1      34.141  18.125  24.361  1.00  0.00     0.262 C 
ATOM     96  H   UNL A   1      34.480  18.844  26.234  1.00  0.00     0.348 HD
ATOM     97  C   UNL A   1      32.925  18.358  23.469  1.00  0.00     0.068 C 
ENDBRANCH  87  89
ENDBRANCH  84  87
ENDBRANCH  83  84
ENDBRANCH  75  78
ENDBRANCH  73  74
ENDBRANCH  72  73
ENDBRANCH   1  72
TORSDOF 17
ENDMDL
MODEL 3
REMARK VINA RESULT:     -12.5      5.097      8.707
REMARK SMILES O=C(NCCCCNC(=O)c1ccc(S(=O)(=O)N[C@@H]2CC[N@@H+]3CCC[C@H]23)cc1)c1ccc(-c2c3nc(c(-c4cccc(S(=O)(=O)[O-])c4F)c4ccc([nH]4)c(-c4cccc(S(=O)(=O)[O-])c4F)c4nc(c(-c5cccc(S(=O)(=O)[O-])c5F)c5ccc2[nH]5)C=C4)C=C3)cc1
REMARK SMILES IDX 5 1 4 2 3 3 1 4 2 5 29 7 30 8 91 9 31 10 90 11 32 12 33 13
REMARK SMILES IDX 34 14 84 15 35 16 89 17 83 18 85 19 36 20 88 21 82 22 81 23
REMARK SMILES IDX 37 25 69 26 49 27 68 28 50 29 53 30 67 31 86 32 51 33 52 34
REMARK SMILES IDX 66 36 87 37 54 38 38 39 39 40 47 41 40 42 42 43 48 44 41 45
REMARK SMILES IDX 43 46 44 47 45 48 46 49 70 50 71 51 79 52 72 53 74 54 80 55
REMARK SMILES IDX 73 56 75 57 76 58 77 59 78 60 55 61 56 62 64 63 57 64 59 65
REMARK SMILES IDX 65 66 58 67 60 68 61 69 62 70 63 71 6 72 7 73 8 74 9 75
REMARK SMILES IDX 10 77 11 78 12 79 28 80 13 81 27 82 14 83 15 84 16 85 17 86
REMARK SMILES IDX 18 87 19 89 20 90 26 91 21 92 22 93 25 94 23 95 24 97
REMARK H PARENT 3 6 85 24 53 35 8 76 18 88 22 96
REMARK Flexibility Score: inf
ROOT
ATOM      1  C   UNL A   1      34.095  28.109  25.430  1.00  0.00     0.023 C 
ENDROOT
BRANCH   1   2
ATOM      2  C   UNL A   1      33.699  28.511  26.845  1.00  0.00     0.116 C 
BRANCH   2   3
ATOM      3  N   UNL A   1      33.597  29.952  27.008  1.00  0.00    -0.352 N 
ATOM      4  O   UNL A   1      34.113  31.977  27.845  1.00  0.00    -0.269 OA
ATOM      5  C   UNL A   1      34.447  30.809  27.665  1.00  0.00     0.251 C 
ATOM      6  H   UNL A   1      32.810  30.371  26.590  1.00  0.00     0.163 HD
BRANCH   5   7
ATOM      7  C   UNL A   1      35.745  30.310  28.169  1.00  0.00     0.039 A 
ATOM      8  C   UNL A   1      36.903  30.433  27.396  1.00  0.00     0.014 A 
ATOM      9  C   UNL A   1      35.802  29.716  29.432  1.00  0.00     0.014 A 
ATOM     10  C   UNL A   1      38.089  29.851  27.829  1.00  0.00     0.010 A 
ATOM     11  C   UNL A   1      37.015  29.200  29.899  1.00  0.00     0.010 A 
ATOM     12  C   UNL A   1      38.162  29.245  29.092  1.00  0.00    -0.014 A 
BRANCH  12  13
ATOM     13  C   UNL A   1      39.471  28.767  29.600  1.00  0.00     0.031 A 
ATOM     14  C   UNL A   1      40.189  29.479  30.711  1.00  0.00     0.074 A 
ATOM     15  C   UNL A   1      40.030  27.694  29.007  1.00  0.00     0.049 A 
ATOM     16  N   UNL A   1      41.345  29.192  31.253  1.00  0.00    -0.248 NA
ATOM     17  C   UNL A   1      39.538  30.666  31.286  1.00  0.00     0.031 C 
ATOM     18  C   UNL A   1      39.446  26.961  27.880  1.00  0.00     0.029 A 
ATOM     19  N   UNL A   1      41.213  27.044  29.248  1.00  0.00    -0.354 N 
ATOM     20  C   UNL A   1      41.583  30.183  32.197  1.00  0.00     0.074 A 
ATOM     21  C   UNL A   1      40.448  31.079  32.162  1.00  0.00     0.031 C 
ATOM     22  C   UNL A   1      40.272  25.967  27.526  1.00  0.00     0.029 A 
ATOM     23  C   UNL A   1      41.463  26.020  28.366  1.00  0.00     0.049 A 
ATOM     24  H   UNL A   1      41.824  27.288  29.981  1.00  0.00     0.167 HD
ATOM     25  C   UNL A   1      42.647  30.320  33.025  1.00  0.00     0.034 A 
ATOM     26  C   UNL A   1      42.542  25.226  28.226  1.00  0.00     0.034 A 
ATOM     27  C   UNL A   1      43.746  29.392  33.087  1.00  0.00     0.049 A 
ATOM     28  C   UNL A   1      43.693  25.394  29.172  1.00  0.00     0.074 A 
ATOM     29  C   UNL A   1      44.803  29.374  33.983  1.00  0.00     0.029 A 
ATOM     30  N   UNL A   1      43.943  28.336  32.214  1.00  0.00    -0.354 N 
ATOM     31  N   UNL A   1      43.813  26.222  30.182  1.00  0.00    -0.248 NA
ATOM     32  C   UNL A   1      44.849  24.509  28.977  1.00  0.00     0.031 C 
ATOM     33  C   UNL A   1      45.654  28.320  33.631  1.00  0.00     0.029 A 
ATOM     34  C   UNL A   1      45.121  27.677  32.526  1.00  0.00     0.049 A 
ATOM     35  H   UNL A   1      43.336  28.090  31.479  1.00  0.00     0.167 HD
ATOM     36  C   UNL A   1      45.052  25.951  30.748  1.00  0.00     0.074 A 
ATOM     37  C   UNL A   1      45.629  24.859  29.991  1.00  0.00     0.031 C 
ATOM     38  C   UNL A   1      45.665  26.568  31.787  1.00  0.00     0.034 A 
BRANCH  25  39
ATOM     39  C   UNL A   1      42.670  31.489  33.972  1.00  0.00     0.023 A 
ATOM     40  C   UNL A   1      43.187  32.724  33.535  1.00  0.00     0.012 A 
ATOM     41  C   UNL A   1      42.076  31.397  35.247  1.00  0.00     0.148 A 
ATOM     42  C   UNL A   1      43.125  33.849  34.358  1.00  0.00     0.002 A 
ATOM     43  C   UNL A   1      41.991  32.529  36.049  1.00  0.00     0.091 A 
ATOM     44  F   UNL A   1      41.609  30.207  35.649  1.00  0.00    -0.205 F 
ATOM     45  C   UNL A   1      42.518  33.754  35.609  1.00  0.00     0.022 A 
BRANCH  43  46
ATOM     46  S   UNL A   1      41.168  32.526  37.647  1.00  0.00     0.127 S 
ATOM     47  O   UNL A   1      41.198  33.945  37.995  1.00  0.00    -0.237 OA
ATOM     48  O   UNL A   1      39.841  32.009  37.310  1.00  0.00    -0.237 OA
ATOM     49  O   UNL A   1      41.959  31.654  38.503  1.00  0.00    -0.744 OA
ENDBRANCH  43  46
ENDBRANCH  25  39
BRANCH  26  50
ATOM     50  C   UNL A   1      42.557  24.190  27.157  1.00  0.00     0.023 A 
ATOM     51  C   UNL A   1      43.231  24.447  25.951  1.00  0.00     0.012 A 
ATOM     52  C   UNL A   1      41.957  22.931  27.354  1.00  0.00     0.148 A 
ATOM     53  C   UNL A   1      43.293  23.475  24.951  1.00  0.00     0.002 A 
ATOM     54  C   UNL A   1      42.074  21.946  26.381  1.00  0.00     0.091 A 
ATOM     55  F   UNL A   1      41.297  22.708  28.501  1.00  0.00    -0.205 F 
ATOM     56  C   UNL A   1      42.729  22.220  25.171  1.00  0.00     0.022 A 
BRANCH  54  57
ATOM     57  S   UNL A   1      41.506  20.266  26.672  1.00  0.00     0.127 S 
ATOM     58  O   UNL A   1      41.907  19.595  25.440  1.00  0.00    -0.237 OA
ATOM     59  O   UNL A   1      42.267  19.881  27.861  1.00  0.00    -0.237 OA
ATOM     60  O   UNL A   1      40.072  20.390  26.902  1.00  0.00    -0.744 OA
ENDBRANCH  54  57
ENDBRANCH  26  50
BRANCH  38  61
ATOM     61  C   UNL A   1      47.039  26.085  32.164  1.00  0.00     0.023 A 
ATOM     62  C   UNL A   1      48.161  26.624  31.505  1.00  0.00     0.012 A 
ATOM     63  C   UNL A   1      47.225  25.163  33.212  1.00  0.00     0.148 A 
ATOM     64  C   UNL A   1      49.450  26.235  31.867  1.00  0.00     0.002 A 
ATOM     65  C   UNL A   1      48.514  24.811  33.596  1.00  0.00     0.091 A 
ATOM     66  F   UNL A   1      46.141  24.649  33.812  1.00  0.00    -0.205 F 
ATOM     67  C   UNL A   1      49.626  25.339  32.918  1.00  0.00     0.022 A 
BRANCH  65  68
ATOM     68  S   UNL A   1      48.842  23.731  34.993  1.00  0.00     0.127 S 
ATOM     69  O   UNL A   1      48.202  22.488  34.565  1.00  0.00    -0.237 OA
ATOM     70  O   UNL A   1      50.304  23.688  35.017  1.00  0.00    -0.237 OA
ATOM     71  O   UNL A   1      48.238  24.379  36.150  1.00  0.00    -0.744 OA
ENDBRANCH  65  68
ENDBRANCH  38  61
ENDBRANCH  12  13
ENDBRANCH   5   7
ENDBRANCH   2   3
ENDBRANCH   1   2
BRANCH   1  72
ATOM     72  C   UNL A   1      33.569  29.021  24.327  1.00  0.00     0.023 C 
BRANCH  72  73
ATOM     73  C   UNL A   1      33.233  28.326  23.014  1.00  0.00     0.116 C 
BRANCH  73  74
ATOM     74  N   UNL A   1      31.882  28.602  22.548  1.00  0.00    -0.352 N 
ATOM     75  C   UNL A   1      30.730  27.878  22.733  1.00  0.00     0.251 C 
ATOM     76  H   UNL A   1      31.780  29.429  22.024  1.00  0.00     0.163 HD
ATOM     77  O   UNL A   1      29.696  28.194  22.152  1.00  0.00    -0.269 OA
BRANCH  75  78
ATOM     78  C   UNL A   1      30.733  26.700  23.626  1.00  0.00     0.039 A 
ATOM     79  C   UNL A   1      30.567  26.883  25.005  1.00  0.00     0.015 A 
ATOM     80  C   UNL A   1      30.914  25.418  23.104  1.00  0.00     0.015 A 
ATOM     81  C   UNL A   1      30.532  25.774  25.855  1.00  0.00     0.022 A 
ATOM     82  C   UNL A   1      30.806  24.312  23.939  1.00  0.00     0.022 A 
ATOM     83  C   UNL A   1      30.641  24.488  25.314  1.00  0.00     0.082 A 
BRANCH  83  84
ATOM     84  S   UNL A   1      30.633  23.094  26.411  1.00  0.00     0.241 S 
ATOM     85  O   UNL A   1      29.840  23.434  27.570  1.00  0.00    -0.207 OA
ATOM     86  O   UNL A   1      30.364  21.921  25.608  1.00  0.00    -0.207 OA
BRANCH  84  87
ATOM     87  N   UNL A   1      32.222  22.947  26.909  1.00  0.00    -0.202 NA
ATOM     88  H   UNL A   1      32.194  22.666  27.889  1.00  0.00     0.141 HD
BRANCH  87  89
ATOM     89  C   UNL A   1      33.139  22.024  26.238  1.00  0.00     0.133 C 
ATOM     90  C   UNL A   1      34.280  21.638  27.177  1.00  0.00     0.087 C 
ATOM     91  C   UNL A   1      33.835  22.609  25.017  1.00  0.00     0.202 C 
ATOM     92  C   UNL A   1      35.535  21.604  26.314  1.00  0.00     0.264 C 
ATOM     93  N   UNL A   1      35.097  21.843  24.933  1.00  0.00    -0.331 N 
ATOM     94  C   UNL A   1      34.285  24.061  25.107  1.00  0.00     0.072 C 
ATOM     95  C   UNL A   1      36.043  22.673  24.180  1.00  0.00     0.262 C 
ATOM     96  H   UNL A   1      35.008  20.944  24.460  1.00  0.00     0.348 HD
ATOM     97  C   UNL A   1      35.513  24.104  24.217  1.00  0.00     0.068 C 
ENDBRANCH  87  89
ENDBRANCH  84  87
ENDBRANCH  83  84
ENDBRANCH  75  78
ENDBRANCH  73  74
ENDBRANCH  72  73
ENDBRANCH   1  72
TORSDOF 17
ENDMDL
