MODEL 1
REMARK VINA RESULT:     -10.9      0.000      0.000
REMARK SMILES CCN(CCC(=O)NCCCCNC(=O)c1ccc(-c2c3nc(c(-c4cccc(S(=O)(=O)[O-])c4F)c4ccc([nH]4)c(-c4cccc(S(=O)(=O)[O-])c4F)c4nc(c(-c5cccc(S(=O)(=O)[O-])c5F)c5ccc2[nH]5)C=C4)C=C3)cc1)C(=O)c1cc(Cl)ccc1F
REMARK SMILES IDX 10 1 9 2 8 3 6 4 7 5 5 7 4 8 3 9 2 10 1 11 79 12 80 13 81 14
REMARK SMILES IDX 82 15 87 16 83 17 86 18 88 19 84 20 85 21 11 22 12 23 13 24
REMARK SMILES IDX 14 25 15 27 16 28 17 29 78 30 18 31 77 32 19 33 20 34 21 35
REMARK SMILES IDX 71 36 22 37 76 38 70 39 72 40 23 41 75 42 69 43 68 44 24 46
REMARK SMILES IDX 56 47 36 48 55 49 37 50 40 51 54 52 73 53 38 54 39 55 53 57
REMARK SMILES IDX 74 58 41 59 25 60 26 61 34 62 27 63 29 64 35 65 28 66 30 67
REMARK SMILES IDX 31 68 32 69 33 70 57 71 58 72 66 73 59 74 61 75 67 76 60 77
REMARK SMILES IDX 62 78 63 79 64 80 65 81 42 82 43 83 51 84 44 85 46 86 52 87
REMARK SMILES IDX 45 88 47 89 48 90 49 91 50 92
REMARK H PARENT 8 6 13 26 72 45 40 56
REMARK Flexibility Score: inf
ROOT
ATOM      1  C   UNL A   1      31.380  27.782  25.290  1.00  0.00     0.023 C 
ENDROOT
BRANCH   1   2
ATOM      2  C   UNL A   1      32.031  26.539  24.701  1.00  0.00     0.116 C 
BRANCH   2   3
ATOM      3  N   UNL A   1      32.603  26.791  23.393  1.00  0.00    -0.356 N 
ATOM      4  C   UNL A   1      33.428  26.005  22.644  1.00  0.00     0.221 C 
ATOM      5  O   UNL A   1      33.742  26.388  21.516  1.00  0.00    -0.275 OA
ATOM      6  H   UNL A   1      32.361  27.654  22.986  1.00  0.00     0.163 HD
BRANCH   4   7
ATOM      7  C   UNL A   1      33.914  24.677  23.176  1.00  0.00     0.121 C 
BRANCH   7   8
ATOM      8  C   UNL A   1      32.900  23.541  23.077  1.00  0.00     0.129 C 
BRANCH   8   9
ATOM      9  N   UNL A   1      32.926  22.534  24.143  1.00  0.00    -0.338 N 
BRANCH   9  10
ATOM     10  C   UNL A   1      32.196  21.293  23.800  1.00  0.00     0.116 C 
ATOM     11  C   UNL A   1      32.049  20.849  22.353  1.00  0.00     0.027 C 
ENDBRANCH   9  10
BRANCH   9  12
ATOM     12  C   UNL A   1      33.724  22.624  25.306  1.00  0.00     0.256 C 
ATOM     13  O   UNL A   1      33.332  23.239  26.301  1.00  0.00    -0.269 OA
BRANCH  12  14
ATOM     14  C   UNL A   1      35.175  22.225  25.336  1.00  0.00     0.077 A 
ATOM     15  C   UNL A   1      36.063  23.217  25.814  1.00  0.00     0.037 A 
ATOM     16  C   UNL A   1      35.738  21.007  24.965  1.00  0.00     0.136 A 
ATOM     17  C   UNL A   1      37.446  23.012  25.828  1.00  0.00     0.042 A 
ATOM     18  C   UNL A   1      37.126  20.818  24.927  1.00  0.00     0.041 A 
ATOM     19  F   UNL A   1      35.001  19.926  24.703  1.00  0.00    -0.206 F 
ATOM     20  Cl  UNL A   1      38.490  24.243  26.417  1.00  0.00    -0.084 Cl
ATOM     21  C   UNL A   1      37.986  21.824  25.353  1.00  0.00     0.023 A 
ENDBRANCH  12  14
ENDBRANCH   9  12
ENDBRANCH   8   9
ENDBRANCH   7   8
ENDBRANCH   4   7
ENDBRANCH   2   3
ENDBRANCH   1   2
BRANCH   1  22
ATOM     22  C   UNL A   1      32.218  28.540  26.308  1.00  0.00     0.023 C 
BRANCH  22  23
ATOM     23  C   UNL A   1      33.009  29.698  25.730  1.00  0.00     0.116 C 
BRANCH  23  24
ATOM     24  N   UNL A   1      32.676  30.989  26.321  1.00  0.00    -0.352 N 
ATOM     25  C   UNL A   1      33.361  31.713  27.266  1.00  0.00     0.251 C 
ATOM     26  H   UNL A   1      31.843  31.400  25.996  1.00  0.00     0.163 HD
ATOM     27  O   UNL A   1      32.884  32.757  27.705  1.00  0.00    -0.269 OA
BRANCH  25  28
ATOM     28  C   UNL A   1      34.650  31.204  27.777  1.00  0.00     0.039 A 
ATOM     29  C   UNL A   1      35.708  32.095  27.960  1.00  0.00     0.014 A 
ATOM     30  C   UNL A   1      34.789  29.862  28.134  1.00  0.00     0.014 A 
ATOM     31  C   UNL A   1      36.880  31.653  28.577  1.00  0.00     0.010 A 
ATOM     32  C   UNL A   1      35.900  29.458  28.858  1.00  0.00     0.010 A 
ATOM     33  C   UNL A   1      36.968  30.342  29.071  1.00  0.00    -0.014 A 
BRANCH  33  34
ATOM     34  C   UNL A   1      38.163  29.853  29.801  1.00  0.00     0.031 A 
ATOM     35  C   UNL A   1      38.426  30.332  31.205  1.00  0.00     0.074 A 
ATOM     36  C   UNL A   1      39.069  29.083  29.167  1.00  0.00     0.049 A 
ATOM     37  N   UNL A   1      39.464  30.119  31.969  1.00  0.00    -0.248 NA
ATOM     38  C   UNL A   1      37.408  31.208  31.813  1.00  0.00     0.031 C 
ATOM     39  C   UNL A   1      38.982  28.644  27.772  1.00  0.00     0.029 A 
ATOM     40  N   UNL A   1      40.258  28.558  29.606  1.00  0.00    -0.354 N 
ATOM     41  C   UNL A   1      39.252  30.878  33.115  1.00  0.00     0.074 A 
ATOM     42  C   UNL A   1      38.014  31.596  32.924  1.00  0.00     0.031 C 
ATOM     43  C   UNL A   1      40.065  27.908  27.474  1.00  0.00     0.029 A 
ATOM     44  C   UNL A   1      40.935  27.846  28.643  1.00  0.00     0.049 A 
ATOM     45  H   UNL A   1      40.595  28.680  30.523  1.00  0.00     0.167 HD
ATOM     46  C   UNL A   1      39.997  30.938  34.244  1.00  0.00     0.034 A 
ATOM     47  C   UNL A   1      42.125  27.215  28.699  1.00  0.00     0.034 A 
ATOM     48  C   UNL A   1      41.184  30.160  34.457  1.00  0.00     0.049 A 
ATOM     49  C   UNL A   1      42.887  27.218  29.995  1.00  0.00     0.074 A 
ATOM     50  C   UNL A   1      41.952  30.055  35.602  1.00  0.00     0.029 A 
ATOM     51  N   UNL A   1      41.773  29.345  33.502  1.00  0.00    -0.354 N 
ATOM     52  N   UNL A   1      42.587  27.807  31.128  1.00  0.00    -0.248 NA
ATOM     53  C   UNL A   1      44.133  26.438  30.035  1.00  0.00     0.031 C 
ATOM     54  C   UNL A   1      43.013  29.183  35.335  1.00  0.00     0.029 A 
ATOM     55  C   UNL A   1      42.895  28.732  34.030  1.00  0.00     0.049 A 
ATOM     56  H   UNL A   1      41.442  29.220  32.584  1.00  0.00     0.167 HD
ATOM     57  C   UNL A   1      43.586  27.445  32.023  1.00  0.00     0.074 A 
ATOM     58  C   UNL A   1      44.489  26.567  31.307  1.00  0.00     0.031 C 
ATOM     59  C   UNL A   1      43.752  27.818  33.317  1.00  0.00     0.034 A 
BRANCH  46  60
ATOM     60  C   UNL A   1      39.498  31.825  35.356  1.00  0.00     0.023 A 
ATOM     61  C   UNL A   1      38.589  31.306  36.303  1.00  0.00     0.012 A 
ATOM     62  C   UNL A   1      39.938  33.157  35.481  1.00  0.00     0.148 A 
ATOM     63  C   UNL A   1      38.087  32.112  37.324  1.00  0.00     0.002 A 
ATOM     64  C   UNL A   1      39.470  33.939  36.531  1.00  0.00     0.091 A 
ATOM     65  F   UNL A   1      40.783  33.643  34.560  1.00  0.00    -0.205 F 
ATOM     66  C   UNL A   1      38.534  33.423  37.443  1.00  0.00     0.022 A 
BRANCH  64  67
ATOM     67  S   UNL A   1      40.049  35.616  36.817  1.00  0.00     0.127 S 
ATOM     68  O   UNL A   1      41.497  35.424  36.868  1.00  0.00    -0.237 OA
ATOM     69  O   UNL A   1      39.569  36.315  35.624  1.00  0.00    -0.237 OA
ATOM     70  O   UNL A   1      39.425  36.045  38.060  1.00  0.00    -0.744 OA
ENDBRANCH  64  67
ENDBRANCH  46  60
BRANCH  47  71
ATOM     71  C   UNL A   1      42.613  26.457  27.514  1.00  0.00     0.023 A 
ATOM     72  C   UNL A   1      43.408  27.116  26.555  1.00  0.00     0.012 A 
ATOM     73  C   UNL A   1      42.343  25.084  27.355  1.00  0.00     0.148 A 
ATOM     74  C   UNL A   1      43.906  26.429  25.449  1.00  0.00     0.002 A 
ATOM     75  C   UNL A   1      42.883  24.393  26.275  1.00  0.00     0.091 A 
ATOM     76  F   UNL A   1      41.579  24.478  28.275  1.00  0.00    -0.205 F 
ATOM     77  C   UNL A   1      43.652  25.067  25.313  1.00  0.00     0.022 A 
BRANCH  75  78
ATOM     78  S   UNL A   1      42.716  22.615  26.083  1.00  0.00     0.127 S 
ATOM     79  O   UNL A   1      43.474  22.375  24.857  1.00  0.00    -0.237 OA
ATOM     80  O   UNL A   1      43.348  22.120  27.305  1.00  0.00    -0.237 OA
ATOM     81  O   UNL A   1      41.284  22.362  25.998  1.00  0.00    -0.744 OA
ENDBRANCH  75  78
ENDBRANCH  47  71
BRANCH  59  82
ATOM     82  C   UNL A   1      44.937  27.260  34.058  1.00  0.00     0.023 A 
ATOM     83  C   UNL A   1      46.149  27.977  34.078  1.00  0.00     0.012 A 
ATOM     84  C   UNL A   1      44.820  26.072  34.807  1.00  0.00     0.148 A 
ATOM     85  C   UNL A   1      47.237  27.506  34.810  1.00  0.00     0.002 A 
ATOM     86  C   UNL A   1      45.894  25.635  35.573  1.00  0.00     0.091 A 
ATOM     87  F   UNL A   1      43.664  25.395  34.759  1.00  0.00    -0.205 F 
ATOM     88  C   UNL A   1      47.106  26.343  35.567  1.00  0.00     0.022 A 
BRANCH  86  89
ATOM     89  S   UNL A   1      45.782  24.204  36.653  1.00  0.00     0.127 S 
ATOM     90  O   UNL A   1      47.171  24.043  37.080  1.00  0.00    -0.237 OA
ATOM     91  O   UNL A   1      44.873  24.673  37.699  1.00  0.00    -0.237 OA
ATOM     92  O   UNL A   1      45.249  23.125  35.832  1.00  0.00    -0.744 OA
ENDBRANCH  86  89
ENDBRANCH  59  82
ENDBRANCH  33  34
ENDBRANCH  25  28
ENDBRANCH  23  24
ENDBRANCH  22  23
ENDBRANCH   1  22
TORSDOF 19
ENDMDL
MODEL 2
REMARK VINA RESULT:     -10.8      1.515      8.091
REMARK SMILES CCN(CCC(=O)NCCCCNC(=O)c1ccc(-c2c3nc(c(-c4cccc(S(=O)(=O)[O-])c4F)c4ccc([nH]4)c(-c4cccc(S(=O)(=O)[O-])c4F)c4nc(c(-c5cccc(S(=O)(=O)[O-])c5F)c5ccc2[nH]5)C=C4)C=C3)cc1)C(=O)c1cc(Cl)ccc1F
REMARK SMILES IDX 10 1 9 2 8 3 6 4 7 5 5 7 4 8 3 9 2 10 1 11 79 12 80 13 81 14
REMARK SMILES IDX 82 15 87 16 83 17 86 18 88 19 84 20 85 21 11 22 12 23 13 24
REMARK SMILES IDX 14 25 15 27 16 28 17 29 78 30 18 31 77 32 19 33 20 34 21 35
REMARK SMILES IDX 71 36 22 37 76 38 70 39 72 40 23 41 75 42 69 43 68 44 24 46
REMARK SMILES IDX 56 47 36 48 55 49 37 50 40 51 54 52 73 53 38 54 39 55 53 57
REMARK SMILES IDX 74 58 41 59 25 60 26 61 34 62 27 63 29 64 35 65 28 66 30 67
REMARK SMILES IDX 31 68 32 69 33 70 57 71 58 72 66 73 59 74 61 75 67 76 60 77
REMARK SMILES IDX 62 78 63 79 64 80 65 81 42 82 43 83 51 84 44 85 46 86 52 87
REMARK SMILES IDX 45 88 47 89 48 90 49 91 50 92
REMARK H PARENT 8 6 13 26 72 45 40 56
REMARK Flexibility Score: inf
ROOT
ATOM      1  C   UNL A   1      31.237  27.507  25.116  1.00  0.00     0.023 C 
ENDROOT
BRANCH   1   2
ATOM      2  C   UNL A   1      31.961  26.226  24.730  1.00  0.00     0.116 C 
BRANCH   2   3
ATOM      3  N   UNL A   1      32.722  26.378  23.505  1.00  0.00    -0.356 N 
ATOM      4  C   UNL A   1      33.055  25.441  22.572  1.00  0.00     0.221 C 
ATOM      5  O   UNL A   1      33.655  25.805  21.560  1.00  0.00    -0.275 OA
ATOM      6  H   UNL A   1      33.045  27.289  23.319  1.00  0.00     0.163 HD
BRANCH   4   7
ATOM      7  C   UNL A   1      32.663  23.994  22.764  1.00  0.00     0.121 C 
BRANCH   7   8
ATOM      8  C   UNL A   1      33.776  23.097  23.296  1.00  0.00     0.129 C 
BRANCH   8   9
ATOM      9  N   UNL A   1      33.496  22.355  24.531  1.00  0.00    -0.338 N 
BRANCH   9  10
ATOM     10  C   UNL A   1      34.269  22.837  25.697  1.00  0.00     0.116 C 
ATOM     11  C   UNL A   1      35.392  23.848  25.525  1.00  0.00     0.027 C 
ENDBRANCH   9  10
BRANCH   9  12
ATOM     12  C   UNL A   1      32.457  21.408  24.674  1.00  0.00     0.256 C 
ATOM     13  O   UNL A   1      31.530  21.594  25.465  1.00  0.00    -0.269 OA
BRANCH  12  14
ATOM     14  C   UNL A   1      32.529  20.020  24.096  1.00  0.00     0.077 A 
ATOM     15  C   UNL A   1      32.866  19.000  25.015  1.00  0.00     0.037 A 
ATOM     16  C   UNL A   1      32.295  19.625  22.781  1.00  0.00     0.136 A 
ATOM     17  C   UNL A   1      33.041  17.676  24.603  1.00  0.00     0.042 A 
ATOM     18  C   UNL A   1      32.522  18.309  22.355  1.00  0.00     0.041 A 
ATOM     19  F   UNL A   1      31.766  20.444  21.869  1.00  0.00    -0.206 F 
ATOM     20  Cl  UNL A   1      33.451  16.467  25.753  1.00  0.00    -0.084 Cl
ATOM     21  C   UNL A   1      32.903  17.330  23.265  1.00  0.00     0.023 A 
ENDBRANCH  12  14
ENDBRANCH   9  12
ENDBRANCH   8   9
ENDBRANCH   7   8
ENDBRANCH   4   7
ENDBRANCH   2   3
ENDBRANCH   1   2
BRANCH   1  22
ATOM     22  C   UNL A   1      31.885  28.317  26.227  1.00  0.00     0.023 C 
BRANCH  22  23
ATOM     23  C   UNL A   1      32.792  29.432  25.742  1.00  0.00     0.116 C 
BRANCH  23  24
ATOM     24  N   UNL A   1      32.379  30.759  26.184  1.00  0.00    -0.352 N 
ATOM     25  C   UNL A   1      33.021  31.630  27.030  1.00  0.00     0.251 C 
ATOM     26  H   UNL A   1      31.518  31.075  25.826  1.00  0.00     0.163 HD
ATOM     27  O   UNL A   1      32.480  32.686  27.351  1.00  0.00    -0.269 OA
BRANCH  25  28
ATOM     28  C   UNL A   1      34.345  31.269  27.576  1.00  0.00     0.039 A 
ATOM     29  C   UNL A   1      35.315  32.261  27.723  1.00  0.00     0.014 A 
ATOM     30  C   UNL A   1      34.601  29.965  28.003  1.00  0.00     0.014 A 
ATOM     31  C   UNL A   1      36.514  31.961  28.371  1.00  0.00     0.010 A 
ATOM     32  C   UNL A   1      35.735  29.702  28.756  1.00  0.00     0.010 A 
ATOM     33  C   UNL A   1      36.715  30.690  28.932  1.00  0.00    -0.014 A 
BRANCH  33  34
ATOM     34  C   UNL A   1      37.940  30.351  29.697  1.00  0.00     0.031 A 
ATOM     35  C   UNL A   1      38.937  29.382  29.117  1.00  0.00     0.074 A 
ATOM     36  C   UNL A   1      38.096  30.813  30.953  1.00  0.00     0.049 A 
ATOM     37  N   UNL A   1      40.004  28.867  29.667  1.00  0.00    -0.248 NA
ATOM     38  C   UNL A   1      38.670  28.887  27.754  1.00  0.00     0.031 C 
ATOM     39  C   UNL A   1      37.146  31.670  31.668  1.00  0.00     0.029 A 
ATOM     40  N   UNL A   1      39.100  30.601  31.864  1.00  0.00    -0.354 N 
ATOM     41  C   UNL A   1      40.499  27.951  28.746  1.00  0.00     0.074 A 
ATOM     42  C   UNL A   1      39.587  27.941  27.626  1.00  0.00     0.031 C 
ATOM     43  C   UNL A   1      37.618  31.919  32.899  1.00  0.00     0.029 A 
ATOM     44  C   UNL A   1      38.886  31.219  33.074  1.00  0.00     0.049 A 
ATOM     45  H   UNL A   1      39.898  30.058  31.670  1.00  0.00     0.167 HD
ATOM     46  C   UNL A   1      41.634  27.215  28.806  1.00  0.00     0.034 A 
ATOM     47  C   UNL A   1      39.630  31.220  34.198  1.00  0.00     0.034 A 
ATOM     48  C   UNL A   1      42.576  27.290  29.886  1.00  0.00     0.049 A 
ATOM     49  C   UNL A   1      40.934  30.472  34.205  1.00  0.00     0.074 A 
ATOM     50  C   UNL A   1      43.811  26.679  29.997  1.00  0.00     0.029 A 
ATOM     51  N   UNL A   1      42.389  28.031  31.043  1.00  0.00    -0.354 N 
ATOM     52  N   UNL A   1      41.471  29.740  33.258  1.00  0.00    -0.248 NA
ATOM     53  C   UNL A   1      41.756  30.579  35.419  1.00  0.00     0.031 C 
ATOM     54  C   UNL A   1      44.366  27.042  31.229  1.00  0.00     0.029 A 
ATOM     55  C   UNL A   1      43.485  27.893  31.876  1.00  0.00     0.049 A 
ATOM     56  H   UNL A   1      41.592  28.574  31.244  1.00  0.00     0.167 HD
ATOM     57  C   UNL A   1      42.704  29.326  33.747  1.00  0.00     0.074 A 
ATOM     58  C   UNL A   1      42.845  29.907  35.067  1.00  0.00     0.031 C 
ATOM     59  C   UNL A   1      43.630  28.523  33.164  1.00  0.00     0.034 A 
BRANCH  46  60
ATOM     60  C   UNL A   1      41.945  26.325  27.630  1.00  0.00     0.023 A 
ATOM     61  C   UNL A   1      42.572  26.873  26.490  1.00  0.00     0.012 A 
ATOM     62  C   UNL A   1      41.640  24.950  27.654  1.00  0.00     0.148 A 
ATOM     63  C   UNL A   1      42.843  26.080  25.376  1.00  0.00     0.002 A 
ATOM     64  C   UNL A   1      41.959  24.157  26.558  1.00  0.00     0.091 A 
ATOM     65  F   UNL A   1      41.022  24.449  28.733  1.00  0.00    -0.205 F 
ATOM     66  C   UNL A   1      42.545  24.722  25.413  1.00  0.00     0.022 A 
BRANCH  64  67
ATOM     67  S   UNL A   1      41.688  22.380  26.541  1.00  0.00     0.127 S 
ATOM     68  O   UNL A   1      42.464  21.974  25.371  1.00  0.00    -0.237 OA
ATOM     69  O   UNL A   1      42.261  21.969  27.824  1.00  0.00    -0.237 OA
ATOM     70  O   UNL A   1      40.247  22.199  26.437  1.00  0.00    -0.744 OA
ENDBRANCH  64  67
ENDBRANCH  46  60
BRANCH  47  71
ATOM     71  C   UNL A   1      39.195  32.031  35.369  1.00  0.00     0.023 A 
ATOM     72  C   UNL A   1      38.348  31.447  36.333  1.00  0.00     0.012 A 
ATOM     73  C   UNL A   1      39.651  33.349  35.565  1.00  0.00     0.148 A 
ATOM     74  C   UNL A   1      37.945  32.168  37.457  1.00  0.00     0.002 A 
ATOM     75  C   UNL A   1      39.286  34.044  36.712  1.00  0.00     0.091 A 
ATOM     76  F   UNL A   1      40.451  33.887  34.633  1.00  0.00    -0.205 F 
ATOM     77  C   UNL A   1      38.420  33.462  37.651  1.00  0.00     0.022 A 
BRANCH  75  78
ATOM     78  S   UNL A   1      39.946  35.666  37.112  1.00  0.00     0.127 S 
ATOM     79  O   UNL A   1      39.561  36.443  35.936  1.00  0.00    -0.237 OA
ATOM     80  O   UNL A   1      39.213  35.995  38.335  1.00  0.00    -0.237 OA
ATOM     81  O   UNL A   1      41.377  35.473  37.299  1.00  0.00    -0.744 OA
ENDBRANCH  75  78
ENDBRANCH  47  71
BRANCH  59  82
ATOM     82  C   UNL A   1      44.893  28.244  33.932  1.00  0.00     0.023 A 
ATOM     83  C   UNL A   1      45.985  29.127  33.825  1.00  0.00     0.012 A 
ATOM     84  C   UNL A   1      44.964  27.157  34.826  1.00  0.00     0.148 A 
ATOM     85  C   UNL A   1      47.140  28.917  34.576  1.00  0.00     0.002 A 
ATOM     86  C   UNL A   1      46.101  26.984  35.607  1.00  0.00     0.091 A 
ATOM     87  F   UNL A   1      43.922  26.318  34.899  1.00  0.00    -0.205 F 
ATOM     88  C   UNL A   1      47.194  27.855  35.475  1.00  0.00     0.022 A 
BRANCH  86  89
ATOM     89  S   UNL A   1      46.217  25.701  36.860  1.00  0.00     0.127 S 
ATOM     90  O   UNL A   1      45.058  25.999  37.701  1.00  0.00    -0.237 OA
ATOM     91  O   UNL A   1      46.097  24.478  36.066  1.00  0.00    -0.237 OA
ATOM     92  O   UNL A   1      47.515  25.881  37.496  1.00  0.00    -0.744 OA
ENDBRANCH  86  89
ENDBRANCH  59  82
ENDBRANCH  33  34
ENDBRANCH  25  28
ENDBRANCH  23  24
ENDBRANCH  22  23
ENDBRANCH   1  22
TORSDOF 19
ENDMDL
MODEL 3
REMARK VINA RESULT:     -10.8      1.344      2.068
REMARK SMILES CCN(CCC(=O)NCCCCNC(=O)c1ccc(-c2c3nc(c(-c4cccc(S(=O)(=O)[O-])c4F)c4ccc([nH]4)c(-c4cccc(S(=O)(=O)[O-])c4F)c4nc(c(-c5cccc(S(=O)(=O)[O-])c5F)c5ccc2[nH]5)C=C4)C=C3)cc1)C(=O)c1cc(Cl)ccc1F
REMARK SMILES IDX 10 1 9 2 8 3 6 4 7 5 5 7 4 8 3 9 2 10 1 11 79 12 80 13 81 14
REMARK SMILES IDX 82 15 87 16 83 17 86 18 88 19 84 20 85 21 11 22 12 23 13 24
REMARK SMILES IDX 14 25 15 27 16 28 17 29 78 30 18 31 77 32 19 33 20 34 21 35
REMARK SMILES IDX 71 36 22 37 76 38 70 39 72 40 23 41 75 42 69 43 68 44 24 46
REMARK SMILES IDX 56 47 36 48 55 49 37 50 40 51 54 52 73 53 38 54 39 55 53 57
REMARK SMILES IDX 74 58 41 59 25 60 26 61 34 62 27 63 29 64 35 65 28 66 30 67
REMARK SMILES IDX 31 68 32 69 33 70 57 71 58 72 66 73 59 74 61 75 67 76 60 77
REMARK SMILES IDX 62 78 63 79 64 80 65 81 42 82 43 83 51 84 44 85 46 86 52 87
REMARK SMILES IDX 45 88 47 89 48 90 49 91 50 92
REMARK H PARENT 8 6 13 26 72 45 40 56
REMARK Flexibility Score: inf
ROOT
ATOM      1  C   UNL A   1      31.562  27.805  25.145  1.00  0.00     0.023 C 
ENDROOT
BRANCH   1   2
ATOM      2  C   UNL A   1      30.546  27.219  24.175  1.00  0.00     0.116 C 
BRANCH   2   3
ATOM      3  N   UNL A   1      31.135  26.924  22.883  1.00  0.00    -0.356 N 
ATOM      4  C   UNL A   1      31.743  25.783  22.450  1.00  0.00     0.221 C 
ATOM      5  O   UNL A   1      32.114  25.722  21.278  1.00  0.00    -0.275 OA
ATOM      6  H   UNL A   1      31.088  27.652  22.222  1.00  0.00     0.163 HD
BRANCH   4   7
ATOM      7  C   UNL A   1      31.924  24.608  23.384  1.00  0.00     0.121 C 
BRANCH   7   8
ATOM      8  C   UNL A   1      33.327  24.467  23.966  1.00  0.00     0.129 C 
BRANCH   8   9
ATOM      9  N   UNL A   1      33.686  23.156  24.518  1.00  0.00    -0.338 N 
BRANCH   9  10
ATOM     10  C   UNL A   1      35.139  22.992  24.753  1.00  0.00     0.116 C 
ATOM     11  C   UNL A   1      36.087  22.702  23.600  1.00  0.00     0.027 C 
ENDBRANCH   9  10
BRANCH   9  12
ATOM     12  C   UNL A   1      32.752  22.201  24.979  1.00  0.00     0.256 C 
ATOM     13  O   UNL A   1      32.185  22.337  26.065  1.00  0.00    -0.269 OA
BRANCH  12  14
ATOM     14  C   UNL A   1      32.577  20.851  24.335  1.00  0.00     0.077 A 
ATOM     15  C   UNL A   1      32.724  19.745  25.204  1.00  0.00     0.037 A 
ATOM     16  C   UNL A   1      32.281  20.566  23.005  1.00  0.00     0.136 A 
ATOM     17  C   UNL A   1      32.661  18.431  24.730  1.00  0.00     0.042 A 
ATOM     18  C   UNL A   1      32.271  19.252  22.517  1.00  0.00     0.041 A 
ATOM     19  F   UNL A   1      31.911  21.508  22.134  1.00  0.00    -0.206 F 
ATOM     20  Cl  UNL A   1      32.843  17.116  25.820  1.00  0.00    -0.084 Cl
ATOM     21  C   UNL A   1      32.468  18.179  23.378  1.00  0.00     0.023 A 
ENDBRANCH  12  14
ENDBRANCH   9  12
ENDBRANCH   8   9
ENDBRANCH   7   8
ENDBRANCH   4   7
ENDBRANCH   2   3
ENDBRANCH   1   2
BRANCH   1  22
ATOM     22  C   UNL A   1      31.474  29.308  25.358  1.00  0.00     0.023 C 
BRANCH  22  23
ATOM     23  C   UNL A   1      32.706  29.924  25.992  1.00  0.00     0.116 C 
BRANCH  23  24
ATOM     24  N   UNL A   1      32.510  31.296  26.445  1.00  0.00    -0.352 N 
ATOM     25  C   UNL A   1      33.300  32.057  27.272  1.00  0.00     0.251 C 
ATOM     26  H   UNL A   1      31.698  31.739  26.110  1.00  0.00     0.163 HD
ATOM     27  O   UNL A   1      32.932  33.181  27.607  1.00  0.00    -0.269 OA
BRANCH  25  28
ATOM     28  C   UNL A   1      34.568  31.499  27.782  1.00  0.00     0.039 A 
ATOM     29  C   UNL A   1      35.653  32.352  27.988  1.00  0.00     0.014 A 
ATOM     30  C   UNL A   1      34.661  30.147  28.117  1.00  0.00     0.014 A 
ATOM     31  C   UNL A   1      36.805  31.862  28.605  1.00  0.00     0.010 A 
ATOM     32  C   UNL A   1      35.753  29.695  28.841  1.00  0.00     0.010 A 
ATOM     33  C   UNL A   1      36.847  30.540  29.077  1.00  0.00    -0.014 A 
BRANCH  33  34
ATOM     34  C   UNL A   1      38.020  30.001  29.807  1.00  0.00     0.031 A 
ATOM     35  C   UNL A   1      38.288  30.447  31.221  1.00  0.00     0.074 A 
ATOM     36  C   UNL A   1      38.906  29.213  29.166  1.00  0.00     0.049 A 
ATOM     37  N   UNL A   1      39.314  30.188  31.988  1.00  0.00    -0.248 NA
ATOM     38  C   UNL A   1      37.294  31.345  31.836  1.00  0.00     0.031 C 
ATOM     39  C   UNL A   1      38.815  28.801  27.762  1.00  0.00     0.029 A 
ATOM     40  N   UNL A   1      40.074  28.642  29.603  1.00  0.00    -0.354 N 
ATOM     41  C   UNL A   1      39.117  30.933  33.145  1.00  0.00     0.074 A 
ATOM     42  C   UNL A   1      37.904  31.694  32.958  1.00  0.00     0.031 C 
ATOM     43  C   UNL A   1      39.875  28.035  27.459  1.00  0.00     0.029 A 
ATOM     44  C   UNL A   1      40.735  27.925  28.633  1.00  0.00     0.049 A 
ATOM     45  H   UNL A   1      40.408  28.738  30.524  1.00  0.00     0.167 HD
ATOM     46  C   UNL A   1      39.856  30.950  34.280  1.00  0.00     0.034 A 
ATOM     47  C   UNL A   1      41.903  27.255  28.686  1.00  0.00     0.034 A 
ATOM     48  C   UNL A   1      41.015  30.131  34.487  1.00  0.00     0.049 A 
ATOM     49  C   UNL A   1      42.656  27.211  29.987  1.00  0.00     0.074 A 
ATOM     50  C   UNL A   1      41.771  29.981  35.636  1.00  0.00     0.029 A 
ATOM     51  N   UNL A   1      41.584  29.313  33.523  1.00  0.00    -0.354 N 
ATOM     52  N   UNL A   1      42.366  27.790  31.127  1.00  0.00    -0.248 NA
ATOM     53  C   UNL A   1      43.875  26.391  30.022  1.00  0.00     0.031 C 
ATOM     54  C   UNL A   1      42.805  29.079  35.361  1.00  0.00     0.029 A 
ATOM     55  C   UNL A   1      42.682  28.655  34.048  1.00  0.00     0.049 A 
ATOM     56  H   UNL A   1      41.256  29.215  32.600  1.00  0.00     0.167 HD
ATOM     57  C   UNL A   1      43.347  27.381  32.023  1.00  0.00     0.074 A 
ATOM     58  C   UNL A   1      44.226  26.487  31.298  1.00  0.00     0.031 C 
ATOM     59  C   UNL A   1      43.515  27.727  33.325  1.00  0.00     0.034 A 
BRANCH  46  60
ATOM     60  C   UNL A   1      39.377  31.833  35.404  1.00  0.00     0.023 A 
ATOM     61  C   UNL A   1      38.473  31.316  36.356  1.00  0.00     0.012 A 
ATOM     62  C   UNL A   1      39.832  33.159  35.534  1.00  0.00     0.148 A 
ATOM     63  C   UNL A   1      37.989  32.119  37.388  1.00  0.00     0.002 A 
ATOM     64  C   UNL A   1      39.383  33.938  36.595  1.00  0.00     0.091 A 
ATOM     65  F   UNL A   1      40.672  33.644  34.608  1.00  0.00    -0.205 F 
ATOM     66  C   UNL A   1      38.450  33.425  37.513  1.00  0.00     0.022 A 
BRANCH  64  67
ATOM     67  S   UNL A   1      39.981  35.607  36.887  1.00  0.00     0.127 S 
ATOM     68  O   UNL A   1      39.325  35.938  38.150  1.00  0.00    -0.237 OA
ATOM     69  O   UNL A   1      41.427  35.404  36.986  1.00  0.00    -0.237 OA
ATOM     70  O   UNL A   1      39.559  36.388  35.733  1.00  0.00    -0.744 OA
ENDBRANCH  64  67
ENDBRANCH  46  60
BRANCH  47  71
ATOM     71  C   UNL A   1      42.375  26.502  27.491  1.00  0.00     0.023 A 
ATOM     72  C   UNL A   1      43.172  27.161  26.534  1.00  0.00     0.012 A 
ATOM     73  C   UNL A   1      42.088  25.134  27.321  1.00  0.00     0.148 A 
ATOM     74  C   UNL A   1      43.656  26.477  25.418  1.00  0.00     0.002 A 
ATOM     75  C   UNL A   1      42.614  24.447  26.233  1.00  0.00     0.091 A 
ATOM     76  F   UNL A   1      41.323  24.528  28.241  1.00  0.00    -0.205 F 
ATOM     77  C   UNL A   1      43.385  25.120  25.272  1.00  0.00     0.022 A 
BRANCH  75  78
ATOM     78  S   UNL A   1      42.425  22.673  26.025  1.00  0.00     0.127 S 
ATOM     79  O   UNL A   1      40.975  22.515  26.108  1.00  0.00    -0.237 OA
ATOM     80  O   UNL A   1      42.992  22.464  24.693  1.00  0.00    -0.237 OA
ATOM     81  O   UNL A   1      43.188  22.066  27.108  1.00  0.00    -0.744 OA
ENDBRANCH  75  78
ENDBRANCH  47  71
BRANCH  59  82
ATOM     82  C   UNL A   1      44.675  27.118  34.064  1.00  0.00     0.023 A 
ATOM     83  C   UNL A   1      45.903  27.806  34.125  1.00  0.00     0.012 A 
ATOM     84  C   UNL A   1      44.521  25.909  34.771  1.00  0.00     0.148 A 
ATOM     85  C   UNL A   1      46.968  27.287  34.858  1.00  0.00     0.002 A 
ATOM     86  C   UNL A   1      45.573  25.423  35.538  1.00  0.00     0.091 A 
ATOM     87  F   UNL A   1      43.351  25.260  34.684  1.00  0.00    -0.205 F 
ATOM     88  C   UNL A   1      46.801  26.103  35.573  1.00  0.00     0.022 A 
BRANCH  86  89
ATOM     89  S   UNL A   1      45.414  23.959  36.568  1.00  0.00     0.127 S 
ATOM     90  O   UNL A   1      46.801  23.511  36.668  1.00  0.00    -0.237 OA
ATOM     91  O   UNL A   1      44.859  24.509  37.806  1.00  0.00    -0.237 OA
ATOM     92  O   UNL A   1      44.515  23.063  35.853  1.00  0.00    -0.744 OA
ENDBRANCH  86  89
ENDBRANCH  59  82
ENDBRANCH  33  34
ENDBRANCH  25  28
ENDBRANCH  23  24
ENDBRANCH  22  23
ENDBRANCH   1  22
TORSDOF 19
ENDMDL
