MODEL 1
REMARK VINA RESULT:     -11.1      0.000      0.000
REMARK SMILES CC(C)(C)[C@H](CCC(=O)NCCCCNC(=O)c1ccc(-c2c3nc(c(-c4cccc(S(=O)(=O)[O-])c4F)c4ccc([nH]4)c(-c4cccc(S(=O)(=O)[O-])c4F)c4nc(c(-c5cccc(S(=O)(=O)[O-])c5F)c5ccc2[nH]5)C=C4)C=C3)cc1)CC[NH+]1CCOCC1
REMARK SMILES IDX 11 1 10 2 8 3 9 4 7 6 6 7 5 8 2 9 1 10 3 11 4 12 81 13 82 14
REMARK SMILES IDX 83 15 84 16 88 17 85 19 87 20 86 21 12 22 13 23 14 24 15 25
REMARK SMILES IDX 16 26 17 28 18 29 19 30 80 31 20 32 79 33 21 34 22 35 23 36
REMARK SMILES IDX 73 37 24 38 78 39 72 40 74 41 25 42 77 43 71 44 70 45 26 47
REMARK SMILES IDX 58 48 38 49 57 50 39 51 42 52 56 53 75 54 40 55 41 56 55 58
REMARK SMILES IDX 76 59 43 60 27 61 28 62 36 63 29 64 31 65 37 66 30 67 32 68
REMARK SMILES IDX 33 69 34 70 35 71 59 72 60 73 68 74 61 75 63 76 69 77 62 78
REMARK SMILES IDX 64 79 65 80 66 81 67 82 44 83 45 84 53 85 46 86 48 87 54 88
REMARK SMILES IDX 47 89 49 90 50 91 51 92 52 93
REMARK H PARENT 10 5 83 18 15 27 74 46 42 57
REMARK Flexibility Score: inf
ROOT
ATOM      1  C   UNL A   1      34.367  23.702  23.259  1.00  0.00     0.116 C 
ENDROOT
BRANCH   1   2
ATOM      2  N   UNL A   1      32.969  24.076  23.358  1.00  0.00    -0.356 N 
ATOM      3  C   UNL A   1      32.351  25.033  24.104  1.00  0.00     0.220 C 
ATOM      4  O   UNL A   1      31.175  25.304  23.854  1.00  0.00    -0.275 OA
ATOM      5  H   UNL A   1      32.364  23.546  22.791  1.00  0.00     0.163 HD
BRANCH   3   6
ATOM      6  C   UNL A   1      33.083  25.755  25.221  1.00  0.00     0.100 C 
BRANCH   6   7
ATOM      7  C   UNL A   1      33.328  27.244  24.912  1.00  0.00     0.014 C 
BRANCH   7   8
ATOM      8  C   UNL A   1      32.202  28.199  25.372  1.00  0.00     0.000 C 
BRANCH   8   9
ATOM      9  C   UNL A   1      32.419  28.895  26.805  1.00  0.00    -0.035 C 
ATOM     10  C   UNL A   1      32.015  30.385  26.805  1.00  0.00     0.011 C 
ATOM     11  C   UNL A   1      33.868  28.836  27.332  1.00  0.00     0.011 C 
ATOM     12  C   UNL A   1      31.543  28.182  27.866  1.00  0.00     0.011 C 
ENDBRANCH   8   9
BRANCH   8  13
ATOM     13  C   UNL A   1      31.855  29.269  24.284  1.00  0.00     0.065 C 
BRANCH  13  14
ATOM     14  C   UNL A   1      30.451  29.425  23.645  1.00  0.00     0.262 C 
BRANCH  14  15
ATOM     15  N   UNL A   1      30.020  30.606  22.897  1.00  0.00    -0.331 N 
ATOM     16  C   UNL A   1      29.141  31.492  23.706  1.00  0.00     0.291 C 
ATOM     17  C   UNL A   1      29.352  30.404  21.612  1.00  0.00     0.291 C 
ATOM     18  H   UNL A   1      30.925  31.026  22.683  1.00  0.00     0.348 HD
ATOM     19  C   UNL A   1      27.667  31.026  23.767  1.00  0.00     0.221 C 
ATOM     20  C   UNL A   1      27.917  29.886  21.722  1.00  0.00     0.221 C 
ATOM     21  O   UNL A   1      27.109  30.799  22.469  1.00  0.00    -0.370 OA
ENDBRANCH  14  15
ENDBRANCH  13  14
ENDBRANCH   8  13
ENDBRANCH   7   8
ENDBRANCH   6   7
ENDBRANCH   3   6
ENDBRANCH   1   2
BRANCH   1  22
ATOM     22  C   UNL A   1      34.939  23.080  24.530  1.00  0.00     0.023 C 
BRANCH  22  23
ATOM     23  C   UNL A   1      36.145  22.182  24.301  1.00  0.00     0.023 C 
BRANCH  23  24
ATOM     24  C   UNL A   1      36.858  21.838  25.598  1.00  0.00     0.116 C 
BRANCH  24  25
ATOM     25  N   UNL A   1      37.956  20.877  25.517  1.00  0.00    -0.352 N 
ATOM     26  C   UNL A   1      39.245  21.050  25.997  1.00  0.00     0.251 C 
ATOM     27  H   UNL A   1      37.760  20.019  25.075  1.00  0.00     0.163 HD
ATOM     28  O   UNL A   1      40.104  20.190  25.824  1.00  0.00    -0.269 OA
BRANCH  26  29
ATOM     29  C   UNL A   1      39.568  22.323  26.683  1.00  0.00     0.039 A 
ATOM     30  C   UNL A   1      40.601  22.378  27.621  1.00  0.00     0.014 A 
ATOM     31  C   UNL A   1      38.946  23.494  26.260  1.00  0.00     0.014 A 
ATOM     32  C   UNL A   1      41.088  23.625  28.030  1.00  0.00     0.010 A 
ATOM     33  C   UNL A   1      39.541  24.713  26.530  1.00  0.00     0.010 A 
ATOM     34  C   UNL A   1      40.612  24.803  27.430  1.00  0.00    -0.014 A 
BRANCH  34  35
ATOM     35  C   UNL A   1      41.190  26.149  27.702  1.00  0.00     0.031 A 
ATOM     36  C   UNL A   1      42.608  26.448  27.273  1.00  0.00     0.074 A 
ATOM     37  C   UNL A   1      40.518  27.039  28.462  1.00  0.00     0.049 A 
ATOM     38  N   UNL A   1      43.372  27.463  27.584  1.00  0.00    -0.248 NA
ATOM     39  C   UNL A   1      43.284  25.432  26.444  1.00  0.00     0.031 C 
ATOM     40  C   UNL A   1      39.190  26.833  29.048  1.00  0.00     0.029 A 
ATOM     41  N   UNL A   1      40.878  28.289  28.902  1.00  0.00    -0.354 N 
ATOM     42  C   UNL A   1      44.626  27.166  27.061  1.00  0.00     0.074 A 
ATOM     43  C   UNL A   1      44.538  25.852  26.469  1.00  0.00     0.031 C 
ATOM     44  C   UNL A   1      38.839  27.924  29.747  1.00  0.00     0.029 A 
ATOM     45  C   UNL A   1      39.926  28.895  29.692  1.00  0.00     0.049 A 
ATOM     46  H   UNL A   1      41.736  28.714  28.675  1.00  0.00     0.167 HD
ATOM     47  C   UNL A   1      45.740  27.935  27.028  1.00  0.00     0.034 A 
ATOM     48  C   UNL A   1      39.930  30.097  30.302  1.00  0.00     0.034 A 
ATOM     49  C   UNL A   1      45.782  29.288  27.504  1.00  0.00     0.049 A 
ATOM     50  C   UNL A   1      41.127  30.993  30.128  1.00  0.00     0.074 A 
ATOM     51  C   UNL A   1      46.810  30.208  27.398  1.00  0.00     0.029 A 
ATOM     52  N   UNL A   1      44.737  29.925  28.155  1.00  0.00    -0.354 N 
ATOM     53  N   UNL A   1      42.249  30.756  29.491  1.00  0.00    -0.248 NA
ATOM     54  C   UNL A   1      41.047  32.336  30.720  1.00  0.00     0.031 C 
ATOM     55  C   UNL A   1      46.383  31.405  27.983  1.00  0.00     0.029 A 
ATOM     56  C   UNL A   1      45.088  31.231  28.444  1.00  0.00     0.049 A 
ATOM     57  H   UNL A   1      43.873  29.510  28.378  1.00  0.00     0.167 HD
ATOM     58  C   UNL A   1      42.992  31.927  29.576  1.00  0.00     0.074 A 
ATOM     59  C   UNL A   1      42.183  32.882  30.307  1.00  0.00     0.031 C 
ATOM     60  C   UNL A   1      44.239  32.185  29.112  1.00  0.00     0.034 A 
BRANCH  47  61
ATOM     61  C   UNL A   1      46.966  27.362  26.365  1.00  0.00     0.023 A 
ATOM     62  C   UNL A   1      47.159  27.550  24.981  1.00  0.00     0.012 A 
ATOM     63  C   UNL A   1      47.941  26.667  27.107  1.00  0.00     0.148 A 
ATOM     64  C   UNL A   1      48.272  27.015  24.335  1.00  0.00     0.002 A 
ATOM     65  C   UNL A   1      49.075  26.178  26.465  1.00  0.00     0.091 A 
ATOM     66  F   UNL A   1      47.736  26.477  28.419  1.00  0.00    -0.205 F 
ATOM     67  C   UNL A   1      49.233  26.338  25.078  1.00  0.00     0.022 A 
BRANCH  65  68
ATOM     68  S   UNL A   1      50.412  25.364  27.345  1.00  0.00     0.127 S 
ATOM     69  O   UNL A   1      49.733  24.191  27.894  1.00  0.00    -0.237 OA
ATOM     70  O   UNL A   1      51.357  25.069  26.266  1.00  0.00    -0.237 OA
ATOM     71  O   UNL A   1      50.892  26.327  28.326  1.00  0.00    -0.744 OA
ENDBRANCH  65  68
ENDBRANCH  47  61
BRANCH  48  72
ATOM     72  C   UNL A   1      38.722  30.565  31.039  1.00  0.00     0.023 A 
ATOM     73  C   UNL A   1      38.658  30.378  32.435  1.00  0.00     0.012 A 
ATOM     74  C   UNL A   1      37.658  31.219  30.388  1.00  0.00     0.148 A 
ATOM     75  C   UNL A   1      37.546  30.802  33.163  1.00  0.00     0.002 A 
ATOM     76  C   UNL A   1      36.575  31.685  31.127  1.00  0.00     0.091 A 
ATOM     77  F   UNL A   1      37.729  31.379  29.059  1.00  0.00    -0.205 F 
ATOM     78  C   UNL A   1      36.510  31.464  32.512  1.00  0.00     0.022 A 
BRANCH  76  79
ATOM     79  S   UNL A   1      35.255  32.658  30.392  1.00  0.00     0.127 S 
ATOM     80  O   UNL A   1      34.798  31.778  29.319  1.00  0.00    -0.237 OA
ATOM     81  O   UNL A   1      34.323  32.801  31.510  1.00  0.00    -0.237 OA
ATOM     82  O   UNL A   1      35.880  33.904  29.970  1.00  0.00    -0.744 OA
ENDBRANCH  76  79
ENDBRANCH  48  72
BRANCH  60  83
ATOM     83  C   UNL A   1      44.800  33.562  29.339  1.00  0.00     0.023 A 
ATOM     84  C   UNL A   1      45.561  33.821  30.494  1.00  0.00     0.012 A 
ATOM     85  C   UNL A   1      44.652  34.567  28.363  1.00  0.00     0.148 A 
ATOM     86  C   UNL A   1      46.148  35.070  30.688  1.00  0.00     0.002 A 
ATOM     87  C   UNL A   1      45.278  35.794  28.541  1.00  0.00     0.091 A 
ATOM     88  F   UNL A   1      43.907  34.304  27.279  1.00  0.00    -0.205 F 
ATOM     89  C   UNL A   1      46.018  36.051  29.707  1.00  0.00     0.022 A 
BRANCH  87  90
ATOM     90  S   UNL A   1      45.245  37.077  27.285  1.00  0.00     0.127 S 
ATOM     91  O   UNL A   1      46.072  36.489  26.233  1.00  0.00    -0.237 OA
ATOM     92  O   UNL A   1      43.819  37.163  26.964  1.00  0.00    -0.237 OA
ATOM     93  O   UNL A   1      45.790  38.270  27.919  1.00  0.00    -0.744 OA
ENDBRANCH  87  90
ENDBRANCH  60  83
ENDBRANCH  34  35
ENDBRANCH  26  29
ENDBRANCH  24  25
ENDBRANCH  23  24
ENDBRANCH  22  23
ENDBRANCH   1  22
TORSDOF 20
ENDMDL
MODEL 2
REMARK VINA RESULT:     -10.9      4.666      8.085
REMARK SMILES CC(C)(C)[C@H](CCC(=O)NCCCCNC(=O)c1ccc(-c2c3nc(c(-c4cccc(S(=O)(=O)[O-])c4F)c4ccc([nH]4)c(-c4cccc(S(=O)(=O)[O-])c4F)c4nc(c(-c5cccc(S(=O)(=O)[O-])c5F)c5ccc2[nH]5)C=C4)C=C3)cc1)CC[NH+]1CCOCC1
REMARK SMILES IDX 11 1 10 2 8 3 9 4 7 6 6 7 5 8 2 9 1 10 3 11 4 12 81 13 82 14
REMARK SMILES IDX 83 15 84 16 88 17 85 19 87 20 86 21 12 22 13 23 14 24 15 25
REMARK SMILES IDX 16 26 17 28 18 29 19 30 80 31 20 32 79 33 21 34 22 35 23 36
REMARK SMILES IDX 73 37 24 38 78 39 72 40 74 41 25 42 77 43 71 44 70 45 26 47
REMARK SMILES IDX 58 48 38 49 57 50 39 51 42 52 56 53 75 54 40 55 41 56 55 58
REMARK SMILES IDX 76 59 43 60 27 61 28 62 36 63 29 64 31 65 37 66 30 67 32 68
REMARK SMILES IDX 33 69 34 70 35 71 59 72 60 73 68 74 61 75 63 76 69 77 62 78
REMARK SMILES IDX 64 79 65 80 66 81 67 82 44 83 45 84 53 85 46 86 48 87 54 88
REMARK SMILES IDX 47 89 49 90 50 91 51 92 52 93
REMARK H PARENT 10 5 83 18 15 27 74 46 42 57
REMARK Flexibility Score: inf
ROOT
ATOM      1  C   UNL A   1      32.074  26.928  26.324  1.00  0.00     0.116 C 
ENDROOT
BRANCH   1   2
ATOM      2  N   UNL A   1      31.109  25.914  26.706  1.00  0.00    -0.356 N 
ATOM      3  C   UNL A   1      31.087  24.572  26.480  1.00  0.00     0.220 C 
ATOM      4  O   UNL A   1      30.268  23.886  27.093  1.00  0.00    -0.275 OA
ATOM      5  H   UNL A   1      30.339  26.256  27.215  1.00  0.00     0.163 HD
BRANCH   3   6
ATOM      6  C   UNL A   1      32.043  23.924  25.494  1.00  0.00     0.100 C 
BRANCH   6   7
ATOM      7  C   UNL A   1      33.204  23.184  26.186  1.00  0.00     0.014 C 
BRANCH   7   8
ATOM      8  C   UNL A   1      34.030  22.260  25.261  1.00  0.00     0.000 C 
BRANCH   8   9
ATOM      9  C   UNL A   1      35.540  22.729  24.974  1.00  0.00    -0.035 C 
ATOM     10  C   UNL A   1      35.872  22.764  23.466  1.00  0.00     0.011 C 
ATOM     11  C   UNL A   1      36.621  21.850  25.637  1.00  0.00     0.011 C 
ATOM     12  C   UNL A   1      35.752  24.163  25.523  1.00  0.00     0.011 C 
ENDBRANCH   8   9
BRANCH   8  13
ATOM     13  C   UNL A   1      33.994  20.768  25.733  1.00  0.00     0.065 C 
BRANCH  13  14
ATOM     14  C   UNL A   1      34.045  19.557  24.767  1.00  0.00     0.262 C 
BRANCH  14  15
ATOM     15  N   UNL A   1      32.910  18.670  24.508  1.00  0.00    -0.331 N 
ATOM     16  C   UNL A   1      32.723  17.670  25.593  1.00  0.00     0.291 C 
ATOM     17  C   UNL A   1      32.881  17.936  23.245  1.00  0.00     0.291 C 
ATOM     18  H   UNL A   1      32.153  19.353  24.458  1.00  0.00     0.348 HD
ATOM     19  C   UNL A   1      33.666  16.447  25.489  1.00  0.00     0.221 C 
ATOM     20  C   UNL A   1      33.873  16.774  23.167  1.00  0.00     0.221 C 
ATOM     21  O   UNL A   1      33.616  15.823  24.203  1.00  0.00    -0.370 OA
ENDBRANCH  14  15
ENDBRANCH  13  14
ENDBRANCH   8  13
ENDBRANCH   7   8
ENDBRANCH   6   7
ENDBRANCH   3   6
ENDBRANCH   1   2
BRANCH   1  22
ATOM     22  C   UNL A   1      31.712  27.683  25.047  1.00  0.00     0.023 C 
BRANCH  22  23
ATOM     23  C   UNL A   1      32.240  29.108  24.990  1.00  0.00     0.023 C 
BRANCH  23  24
ATOM     24  C   UNL A   1      32.713  29.598  26.348  1.00  0.00     0.116 C 
BRANCH  24  25
ATOM     25  N   UNL A   1      32.305  30.944  26.747  1.00  0.00    -0.352 N 
ATOM     26  C   UNL A   1      33.091  31.895  27.379  1.00  0.00     0.251 C 
ATOM     27  H   UNL A   1      31.376  31.202  26.545  1.00  0.00     0.163 HD
ATOM     28  O   UNL A   1      32.623  32.979  27.715  1.00  0.00    -0.269 OA
BRANCH  26  29
ATOM     29  C   UNL A   1      34.499  31.546  27.680  1.00  0.00     0.039 A 
ATOM     30  C   UNL A   1      35.476  32.541  27.744  1.00  0.00     0.014 A 
ATOM     31  C   UNL A   1      34.804  30.243  28.063  1.00  0.00     0.014 A 
ATOM     32  C   UNL A   1      36.718  32.244  28.318  1.00  0.00     0.010 A 
ATOM     33  C   UNL A   1      35.961  30.001  28.783  1.00  0.00     0.010 A 
ATOM     34  C   UNL A   1      36.944  30.991  28.911  1.00  0.00    -0.014 A 
BRANCH  34  35
ATOM     35  C   UNL A   1      38.181  30.659  29.672  1.00  0.00     0.031 A 
ATOM     36  C   UNL A   1      39.179  29.690  29.081  1.00  0.00     0.074 A 
ATOM     37  C   UNL A   1      38.336  31.090  30.942  1.00  0.00     0.049 A 
ATOM     38  N   UNL A   1      40.204  29.109  29.647  1.00  0.00    -0.248 NA
ATOM     39  C   UNL A   1      38.949  29.260  27.689  1.00  0.00     0.031 C 
ATOM     40  C   UNL A   1      37.389  31.929  31.682  1.00  0.00     0.029 A 
ATOM     41  N   UNL A   1      39.337  30.850  31.851  1.00  0.00    -0.354 N 
ATOM     42  C   UNL A   1      40.683  28.195  28.713  1.00  0.00     0.074 A 
ATOM     43  C   UNL A   1      39.800  28.255  27.571  1.00  0.00     0.031 C 
ATOM     44  C   UNL A   1      37.866  32.153  32.918  1.00  0.00     0.029 A 
ATOM     45  C   UNL A   1      39.132  31.447  33.074  1.00  0.00     0.049 A 
ATOM     46  H   UNL A   1      40.129  30.301  31.647  1.00  0.00     0.167 HD
ATOM     47  C   UNL A   1      41.785  27.413  28.773  1.00  0.00     0.034 A 
ATOM     48  C   UNL A   1      39.882  31.428  34.195  1.00  0.00     0.034 A 
ATOM     49  C   UNL A   1      42.727  27.453  29.855  1.00  0.00     0.049 A 
ATOM     50  C   UNL A   1      41.179  30.665  34.185  1.00  0.00     0.074 A 
ATOM     51  C   UNL A   1      43.948  26.811  29.962  1.00  0.00     0.029 A 
ATOM     52  N   UNL A   1      42.564  28.201  31.011  1.00  0.00    -0.354 N 
ATOM     53  N   UNL A   1      41.696  29.930  33.230  1.00  0.00    -0.248 NA
ATOM     54  C   UNL A   1      42.016  30.757  35.390  1.00  0.00     0.031 C 
ATOM     55  C   UNL A   1      44.525  27.175  31.182  1.00  0.00     0.029 A 
ATOM     56  C   UNL A   1      43.668  28.050  31.831  1.00  0.00     0.049 A 
ATOM     57  H   UNL A   1      41.780  28.759  31.218  1.00  0.00     0.167 HD
ATOM     58  C   UNL A   1      42.931  29.502  33.702  1.00  0.00     0.074 A 
ATOM     59  C   UNL A   1      43.095  30.078  35.022  1.00  0.00     0.031 C 
ATOM     60  C   UNL A   1      43.839  28.689  33.110  1.00  0.00     0.034 A 
BRANCH  47  61
ATOM     61  C   UNL A   1      42.080  26.527  27.589  1.00  0.00     0.023 A 
ATOM     62  C   UNL A   1      42.749  27.064  26.470  1.00  0.00     0.012 A 
ATOM     63  C   UNL A   1      41.729  25.163  27.591  1.00  0.00     0.148 A 
ATOM     64  C   UNL A   1      43.018  26.276  25.352  1.00  0.00     0.002 A 
ATOM     65  C   UNL A   1      42.045  24.371  26.492  1.00  0.00     0.091 A 
ATOM     66  F   UNL A   1      41.076  24.669  28.653  1.00  0.00    -0.205 F 
ATOM     67  C   UNL A   1      42.674  24.929  25.367  1.00  0.00     0.022 A 
BRANCH  65  68
ATOM     68  S   UNL A   1      41.720  22.604  26.446  1.00  0.00     0.127 S 
ATOM     69  O   UNL A   1      40.258  22.574  26.419  1.00  0.00    -0.237 OA
ATOM     70  O   UNL A   1      42.359  22.206  25.190  1.00  0.00    -0.237 OA
ATOM     71  O   UNL A   1      42.337  22.051  27.643  1.00  0.00    -0.744 OA
ENDBRANCH  65  68
ENDBRANCH  47  61
BRANCH  48  72
ATOM     72  C   UNL A   1      39.478  32.242  35.377  1.00  0.00     0.023 A 
ATOM     73  C   UNL A   1      38.695  31.642  36.384  1.00  0.00     0.012 A 
ATOM     74  C   UNL A   1      39.885  33.581  35.534  1.00  0.00     0.148 A 
ATOM     75  C   UNL A   1      38.297  32.368  37.508  1.00  0.00     0.002 A 
ATOM     76  C   UNL A   1      39.527  34.283  36.681  1.00  0.00     0.091 A 
ATOM     77  F   UNL A   1      40.620  34.140  34.562  1.00  0.00    -0.205 F 
ATOM     78  C   UNL A   1      38.721  33.684  37.661  1.00  0.00     0.022 A 
BRANCH  76  79
ATOM     79  S   UNL A   1      40.133  35.941  37.022  1.00  0.00     0.127 S 
ATOM     80  O   UNL A   1      41.576  35.724  37.088  1.00  0.00    -0.237 OA
ATOM     81  O   UNL A   1      39.674  36.680  35.846  1.00  0.00    -0.237 OA
ATOM     82  O   UNL A   1      39.491  36.339  38.267  1.00  0.00    -0.744 OA
ENDBRANCH  76  79
ENDBRANCH  48  72
BRANCH  60  83
ATOM     83  C   UNL A   1      45.112  28.399  33.857  1.00  0.00     0.023 A 
ATOM     84  C   UNL A   1      45.186  27.267  34.692  1.00  0.00     0.012 A 
ATOM     85  C   UNL A   1      46.258  29.191  33.657  1.00  0.00     0.148 A 
ATOM     86  C   UNL A   1      46.378  26.942  35.337  1.00  0.00     0.002 A 
ATOM     87  C   UNL A   1      47.454  28.835  34.267  1.00  0.00     0.091 A 
ATOM     88  F   UNL A   1      46.160  30.275  32.873  1.00  0.00    -0.205 F 
ATOM     89  C   UNL A   1      47.513  27.718  35.114  1.00  0.00     0.022 A 
BRANCH  87  90
ATOM     90  S   UNL A   1      48.987  29.719  33.957  1.00  0.00     0.127 S 
ATOM     91  O   UNL A   1      49.946  28.935  34.733  1.00  0.00    -0.237 OA
ATOM     92  O   UNL A   1      49.131  29.596  32.506  1.00  0.00    -0.237 OA
ATOM     93  O   UNL A   1      48.763  31.081  34.425  1.00  0.00    -0.744 OA
ENDBRANCH  87  90
ENDBRANCH  60  83
ENDBRANCH  34  35
ENDBRANCH  26  29
ENDBRANCH  24  25
ENDBRANCH  23  24
ENDBRANCH  22  23
ENDBRANCH   1  22
TORSDOF 20
ENDMDL
MODEL 3
REMARK VINA RESULT:     -10.9      3.756      9.124
REMARK SMILES CC(C)(C)[C@H](CCC(=O)NCCCCNC(=O)c1ccc(-c2c3nc(c(-c4cccc(S(=O)(=O)[O-])c4F)c4ccc([nH]4)c(-c4cccc(S(=O)(=O)[O-])c4F)c4nc(c(-c5cccc(S(=O)(=O)[O-])c5F)c5ccc2[nH]5)C=C4)C=C3)cc1)CC[NH+]1CCOCC1
REMARK SMILES IDX 11 1 10 2 8 3 9 4 7 6 6 7 5 8 2 9 1 10 3 11 4 12 81 13 82 14
REMARK SMILES IDX 83 15 84 16 88 17 85 19 87 20 86 21 12 22 13 23 14 24 15 25
REMARK SMILES IDX 16 26 17 28 18 29 19 30 80 31 20 32 79 33 21 34 22 35 23 36
REMARK SMILES IDX 73 37 24 38 78 39 72 40 74 41 25 42 77 43 71 44 70 45 26 47
REMARK SMILES IDX 58 48 38 49 57 50 39 51 42 52 56 53 75 54 40 55 41 56 55 58
REMARK SMILES IDX 76 59 43 60 27 61 28 62 36 63 29 64 31 65 37 66 30 67 32 68
REMARK SMILES IDX 33 69 34 70 35 71 59 72 60 73 68 74 61 75 63 76 69 77 62 78
REMARK SMILES IDX 64 79 65 80 66 81 67 82 44 83 45 84 53 85 46 86 48 87 54 88
REMARK SMILES IDX 47 89 49 90 50 91 51 92 52 93
REMARK H PARENT 10 5 83 18 15 27 74 46 42 57
REMARK Flexibility Score: inf
ROOT
ATOM      1  C   UNL A   1      37.762  22.518  25.743  1.00  0.00     0.116 C 
ENDROOT
BRANCH   1   2
ATOM      2  N   UNL A   1      37.450  22.417  24.330  1.00  0.00    -0.356 N 
ATOM      3  C   UNL A   1      36.477  23.010  23.585  1.00  0.00     0.220 C 
ATOM      4  O   UNL A   1      36.548  22.935  22.358  1.00  0.00    -0.275 OA
ATOM      5  H   UNL A   1      38.042  21.815  23.824  1.00  0.00     0.163 HD
BRANCH   3   6
ATOM      6  C   UNL A   1      35.324  23.749  24.242  1.00  0.00     0.100 C 
BRANCH   6   7
ATOM      7  C   UNL A   1      33.958  23.093  23.964  1.00  0.00     0.014 C 
BRANCH   7   8
ATOM      8  C   UNL A   1      33.449  22.151  25.080  1.00  0.00     0.000 C 
BRANCH   8   9
ATOM      9  C   UNL A   1      32.502  22.829  26.188  1.00  0.00    -0.035 C 
ATOM     10  C   UNL A   1      31.008  22.509  25.965  1.00  0.00     0.011 C 
ATOM     11  C   UNL A   1      32.610  24.367  26.268  1.00  0.00     0.011 C 
ATOM     12  C   UNL A   1      32.881  22.295  27.592  1.00  0.00     0.011 C 
ENDBRANCH   8   9
BRANCH   8  13
ATOM     13  C   UNL A   1      32.786  20.857  24.502  1.00  0.00     0.065 C 
BRANCH  13  14
ATOM     14  C   UNL A   1      33.148  19.422  24.965  1.00  0.00     0.262 C 
BRANCH  14  15
ATOM     15  N   UNL A   1      32.445  18.219  24.521  1.00  0.00    -0.331 N 
ATOM     16  C   UNL A   1      32.565  17.106  25.502  1.00  0.00     0.291 C 
ATOM     17  C   UNL A   1      32.780  17.665  23.210  1.00  0.00     0.291 C 
ATOM     18  H   UNL A   1      31.494  18.582  24.442  1.00  0.00     0.348 HD
ATOM     19  C   UNL A   1      33.899  16.328  25.408  1.00  0.00     0.221 C 
ATOM     20  C   UNL A   1      34.135  16.958  23.152  1.00  0.00     0.221 C 
ATOM     21  O   UNL A   1      34.176  15.872  24.080  1.00  0.00    -0.370 OA
ENDBRANCH  14  15
ENDBRANCH  13  14
ENDBRANCH   8  13
ENDBRANCH   7   8
ENDBRANCH   6   7
ENDBRANCH   3   6
ENDBRANCH   1   2
BRANCH   1  22
ATOM     22  C   UNL A   1      39.052  21.809  26.149  1.00  0.00     0.023 C 
BRANCH  22  23
ATOM     23  C   UNL A   1      39.266  20.462  25.475  1.00  0.00     0.023 C 
BRANCH  23  24
ATOM     24  C   UNL A   1      39.967  19.470  26.387  1.00  0.00     0.116 C 
BRANCH  24  25
ATOM     25  N   UNL A   1      41.234  18.916  25.914  1.00  0.00    -0.352 N 
ATOM     26  C   UNL A   1      42.452  19.575  25.843  1.00  0.00     0.251 C 
ATOM     27  H   UNL A   1      41.222  17.977  25.616  1.00  0.00     0.163 HD
ATOM     28  O   UNL A   1      43.443  19.022  25.376  1.00  0.00    -0.269 OA
BRANCH  26  29
ATOM     29  C   UNL A   1      42.509  20.983  26.300  1.00  0.00     0.039 A 
ATOM     30  C   UNL A   1      42.685  21.280  27.653  1.00  0.00     0.014 A 
ATOM     31  C   UNL A   1      42.554  22.000  25.351  1.00  0.00     0.014 A 
ATOM     32  C   UNL A   1      43.036  22.583  28.028  1.00  0.00     0.010 A 
ATOM     33  C   UNL A   1      43.069  23.235  25.705  1.00  0.00     0.010 A 
ATOM     34  C   UNL A   1      43.305  23.553  27.049  1.00  0.00    -0.014 A 
BRANCH  34  35
ATOM     35  C   UNL A   1      43.831  24.910  27.368  1.00  0.00     0.031 A 
ATOM     36  C   UNL A   1      42.901  25.947  27.955  1.00  0.00     0.074 A 
ATOM     37  C   UNL A   1      45.077  25.264  26.991  1.00  0.00     0.049 A 
ATOM     38  N   UNL A   1      43.088  27.231  28.116  1.00  0.00    -0.248 NA
ATOM     39  C   UNL A   1      41.553  25.493  28.345  1.00  0.00     0.031 C 
ATOM     40  C   UNL A   1      46.040  24.401  26.301  1.00  0.00     0.029 A 
ATOM     41  N   UNL A   1      45.739  26.463  27.105  1.00  0.00    -0.354 N 
ATOM     42  C   UNL A   1      41.866  27.740  28.543  1.00  0.00     0.074 A 
ATOM     43  C   UNL A   1      40.930  26.640  28.557  1.00  0.00     0.031 C 
ATOM     44  C   UNL A   1      47.172  25.087  26.077  1.00  0.00     0.029 A 
ATOM     45  C   UNL A   1      47.009  26.449  26.573  1.00  0.00     0.049 A 
ATOM     46  H   UNL A   1      45.342  27.258  27.528  1.00  0.00     0.167 HD
ATOM     47  C   UNL A   1      41.557  28.997  28.940  1.00  0.00     0.034 A 
ATOM     48  C   UNL A   1      47.936  27.425  26.494  1.00  0.00     0.034 A 
ATOM     49  C   UNL A   1      42.522  30.054  29.045  1.00  0.00     0.049 A 
ATOM     50  C   UNL A   1      47.615  28.776  27.075  1.00  0.00     0.074 A 
ATOM     51  C   UNL A   1      42.356  31.325  29.564  1.00  0.00     0.029 A 
ATOM     52  N   UNL A   1      43.846  29.951  28.648  1.00  0.00    -0.354 N 
ATOM     53  N   UNL A   1      46.500  29.195  27.623  1.00  0.00    -0.248 NA
ATOM     54  C   UNL A   1      48.690  29.779  27.063  1.00  0.00     0.031 C 
ATOM     55  C   UNL A   1      43.584  31.991  29.483  1.00  0.00     0.029 A 
ATOM     56  C   UNL A   1      44.514  31.131  28.923  1.00  0.00     0.049 A 
ATOM     57  H   UNL A   1      44.251  29.156  28.232  1.00  0.00     0.167 HD
ATOM     58  C   UNL A   1      46.748  30.493  28.052  1.00  0.00     0.074 A 
ATOM     59  C   UNL A   1      48.128  30.785  27.720  1.00  0.00     0.031 C 
ATOM     60  C   UNL A   1      45.906  31.373  28.646  1.00  0.00     0.034 A 
BRANCH  47  61
ATOM     61  C   UNL A   1      40.141  29.263  29.384  1.00  0.00     0.023 A 
ATOM     62  C   UNL A   1      39.165  29.606  28.424  1.00  0.00     0.012 A 
ATOM     63  C   UNL A   1      39.764  29.144  30.735  1.00  0.00     0.148 A 
ATOM     64  C   UNL A   1      37.853  29.877  28.806  1.00  0.00     0.002 A 
ATOM     65  C   UNL A   1      38.440  29.367  31.102  1.00  0.00     0.091 A 
ATOM     66  F   UNL A   1      40.705  28.836  31.640  1.00  0.00    -0.205 F 
ATOM     67  C   UNL A   1      37.489  29.749  30.142  1.00  0.00     0.022 A 
BRANCH  65  68
ATOM     68  S   UNL A   1      37.851  29.147  32.785  1.00  0.00     0.127 S 
ATOM     69  O   UNL A   1      36.547  29.807  32.729  1.00  0.00    -0.237 OA
ATOM     70  O   UNL A   1      37.790  27.689  32.901  1.00  0.00    -0.237 OA
ATOM     71  O   UNL A   1      38.840  29.783  33.643  1.00  0.00    -0.744 OA
ENDBRANCH  65  68
ENDBRANCH  47  61
BRANCH  48  72
ATOM     72  C   UNL A   1      49.288  27.128  25.941  1.00  0.00     0.023 A 
ATOM     73  C   UNL A   1      50.250  26.524  26.776  1.00  0.00     0.012 A 
ATOM     74  C   UNL A   1      49.621  27.401  24.601  1.00  0.00     0.148 A 
ATOM     75  C   UNL A   1      51.527  26.227  26.298  1.00  0.00     0.002 A 
ATOM     76  C   UNL A   1      50.880  27.056  24.116  1.00  0.00     0.091 A 
ATOM     77  F   UNL A   1      48.699  27.986  23.824  1.00  0.00    -0.205 F 
ATOM     78  C   UNL A   1      51.838  26.484  24.966  1.00  0.00     0.022 A 
BRANCH  76  79
ATOM     79  S   UNL A   1      51.326  27.235  22.384  1.00  0.00     0.127 S 
ATOM     80  O   UNL A   1      51.528  28.678  22.275  1.00  0.00    -0.237 OA
ATOM     81  O   UNL A   1      52.547  26.434  22.300  1.00  0.00    -0.237 OA
ATOM     82  O   UNL A   1      50.201  26.692  21.636  1.00  0.00    -0.744 OA
ENDBRANCH  76  79
ENDBRANCH  48  72
BRANCH  60  83
ATOM     83  C   UNL A   1      46.454  32.724  29.017  1.00  0.00     0.023 A 
ATOM     84  C   UNL A   1      47.200  32.871  30.203  1.00  0.00     0.012 A 
ATOM     85  C   UNL A   1      46.312  33.821  28.146  1.00  0.00     0.148 A 
ATOM     86  C   UNL A   1      47.775  34.098  30.528  1.00  0.00     0.002 A 
ATOM     87  C   UNL A   1      46.926  35.028  28.454  1.00  0.00     0.091 A 
ATOM     88  F   UNL A   1      45.581  33.664  27.031  1.00  0.00    -0.205 F 
ATOM     89  C   UNL A   1      47.649  35.171  29.648  1.00  0.00     0.022 A 
BRANCH  87  90
ATOM     90  S   UNL A   1      46.899  36.431  27.332  1.00  0.00     0.127 S 
ATOM     91  O   UNL A   1      48.074  37.184  27.766  1.00  0.00    -0.237 OA
ATOM     92  O   UNL A   1      47.035  35.787  26.024  1.00  0.00    -0.237 OA
ATOM     93  O   UNL A   1      45.616  37.087  27.547  1.00  0.00    -0.744 OA
ENDBRANCH  87  90
ENDBRANCH  60  83
ENDBRANCH  34  35
ENDBRANCH  26  29
ENDBRANCH  24  25
ENDBRANCH  23  24
ENDBRANCH  22  23
ENDBRANCH   1  22
TORSDOF 20
ENDMDL
