MODEL 1
REMARK VINA RESULT:     -12.0      0.000      0.000
REMARK SMILES Cc1n[nH]c(C(=O)N[C@H](C(=O)NCCCCNC(=O)c2ccc(-c3c4nc(c(-c5cccc(S(=O)(=O)[O-])c5F)c5ccc([nH]5)c(-c5cccc(S(=O)(=O)[O-])c5F)c5nc(c(-c6cccc(S(=O)(=O)[O-])c6F)c6ccc3[nH]6)C=C5)C=C4)cc2)C(C)C)n1
REMARK SMILES IDX 15 1 14 2 13 3 12 4 10 5 11 6 9 8 8 9 6 10 7 11 5 13 1 14
REMARK SMILES IDX 2 15 3 16 86 17 4 18 83 20 84 21 85 22 16 23 17 24 18 25
REMARK SMILES IDX 19 27 20 28 21 29 82 30 22 31 81 32 23 33 24 34 25 35 75 36
REMARK SMILES IDX 26 37 80 38 74 39 76 40 27 41 79 42 73 43 72 44 28 46 60 47
REMARK SMILES IDX 40 48 59 49 41 50 44 51 58 52 77 53 42 54 43 55 57 57 78 58
REMARK SMILES IDX 45 59 29 60 30 61 38 62 31 63 33 64 39 65 32 66 34 67 35 68
REMARK SMILES IDX 36 69 37 70 61 71 62 72 70 73 63 74 65 75 71 76 64 77 66 78
REMARK SMILES IDX 67 79 68 80 69 81 46 82 47 83 55 84 48 85 50 86 56 87 49 88
REMARK SMILES IDX 51 89 52 90 53 91 54 92
REMARK H PARENT 12 7 8 12 4 19 17 26 76 45 44 56
REMARK Flexibility Score: inf
ROOT
ATOM      1  C   UNL A   1      31.248  32.059  26.507  1.00  0.00     0.023 C 
ENDROOT
BRANCH   1   2
ATOM      2  C   UNL A   1      31.457  30.673  25.880  1.00  0.00     0.023 C 
BRANCH   2   3
ATOM      3  C   UNL A   1      32.713  29.898  26.310  1.00  0.00     0.116 C 
BRANCH   3   4
ATOM      4  N   UNL A   1      33.649  29.595  25.241  1.00  0.00    -0.354 N 
ATOM      5  C   UNL A   1      33.630  28.573  24.330  1.00  0.00     0.242 C 
ATOM      6  O   UNL A   1      34.399  28.587  23.371  1.00  0.00    -0.273 OA
ATOM      7  H   UNL A   1      34.409  30.216  25.159  1.00  0.00     0.163 HD
BRANCH   5   8
ATOM      8  C   UNL A   1      32.635  27.417  24.526  1.00  0.00     0.174 C 
BRANCH   8   9
ATOM      9  N   UNL A   1      32.302  26.852  23.221  1.00  0.00    -0.337 N 
ATOM     10  C   UNL A   1      31.399  27.174  22.232  1.00  0.00     0.289 C 
ATOM     11  O   UNL A   1      31.353  26.373  21.294  1.00  0.00    -0.266 OA
ATOM     12  H   UNL A   1      32.848  26.064  22.995  1.00  0.00     0.164 HD
BRANCH  10  13
ATOM     13  C   UNL A   1      30.540  28.352  22.277  1.00  0.00     0.214 A 
ATOM     14  C   UNL A   1      27.503  30.032  23.047  1.00  0.00     0.092 C 
ATOM     15  C   UNL A   1      28.846  29.602  22.619  1.00  0.00     0.148 A 
ATOM     16  N   UNL A   1      29.709  30.436  22.038  1.00  0.00    -0.159 NA
ATOM     17  N   UNL A   1      29.322  28.335  22.806  1.00  0.00    -0.207 NA
ATOM     18  N   UNL A   1      30.759  29.626  21.845  1.00  0.00    -0.255 N 
ATOM     19  H   UNL A   1      31.603  29.922  21.432  1.00  0.00     0.192 HD
ENDBRANCH  10  13
ENDBRANCH   8   9
BRANCH   8  20
ATOM     20  C   UNL A   1      33.242  26.350  25.470  1.00  0.00     0.015 C 
ATOM     21  C   UNL A   1      32.185  25.823  26.449  1.00  0.00     0.010 C 
ATOM     22  C   UNL A   1      33.825  25.167  24.690  1.00  0.00     0.010 C 
ENDBRANCH   8  20
ENDBRANCH   5   8
ENDBRANCH   3   4
ENDBRANCH   2   3
ENDBRANCH   1   2
BRANCH   1  23
ATOM     23  C   UNL A   1      32.454  32.594  27.260  1.00  0.00     0.116 C 
BRANCH  23  24
ATOM     24  N   UNL A   1      32.330  34.016  27.616  1.00  0.00    -0.352 N 
ATOM     25  C   UNL A   1      32.988  34.707  28.628  1.00  0.00     0.251 C 
ATOM     26  H   UNL A   1      31.705  34.544  27.068  1.00  0.00     0.163 HD
ATOM     27  O   UNL A   1      32.544  35.749  29.074  1.00  0.00    -0.269 OA
BRANCH  25  28
ATOM     28  C   UNL A   1      34.256  34.149  29.129  1.00  0.00     0.039 A 
ATOM     29  C   UNL A   1      34.358  33.439  30.331  1.00  0.00     0.014 A 
ATOM     30  C   UNL A   1      35.358  34.316  28.304  1.00  0.00     0.014 A 
ATOM     31  C   UNL A   1      35.577  32.837  30.645  1.00  0.00     0.010 A 
ATOM     32  C   UNL A   1      36.451  33.525  28.487  1.00  0.00     0.010 A 
ATOM     33  C   UNL A   1      36.613  32.880  29.704  1.00  0.00    -0.014 A 
BRANCH  33  34
ATOM     34  C   UNL A   1      37.889  32.207  29.893  1.00  0.00     0.031 A 
ATOM     35  C   UNL A   1      37.937  30.828  29.344  1.00  0.00     0.074 A 
ATOM     36  C   UNL A   1      38.990  32.911  30.243  1.00  0.00     0.049 A 
ATOM     37  N   UNL A   1      38.038  29.721  30.002  1.00  0.00    -0.248 NA
ATOM     38  C   UNL A   1      37.672  30.639  27.908  1.00  0.00     0.031 C 
ATOM     39  C   UNL A   1      39.103  34.367  30.446  1.00  0.00     0.029 A 
ATOM     40  N   UNL A   1      40.286  32.510  30.306  1.00  0.00    -0.354 N 
ATOM     41  C   UNL A   1      38.123  28.722  29.033  1.00  0.00     0.074 A 
ATOM     42  C   UNL A   1      37.630  29.309  27.818  1.00  0.00     0.031 C 
ATOM     43  C   UNL A   1      40.395  34.742  30.325  1.00  0.00     0.029 A 
ATOM     44  C   UNL A   1      41.211  33.550  30.219  1.00  0.00     0.049 A 
ATOM     45  H   UNL A   1      40.549  31.566  30.404  1.00  0.00     0.167 HD
ATOM     46  C   UNL A   1      38.875  27.604  29.241  1.00  0.00     0.034 A 
ATOM     47  C   UNL A   1      42.546  33.434  30.009  1.00  0.00     0.034 A 
ATOM     48  C   UNL A   1      39.266  27.501  30.628  1.00  0.00     0.049 A 
ATOM     49  C   UNL A   1      42.916  32.042  30.346  1.00  0.00     0.074 A 
ATOM     50  C   UNL A   1      38.602  27.438  31.836  1.00  0.00     0.029 A 
ATOM     51  N   UNL A   1      40.559  27.866  30.924  1.00  0.00    -0.354 N 
ATOM     52  N   UNL A   1      42.827  31.551  31.550  1.00  0.00    -0.248 NA
ATOM     53  C   UNL A   1      42.931  31.066  29.269  1.00  0.00     0.031 C 
ATOM     54  C   UNL A   1      39.389  28.226  32.727  1.00  0.00     0.029 A 
ATOM     55  C   UNL A   1      40.528  28.657  32.040  1.00  0.00     0.049 A 
ATOM     56  H   UNL A   1      41.364  27.606  30.422  1.00  0.00     0.167 HD
ATOM     57  C   UNL A   1      42.296  30.281  31.361  1.00  0.00     0.074 A 
ATOM     58  C   UNL A   1      42.490  29.997  29.939  1.00  0.00     0.031 C 
ATOM     59  C   UNL A   1      41.476  29.717  32.298  1.00  0.00     0.034 A 
BRANCH  46  60
ATOM     60  C   UNL A   1      39.621  26.820  28.175  1.00  0.00     0.023 A 
ATOM     61  C   UNL A   1      39.449  25.414  28.189  1.00  0.00     0.012 A 
ATOM     62  C   UNL A   1      40.674  27.319  27.375  1.00  0.00     0.148 A 
ATOM     63  C   UNL A   1      40.329  24.554  27.527  1.00  0.00     0.002 A 
ATOM     64  C   UNL A   1      41.504  26.462  26.658  1.00  0.00     0.091 A 
ATOM     65  F   UNL A   1      40.977  28.617  27.388  1.00  0.00    -0.205 F 
ATOM     66  C   UNL A   1      41.361  25.079  26.760  1.00  0.00     0.022 A 
BRANCH  64  67
ATOM     67  S   UNL A   1      42.831  27.087  25.617  1.00  0.00     0.127 S 
ATOM     68  O   UNL A   1      43.704  27.714  26.605  1.00  0.00    -0.237 OA
ATOM     69  O   UNL A   1      43.348  25.854  25.023  1.00  0.00    -0.237 OA
ATOM     70  O   UNL A   1      42.194  27.987  24.665  1.00  0.00    -0.744 OA
ENDBRANCH  64  67
ENDBRANCH  46  60
BRANCH  47  71
ATOM     71  C   UNL A   1      43.468  34.338  29.280  1.00  0.00     0.023 A 
ATOM     72  C   UNL A   1      44.193  35.320  29.982  1.00  0.00     0.012 A 
ATOM     73  C   UNL A   1      43.848  34.054  27.950  1.00  0.00     0.148 A 
ATOM     74  C   UNL A   1      45.280  35.978  29.388  1.00  0.00     0.002 A 
ATOM     75  C   UNL A   1      44.922  34.715  27.361  1.00  0.00     0.091 A 
ATOM     76  F   UNL A   1      43.215  33.070  27.296  1.00  0.00    -0.205 F 
ATOM     77  C   UNL A   1      45.649  35.670  28.082  1.00  0.00     0.022 A 
BRANCH  75  78
ATOM     78  S   UNL A   1      45.469  34.344  25.689  1.00  0.00     0.127 S 
ATOM     79  O   UNL A   1      44.222  34.457  24.933  1.00  0.00    -0.237 OA
ATOM     80  O   UNL A   1      46.434  35.412  25.446  1.00  0.00    -0.237 OA
ATOM     81  O   UNL A   1      46.018  32.994  25.743  1.00  0.00    -0.744 OA
ENDBRANCH  75  78
ENDBRANCH  47  71
BRANCH  59  82
ATOM     82  C   UNL A   1      41.365  30.393  33.642  1.00  0.00     0.023 A 
ATOM     83  C   UNL A   1      42.363  30.287  34.635  1.00  0.00     0.012 A 
ATOM     84  C   UNL A   1      40.316  31.305  33.832  1.00  0.00     0.148 A 
ATOM     85  C   UNL A   1      42.303  31.061  35.798  1.00  0.00     0.002 A 
ATOM     86  C   UNL A   1      40.285  32.106  34.965  1.00  0.00     0.091 A 
ATOM     87  F   UNL A   1      39.380  31.398  32.875  1.00  0.00    -0.205 F 
ATOM     88  C   UNL A   1      41.271  31.981  35.956  1.00  0.00     0.022 A 
BRANCH  86  89
ATOM     89  S   UNL A   1      39.055  33.397  35.162  1.00  0.00     0.127 S 
ATOM     90  O   UNL A   1      39.433  34.340  34.112  1.00  0.00    -0.237 OA
ATOM     91  O   UNL A   1      37.804  32.677  34.917  1.00  0.00    -0.237 OA
ATOM     92  O   UNL A   1      39.201  33.885  36.528  1.00  0.00    -0.744 OA
ENDBRANCH  86  89
ENDBRANCH  59  82
ENDBRANCH  33  34
ENDBRANCH  25  28
ENDBRANCH  23  24
ENDBRANCH   1  23
TORSDOF 17
ENDMDL
MODEL 2
REMARK VINA RESULT:     -11.7      1.510      1.745
REMARK SMILES Cc1n[nH]c(C(=O)N[C@H](C(=O)NCCCCNC(=O)c2ccc(-c3c4nc(c(-c5cccc(S(=O)(=O)[O-])c5F)c5ccc([nH]5)c(-c5cccc(S(=O)(=O)[O-])c5F)c5nc(c(-c6cccc(S(=O)(=O)[O-])c6F)c6ccc3[nH]6)C=C5)C=C4)cc2)C(C)C)n1
REMARK SMILES IDX 15 1 14 2 13 3 12 4 10 5 11 6 9 8 8 9 6 10 7 11 5 13 1 14
REMARK SMILES IDX 2 15 3 16 86 17 4 18 83 20 84 21 85 22 16 23 17 24 18 25
REMARK SMILES IDX 19 27 20 28 21 29 82 30 22 31 81 32 23 33 24 34 25 35 75 36
REMARK SMILES IDX 26 37 80 38 74 39 76 40 27 41 79 42 73 43 72 44 28 46 60 47
REMARK SMILES IDX 40 48 59 49 41 50 44 51 58 52 77 53 42 54 43 55 57 57 78 58
REMARK SMILES IDX 45 59 29 60 30 61 38 62 31 63 33 64 39 65 32 66 34 67 35 68
REMARK SMILES IDX 36 69 37 70 61 71 62 72 70 73 63 74 65 75 71 76 64 77 66 78
REMARK SMILES IDX 67 79 68 80 69 81 46 82 47 83 55 84 48 85 50 86 56 87 49 88
REMARK SMILES IDX 51 89 52 90 53 91 54 92
REMARK H PARENT 12 7 8 12 4 19 17 26 76 45 44 56
REMARK Flexibility Score: inf
ROOT
ATOM      1  C   UNL A   1      31.422  32.477  26.497  1.00  0.00     0.023 C 
ENDROOT
BRANCH   1   2
ATOM      2  C   UNL A   1      31.416  30.972  26.195  1.00  0.00     0.023 C 
BRANCH   2   3
ATOM      3  C   UNL A   1      32.646  30.167  26.645  1.00  0.00     0.116 C 
BRANCH   3   4
ATOM      4  N   UNL A   1      33.552  29.774  25.579  1.00  0.00    -0.354 N 
ATOM      5  C   UNL A   1      33.399  28.813  24.616  1.00  0.00     0.242 C 
ATOM      6  O   UNL A   1      34.187  28.754  23.674  1.00  0.00    -0.273 OA
ATOM      7  H   UNL A   1      34.401  30.273  25.544  1.00  0.00     0.163 HD
BRANCH   5   8
ATOM      8  C   UNL A   1      32.233  27.818  24.733  1.00  0.00     0.174 C 
BRANCH   8   9
ATOM      9  N   UNL A   1      31.931  27.284  23.407  1.00  0.00    -0.337 N 
ATOM     10  C   UNL A   1      31.099  27.667  22.379  1.00  0.00     0.289 C 
ATOM     11  O   UNL A   1      31.052  26.877  21.432  1.00  0.00    -0.266 OA
ATOM     12  H   UNL A   1      32.440  26.466  23.201  1.00  0.00     0.164 HD
BRANCH  10  13
ATOM     13  C   UNL A   1      30.311  28.894  22.394  1.00  0.00     0.214 A 
ATOM     14  C   UNL A   1      27.640  30.931  23.560  1.00  0.00     0.092 C 
ATOM     15  C   UNL A   1      28.804  30.318  22.895  1.00  0.00     0.148 A 
ATOM     16  N   UNL A   1      29.490  30.946  21.940  1.00  0.00    -0.159 NA
ATOM     17  N   UNL A   1      29.286  29.081  23.218  1.00  0.00    -0.207 NA
ATOM     18  N   UNL A   1      30.429  30.033  21.655  1.00  0.00    -0.255 N 
ATOM     19  H   UNL A   1      31.133  30.171  20.980  1.00  0.00     0.192 HD
ENDBRANCH  10  13
ENDBRANCH   8   9
BRANCH   8  20
ATOM     20  C   UNL A   1      32.595  26.692  25.732  1.00  0.00     0.015 C 
ATOM     21  C   UNL A   1      31.339  25.932  26.177  1.00  0.00     0.010 C 
ATOM     22  C   UNL A   1      33.587  25.693  25.127  1.00  0.00     0.010 C 
ENDBRANCH   8  20
ENDBRANCH   5   8
ENDBRANCH   3   4
ENDBRANCH   2   3
ENDBRANCH   1   2
BRANCH   1  23
ATOM     23  C   UNL A   1      32.610  32.946  27.322  1.00  0.00     0.116 C 
BRANCH  23  24
ATOM     24  N   UNL A   1      32.445  34.308  27.851  1.00  0.00    -0.352 N 
ATOM     25  C   UNL A   1      33.077  34.883  28.948  1.00  0.00     0.251 C 
ATOM     26  H   UNL A   1      31.809  34.884  27.368  1.00  0.00     0.163 HD
ATOM     27  O   UNL A   1      32.603  35.849  29.517  1.00  0.00    -0.269 OA
BRANCH  25  28
ATOM     28  C   UNL A   1      34.357  34.300  29.387  1.00  0.00     0.039 A 
ATOM     29  C   UNL A   1      34.486  33.515  30.538  1.00  0.00     0.014 A 
ATOM     30  C   UNL A   1      35.443  34.525  28.553  1.00  0.00     0.014 A 
ATOM     31  C   UNL A   1      35.713  32.899  30.789  1.00  0.00     0.010 A 
ATOM     32  C   UNL A   1      36.542  33.729  28.663  1.00  0.00     0.010 A 
ATOM     33  C   UNL A   1      36.730  33.008  29.833  1.00  0.00    -0.014 A 
BRANCH  33  34
ATOM     34  C   UNL A   1      38.012  32.331  29.952  1.00  0.00     0.031 A 
ATOM     35  C   UNL A   1      38.024  30.949  29.408  1.00  0.00     0.074 A 
ATOM     36  C   UNL A   1      39.134  33.032  30.236  1.00  0.00     0.049 A 
ATOM     37  N   UNL A   1      38.157  29.845  30.064  1.00  0.00    -0.248 NA
ATOM     38  C   UNL A   1      37.678  30.756  27.989  1.00  0.00     0.031 C 
ATOM     39  C   UNL A   1      39.264  34.488  30.427  1.00  0.00     0.029 A 
ATOM     40  N   UNL A   1      40.430  32.625  30.229  1.00  0.00    -0.354 N 
ATOM     41  C   UNL A   1      38.184  28.841  29.096  1.00  0.00     0.074 A 
ATOM     42  C   UNL A   1      37.625  29.426  27.908  1.00  0.00     0.031 C 
ATOM     43  C   UNL A   1      40.549  34.856  30.232  1.00  0.00     0.029 A 
ATOM     44  C   UNL A   1      41.352  33.661  30.085  1.00  0.00     0.049 A 
ATOM     45  H   UNL A   1      40.694  31.681  30.316  1.00  0.00     0.167 HD
ATOM     46  C   UNL A   1      38.941  27.721  29.266  1.00  0.00     0.034 A 
ATOM     47  C   UNL A   1      42.673  33.538  29.801  1.00  0.00     0.034 A 
ATOM     48  C   UNL A   1      39.409  27.622  30.629  1.00  0.00     0.049 A 
ATOM     49  C   UNL A   1      43.056  32.146  30.123  1.00  0.00     0.074 A 
ATOM     50  C   UNL A   1      38.813  27.567  31.872  1.00  0.00     0.029 A 
ATOM     51  N   UNL A   1      40.718  27.983  30.851  1.00  0.00    -0.354 N 
ATOM     52  N   UNL A   1      43.033  31.660  31.332  1.00  0.00    -0.248 NA
ATOM     53  C   UNL A   1      43.006  31.166  29.051  1.00  0.00     0.031 C 
ATOM     54  C   UNL A   1      39.653  28.355  32.714  1.00  0.00     0.029 A 
ATOM     55  C   UNL A   1      40.753  28.778  31.963  1.00  0.00     0.049 A 
ATOM     56  H   UNL A   1      41.493  27.717  30.305  1.00  0.00     0.167 HD
ATOM     57  C   UNL A   1      42.487  30.392  31.179  1.00  0.00     0.074 A 
ATOM     58  C   UNL A   1      42.600  30.101  29.749  1.00  0.00     0.031 C 
ATOM     59  C   UNL A   1      41.718  29.836  32.163  1.00  0.00     0.034 A 
BRANCH  46  60
ATOM     60  C   UNL A   1      39.623  26.929  28.163  1.00  0.00     0.023 A 
ATOM     61  C   UNL A   1      39.368  25.536  28.136  1.00  0.00     0.012 A 
ATOM     62  C   UNL A   1      40.692  27.391  27.362  1.00  0.00     0.148 A 
ATOM     63  C   UNL A   1      40.185  24.648  27.431  1.00  0.00     0.002 A 
ATOM     64  C   UNL A   1      41.458  26.511  26.604  1.00  0.00     0.091 A 
ATOM     65  F   UNL A   1      41.072  28.668  27.410  1.00  0.00    -0.205 F 
ATOM     66  C   UNL A   1      41.235  25.135  26.665  1.00  0.00     0.022 A 
BRANCH  64  67
ATOM     67  S   UNL A   1      42.805  27.089  25.560  1.00  0.00     0.127 S 
ATOM     68  O   UNL A   1      43.708  27.671  26.549  1.00  0.00    -0.237 OA
ATOM     69  O   UNL A   1      43.267  25.842  24.953  1.00  0.00    -0.237 OA
ATOM     70  O   UNL A   1      42.199  28.023  24.620  1.00  0.00    -0.744 OA
ENDBRANCH  64  67
ENDBRANCH  46  60
BRANCH  47  71
ATOM     71  C   UNL A   1      43.556  34.435  29.018  1.00  0.00     0.023 A 
ATOM     72  C   UNL A   1      44.090  35.595  29.613  1.00  0.00     0.012 A 
ATOM     73  C   UNL A   1      44.100  34.009  27.786  1.00  0.00     0.148 A 
ATOM     74  C   UNL A   1      45.149  36.292  29.015  1.00  0.00     0.002 A 
ATOM     75  C   UNL A   1      45.147  34.708  27.192  1.00  0.00     0.091 A 
ATOM     76  F   UNL A   1      43.654  32.867  27.246  1.00  0.00    -0.205 F 
ATOM     77  C   UNL A   1      45.683  35.844  27.810  1.00  0.00     0.022 A 
BRANCH  75  78
ATOM     78  S   UNL A   1      45.901  34.167  25.652  1.00  0.00     0.127 S 
ATOM     79  O   UNL A   1      46.900  35.212  25.424  1.00  0.00    -0.237 OA
ATOM     80  O   UNL A   1      46.447  32.866  26.026  1.00  0.00    -0.237 OA
ATOM     81  O   UNL A   1      44.822  34.143  24.671  1.00  0.00    -0.744 OA
ENDBRANCH  75  78
ENDBRANCH  47  71
BRANCH  59  82
ATOM     82  C   UNL A   1      41.686  30.517  33.508  1.00  0.00     0.023 A 
ATOM     83  C   UNL A   1      40.632  31.368  33.908  1.00  0.00     0.012 A 
ATOM     84  C   UNL A   1      42.647  30.138  34.458  1.00  0.00     0.148 A 
ATOM     85  C   UNL A   1      40.554  31.844  35.221  1.00  0.00     0.002 A 
ATOM     86  C   UNL A   1      42.540  30.574  35.772  1.00  0.00     0.091 A 
ATOM     87  F   UNL A   1      43.637  29.323  34.062  1.00  0.00    -0.205 F 
ATOM     88  C   UNL A   1      41.500  31.435  36.156  1.00  0.00     0.022 A 
BRANCH  86  89
ATOM     89  S   UNL A   1      43.652  29.977  37.045  1.00  0.00     0.127 S 
ATOM     90  O   UNL A   1      43.349  28.549  37.069  1.00  0.00    -0.237 OA
ATOM     91  O   UNL A   1      44.966  30.317  36.498  1.00  0.00    -0.237 OA
ATOM     92  O   UNL A   1      43.305  30.713  38.256  1.00  0.00    -0.744 OA
ENDBRANCH  86  89
ENDBRANCH  59  82
ENDBRANCH  33  34
ENDBRANCH  25  28
ENDBRANCH  23  24
ENDBRANCH   1  23
TORSDOF 17
ENDMDL
MODEL 3
REMARK VINA RESULT:     -11.4      1.284      2.369
REMARK SMILES Cc1n[nH]c(C(=O)N[C@H](C(=O)NCCCCNC(=O)c2ccc(-c3c4nc(c(-c5cccc(S(=O)(=O)[O-])c5F)c5ccc([nH]5)c(-c5cccc(S(=O)(=O)[O-])c5F)c5nc(c(-c6cccc(S(=O)(=O)[O-])c6F)c6ccc3[nH]6)C=C5)C=C4)cc2)C(C)C)n1
REMARK SMILES IDX 15 1 14 2 13 3 12 4 10 5 11 6 9 8 8 9 6 10 7 11 5 13 1 14
REMARK SMILES IDX 2 15 3 16 86 17 4 18 83 20 84 21 85 22 16 23 17 24 18 25
REMARK SMILES IDX 19 27 20 28 21 29 82 30 22 31 81 32 23 33 24 34 25 35 75 36
REMARK SMILES IDX 26 37 80 38 74 39 76 40 27 41 79 42 73 43 72 44 28 46 60 47
REMARK SMILES IDX 40 48 59 49 41 50 44 51 58 52 77 53 42 54 43 55 57 57 78 58
REMARK SMILES IDX 45 59 29 60 30 61 38 62 31 63 33 64 39 65 32 66 34 67 35 68
REMARK SMILES IDX 36 69 37 70 61 71 62 72 70 73 63 74 65 75 71 76 64 77 66 78
REMARK SMILES IDX 67 79 68 80 69 81 46 82 47 83 55 84 48 85 50 86 56 87 49 88
REMARK SMILES IDX 51 89 52 90 53 91 54 92
REMARK H PARENT 12 7 8 12 4 19 17 26 76 45 44 56
REMARK Flexibility Score: inf
ROOT
ATOM      1  C   UNL A   1      31.405  32.091  26.660  1.00  0.00     0.023 C 
ENDROOT
BRANCH   1   2
ATOM      2  C   UNL A   1      31.431  30.556  26.654  1.00  0.00     0.023 C 
BRANCH   2   3
ATOM      3  C   UNL A   1      32.254  29.878  25.546  1.00  0.00     0.116 C 
BRANCH   3   4
ATOM      4  N   UNL A   1      31.551  29.671  24.292  1.00  0.00    -0.354 N 
ATOM      5  C   UNL A   1      31.174  28.502  23.688  1.00  0.00     0.242 C 
ATOM      6  O   UNL A   1      30.411  28.524  22.724  1.00  0.00    -0.273 OA
ATOM      7  H   UNL A   1      31.310  30.492  23.805  1.00  0.00     0.163 HD
BRANCH   5   8
ATOM      8  C   UNL A   1      31.716  27.171  24.234  1.00  0.00     0.174 C 
BRANCH   8   9
ATOM      9  N   UNL A   1      31.013  26.069  23.581  1.00  0.00    -0.337 N 
ATOM     10  C   UNL A   1      30.680  24.784  23.947  1.00  0.00     0.289 C 
ATOM     11  O   UNL A   1      30.154  24.113  23.055  1.00  0.00    -0.266 OA
ATOM     12  H   UNL A   1      30.705  26.298  22.674  1.00  0.00     0.164 HD
BRANCH  10  13
ATOM     13  C   UNL A   1      30.934  24.233  25.273  1.00  0.00     0.214 A 
ATOM     14  C   UNL A   1      32.921  22.492  27.653  1.00  0.00     0.092 C 
ATOM     15  C   UNL A   1      31.898  23.229  26.890  1.00  0.00     0.148 A 
ATOM     16  N   UNL A   1      30.731  23.587  27.425  1.00  0.00    -0.159 NA
ATOM     17  N   UNL A   1      32.072  23.626  25.594  1.00  0.00    -0.207 NA
ATOM     18  N   UNL A   1      30.156  24.218  26.393  1.00  0.00    -0.255 N 
ATOM     19  H   UNL A   1      29.262  24.630  26.437  1.00  0.00     0.192 HD
ENDBRANCH  10  13
ENDBRANCH   8   9
BRANCH   8  20
ATOM     20  C   UNL A   1      33.245  27.087  24.004  1.00  0.00     0.015 C 
ATOM     21  C   UNL A   1      33.950  26.491  25.229  1.00  0.00     0.010 C 
ATOM     22  C   UNL A   1      33.588  26.237  22.776  1.00  0.00     0.010 C 
ENDBRANCH   8  20
ENDBRANCH   5   8
ENDBRANCH   3   4
ENDBRANCH   2   3
ENDBRANCH   1   2
BRANCH   1  23
ATOM     23  C   UNL A   1      32.688  32.737  27.156  1.00  0.00     0.116 C 
BRANCH  23  24
ATOM     24  N   UNL A   1      32.494  34.113  27.637  1.00  0.00    -0.352 N 
ATOM     25  C   UNL A   1      33.093  34.733  28.728  1.00  0.00     0.251 C 
ATOM     26  H   UNL A   1      31.862  34.665  27.120  1.00  0.00     0.163 HD
ATOM     27  O   UNL A   1      32.593  35.711  29.254  1.00  0.00    -0.269 OA
BRANCH  25  28
ATOM     28  C   UNL A   1      34.369  34.181  29.216  1.00  0.00     0.039 A 
ATOM     29  C   UNL A   1      34.504  33.540  30.452  1.00  0.00     0.014 A 
ATOM     30  C   UNL A   1      35.444  34.280  28.344  1.00  0.00     0.014 A 
ATOM     31  C   UNL A   1      35.723  32.934  30.757  1.00  0.00     0.010 A 
ATOM     32  C   UNL A   1      36.529  33.481  28.533  1.00  0.00     0.010 A 
ATOM     33  C   UNL A   1      36.725  32.904  29.780  1.00  0.00    -0.014 A 
BRANCH  33  34
ATOM     34  C   UNL A   1      37.995  32.220  29.962  1.00  0.00     0.031 A 
ATOM     35  C   UNL A   1      38.037  30.850  29.390  1.00  0.00     0.074 A 
ATOM     36  C   UNL A   1      39.100  32.911  30.328  1.00  0.00     0.049 A 
ATOM     37  N   UNL A   1      38.128  29.732  30.030  1.00  0.00    -0.248 NA
ATOM     38  C   UNL A   1      37.777  30.687  27.949  1.00  0.00     0.031 C 
ATOM     39  C   UNL A   1      39.222  34.363  30.557  1.00  0.00     0.029 A 
ATOM     40  N   UNL A   1      40.393  32.500  30.390  1.00  0.00    -0.354 N 
ATOM     41  C   UNL A   1      38.211  28.748  29.044  1.00  0.00     0.074 A 
ATOM     42  C   UNL A   1      37.726  29.360  27.837  1.00  0.00     0.031 C 
ATOM     43  C   UNL A   1      40.516  34.730  30.447  1.00  0.00     0.029 A 
ATOM     44  C   UNL A   1      41.325  33.536  30.324  1.00  0.00     0.049 A 
ATOM     45  H   UNL A   1      40.650  31.553  30.473  1.00  0.00     0.167 HD
ATOM     46  C   UNL A   1      38.954  27.622  29.236  1.00  0.00     0.034 A 
ATOM     47  C   UNL A   1      42.660  33.414  30.117  1.00  0.00     0.034 A 
ATOM     48  C   UNL A   1      39.339  27.494  30.622  1.00  0.00     0.049 A 
ATOM     49  C   UNL A   1      43.020  32.014  30.432  1.00  0.00     0.074 A 
ATOM     50  C   UNL A   1      38.669  27.414  31.826  1.00  0.00     0.029 A 
ATOM     51  N   UNL A   1      40.633  27.845  30.930  1.00  0.00    -0.354 N 
ATOM     52  N   UNL A   1      42.923  31.503  31.627  1.00  0.00    -0.248 NA
ATOM     53  C   UNL A   1      43.032  31.057  29.339  1.00  0.00     0.031 C 
ATOM     54  C   UNL A   1      39.458  28.182  32.733  1.00  0.00     0.029 A 
ATOM     55  C   UNL A   1      40.602  28.616  32.059  1.00  0.00     0.049 A 
ATOM     56  H   UNL A   1      41.439  27.588  30.426  1.00  0.00     0.167 HD
ATOM     57  C   UNL A   1      42.384  30.240  31.415  1.00  0.00     0.074 A 
ATOM     58  C   UNL A   1      42.582  29.979  29.988  1.00  0.00     0.031 C 
ATOM     59  C   UNL A   1      41.557  29.666  32.338  1.00  0.00     0.034 A 
BRANCH  46  60
ATOM     60  C   UNL A   1      39.700  26.851  28.160  1.00  0.00     0.023 A 
ATOM     61  C   UNL A   1      39.529  25.446  28.158  1.00  0.00     0.012 A 
ATOM     62  C   UNL A   1      40.751  27.361  27.364  1.00  0.00     0.148 A 
ATOM     63  C   UNL A   1      40.409  24.594  27.483  1.00  0.00     0.002 A 
ATOM     64  C   UNL A   1      41.581  26.513  26.636  1.00  0.00     0.091 A 
ATOM     65  F   UNL A   1      41.053  28.659  27.391  1.00  0.00    -0.205 F 
ATOM     66  C   UNL A   1      41.439  25.129  26.722  1.00  0.00     0.022 A 
BRANCH  64  67
ATOM     67  S   UNL A   1      42.906  27.152  25.600  1.00  0.00     0.127 S 
ATOM     68  O   UNL A   1      43.340  25.942  24.907  1.00  0.00    -0.237 OA
ATOM     69  O   UNL A   1      42.193  28.123  24.770  1.00  0.00    -0.237 OA
ATOM     70  O   UNL A   1      43.871  27.745  26.517  1.00  0.00    -0.744 OA
ENDBRANCH  64  67
ENDBRANCH  46  60
BRANCH  47  71
ATOM     71  C   UNL A   1      43.591  34.324  29.408  1.00  0.00     0.023 A 
ATOM     72  C   UNL A   1      44.358  35.255  30.135  1.00  0.00     0.012 A 
ATOM     73  C   UNL A   1      43.934  34.089  28.058  1.00  0.00     0.148 A 
ATOM     74  C   UNL A   1      45.449  35.909  29.545  1.00  0.00     0.002 A 
ATOM     75  C   UNL A   1      45.013  34.746  27.474  1.00  0.00     0.091 A 
ATOM     76  F   UNL A   1      43.260  33.152  27.376  1.00  0.00    -0.205 F 
ATOM     77  C   UNL A   1      45.781  35.649  28.219  1.00  0.00     0.022 A 
BRANCH  75  78
ATOM     78  S   UNL A   1      45.514  34.435  25.775  1.00  0.00     0.127 S 
ATOM     79  O   UNL A   1      46.545  35.453  25.575  1.00  0.00    -0.237 OA
ATOM     80  O   UNL A   1      46.010  33.064  25.856  1.00  0.00    -0.237 OA
ATOM     81  O   UNL A   1      44.314  34.628  24.969  1.00  0.00    -0.744 OA
ENDBRANCH  75  78
ENDBRANCH  47  71
BRANCH  59  82
ATOM     82  C   UNL A   1      41.444  30.319  33.694  1.00  0.00     0.023 A 
ATOM     83  C   UNL A   1      42.439  30.192  34.688  1.00  0.00     0.012 A 
ATOM     84  C   UNL A   1      40.399  31.233  33.895  1.00  0.00     0.148 A 
ATOM     85  C   UNL A   1      42.379  30.947  35.863  1.00  0.00     0.002 A 
ATOM     86  C   UNL A   1      40.368  32.015  35.042  1.00  0.00     0.091 A 
ATOM     87  F   UNL A   1      39.466  31.346  32.938  1.00  0.00    -0.205 F 
ATOM     88  C   UNL A   1      41.351  31.869  36.034  1.00  0.00     0.022 A 
BRANCH  86  89
ATOM     89  S   UNL A   1      39.143  33.307  35.257  1.00  0.00     0.127 S 
ATOM     90  O   UNL A   1      39.761  34.146  36.280  1.00  0.00    -0.237 OA
ATOM     91  O   UNL A   1      39.085  33.909  33.924  1.00  0.00    -0.237 OA
ATOM     92  O   UNL A   1      37.914  32.632  35.656  1.00  0.00    -0.744 OA
ENDBRANCH  86  89
ENDBRANCH  59  82
ENDBRANCH  33  34
ENDBRANCH  25  28
ENDBRANCH  23  24
ENDBRANCH   1  23
TORSDOF 17
ENDMDL
