MODEL 1
REMARK VINA RESULT:     -12.1      0.000      0.000
REMARK SMILES Cc1noc(C)c1COc1ccc(C(=O)NCCCCNC(=O)c2ccc(-c3c4nc(c(-c5cccc(S(=O)(=O)[O-])c5F)c5ccc([nH]5)c(-c5cccc(S(=O)(=O)[O-])c5F)c5nc(c(-c6cccc(S(=O)(=O)[O-])c6F)c6ccc3[nH]6)C=C5)C=C4)cc2)cc1
REMARK SMILES IDX 18 1 17 2 16 3 14 4 15 5 13 7 10 8 11 9 88 10 12 11 87 12
REMARK SMILES IDX 9 13 8 14 7 15 1 16 2 17 3 18 4 19 5 20 6 21 19 22 20 23
REMARK SMILES IDX 21 24 22 25 23 27 24 28 25 29 86 30 26 31 85 32 27 33 28 34
REMARK SMILES IDX 29 35 79 36 30 37 84 38 78 39 80 40 31 41 83 42 77 43 76 44
REMARK SMILES IDX 32 46 64 47 44 48 63 49 45 50 48 51 62 52 81 53 46 54 47 55
REMARK SMILES IDX 61 57 82 58 49 59 33 60 34 61 42 62 35 63 37 64 43 65 36 66
REMARK SMILES IDX 38 67 39 68 40 69 41 70 65 71 66 72 74 73 67 74 69 75 75 76
REMARK SMILES IDX 68 77 70 78 71 79 72 80 73 81 50 82 51 83 59 84 52 85 54 86
REMARK SMILES IDX 60 87 53 88 55 89 56 90 57 91 58 92
REMARK H PARENT 16 6 21 26 80 45 48 56
REMARK Flexibility Score: inf
ROOT
ATOM      1  C   UNL A   1      32.136  28.264  27.590  1.00  0.00     0.023 C 
ENDROOT
BRANCH   1   2
ATOM      2  C   UNL A   1      31.019  27.224  27.478  1.00  0.00     0.116 C 
BRANCH   2   3
ATOM      3  N   UNL A   1      31.452  26.039  26.758  1.00  0.00    -0.352 N 
ATOM      4  C   UNL A   1      31.620  25.821  25.411  1.00  0.00     0.251 C 
ATOM      5  O   UNL A   1      32.163  24.784  25.034  1.00  0.00    -0.269 OA
ATOM      6  H   UNL A   1      31.659  25.264  27.328  1.00  0.00     0.163 HD
BRANCH   4   7
ATOM      7  C   UNL A   1      31.203  26.820  24.393  1.00  0.00     0.040 A 
ATOM      8  C   UNL A   1      30.510  28.744  22.487  1.00  0.00     0.119 A 
ATOM      9  C   UNL A   1      31.852  28.539  22.798  1.00  0.00     0.047 A 
ATOM     10  C   UNL A   1      29.527  27.939  23.052  1.00  0.00     0.047 A 
ATOM     11  C   UNL A   1      32.197  27.579  23.756  1.00  0.00     0.017 A 
ATOM     12  C   UNL A   1      29.875  26.975  23.994  1.00  0.00     0.017 A 
BRANCH   8  13
ATOM     13  O   UNL A   1      30.162  29.683  21.555  1.00  0.00    -0.489 OA
BRANCH  13  14
ATOM     14  C   UNL A   1      28.775  30.053  21.679  1.00  0.00     0.271 C 
BRANCH  14  15
ATOM     15  C   UNL A   1      28.551  31.497  21.974  1.00  0.00     0.055 A 
ATOM     16  C   UNL A   1      29.397  31.707  24.444  1.00  0.00     0.071 C 
ATOM     17  C   UNL A   1      28.812  32.209  23.178  1.00  0.00     0.087 A 
ATOM     18  N   UNL A   1      28.487  33.502  23.062  1.00  0.00    -0.085 NA
ATOM     19  O   UNL A   1      28.019  33.660  21.774  1.00  0.00    -0.361 OA
ATOM     20  C   UNL A   1      28.064  32.468  21.125  1.00  0.00     0.140 A 
ATOM     21  C   UNL A   1      27.612  32.475  19.720  1.00  0.00     0.091 C 
ENDBRANCH  14  15
ENDBRANCH  13  14
ENDBRANCH   8  13
ENDBRANCH   4   7
ENDBRANCH   2   3
ENDBRANCH   1   2
BRANCH   1  22
ATOM     22  C   UNL A   1      31.831  29.616  26.945  1.00  0.00     0.023 C 
BRANCH  22  23
ATOM     23  C   UNL A   1      33.052  30.424  26.525  1.00  0.00     0.116 C 
BRANCH  23  24
ATOM     24  N   UNL A   1      32.993  31.820  26.934  1.00  0.00    -0.352 N 
ATOM     25  C   UNL A   1      33.895  32.523  27.704  1.00  0.00     0.251 C 
ATOM     26  H   UNL A   1      32.208  32.326  26.621  1.00  0.00     0.163 HD
ATOM     27  O   UNL A   1      33.662  33.671  28.040  1.00  0.00    -0.269 OA
BRANCH  25  28
ATOM     28  C   UNL A   1      35.131  31.844  28.152  1.00  0.00     0.039 A 
ATOM     29  C   UNL A   1      36.298  32.597  28.297  1.00  0.00     0.014 A 
ATOM     30  C   UNL A   1      35.117  30.486  28.481  1.00  0.00     0.014 A 
ATOM     31  C   UNL A   1      37.435  32.005  28.850  1.00  0.00     0.010 A 
ATOM     32  C   UNL A   1      36.229  29.916  29.090  1.00  0.00     0.010 A 
ATOM     33  C   UNL A   1      37.396  30.671  29.287  1.00  0.00    -0.014 A 
BRANCH  33  34
ATOM     34  C   UNL A   1      38.548  30.050  29.987  1.00  0.00     0.031 A 
ATOM     35  C   UNL A   1      38.935  30.515  31.363  1.00  0.00     0.074 A 
ATOM     36  C   UNL A   1      39.314  29.151  29.336  1.00  0.00     0.049 A 
ATOM     37  N   UNL A   1      39.959  30.161  32.094  1.00  0.00    -0.248 NA
ATOM     38  C   UNL A   1      38.075  31.534  31.987  1.00  0.00     0.031 C 
ATOM     39  C   UNL A   1      39.091  28.685  27.966  1.00  0.00     0.029 A 
ATOM     40  N   UNL A   1      40.454  28.497  29.727  1.00  0.00    -0.354 N 
ATOM     41  C   UNL A   1      39.891  30.937  33.244  1.00  0.00     0.074 A 
ATOM     42  C   UNL A   1      38.740  31.803  33.102  1.00  0.00     0.031 C 
ATOM     43  C   UNL A   1      40.064  27.823  27.630  1.00  0.00     0.029 A 
ATOM     44  C   UNL A   1      40.993  27.693  28.748  1.00  0.00     0.049 A 
ATOM     45  H   UNL A   1      40.851  28.591  30.624  1.00  0.00     0.167 HD
ATOM     46  C   UNL A   1      40.694  30.910  34.334  1.00  0.00     0.034 A 
ATOM     47  C   UNL A   1      42.112  26.943  28.748  1.00  0.00     0.034 A 
ATOM     48  C   UNL A   1      41.803  30.010  34.495  1.00  0.00     0.049 A 
ATOM     49  C   UNL A   1      42.957  26.891  29.993  1.00  0.00     0.074 A 
ATOM     50  C   UNL A   1      42.614  29.833  35.602  1.00  0.00     0.029 A 
ATOM     51  N   UNL A   1      42.258  29.134  33.521  1.00  0.00    -0.354 N 
ATOM     52  N   UNL A   1      42.778  27.506  31.137  1.00  0.00    -0.248 NA
ATOM     53  C   UNL A   1      44.138  26.017  29.961  1.00  0.00     0.031 C 
ATOM     54  C   UNL A   1      43.567  28.857  35.293  1.00  0.00     0.029 A 
ATOM     55  C   UNL A   1      43.343  28.418  33.998  1.00  0.00     0.049 A 
ATOM     56  H   UNL A   1      41.867  29.035  32.623  1.00  0.00     0.167 HD
ATOM     57  C   UNL A   1      43.801  27.069  31.970  1.00  0.00     0.074 A 
ATOM     58  C   UNL A   1      44.586  26.122  31.206  1.00  0.00     0.031 C 
ATOM     59  C   UNL A   1      44.077  27.434  33.246  1.00  0.00     0.034 A 
BRANCH  46  60
ATOM     60  C   UNL A   1      40.360  31.838  35.470  1.00  0.00     0.023 A 
ATOM     61  C   UNL A   1      41.151  32.986  35.677  1.00  0.00     0.012 A 
ATOM     62  C   UNL A   1      39.241  31.612  36.294  1.00  0.00     0.148 A 
ATOM     63  C   UNL A   1      40.853  33.879  36.706  1.00  0.00     0.002 A 
ATOM     64  C   UNL A   1      38.926  32.528  37.292  1.00  0.00     0.091 A 
ATOM     65  F   UNL A   1      38.514  30.502  36.098  1.00  0.00    -0.205 F 
ATOM     66  C   UNL A   1      39.736  33.655  37.506  1.00  0.00     0.022 A 
BRANCH  64  67
ATOM     67  S   UNL A   1      37.466  32.364  38.327  1.00  0.00     0.127 S 
ATOM     68  O   UNL A   1      37.890  33.053  39.546  1.00  0.00    -0.237 OA
ATOM     69  O   UNL A   1      36.453  33.076  37.548  1.00  0.00    -0.237 OA
ATOM     70  O   UNL A   1      37.232  30.934  38.462  1.00  0.00    -0.744 OA
ENDBRANCH  64  67
ENDBRANCH  46  60
BRANCH  47  71
ATOM     71  C   UNL A   1      42.453  26.118  27.555  1.00  0.00     0.023 A 
ATOM     72  C   UNL A   1      43.222  26.690  26.523  1.00  0.00     0.012 A 
ATOM     73  C   UNL A   1      42.057  24.772  27.451  1.00  0.00     0.148 A 
ATOM     74  C   UNL A   1      43.569  25.944  25.396  1.00  0.00     0.002 A 
ATOM     75  C   UNL A   1      42.450  24.019  26.350  1.00  0.00     0.091 A 
ATOM     76  F   UNL A   1      41.312  24.250  28.435  1.00  0.00    -0.205 F 
ATOM     77  C   UNL A   1      43.192  24.608  25.314  1.00  0.00     0.022 A 
BRANCH  75  78
ATOM     78  S   UNL A   1      42.120  22.257  26.227  1.00  0.00     0.127 S 
ATOM     79  O   UNL A   1      40.669  22.233  26.072  1.00  0.00    -0.237 OA
ATOM     80  O   UNL A   1      42.875  21.887  25.028  1.00  0.00    -0.237 OA
ATOM     81  O   UNL A   1      42.640  21.679  27.459  1.00  0.00    -0.744 OA
ENDBRANCH  75  78
ENDBRANCH  47  71
BRANCH  59  82
ATOM     82  C   UNL A   1      45.262  26.792  33.916  1.00  0.00     0.023 A 
ATOM     83  C   UNL A   1      46.532  27.395  33.809  1.00  0.00     0.012 A 
ATOM     84  C   UNL A   1      45.104  25.647  34.721  1.00  0.00     0.148 A 
ATOM     85  C   UNL A   1      47.631  26.853  34.473  1.00  0.00     0.002 A 
ATOM     86  C   UNL A   1      46.196  25.139  35.416  1.00  0.00     0.091 A 
ATOM     87  F   UNL A   1      43.893  25.077  34.793  1.00  0.00    -0.205 F 
ATOM     88  C   UNL A   1      47.461  25.735  35.285  1.00  0.00     0.022 A 
BRANCH  86  89
ATOM     89  S   UNL A   1      46.050  23.758  36.556  1.00  0.00     0.127 S 
ATOM     90  O   UNL A   1      45.315  24.364  37.665  1.00  0.00    -0.237 OA
ATOM     91  O   UNL A   1      45.285  22.787  35.774  1.00  0.00    -0.237 OA
ATOM     92  O   UNL A   1      47.414  23.345  36.859  1.00  0.00    -0.744 OA
ENDBRANCH  86  89
ENDBRANCH  59  82
ENDBRANCH  33  34
ENDBRANCH  25  28
ENDBRANCH  23  24
ENDBRANCH  22  23
ENDBRANCH   1  22
TORSDOF 17
ENDMDL
MODEL 2
REMARK VINA RESULT:     -12.0      6.106     11.385
REMARK SMILES Cc1noc(C)c1COc1ccc(C(=O)NCCCCNC(=O)c2ccc(-c3c4nc(c(-c5cccc(S(=O)(=O)[O-])c5F)c5ccc([nH]5)c(-c5cccc(S(=O)(=O)[O-])c5F)c5nc(c(-c6cccc(S(=O)(=O)[O-])c6F)c6ccc3[nH]6)C=C5)C=C4)cc2)cc1
REMARK SMILES IDX 18 1 17 2 16 3 14 4 15 5 13 7 10 8 11 9 88 10 12 11 87 12
REMARK SMILES IDX 9 13 8 14 7 15 1 16 2 17 3 18 4 19 5 20 6 21 19 22 20 23
REMARK SMILES IDX 21 24 22 25 23 27 24 28 25 29 86 30 26 31 85 32 27 33 28 34
REMARK SMILES IDX 29 35 79 36 30 37 84 38 78 39 80 40 31 41 83 42 77 43 76 44
REMARK SMILES IDX 32 46 64 47 44 48 63 49 45 50 48 51 62 52 81 53 46 54 47 55
REMARK SMILES IDX 61 57 82 58 49 59 33 60 34 61 42 62 35 63 37 64 43 65 36 66
REMARK SMILES IDX 38 67 39 68 40 69 41 70 65 71 66 72 74 73 67 74 69 75 75 76
REMARK SMILES IDX 68 77 70 78 71 79 72 80 73 81 50 82 51 83 59 84 52 85 54 86
REMARK SMILES IDX 60 87 53 88 55 89 56 90 57 91 58 92
REMARK H PARENT 16 6 21 26 80 45 48 56
REMARK Flexibility Score: inf
ROOT
ATOM      1  C   UNL A   1      36.254  23.085  23.549  1.00  0.00     0.023 C 
ENDROOT
BRANCH   1   2
ATOM      2  C   UNL A   1      35.444  24.175  24.254  1.00  0.00     0.116 C 
BRANCH   2   3
ATOM      3  N   UNL A   1      34.253  24.535  23.505  1.00  0.00    -0.352 N 
ATOM      4  C   UNL A   1      33.044  23.893  23.381  1.00  0.00     0.251 C 
ATOM      5  O   UNL A   1      32.111  24.470  22.827  1.00  0.00    -0.269 OA
ATOM      6  H   UNL A   1      34.322  25.380  23.002  1.00  0.00     0.163 HD
BRANCH   4   7
ATOM      7  C   UNL A   1      32.815  22.533  23.935  1.00  0.00     0.040 A 
ATOM      8  C   UNL A   1      32.408  20.011  25.069  1.00  0.00     0.119 A 
ATOM      9  C   UNL A   1      32.414  21.137  25.887  1.00  0.00     0.047 A 
ATOM     10  C   UNL A   1      32.515  20.143  23.689  1.00  0.00     0.047 A 
ATOM     11  C   UNL A   1      32.623  22.399  25.318  1.00  0.00     0.017 A 
ATOM     12  C   UNL A   1      32.707  21.401  23.125  1.00  0.00     0.017 A 
BRANCH   8  13
ATOM     13  O   UNL A   1      32.210  18.772  25.616  1.00  0.00    -0.489 OA
BRANCH  13  14
ATOM     14  C   UNL A   1      32.275  17.741  24.612  1.00  0.00     0.271 C 
BRANCH  14  15
ATOM     15  C   UNL A   1      33.307  16.698  24.871  1.00  0.00     0.055 A 
ATOM     16  C   UNL A   1      35.539  17.975  24.373  1.00  0.00     0.071 C 
ATOM     17  C   UNL A   1      34.722  16.799  24.757  1.00  0.00     0.087 A 
ATOM     18  N   UNL A   1      35.323  15.650  25.084  1.00  0.00    -0.085 NA
ATOM     19  O   UNL A   1      34.310  14.779  25.431  1.00  0.00    -0.361 OA
ATOM     20  C   UNL A   1      33.111  15.405  25.312  1.00  0.00     0.140 A 
ATOM     21  C   UNL A   1      31.922  14.608  25.669  1.00  0.00     0.091 C 
ENDBRANCH  14  15
ENDBRANCH  13  14
ENDBRANCH   8  13
ENDBRANCH   4   7
ENDBRANCH   2   3
ENDBRANCH   1   2
BRANCH   1  22
ATOM     22  C   UNL A   1      36.233  21.718  24.233  1.00  0.00     0.023 C 
BRANCH  22  23
ATOM     23  C   UNL A   1      36.894  21.670  25.604  1.00  0.00     0.116 C 
BRANCH  23  24
ATOM     24  N   UNL A   1      37.957  20.679  25.701  1.00  0.00    -0.352 N 
ATOM     25  C   UNL A   1      39.258  20.861  26.122  1.00  0.00     0.251 C 
ATOM     26  H   UNL A   1      37.716  19.763  25.433  1.00  0.00     0.163 HD
ATOM     27  O   UNL A   1      40.062  19.948  26.063  1.00  0.00    -0.269 OA
BRANCH  25  28
ATOM     28  C   UNL A   1      39.670  22.197  26.605  1.00  0.00     0.039 A 
ATOM     29  C   UNL A   1      40.673  22.282  27.574  1.00  0.00     0.014 A 
ATOM     30  C   UNL A   1      39.111  23.355  26.060  1.00  0.00     0.014 A 
ATOM     31  C   UNL A   1      41.171  23.534  27.941  1.00  0.00     0.010 A 
ATOM     32  C   UNL A   1      39.653  24.595  26.378  1.00  0.00     0.010 A 
ATOM     33  C   UNL A   1      40.692  24.697  27.315  1.00  0.00    -0.014 A 
BRANCH  33  34
ATOM     34  C   UNL A   1      41.284  26.029  27.595  1.00  0.00     0.031 A 
ATOM     35  C   UNL A   1      42.700  26.325  27.186  1.00  0.00     0.074 A 
ATOM     36  C   UNL A   1      40.587  26.926  28.319  1.00  0.00     0.049 A 
ATOM     37  N   UNL A   1      43.419  27.391  27.422  1.00  0.00    -0.248 NA
ATOM     38  C   UNL A   1      43.411  25.275  26.439  1.00  0.00     0.031 C 
ATOM     39  C   UNL A   1      39.237  26.720  28.848  1.00  0.00     0.029 A 
ATOM     40  N   UNL A   1      40.931  28.177  28.767  1.00  0.00    -0.354 N 
ATOM     41  C   UNL A   1      44.675  27.128  26.891  1.00  0.00     0.074 A 
ATOM     42  C   UNL A   1      44.630  25.789  26.343  1.00  0.00     0.031 C 
ATOM     43  C   UNL A   1      38.869  27.804  29.550  1.00  0.00     0.029 A 
ATOM     44  C   UNL A   1      39.962  28.771  29.543  1.00  0.00     0.049 A 
ATOM     45  H   UNL A   1      41.789  28.610  28.552  1.00  0.00     0.167 HD
ATOM     46  C   UNL A   1      45.759  27.938  26.833  1.00  0.00     0.034 A 
ATOM     47  C   UNL A   1      39.958  29.956  30.183  1.00  0.00     0.034 A 
ATOM     48  C   UNL A   1      45.782  29.287  27.328  1.00  0.00     0.049 A 
ATOM     49  C   UNL A   1      41.156  30.858  30.058  1.00  0.00     0.074 A 
ATOM     50  C   UNL A   1      46.796  30.222  27.227  1.00  0.00     0.029 A 
ATOM     51  N   UNL A   1      44.744  29.894  28.019  1.00  0.00    -0.354 N 
ATOM     52  N   UNL A   1      42.274  30.659  29.402  1.00  0.00    -0.248 NA
ATOM     53  C   UNL A   1      41.081  32.163  30.731  1.00  0.00     0.031 C 
ATOM     54  C   UNL A   1      46.375  31.393  27.866  1.00  0.00     0.029 A 
ATOM     55  C   UNL A   1      45.094  31.190  28.356  1.00  0.00     0.049 A 
ATOM     56  H   UNL A   1      43.885  29.466  28.237  1.00  0.00     0.167 HD
ATOM     57  C   UNL A   1      43.019  31.821  29.554  1.00  0.00     0.074 A 
ATOM     58  C   UNL A   1      42.218  32.730  30.349  1.00  0.00     0.031 C 
ATOM     59  C   UNL A   1      44.263  32.104  29.095  1.00  0.00     0.034 A 
BRANCH  46  60
ATOM     60  C   UNL A   1      46.990  27.408  26.150  1.00  0.00     0.023 A 
ATOM     61  C   UNL A   1      47.175  27.654  24.775  1.00  0.00     0.012 A 
ATOM     62  C   UNL A   1      47.986  26.720  26.870  1.00  0.00     0.148 A 
ATOM     63  C   UNL A   1      48.317  27.198  24.118  1.00  0.00     0.002 A 
ATOM     64  C   UNL A   1      49.141  26.303  26.217  1.00  0.00     0.091 A 
ATOM     65  F   UNL A   1      47.782  26.473  28.172  1.00  0.00    -0.205 F 
ATOM     66  C   UNL A   1      49.304  26.532  24.840  1.00  0.00     0.022 A 
BRANCH  64  67
ATOM     67  S   UNL A   1      50.500  25.502  27.075  1.00  0.00     0.127 S 
ATOM     68  O   UNL A   1      50.916  26.547  28.010  1.00  0.00    -0.237 OA
ATOM     69  O   UNL A   1      49.839  24.356  27.700  1.00  0.00    -0.237 OA
ATOM     70  O   UNL A   1      51.471  25.154  26.049  1.00  0.00    -0.744 OA
ENDBRANCH  64  67
ENDBRANCH  46  60
BRANCH  47  71
ATOM     71  C   UNL A   1      38.746  30.391  30.933  1.00  0.00     0.023 A 
ATOM     72  C   UNL A   1      38.664  30.129  32.315  1.00  0.00     0.012 A 
ATOM     73  C   UNL A   1      37.698  31.088  30.303  1.00  0.00     0.148 A 
ATOM     74  C   UNL A   1      37.549  30.531  33.051  1.00  0.00     0.002 A 
ATOM     75  C   UNL A   1      36.614  31.531  31.053  1.00  0.00     0.091 A 
ATOM     76  F   UNL A   1      37.786  31.313  28.985  1.00  0.00    -0.205 F 
ATOM     77  C   UNL A   1      36.530  31.239  32.423  1.00  0.00     0.022 A 
BRANCH  75  78
ATOM     78  S   UNL A   1      35.322  32.563  30.351  1.00  0.00     0.127 S 
ATOM     79  O   UNL A   1      36.075  33.738  29.924  1.00  0.00    -0.237 OA
ATOM     80  O   UNL A   1      34.817  31.725  29.262  1.00  0.00    -0.237 OA
ATOM     81  O   UNL A   1      34.366  32.775  31.430  1.00  0.00    -0.744 OA
ENDBRANCH  75  78
ENDBRANCH  47  71
BRANCH  59  82
ATOM     82  C   UNL A   1      44.834  33.460  29.412  1.00  0.00     0.023 A 
ATOM     83  C   UNL A   1      45.598  33.635  30.583  1.00  0.00     0.012 A 
ATOM     84  C   UNL A   1      44.690  34.533  28.511  1.00  0.00     0.148 A 
ATOM     85  C   UNL A   1      46.190  34.866  30.865  1.00  0.00     0.002 A 
ATOM     86  C   UNL A   1      45.321  35.743  28.776  1.00  0.00     0.091 A 
ATOM     87  F   UNL A   1      43.943  34.351  27.413  1.00  0.00    -0.205 F 
ATOM     88  C   UNL A   1      46.062  35.914  29.957  1.00  0.00     0.022 A 
BRANCH  86  89
ATOM     89  S   UNL A   1      45.286  37.117  27.619  1.00  0.00     0.127 S 
ATOM     90  O   UNL A   1      46.144  36.623  26.543  1.00  0.00    -0.237 OA
ATOM     91  O   UNL A   1      43.866  37.203  27.278  1.00  0.00    -0.237 OA
ATOM     92  O   UNL A   1      45.799  38.268  28.351  1.00  0.00    -0.744 OA
ENDBRANCH  86  89
ENDBRANCH  59  82
ENDBRANCH  33  34
ENDBRANCH  25  28
ENDBRANCH  23  24
ENDBRANCH  22  23
ENDBRANCH   1  22
TORSDOF 17
ENDMDL
MODEL 3
REMARK VINA RESULT:     -12.0      6.178      9.527
REMARK SMILES Cc1noc(C)c1COc1ccc(C(=O)NCCCCNC(=O)c2ccc(-c3c4nc(c(-c5cccc(S(=O)(=O)[O-])c5F)c5ccc([nH]5)c(-c5cccc(S(=O)(=O)[O-])c5F)c5nc(c(-c6cccc(S(=O)(=O)[O-])c6F)c6ccc3[nH]6)C=C5)C=C4)cc2)cc1
REMARK SMILES IDX 18 1 17 2 16 3 14 4 15 5 13 7 10 8 11 9 88 10 12 11 87 12
REMARK SMILES IDX 9 13 8 14 7 15 1 16 2 17 3 18 4 19 5 20 6 21 19 22 20 23
REMARK SMILES IDX 21 24 22 25 23 27 24 28 25 29 86 30 26 31 85 32 27 33 28 34
REMARK SMILES IDX 29 35 79 36 30 37 84 38 78 39 80 40 31 41 83 42 77 43 76 44
REMARK SMILES IDX 32 46 64 47 44 48 63 49 45 50 48 51 62 52 81 53 46 54 47 55
REMARK SMILES IDX 61 57 82 58 49 59 33 60 34 61 42 62 35 63 37 64 43 65 36 66
REMARK SMILES IDX 38 67 39 68 40 69 41 70 65 71 66 72 74 73 67 74 69 75 75 76
REMARK SMILES IDX 68 77 70 78 71 79 72 80 73 81 50 82 51 83 59 84 52 85 54 86
REMARK SMILES IDX 60 87 53 88 55 89 56 90 57 91 58 92
REMARK H PARENT 16 6 21 26 80 45 48 56
REMARK Flexibility Score: inf
ROOT
ATOM      1  C   UNL A   1      36.270  23.297  23.596  1.00  0.00     0.023 C 
ENDROOT
BRANCH   1   2
ATOM      2  C   UNL A   1      35.326  24.261  24.317  1.00  0.00     0.116 C 
BRANCH   2   3
ATOM      3  N   UNL A   1      34.159  24.581  23.512  1.00  0.00    -0.352 N 
ATOM      4  C   UNL A   1      32.975  23.903  23.341  1.00  0.00     0.251 C 
ATOM      5  O   UNL A   1      32.053  24.448  22.740  1.00  0.00    -0.269 OA
ATOM      6  H   UNL A   1      34.227  25.423  23.005  1.00  0.00     0.163 HD
BRANCH   4   7
ATOM      7  C   UNL A   1      32.761  22.542  23.897  1.00  0.00     0.040 A 
ATOM      8  C   UNL A   1      32.386  20.016  25.034  1.00  0.00     0.119 A 
ATOM      9  C   UNL A   1      32.459  21.135  25.859  1.00  0.00     0.047 A 
ATOM     10  C   UNL A   1      32.410  20.159  23.651  1.00  0.00     0.047 A 
ATOM     11  C   UNL A   1      32.652  22.399  25.288  1.00  0.00     0.017 A 
ATOM     12  C   UNL A   1      32.587  21.419  23.087  1.00  0.00     0.017 A 
BRANCH   8  13
ATOM     13  O   UNL A   1      32.203  18.776  25.583  1.00  0.00    -0.489 OA
BRANCH  13  14
ATOM     14  C   UNL A   1      32.301  17.743  24.583  1.00  0.00     0.271 C 
BRANCH  14  15
ATOM     15  C   UNL A   1      33.353  16.723  24.857  1.00  0.00     0.055 A 
ATOM     16  C   UNL A   1      35.563  18.068  24.449  1.00  0.00     0.071 C 
ATOM     17  C   UNL A   1      34.767  16.864  24.789  1.00  0.00     0.087 A 
ATOM     18  N   UNL A   1      35.390  15.726  25.115  1.00  0.00    -0.085 NA
ATOM     19  O   UNL A   1      34.390  14.822  25.417  1.00  0.00    -0.361 OA
ATOM     20  C   UNL A   1      33.179  15.419  25.270  1.00  0.00     0.140 A 
ATOM     21  C   UNL A   1      32.002  14.584  25.577  1.00  0.00     0.091 C 
ENDBRANCH  14  15
ENDBRANCH  13  14
ENDBRANCH   8  13
ENDBRANCH   4   7
ENDBRANCH   2   3
ENDBRANCH   1   2
BRANCH   1  22
ATOM     22  C   UNL A   1      36.289  21.873  24.151  1.00  0.00     0.023 C 
BRANCH  22  23
ATOM     23  C   UNL A   1      36.895  21.727  25.541  1.00  0.00     0.116 C 
BRANCH  23  24
ATOM     24  N   UNL A   1      37.891  20.670  25.632  1.00  0.00    -0.352 N 
ATOM     25  C   UNL A   1      39.193  20.758  26.080  1.00  0.00     0.251 C 
ATOM     26  H   UNL A   1      37.599  19.777  25.336  1.00  0.00     0.163 HD
ATOM     27  O   UNL A   1      39.939  19.798  26.012  1.00  0.00    -0.269 OA
BRANCH  25  28
ATOM     28  C   UNL A   1      39.679  22.054  26.604  1.00  0.00     0.039 A 
ATOM     29  C   UNL A   1      40.674  22.053  27.584  1.00  0.00     0.014 A 
ATOM     30  C   UNL A   1      39.195  23.258  26.086  1.00  0.00     0.014 A 
ATOM     31  C   UNL A   1      41.242  23.262  27.990  1.00  0.00     0.010 A 
ATOM     32  C   UNL A   1      39.806  24.454  26.443  1.00  0.00     0.010 A 
ATOM     33  C   UNL A   1      40.839  24.468  27.392  1.00  0.00    -0.014 A 
BRANCH  33  34
ATOM     34  C   UNL A   1      41.507  25.754  27.715  1.00  0.00     0.031 A 
ATOM     35  C   UNL A   1      40.762  26.823  28.464  1.00  0.00     0.074 A 
ATOM     36  C   UNL A   1      42.741  26.000  27.233  1.00  0.00     0.049 A 
ATOM     37  N   UNL A   1      41.142  28.040  28.758  1.00  0.00    -0.248 NA
ATOM     38  C   UNL A   1      39.400  26.494  28.916  1.00  0.00     0.031 C 
ATOM     39  C   UNL A   1      43.531  25.074  26.419  1.00  0.00     0.029 A 
ATOM     40  N   UNL A   1      43.533  27.116  27.326  1.00  0.00    -0.354 N 
ATOM     41  C   UNL A   1      40.059  28.633  29.392  1.00  0.00     0.074 A 
ATOM     42  C   UNL A   1      38.993  27.653  29.416  1.00  0.00     0.031 C 
ATOM     43  C   UNL A   1      44.692  25.661  26.085  1.00  0.00     0.029 A 
ATOM     44  C   UNL A   1      44.720  27.010  26.638  1.00  0.00     0.049 A 
ATOM     45  H   UNL A   1      43.277  27.918  27.838  1.00  0.00     0.167 HD
ATOM     46  C   UNL A   1      39.967  29.870  29.934  1.00  0.00     0.034 A 
ATOM     47  C   UNL A   1      45.715  27.903  26.466  1.00  0.00     0.034 A 
ATOM     48  C   UNL A   1      41.045  30.820  29.958  1.00  0.00     0.049 A 
ATOM     49  C   UNL A   1      45.609  29.251  27.125  1.00  0.00     0.074 A 
ATOM     50  C   UNL A   1      41.086  32.060  30.572  1.00  0.00     0.029 A 
ATOM     51  N   UNL A   1      42.273  30.639  29.340  1.00  0.00    -0.354 N 
ATOM     52  N   UNL A   1      44.643  29.732  27.869  1.00  0.00    -0.248 NA
ATOM     53  C   UNL A   1      46.745  30.169  26.951  1.00  0.00     0.031 C 
ATOM     54  C   UNL A   1      42.336  32.633  30.316  1.00  0.00     0.029 A 
ATOM     55  C   UNL A   1      43.078  31.745  29.551  1.00  0.00     0.049 A 
ATOM     56  H   UNL A   1      42.533  29.841  28.826  1.00  0.00     0.167 HD
ATOM     57  C   UNL A   1      45.066  30.991  28.279  1.00  0.00     0.074 A 
ATOM     58  C   UNL A   1      46.385  31.191  27.717  1.00  0.00     0.031 C 
ATOM     59  C   UNL A   1      44.412  31.905  29.036  1.00  0.00     0.034 A 
BRANCH  46  60
ATOM     60  C   UNL A   1      38.675  30.242  30.610  1.00  0.00     0.023 A 
ATOM     61  C   UNL A   1      38.470  29.875  31.955  1.00  0.00     0.012 A 
ATOM     62  C   UNL A   1      37.691  30.996  29.941  1.00  0.00     0.148 A 
ATOM     63  C   UNL A   1      37.294  30.226  32.616  1.00  0.00     0.002 A 
ATOM     64  C   UNL A   1      36.538  31.377  30.619  1.00  0.00     0.091 A 
ATOM     65  F   UNL A   1      37.893  31.315  28.654  1.00  0.00    -0.205 F 
ATOM     66  C   UNL A   1      36.334  30.985  31.953  1.00  0.00     0.022 A 
BRANCH  64  67
ATOM     67  S   UNL A   1      35.277  32.415  29.872  1.00  0.00     0.127 S 
ATOM     68  O   UNL A   1      34.771  31.547  28.810  1.00  0.00    -0.237 OA
ATOM     69  O   UNL A   1      34.347  32.622  30.983  1.00  0.00    -0.237 OA
ATOM     70  O   UNL A   1      35.964  33.619  29.427  1.00  0.00    -0.744 OA
ENDBRANCH  64  67
ENDBRANCH  46  60
BRANCH  47  71
ATOM     71  C   UNL A   1      46.933  27.517  25.700  1.00  0.00     0.023 A 
ATOM     72  C   UNL A   1      46.983  27.775  24.316  1.00  0.00     0.012 A 
ATOM     73  C   UNL A   1      48.049  26.935  26.330  1.00  0.00     0.148 A 
ATOM     74  C   UNL A   1      48.112  27.437  23.569  1.00  0.00     0.002 A 
ATOM     75  C   UNL A   1      49.190  26.648  25.590  1.00  0.00     0.091 A 
ATOM     76  F   UNL A   1      47.977  26.682  27.645  1.00  0.00    -0.205 F 
ATOM     77  C   UNL A   1      49.218  26.884  24.206  1.00  0.00     0.022 A 
BRANCH  75  78
ATOM     78  S   UNL A   1      50.705  26.057  26.354  1.00  0.00     0.127 S 
ATOM     79  O   UNL A   1      51.039  27.159  27.251  1.00  0.00    -0.237 OA
ATOM     80  O   UNL A   1      50.255  24.834  27.020  1.00  0.00    -0.237 OA
ATOM     81  O   UNL A   1      51.631  25.829  25.252  1.00  0.00    -0.744 OA
ENDBRANCH  75  78
ENDBRANCH  47  71
BRANCH  59  82
ATOM     82  C   UNL A   1      45.117  33.203  29.329  1.00  0.00     0.023 A 
ATOM     83  C   UNL A   1      45.967  33.294  30.449  1.00  0.00     0.012 A 
ATOM     84  C   UNL A   1      45.008  34.299  28.451  1.00  0.00     0.148 A 
ATOM     85  C   UNL A   1      46.680  34.465  30.704  1.00  0.00     0.002 A 
ATOM     86  C   UNL A   1      45.756  35.447  28.687  1.00  0.00     0.091 A 
ATOM     87  F   UNL A   1      44.179  34.198  27.402  1.00  0.00    -0.205 F 
ATOM     88  C   UNL A   1      46.584  35.535  29.817  1.00  0.00     0.022 A 
BRANCH  86  89
ATOM     89  S   UNL A   1      45.765  36.837  27.549  1.00  0.00     0.127 S 
ATOM     90  O   UNL A   1      46.385  37.883  28.360  1.00  0.00    -0.237 OA
ATOM     91  O   UNL A   1      46.598  36.339  26.454  1.00  0.00    -0.237 OA
ATOM     92  O   UNL A   1      44.372  37.066  27.188  1.00  0.00    -0.744 OA
ENDBRANCH  86  89
ENDBRANCH  59  82
ENDBRANCH  33  34
ENDBRANCH  25  28
ENDBRANCH  23  24
ENDBRANCH  22  23
ENDBRANCH   1  22
TORSDOF 17
ENDMDL
