MODEL 1
REMARK VINA RESULT:     -12.0      0.000      0.000
REMARK SMILES Cc1ccsc1CNC(=O)N[C@@H]1CCCC[C@H]1C(=O)NCCCCNC(=O)c1ccc(-c2c3nc(c(-c4cccc(S(=O)(=O)[O-])c4F)c4ccc([nH]4)c(-c4cccc(S(=O)(=O)[O-])c4F)c4nc(c(-c5cccc(S(=O)(=O)[O-])c5F)c5ccc2[nH]5)C=C4)C=C3)cc1
REMARK SMILES IDX 22 1 21 2 20 3 18 4 19 5 17 7 12 8 13 9 14 10 16 11 15 12
REMARK SMILES IDX 11 13 8 14 9 15 10 17 7 19 6 20 1 21 2 22 3 23 4 24 5 25
REMARK SMILES IDX 23 26 24 27 25 28 26 29 27 31 28 32 29 33 90 34 30 35 89 36
REMARK SMILES IDX 31 37 32 38 33 39 83 40 34 41 88 42 82 43 84 44 35 45 87 46
REMARK SMILES IDX 81 47 80 48 36 50 68 51 48 52 67 53 49 54 52 55 66 56 85 57
REMARK SMILES IDX 50 58 51 59 65 61 86 62 53 63 37 64 38 65 46 66 39 67 41 68
REMARK SMILES IDX 47 69 40 70 42 71 43 72 44 73 45 74 69 75 70 76 78 77 71 78
REMARK SMILES IDX 73 79 79 80 72 81 74 82 75 83 76 84 77 85 54 86 55 87 63 88
REMARK SMILES IDX 56 89 58 90 64 91 57 92 59 93 60 94 61 95 62 96
REMARK H PARENT 20 6 8 16 11 18 25 30 84 49 52 60
REMARK Flexibility Score: inf
ROOT
ATOM      1  C   UNL A   1      35.572  21.688  25.811  1.00  0.00     0.023 C 
ENDROOT
BRANCH   1   2
ATOM      2  C   UNL A   1      35.177  20.549  24.876  1.00  0.00     0.116 C 
BRANCH   2   3
ATOM      3  N   UNL A   1      34.251  19.633  25.507  1.00  0.00    -0.356 N 
ATOM      4  C   UNL A   1      32.904  19.493  25.384  1.00  0.00     0.225 C 
ATOM      5  O   UNL A   1      32.369  18.600  26.044  1.00  0.00    -0.275 OA
ATOM      6  H   UNL A   1      34.669  19.001  26.135  1.00  0.00     0.163 HD
BRANCH   4   7
ATOM      7  C   UNL A   1      32.086  20.364  24.436  1.00  0.00     0.101 C 
ATOM      8  C   UNL A   1      32.018  21.837  24.882  1.00  0.00     0.096 C 
ATOM      9  C   UNL A   1      31.781  22.890  23.793  1.00  0.00     0.026 C 
ATOM     10  C   UNL A   1      32.441  22.544  22.467  1.00  0.00     0.002 C 
ATOM     11  C   UNL A   1      32.489  20.090  22.978  1.00  0.00     0.015 C 
ATOM     12  C   UNL A   1      32.029  21.158  22.001  1.00  0.00     0.001 C 
BRANCH   8  13
ATOM     13  N   UNL A   1      31.151  22.081  26.047  1.00  0.00    -0.335 N 
ATOM     14  N   UNL A   1      31.406  24.279  26.917  1.00  0.00    -0.333 N 
ATOM     15  C   UNL A   1      30.825  23.082  26.865  1.00  0.00     0.315 C 
ATOM     16  H   UNL A   1      30.850  24.941  27.388  1.00  0.00     0.165 HD
ATOM     17  O   UNL A   1      29.894  22.878  27.649  1.00  0.00    -0.249 OA
ATOM     18  H   UNL A   1      30.668  21.259  26.296  1.00  0.00     0.165 HD
BRANCH  14  19
ATOM     19  C   UNL A   1      32.648  24.842  26.453  1.00  0.00     0.164 C 
BRANCH  19  20
ATOM     20  C   UNL A   1      32.542  26.267  25.968  1.00  0.00     0.027 A 
ATOM     21  C   UNL A   1      33.899  26.035  23.799  1.00  0.00     0.045 C 
ATOM     22  C   UNL A   1      33.036  26.774  24.769  1.00  0.00    -0.035 A 
ATOM     23  C   UNL A   1      32.581  28.115  24.544  1.00  0.00     0.015 A 
ATOM     24  C   UNL A   1      31.821  28.598  25.582  1.00  0.00     0.065 A 
ATOM     25  S   UNL A   1      31.724  27.484  26.866  1.00  0.00    -0.147 S 
ENDBRANCH  19  20
ENDBRANCH  14  19
ENDBRANCH   8  13
ENDBRANCH   4   7
ENDBRANCH   2   3
ENDBRANCH   1   2
BRANCH   1  26
ATOM     26  C   UNL A   1      35.732  23.047  25.130  1.00  0.00     0.023 C 
BRANCH  26  27
ATOM     27  C   UNL A   1      37.154  23.596  25.102  1.00  0.00     0.116 C 
BRANCH  27  28
ATOM     28  N   UNL A   1      38.143  22.640  25.577  1.00  0.00    -0.352 N 
ATOM     29  C   UNL A   1      39.260  22.872  26.345  1.00  0.00     0.251 C 
ATOM     30  H   UNL A   1      37.993  21.703  25.313  1.00  0.00     0.163 HD
ATOM     31  O   UNL A   1      40.051  21.968  26.578  1.00  0.00    -0.269 OA
BRANCH  29  32
ATOM     32  C   UNL A   1      39.504  24.238  26.849  1.00  0.00     0.039 A 
ATOM     33  C   UNL A   1      39.156  24.540  28.166  1.00  0.00     0.014 A 
ATOM     34  C   UNL A   1      40.129  25.189  26.039  1.00  0.00     0.014 A 
ATOM     35  C   UNL A   1      39.495  25.785  28.696  1.00  0.00     0.010 A 
ATOM     36  C   UNL A   1      40.526  26.402  26.590  1.00  0.00     0.010 A 
ATOM     37  C   UNL A   1      40.211  26.714  27.922  1.00  0.00    -0.014 A 
BRANCH  37  38
ATOM     38  C   UNL A   1      40.650  28.012  28.489  1.00  0.00     0.031 A 
ATOM     39  C   UNL A   1      42.117  28.298  28.665  1.00  0.00     0.074 A 
ATOM     40  C   UNL A   1      39.728  28.891  28.933  1.00  0.00     0.049 A 
ATOM     41  N   UNL A   1      42.693  29.348  29.190  1.00  0.00    -0.248 NA
ATOM     42  C   UNL A   1      43.060  27.256  28.224  1.00  0.00     0.031 C 
ATOM     43  C   UNL A   1      38.278  28.688  28.898  1.00  0.00     0.029 A 
ATOM     44  N   UNL A   1      39.875  30.118  29.528  1.00  0.00    -0.354 N 
ATOM     45  C   UNL A   1      44.055  29.074  29.185  1.00  0.00     0.074 A 
ATOM     46  C   UNL A   1      44.221  27.751  28.628  1.00  0.00     0.031 C 
ATOM     47  C   UNL A   1      37.669  29.756  29.441  1.00  0.00     0.029 A 
ATOM     48  C   UNL A   1      38.683  30.707  29.885  1.00  0.00     0.049 A 
ATOM     49  H   UNL A   1      40.751  30.539  29.686  1.00  0.00     0.167 HD
ATOM     50  C   UNL A   1      45.078  29.866  29.584  1.00  0.00     0.034 A 
ATOM     51  C   UNL A   1      38.438  31.881  30.499  1.00  0.00     0.034 A 
ATOM     52  C   UNL A   1      44.911  31.208  30.069  1.00  0.00     0.049 A 
ATOM     53  C   UNL A   1      39.598  32.767  30.867  1.00  0.00     0.074 A 
ATOM     54  C   UNL A   1      45.890  32.137  30.376  1.00  0.00     0.029 A 
ATOM     55  N   UNL A   1      43.690  31.812  30.320  1.00  0.00    -0.354 N 
ATOM     56  N   UNL A   1      40.881  32.570  30.675  1.00  0.00    -0.248 NA
ATOM     57  C   UNL A   1      39.277  34.053  31.504  1.00  0.00     0.031 C 
ATOM     58  C   UNL A   1      45.258  33.299  30.831  1.00  0.00     0.029 A 
ATOM     59  C   UNL A   1      43.888  33.099  30.790  1.00  0.00     0.049 A 
ATOM     60  H   UNL A   1      42.812  31.389  30.184  1.00  0.00     0.167 HD
ATOM     61  C   UNL A   1      41.514  33.723  31.126  1.00  0.00     0.074 A 
ATOM     62  C   UNL A   1      40.474  34.621  31.583  1.00  0.00     0.031 C 
ATOM     63  C   UNL A   1      42.839  34.007  31.173  1.00  0.00     0.034 A 
BRANCH  50  64
ATOM     64  C   UNL A   1      46.479  29.331  29.455  1.00  0.00     0.023 A 
ATOM     65  C   UNL A   1      47.078  28.680  30.551  1.00  0.00     0.012 A 
ATOM     66  C   UNL A   1      47.166  29.396  28.227  1.00  0.00     0.148 A 
ATOM     67  C   UNL A   1      48.352  28.125  30.437  1.00  0.00     0.002 A 
ATOM     68  C   UNL A   1      48.418  28.803  28.109  1.00  0.00     0.091 A 
ATOM     69  F   UNL A   1      46.586  30.038  27.202  1.00  0.00    -0.205 F 
ATOM     70  C   UNL A   1      49.015  28.176  29.214  1.00  0.00     0.022 A 
BRANCH  68  71
ATOM     71  S   UNL A   1      49.322  28.747  26.557  1.00  0.00     0.127 S 
ATOM     72  O   UNL A   1      50.203  27.600  26.771  1.00  0.00    -0.237 OA
ATOM     73  O   UNL A   1      48.251  28.519  25.586  1.00  0.00    -0.237 OA
ATOM     74  O   UNL A   1      49.991  30.034  26.434  1.00  0.00    -0.744 OA
ENDBRANCH  68  71
ENDBRANCH  50  64
BRANCH  51  75
ATOM     75  C   UNL A   1      37.037  32.332  30.734  1.00  0.00     0.023 A 
ATOM     76  C   UNL A   1      36.466  32.162  32.011  1.00  0.00     0.012 A 
ATOM     77  C   UNL A   1      36.269  32.926  29.714  1.00  0.00     0.148 A 
ATOM     78  C   UNL A   1      35.144  32.537  32.257  1.00  0.00     0.002 A 
ATOM     79  C   UNL A   1      34.970  33.347  29.982  1.00  0.00     0.091 A 
ATOM     80  F   UNL A   1      36.819  33.066  28.500  1.00  0.00    -0.205 F 
ATOM     81  C   UNL A   1      34.400  33.137  31.247  1.00  0.00     0.022 A 
BRANCH  79  82
ATOM     82  S   UNL A   1      33.991  34.243  28.772  1.00  0.00     0.127 S 
ATOM     83  O   UNL A   1      33.722  33.208  27.778  1.00  0.00    -0.237 OA
ATOM     84  O   UNL A   1      32.830  34.658  29.561  1.00  0.00    -0.237 OA
ATOM     85  O   UNL A   1      34.837  35.347  28.336  1.00  0.00    -0.744 OA
ENDBRANCH  79  82
ENDBRANCH  51  75
BRANCH  63  86
ATOM     86  C   UNL A   1      43.247  35.357  31.697  1.00  0.00     0.023 A 
ATOM     87  C   UNL A   1      43.395  35.554  33.083  1.00  0.00     0.012 A 
ATOM     88  C   UNL A   1      43.568  36.403  30.809  1.00  0.00     0.148 A 
ATOM     89  C   UNL A   1      43.828  36.782  33.581  1.00  0.00     0.002 A 
ATOM     90  C   UNL A   1      44.044  37.608  31.311  1.00  0.00     0.091 A 
ATOM     91  F   UNL A   1      43.402  36.202  29.494  1.00  0.00    -0.205 F 
ATOM     92  C   UNL A   1      44.164  37.803  32.696  1.00  0.00     0.022 A 
BRANCH  90  93
ATOM     93  S   UNL A   1      44.595  38.941  30.238  1.00  0.00     0.127 S 
ATOM     94  O   UNL A   1      43.332  39.404  29.665  1.00  0.00    -0.237 OA
ATOM     95  O   UNL A   1      45.211  39.870  31.185  1.00  0.00    -0.237 OA
ATOM     96  O   UNL A   1      45.528  38.335  29.297  1.00  0.00    -0.744 OA
ENDBRANCH  90  93
ENDBRANCH  63  86
ENDBRANCH  37  38
ENDBRANCH  29  32
ENDBRANCH  27  28
ENDBRANCH  26  27
ENDBRANCH   1  26
TORSDOF 17
ENDMDL
MODEL 2
REMARK VINA RESULT:     -11.9      2.313      3.333
REMARK SMILES Cc1ccsc1CNC(=O)N[C@@H]1CCCC[C@H]1C(=O)NCCCCNC(=O)c1ccc(-c2c3nc(c(-c4cccc(S(=O)(=O)[O-])c4F)c4ccc([nH]4)c(-c4cccc(S(=O)(=O)[O-])c4F)c4nc(c(-c5cccc(S(=O)(=O)[O-])c5F)c5ccc2[nH]5)C=C4)C=C3)cc1
REMARK SMILES IDX 22 1 21 2 20 3 18 4 19 5 17 7 12 8 13 9 14 10 16 11 15 12
REMARK SMILES IDX 11 13 8 14 9 15 10 17 7 19 6 20 1 21 2 22 3 23 4 24 5 25
REMARK SMILES IDX 23 26 24 27 25 28 26 29 27 31 28 32 29 33 90 34 30 35 89 36
REMARK SMILES IDX 31 37 32 38 33 39 83 40 34 41 88 42 82 43 84 44 35 45 87 46
REMARK SMILES IDX 81 47 80 48 36 50 68 51 48 52 67 53 49 54 52 55 66 56 85 57
REMARK SMILES IDX 50 58 51 59 65 61 86 62 53 63 37 64 38 65 46 66 39 67 41 68
REMARK SMILES IDX 47 69 40 70 42 71 43 72 44 73 45 74 69 75 70 76 78 77 71 78
REMARK SMILES IDX 73 79 79 80 72 81 74 82 75 83 76 84 77 85 54 86 55 87 63 88
REMARK SMILES IDX 56 89 58 90 64 91 57 92 59 93 60 94 61 95 62 96
REMARK H PARENT 20 6 8 16 11 18 25 30 84 49 52 60
REMARK Flexibility Score: inf
ROOT
ATOM      1  C   UNL A   1      34.434  22.131  27.152  1.00  0.00     0.023 C 
ENDROOT
BRANCH   1   2
ATOM      2  C   UNL A   1      33.709  23.379  26.658  1.00  0.00     0.116 C 
BRANCH   2   3
ATOM      3  N   UNL A   1      32.358  23.456  27.174  1.00  0.00    -0.356 N 
ATOM      4  C   UNL A   1      31.154  23.350  26.553  1.00  0.00     0.225 C 
ATOM      5  O   UNL A   1      30.148  23.443  27.259  1.00  0.00    -0.275 OA
ATOM      6  H   UNL A   1      32.303  23.613  28.144  1.00  0.00     0.163 HD
BRANCH   4   7
ATOM      7  C   UNL A   1      31.038  23.077  25.057  1.00  0.00     0.101 C 
ATOM      8  C   UNL A   1      31.123  24.359  24.206  1.00  0.00     0.096 C 
ATOM      9  C   UNL A   1      31.618  24.210  22.762  1.00  0.00     0.026 C 
ATOM     10  C   UNL A   1      32.683  23.135  22.598  1.00  0.00     0.002 C 
ATOM     11  C   UNL A   1      31.949  21.906  24.656  1.00  0.00     0.015 C 
ATOM     12  C   UNL A   1      32.205  21.808  23.162  1.00  0.00     0.001 C 
BRANCH   8  13
ATOM     13  N   UNL A   1      29.923  25.210  24.266  1.00  0.00    -0.335 N 
ATOM     14  N   UNL A   1      30.310  27.377  23.366  1.00  0.00    -0.333 N 
ATOM     15  C   UNL A   1      29.533  26.424  23.876  1.00  0.00     0.315 C 
ATOM     16  H   UNL A   1      29.789  28.075  22.907  1.00  0.00     0.165 HD
ATOM     17  O   UNL A   1      28.333  26.688  24.001  1.00  0.00    -0.249 OA
ATOM     18  H   UNL A   1      29.192  24.744  24.732  1.00  0.00     0.165 HD
BRANCH  14  19
ATOM     19  C   UNL A   1      31.726  27.638  23.323  1.00  0.00     0.164 C 
BRANCH  19  20
ATOM     20  C   UNL A   1      32.328  28.024  24.651  1.00  0.00     0.027 A 
ATOM     21  C   UNL A   1      34.059  26.136  24.849  1.00  0.00     0.045 C 
ATOM     22  C   UNL A   1      33.398  27.402  25.289  1.00  0.00    -0.035 A 
ATOM     23  C   UNL A   1      33.830  28.153  26.432  1.00  0.00     0.015 A 
ATOM     24  C   UNL A   1      33.058  29.266  26.658  1.00  0.00     0.065 A 
ATOM     25  S   UNL A   1      31.761  29.369  25.560  1.00  0.00    -0.147 S 
ENDBRANCH  19  20
ENDBRANCH  14  19
ENDBRANCH   8  13
ENDBRANCH   4   7
ENDBRANCH   2   3
ENDBRANCH   1   2
BRANCH   1  26
ATOM     26  C   UNL A   1      35.141  21.329  26.059  1.00  0.00     0.023 C 
BRANCH  26  27
ATOM     27  C   UNL A   1      36.504  21.868  25.638  1.00  0.00     0.116 C 
BRANCH  27  28
ATOM     28  N   UNL A   1      37.542  20.848  25.632  1.00  0.00    -0.352 N 
ATOM     29  C   UNL A   1      38.877  20.983  25.934  1.00  0.00     0.251 C 
ATOM     30  H   UNL A   1      37.251  19.942  25.377  1.00  0.00     0.163 HD
ATOM     31  O   UNL A   1      39.645  20.042  25.785  1.00  0.00    -0.269 OA
BRANCH  29  32
ATOM     32  C   UNL A   1      39.369  22.292  26.407  1.00  0.00     0.039 A 
ATOM     33  C   UNL A   1      40.412  22.324  27.333  1.00  0.00     0.014 A 
ATOM     34  C   UNL A   1      38.840  23.476  25.886  1.00  0.00     0.014 A 
ATOM     35  C   UNL A   1      40.973  23.550  27.693  1.00  0.00     0.010 A 
ATOM     36  C   UNL A   1      39.446  24.689  26.193  1.00  0.00     0.010 A 
ATOM     37  C   UNL A   1      40.515  24.739  27.101  1.00  0.00    -0.014 A 
BRANCH  37  38
ATOM     38  C   UNL A   1      41.148  26.045  27.410  1.00  0.00     0.031 A 
ATOM     39  C   UNL A   1      42.561  26.317  26.972  1.00  0.00     0.074 A 
ATOM     40  C   UNL A   1      40.485  26.943  28.167  1.00  0.00     0.049 A 
ATOM     41  N   UNL A   1      43.302  27.372  27.192  1.00  0.00    -0.248 NA
ATOM     42  C   UNL A   1      43.243  25.255  26.213  1.00  0.00     0.031 C 
ATOM     43  C   UNL A   1      39.144  26.757  28.725  1.00  0.00     0.029 A 
ATOM     44  N   UNL A   1      40.862  28.182  28.621  1.00  0.00    -0.354 N 
ATOM     45  C   UNL A   1      44.545  27.082  26.645  1.00  0.00     0.074 A 
ATOM     46  C   UNL A   1      44.470  25.746  26.101  1.00  0.00     0.031 C 
ATOM     47  C   UNL A   1      38.809  27.843  29.441  1.00  0.00     0.029 A 
ATOM     48  C   UNL A   1      39.917  28.792  29.413  1.00  0.00     0.049 A 
ATOM     49  H   UNL A   1      41.728  28.596  28.400  1.00  0.00     0.167 HD
ATOM     50  C   UNL A   1      45.643  27.871  26.577  1.00  0.00     0.034 A 
ATOM     51  C   UNL A   1      39.943  29.982  30.044  1.00  0.00     0.034 A 
ATOM     52  C   UNL A   1      45.689  29.225  27.053  1.00  0.00     0.049 A 
ATOM     53  C   UNL A   1      41.154  30.863  29.890  1.00  0.00     0.074 A 
ATOM     54  C   UNL A   1      46.710  30.150  26.916  1.00  0.00     0.029 A 
ATOM     55  N   UNL A   1      44.674  29.849  27.761  1.00  0.00    -0.354 N 
ATOM     56  N   UNL A   1      42.249  30.647  29.201  1.00  0.00    -0.248 NA
ATOM     57  C   UNL A   1      41.120  32.167  30.570  1.00  0.00     0.031 C 
ATOM     58  C   UNL A   1      46.317  31.329  27.558  1.00  0.00     0.029 A 
ATOM     59  C   UNL A   1      45.047  31.143  28.078  1.00  0.00     0.049 A 
ATOM     60  H   UNL A   1      43.816  29.433  28.002  1.00  0.00     0.167 HD
ATOM     61  C   UNL A   1      43.013  31.802  29.329  1.00  0.00     0.074 A 
ATOM     62  C   UNL A   1      42.248  32.722  30.145  1.00  0.00     0.031 C 
ATOM     63  C   UNL A   1      44.244  32.072  28.830  1.00  0.00     0.034 A 
BRANCH  50  64
ATOM     64  C   UNL A   1      46.871  27.317  25.906  1.00  0.00     0.023 A 
ATOM     65  C   UNL A   1      47.048  27.498  24.519  1.00  0.00     0.012 A 
ATOM     66  C   UNL A   1      47.887  26.694  26.658  1.00  0.00     0.148 A 
ATOM     67  C   UNL A   1      48.203  27.045  23.886  1.00  0.00     0.002 A 
ATOM     68  C   UNL A   1      49.055  26.284  26.026  1.00  0.00     0.091 A 
ATOM     69  F   UNL A   1      47.690  26.513  27.972  1.00  0.00    -0.205 F 
ATOM     70  C   UNL A   1      49.211  26.450  24.641  1.00  0.00     0.022 A 
BRANCH  68  71
ATOM     71  S   UNL A   1      50.444  25.576  26.920  1.00  0.00     0.127 S 
ATOM     72  O   UNL A   1      50.825  26.682  27.797  1.00  0.00    -0.237 OA
ATOM     73  O   UNL A   1      49.822  24.442  27.605  1.00  0.00    -0.237 OA
ATOM     74  O   UNL A   1      51.428  25.212  25.911  1.00  0.00    -0.744 OA
ENDBRANCH  68  71
ENDBRANCH  50  64
BRANCH  51  75
ATOM     75  C   UNL A   1      38.756  30.455  30.814  1.00  0.00     0.023 A 
ATOM     76  C   UNL A   1      38.681  30.183  32.194  1.00  0.00     0.012 A 
ATOM     77  C   UNL A   1      37.710  31.169  30.198  1.00  0.00     0.148 A 
ATOM     78  C   UNL A   1      37.568  30.576  32.939  1.00  0.00     0.002 A 
ATOM     79  C   UNL A   1      36.629  31.604  30.958  1.00  0.00     0.091 A 
ATOM     80  F   UNL A   1      37.788  31.406  28.882  1.00  0.00    -0.205 F 
ATOM     81  C   UNL A   1      36.548  31.294  32.325  1.00  0.00     0.022 A 
BRANCH  79  82
ATOM     82  S   UNL A   1      35.337  32.644  30.268  1.00  0.00     0.127 S 
ATOM     83  O   UNL A   1      36.092  33.823  29.854  1.00  0.00    -0.237 OA
ATOM     84  O   UNL A   1      34.831  31.818  29.170  1.00  0.00    -0.237 OA
ATOM     85  O   UNL A   1      34.383  32.841  31.351  1.00  0.00    -0.744 OA
ENDBRANCH  79  82
ENDBRANCH  51  75
BRANCH  63  86
ATOM     86  C   UNL A   1      44.831  33.428  29.110  1.00  0.00     0.023 A 
ATOM     87  C   UNL A   1      45.628  33.623  30.255  1.00  0.00     0.012 A 
ATOM     88  C   UNL A   1      44.665  34.485  28.193  1.00  0.00     0.148 A 
ATOM     89  C   UNL A   1      46.226  34.858  30.499  1.00  0.00     0.002 A 
ATOM     90  C   UNL A   1      45.304  35.698  28.419  1.00  0.00     0.091 A 
ATOM     91  F   UNL A   1      43.887  34.285  27.119  1.00  0.00    -0.205 F 
ATOM     92  C   UNL A   1      46.074  35.890  29.577  1.00  0.00     0.022 A 
BRANCH  90  93
ATOM     93  S   UNL A   1      45.245  37.047  27.233  1.00  0.00     0.127 S 
ATOM     94  O   UNL A   1      45.846  38.141  27.995  1.00  0.00    -0.237 OA
ATOM     95  O   UNL A   1      46.073  36.539  26.139  1.00  0.00    -0.237 OA
ATOM     96  O   UNL A   1      43.838  37.217  26.892  1.00  0.00    -0.744 OA
ENDBRANCH  90  93
ENDBRANCH  63  86
ENDBRANCH  37  38
ENDBRANCH  29  32
ENDBRANCH  27  28
ENDBRANCH  26  27
ENDBRANCH   1  26
TORSDOF 17
ENDMDL
MODEL 3
REMARK VINA RESULT:     -11.9      4.803      9.590
REMARK SMILES Cc1ccsc1CNC(=O)N[C@@H]1CCCC[C@H]1C(=O)NCCCCNC(=O)c1ccc(-c2c3nc(c(-c4cccc(S(=O)(=O)[O-])c4F)c4ccc([nH]4)c(-c4cccc(S(=O)(=O)[O-])c4F)c4nc(c(-c5cccc(S(=O)(=O)[O-])c5F)c5ccc2[nH]5)C=C4)C=C3)cc1
REMARK SMILES IDX 22 1 21 2 20 3 18 4 19 5 17 7 12 8 13 9 14 10 16 11 15 12
REMARK SMILES IDX 11 13 8 14 9 15 10 17 7 19 6 20 1 21 2 22 3 23 4 24 5 25
REMARK SMILES IDX 23 26 24 27 25 28 26 29 27 31 28 32 29 33 90 34 30 35 89 36
REMARK SMILES IDX 31 37 32 38 33 39 83 40 34 41 88 42 82 43 84 44 35 45 87 46
REMARK SMILES IDX 81 47 80 48 36 50 68 51 48 52 67 53 49 54 52 55 66 56 85 57
REMARK SMILES IDX 50 58 51 59 65 61 86 62 53 63 37 64 38 65 46 66 39 67 41 68
REMARK SMILES IDX 47 69 40 70 42 71 43 72 44 73 45 74 69 75 70 76 78 77 71 78
REMARK SMILES IDX 73 79 79 80 72 81 74 82 75 83 76 84 77 85 54 86 55 87 63 88
REMARK SMILES IDX 56 89 58 90 64 91 57 92 59 93 60 94 61 95 62 96
REMARK H PARENT 20 6 8 16 11 18 25 30 84 49 52 60
REMARK Flexibility Score: inf
ROOT
ATOM      1  C   UNL A   1      33.675  28.010  23.859  1.00  0.00     0.023 C 
ENDROOT
BRANCH   1   2
ATOM      2  C   UNL A   1      33.397  28.357  22.400  1.00  0.00     0.116 C 
BRANCH   2   3
ATOM      3  N   UNL A   1      33.531  27.202  21.538  1.00  0.00    -0.356 N 
ATOM      4  C   UNL A   1      32.712  26.138  21.332  1.00  0.00     0.225 C 
ATOM      5  O   UNL A   1      33.081  25.295  20.511  1.00  0.00    -0.275 OA
ATOM      6  H   UNL A   1      34.361  27.184  21.009  1.00  0.00     0.163 HD
BRANCH   4   7
ATOM      7  C   UNL A   1      31.367  26.004  22.039  1.00  0.00     0.101 C 
ATOM      8  C   UNL A   1      31.391  24.971  23.182  1.00  0.00     0.096 C 
ATOM      9  C   UNL A   1      30.376  25.155  24.317  1.00  0.00     0.026 C 
ATOM     10  C   UNL A   1      30.093  26.615  24.640  1.00  0.00     0.002 C 
ATOM     11  C   UNL A   1      30.794  27.394  22.362  1.00  0.00     0.015 C 
ATOM     12  C   UNL A   1      29.677  27.376  23.392  1.00  0.00     0.001 C 
BRANCH   8  13
ATOM     13  N   UNL A   1      31.430  23.569  22.733  1.00  0.00    -0.335 N 
ATOM     14  N   UNL A   1      33.607  22.628  22.902  1.00  0.00    -0.333 N 
ATOM     15  C   UNL A   1      32.299  22.561  22.663  1.00  0.00     0.315 C 
ATOM     16  H   UNL A   1      34.003  21.740  23.055  1.00  0.00     0.165 HD
ATOM     17  O   UNL A   1      31.844  21.457  22.347  1.00  0.00    -0.249 OA
ATOM     18  H   UNL A   1      30.552  23.295  22.380  1.00  0.00     0.165 HD
BRANCH  14  19
ATOM     19  C   UNL A   1      34.585  23.682  22.990  1.00  0.00     0.164 C 
BRANCH  19  20
ATOM     20  C   UNL A   1      35.532  23.556  24.158  1.00  0.00     0.027 A 
ATOM     21  C   UNL A   1      34.308  25.094  25.811  1.00  0.00     0.045 C 
ATOM     22  C   UNL A   1      35.374  24.124  25.419  1.00  0.00    -0.035 A 
ATOM     23  C   UNL A   1      36.359  23.632  26.338  1.00  0.00     0.015 A 
ATOM     24  C   UNL A   1      37.251  22.770  25.747  1.00  0.00     0.065 A 
ATOM     25  S   UNL A   1      36.969  22.616  24.076  1.00  0.00    -0.147 S 
ENDBRANCH  19  20
ENDBRANCH  14  19
ENDBRANCH   8  13
ENDBRANCH   4   7
ENDBRANCH   2   3
ENDBRANCH   1   2
BRANCH   1  26
ATOM     26  C   UNL A   1      33.178  29.045  24.868  1.00  0.00     0.023 C 
BRANCH  26  27
ATOM     27  C   UNL A   1      33.981  29.129  26.162  1.00  0.00     0.116 C 
BRANCH  27  28
ATOM     28  N   UNL A   1      33.807  30.396  26.858  1.00  0.00    -0.352 N 
ATOM     29  C   UNL A   1      34.597  30.949  27.838  1.00  0.00     0.251 C 
ATOM     30  H   UNL A   1      33.019  30.924  26.594  1.00  0.00     0.163 HD
ATOM     31  O   UNL A   1      34.258  31.983  28.397  1.00  0.00    -0.269 OA
BRANCH  29  32
ATOM     32  C   UNL A   1      35.840  30.255  28.225  1.00  0.00     0.039 A 
ATOM     33  C   UNL A   1      36.954  30.352  27.389  1.00  0.00     0.014 A 
ATOM     34  C   UNL A   1      35.916  29.564  29.437  1.00  0.00     0.014 A 
ATOM     35  C   UNL A   1      38.171  29.809  27.801  1.00  0.00     0.010 A 
ATOM     36  C   UNL A   1      37.145  29.085  29.876  1.00  0.00     0.010 A 
ATOM     37  C   UNL A   1      38.283  29.199  29.063  1.00  0.00    -0.014 A 
BRANCH  37  38
ATOM     38  C   UNL A   1      39.585  28.684  29.554  1.00  0.00     0.031 A 
ATOM     39  C   UNL A   1      40.299  29.393  30.672  1.00  0.00     0.074 A 
ATOM     40  C   UNL A   1      40.166  27.638  28.931  1.00  0.00     0.049 A 
ATOM     41  N   UNL A   1      41.465  29.128  31.202  1.00  0.00    -0.248 NA
ATOM     42  C   UNL A   1      39.633  30.572  31.252  1.00  0.00     0.031 C 
ATOM     43  C   UNL A   1      39.611  26.924  27.779  1.00  0.00     0.029 A 
ATOM     44  N   UNL A   1      41.365  27.013  29.160  1.00  0.00    -0.354 N 
ATOM     45  C   UNL A   1      41.693  30.129  32.137  1.00  0.00     0.074 A 
ATOM     46  C   UNL A   1      40.557  31.021  32.090  1.00  0.00     0.031 C 
ATOM     47  C   UNL A   1      40.465  25.956  27.406  1.00  0.00     0.029 A 
ATOM     48  C   UNL A   1      41.637  25.995  28.276  1.00  0.00     0.049 A 
ATOM     49  H   UNL A   1      41.974  27.269  29.890  1.00  0.00     0.167 HD
ATOM     50  C   UNL A   1      42.741  30.277  32.980  1.00  0.00     0.034 A 
ATOM     51  C   UNL A   1      42.709  25.185  28.179  1.00  0.00     0.034 A 
ATOM     52  C   UNL A   1      43.832  29.346  33.074  1.00  0.00     0.049 A 
ATOM     53  C   UNL A   1      43.827  25.333  29.177  1.00  0.00     0.074 A 
ATOM     54  C   UNL A   1      44.875  29.335  33.983  1.00  0.00     0.029 A 
ATOM     55  N   UNL A   1      44.022  28.264  32.230  1.00  0.00    -0.354 N 
ATOM     56  N   UNL A   1      43.930  26.169  30.182  1.00  0.00    -0.248 NA
ATOM     57  C   UNL A   1      44.959  24.403  29.051  1.00  0.00     0.031 C 
ATOM     58  C   UNL A   1      45.708  28.255  33.675  1.00  0.00     0.029 A 
ATOM     59  C   UNL A   1      45.173  27.584  32.588  1.00  0.00     0.049 A 
ATOM     60  H   UNL A   1      43.427  28.016  31.486  1.00  0.00     0.167 HD
ATOM     61  C   UNL A   1      45.114  25.838  30.832  1.00  0.00     0.074 A 
ATOM     62  C   UNL A   1      45.683  24.713  30.119  1.00  0.00     0.031 C 
ATOM     63  C   UNL A   1      45.688  26.422  31.912  1.00  0.00     0.034 A 
BRANCH  50  64
ATOM     64  C   UNL A   1      42.734  31.453  33.919  1.00  0.00     0.023 A 
ATOM     65  C   UNL A   1      43.252  32.691  33.487  1.00  0.00     0.012 A 
ATOM     66  C   UNL A   1      42.141  31.357  35.193  1.00  0.00     0.148 A 
ATOM     67  C   UNL A   1      43.203  33.808  34.317  1.00  0.00     0.002 A 
ATOM     68  C   UNL A   1      42.058  32.487  35.999  1.00  0.00     0.091 A 
ATOM     69  F   UNL A   1      41.674  30.165  35.593  1.00  0.00    -0.205 F 
ATOM     70  C   UNL A   1      42.596  33.709  35.566  1.00  0.00     0.022 A 
BRANCH  68  71
ATOM     71  S   UNL A   1      41.229  32.483  37.592  1.00  0.00     0.127 S 
ATOM     72  O   UNL A   1      41.255  33.903  37.941  1.00  0.00    -0.237 OA
ATOM     73  O   UNL A   1      39.904  31.965  37.247  1.00  0.00    -0.237 OA
ATOM     74  O   UNL A   1      42.016  31.614  38.454  1.00  0.00    -0.744 OA
ENDBRANCH  68  71
ENDBRANCH  50  64
BRANCH  51  75
ATOM     75  C   UNL A   1      42.749  24.104  27.152  1.00  0.00     0.023 A 
ATOM     76  C   UNL A   1      43.446  24.328  25.948  1.00  0.00     0.012 A 
ATOM     77  C   UNL A   1      42.112  22.866  27.355  1.00  0.00     0.148 A 
ATOM     78  C   UNL A   1      43.473  23.354  24.948  1.00  0.00     0.002 A 
ATOM     79  C   UNL A   1      42.188  21.880  26.375  1.00  0.00     0.091 A 
ATOM     80  F   UNL A   1      41.439  22.674  28.497  1.00  0.00    -0.205 F 
ATOM     81  C   UNL A   1      42.853  22.128  25.165  1.00  0.00     0.022 A 
BRANCH  79  82
ATOM     82  S   UNL A   1      41.525  20.230  26.631  1.00  0.00     0.127 S 
ATOM     83  O   UNL A   1      41.967  19.539  25.424  1.00  0.00    -0.237 OA
ATOM     84  O   UNL A   1      42.200  19.814  27.862  1.00  0.00    -0.237 OA
ATOM     85  O   UNL A   1      40.087  20.413  26.776  1.00  0.00    -0.744 OA
ENDBRANCH  79  82
ENDBRANCH  51  75
BRANCH  63  86
ATOM     86  C   UNL A   1      46.976  25.836  32.423  1.00  0.00     0.023 A 
ATOM     87  C   UNL A   1      48.206  26.309  31.924  1.00  0.00     0.012 A 
ATOM     88  C   UNL A   1      46.969  24.880  33.458  1.00  0.00     0.148 A 
ATOM     89  C   UNL A   1      49.409  25.818  32.428  1.00  0.00     0.002 A 
ATOM     90  C   UNL A   1      48.172  24.431  33.988  1.00  0.00     0.091 A 
ATOM     91  F   UNL A   1      45.788  24.429  33.905  1.00  0.00    -0.205 F 
ATOM     92  C   UNL A   1      49.393  24.890  33.466  1.00  0.00     0.022 A 
BRANCH  90  93
ATOM     93  S   UNL A   1      48.242  23.314  35.393  1.00  0.00     0.127 S 
ATOM     94  O   UNL A   1      49.684  23.176  35.594  1.00  0.00    -0.237 OA
ATOM     95  O   UNL A   1      47.552  24.076  36.434  1.00  0.00    -0.237 OA
ATOM     96  O   UNL A   1      47.548  22.103  34.974  1.00  0.00    -0.744 OA
ENDBRANCH  90  93
ENDBRANCH  63  86
ENDBRANCH  37  38
ENDBRANCH  29  32
ENDBRANCH  27  28
ENDBRANCH  26  27
ENDBRANCH   1  26
TORSDOF 17
ENDMDL
