MODEL 1
REMARK VINA RESULT:     -12.3      0.000      0.000
REMARK SMILES [NH3+][C@@]1(C(=O)NCCCCNC(=O)c2ccc(-c3c4nc(c(-c5cccc(S(=O)(=O)[O-])c5F)c5ccc([nH]5)c(-c5cccc(S(=O)(=O)[O-])c5F)c5nc(c(-c6cccc(S(=O)(=O)[O-])c6F)c6ccc3[nH]6)C=C5)C=C4)cc2)CC[C@H](Oc2ccccc2[N+](=O)[O-])C1
REMARK SMILES IDX 7 1 6 2 5 3 3 4 4 5 2 7 76 8 89 9 77 10 78 11 1 12 79 16
REMARK SMILES IDX 80 17 81 18 85 19 82 20 84 21 83 22 86 23 87 24 88 25 8 26
REMARK SMILES IDX 9 27 10 28 11 29 12 31 13 32 14 33 75 34 15 35 74 36 16 37
REMARK SMILES IDX 17 38 18 39 68 40 19 41 73 42 67 43 69 44 20 45 72 46 66 47
REMARK SMILES IDX 65 48 21 50 53 51 33 52 52 53 34 54 37 55 51 56 70 57 35 58
REMARK SMILES IDX 36 59 50 61 71 62 38 63 22 64 23 65 31 66 24 67 26 68 32 69
REMARK SMILES IDX 25 70 27 71 28 72 29 73 30 74 54 75 55 76 63 77 56 78 58 79
REMARK SMILES IDX 64 80 57 81 59 82 60 83 61 84 62 85 39 86 40 87 48 88 41 89
REMARK SMILES IDX 43 90 49 91 42 92 44 93 45 94 46 95 47 96
REMARK H PARENT 5 6 1 13 1 14 1 15 10 30 69 49 37 60
REMARK Flexibility Score: inf
ROOT
ATOM      1  C   UNL A   1      31.863  27.446  26.929  1.00  0.00     0.023 C 
ENDROOT
BRANCH   1   2
ATOM      2  C   UNL A   1      32.040  26.072  26.303  1.00  0.00     0.116 C 
BRANCH   2   3
ATOM      3  N   UNL A   1      31.281  25.034  26.952  1.00  0.00    -0.351 N 
ATOM      4  C   UNL A   1      31.370  23.681  26.866  1.00  0.00     0.281 C 
ATOM      5  O   UNL A   1      30.628  23.040  27.626  1.00  0.00    -0.268 OA
ATOM      6  H   UNL A   1      30.579  25.360  27.561  1.00  0.00     0.163 HD
BRANCH   4   7
ATOM      7  C   UNL A   1      32.355  22.904  25.906  1.00  0.00     0.177 C 
ATOM      8  C   UNL A   1      33.716  23.579  25.744  1.00  0.00     0.083 C 
ATOM      9  C   UNL A   1      31.828  22.653  24.491  1.00  0.00     0.124 C 
ATOM     10  C   UNL A   1      33.752  24.173  24.343  1.00  0.00     0.052 C 
ATOM     11  C   UNL A   1      32.761  23.372  23.490  1.00  0.00     0.180 C 
BRANCH   7  12
ATOM     12  N   UNL A   1      32.597  21.577  26.550  1.00  0.00    -0.345 N 
ATOM     13  H   UNL A   1      31.974  20.881  26.138  1.00  0.00     0.345 HD
ATOM     14  H   UNL A   1      32.415  21.645  27.550  1.00  0.00     0.345 HD
ATOM     15  H   UNL A   1      33.567  21.297  26.398  1.00  0.00     0.345 HD
ENDBRANCH   7  12
BRANCH  11  16
ATOM     16  O   UNL A   1      31.876  24.063  22.604  1.00  0.00    -0.483 OA
BRANCH  16  17
ATOM     17  C   UNL A   1      31.268  25.258  22.799  1.00  0.00     0.197 A 
ATOM     18  C   UNL A   1      30.163  25.468  23.619  1.00  0.00     0.054 A 
ATOM     19  C   UNL A   1      31.742  26.350  22.045  1.00  0.00     0.310 A 
ATOM     20  C   UNL A   1      29.470  26.686  23.584  1.00  0.00     0.004 A 
ATOM     21  C   UNL A   1      31.050  27.570  21.999  1.00  0.00     0.090 A 
ATOM     22  C   UNL A   1      29.894  27.724  22.755  1.00  0.00     0.007 A 
BRANCH  19  23
ATOM     23  N   UNL A   1      32.976  26.246  21.262  1.00  0.00     0.066 N 
ATOM     24  O   UNL A   1      34.033  26.561  21.829  1.00  0.00    -0.258 OA
ATOM     25  O   UNL A   1      32.902  25.800  20.108  1.00  0.00    -0.258 OA
ENDBRANCH  19  23
ENDBRANCH  16  17
ENDBRANCH  11  16
ENDBRANCH   4   7
ENDBRANCH   2   3
ENDBRANCH   1   2
BRANCH   1  26
ATOM     26  C   UNL A   1      31.620  28.582  25.948  1.00  0.00     0.023 C 
BRANCH  26  27
ATOM     27  C   UNL A   1      32.751  29.602  25.833  1.00  0.00     0.116 C 
BRANCH  27  28
ATOM     28  N   UNL A   1      32.475  30.897  26.453  1.00  0.00    -0.352 N 
ATOM     29  C   UNL A   1      33.285  31.643  27.287  1.00  0.00     0.251 C 
ATOM     30  H   UNL A   1      31.595  31.288  26.251  1.00  0.00     0.163 HD
ATOM     31  O   UNL A   1      32.895  32.695  27.768  1.00  0.00    -0.269 OA
BRANCH  29  32
ATOM     32  C   UNL A   1      34.625  31.110  27.620  1.00  0.00     0.039 A 
ATOM     33  C   UNL A   1      35.648  32.004  27.941  1.00  0.00     0.014 A 
ATOM     34  C   UNL A   1      34.811  29.732  27.757  1.00  0.00     0.014 A 
ATOM     35  C   UNL A   1      36.820  31.520  28.526  1.00  0.00     0.010 A 
ATOM     36  C   UNL A   1      35.939  29.265  28.418  1.00  0.00     0.010 A 
ATOM     37  C   UNL A   1      36.942  30.155  28.837  1.00  0.00    -0.014 A 
BRANCH  37  38
ATOM     38  C   UNL A   1      38.063  29.632  29.661  1.00  0.00     0.031 A 
ATOM     39  C   UNL A   1      38.304  30.184  31.038  1.00  0.00     0.074 A 
ATOM     40  C   UNL A   1      38.950  28.776  29.113  1.00  0.00     0.049 A 
ATOM     41  N   UNL A   1      39.314  29.977  31.844  1.00  0.00    -0.248 NA
ATOM     42  C   UNL A   1      37.299  31.122  31.564  1.00  0.00     0.031 C 
ATOM     43  C   UNL A   1      38.882  28.238  27.751  1.00  0.00     0.029 A 
ATOM     44  N   UNL A   1      40.109  28.239  29.620  1.00  0.00    -0.354 N 
ATOM     45  C   UNL A   1      39.093  30.796  32.943  1.00  0.00     0.074 A 
ATOM     46  C   UNL A   1      37.869  31.524  32.691  1.00  0.00     0.031 C 
ATOM     47  C   UNL A   1      39.947  27.450  27.533  1.00  0.00     0.029 A 
ATOM     48  C   UNL A   1      40.794  27.454  28.720  1.00  0.00     0.049 A 
ATOM     49  H   UNL A   1      40.419  28.400  30.540  1.00  0.00     0.167 HD
ATOM     50  C   UNL A   1      39.826  30.910  34.075  1.00  0.00     0.034 A 
ATOM     51  C   UNL A   1      41.978  26.818  28.832  1.00  0.00     0.034 A 
ATOM     52  C   UNL A   1      40.998  30.129  34.357  1.00  0.00     0.049 A 
ATOM     53  C   UNL A   1      42.743  26.917  30.123  1.00  0.00     0.074 A 
ATOM     54  C   UNL A   1      41.733  30.075  35.528  1.00  0.00     0.029 A 
ATOM     55  N   UNL A   1      41.608  29.265  33.461  1.00  0.00    -0.354 N 
ATOM     56  N   UNL A   1      42.426  27.562  31.220  1.00  0.00    -0.248 NA
ATOM     57  C   UNL A   1      44.014  26.183  30.204  1.00  0.00     0.031 C 
ATOM     58  C   UNL A   1      42.794  29.183  35.336  1.00  0.00     0.029 A 
ATOM     59  C   UNL A   1      42.716  28.680  34.047  1.00  0.00     0.049 A 
ATOM     60  H   UNL A   1      41.297  29.093  32.542  1.00  0.00     0.167 HD
ATOM     61  C   UNL A   1      43.445  27.294  32.127  1.00  0.00     0.074 A 
ATOM     62  C   UNL A   1      44.377  26.408  31.460  1.00  0.00     0.031 C 
ATOM     63  C   UNL A   1      43.606  27.758  33.389  1.00  0.00     0.034 A 
BRANCH  50  64
ATOM     64  C   UNL A   1      39.333  31.861  35.131  1.00  0.00     0.023 A 
ATOM     65  C   UNL A   1      39.535  33.244  34.960  1.00  0.00     0.012 A 
ATOM     66  C   UNL A   1      38.631  31.397  36.261  1.00  0.00     0.148 A 
ATOM     67  C   UNL A   1      39.073  34.153  35.911  1.00  0.00     0.002 A 
ATOM     68  C   UNL A   1      38.141  32.312  37.186  1.00  0.00     0.091 A 
ATOM     69  F   UNL A   1      38.473  30.075  36.419  1.00  0.00    -0.205 F 
ATOM     70  C   UNL A   1      38.368  33.688  37.016  1.00  0.00     0.022 A 
BRANCH  68  71
ATOM     71  S   UNL A   1      37.163  31.814  38.609  1.00  0.00     0.127 S 
ATOM     72  O   UNL A   1      38.079  32.105  39.711  1.00  0.00    -0.237 OA
ATOM     73  O   UNL A   1      36.009  32.709  38.522  1.00  0.00    -0.237 OA
ATOM     74  O   UNL A   1      36.853  30.406  38.404  1.00  0.00    -0.744 OA
ENDBRANCH  68  71
ENDBRANCH  50  64
BRANCH  51  75
ATOM     75  C   UNL A   1      42.479  25.976  27.709  1.00  0.00     0.023 A 
ATOM     76  C   UNL A   1      43.428  26.517  26.819  1.00  0.00     0.012 A 
ATOM     77  C   UNL A   1      42.058  24.644  27.536  1.00  0.00     0.148 A 
ATOM     78  C   UNL A   1      43.930  25.754  25.764  1.00  0.00     0.002 A 
ATOM     79  C   UNL A   1      42.599  23.873  26.512  1.00  0.00     0.091 A 
ATOM     80  F   UNL A   1      41.139  24.152  28.381  1.00  0.00    -0.205 F 
ATOM     81  C   UNL A   1      43.525  24.430  25.617  1.00  0.00     0.022 A 
BRANCH  79  82
ATOM     82  S   UNL A   1      42.226  22.125  26.334  1.00  0.00     0.127 S 
ATOM     83  O   UNL A   1      40.785  22.149  26.100  1.00  0.00    -0.237 OA
ATOM     84  O   UNL A   1      43.033  21.755  25.171  1.00  0.00    -0.237 OA
ATOM     85  O   UNL A   1      42.661  21.510  27.581  1.00  0.00    -0.744 OA
ENDBRANCH  79  82
ENDBRANCH  51  75
BRANCH  63  86
ATOM     86  C   UNL A   1      44.828  27.317  34.149  1.00  0.00     0.023 A 
ATOM     87  C   UNL A   1      45.977  28.131  34.136  1.00  0.00     0.012 A 
ATOM     88  C   UNL A   1      44.805  26.159  34.950  1.00  0.00     0.148 A 
ATOM     89  C   UNL A   1      47.093  27.791  34.897  1.00  0.00     0.002 A 
ATOM     90  C   UNL A   1      45.907  25.847  35.737  1.00  0.00     0.091 A 
ATOM     91  F   UNL A   1      43.706  25.391  34.932  1.00  0.00    -0.205 F 
ATOM     92  C   UNL A   1      47.054  26.657  35.706  1.00  0.00     0.022 A 
BRANCH  90  93
ATOM     93  S   UNL A   1      45.915  24.459  36.877  1.00  0.00     0.127 S 
ATOM     94  O   UNL A   1      47.274  24.520  37.412  1.00  0.00    -0.237 OA
ATOM     95  O   UNL A   1      44.867  24.832  37.829  1.00  0.00    -0.237 OA
ATOM     96  O   UNL A   1      45.610  23.281  36.077  1.00  0.00    -0.744 OA
ENDBRANCH  90  93
ENDBRANCH  63  86
ENDBRANCH  37  38
ENDBRANCH  29  32
ENDBRANCH  27  28
ENDBRANCH  26  27
ENDBRANCH   1  26
TORSDOF 18
ENDMDL
MODEL 2
REMARK VINA RESULT:     -12.2      5.248      7.575
REMARK SMILES [NH3+][C@@]1(C(=O)NCCCCNC(=O)c2ccc(-c3c4nc(c(-c5cccc(S(=O)(=O)[O-])c5F)c5ccc([nH]5)c(-c5cccc(S(=O)(=O)[O-])c5F)c5nc(c(-c6cccc(S(=O)(=O)[O-])c6F)c6ccc3[nH]6)C=C5)C=C4)cc2)CC[C@H](Oc2ccccc2[N+](=O)[O-])C1
REMARK SMILES IDX 7 1 6 2 5 3 3 4 4 5 2 7 76 8 89 9 77 10 78 11 1 12 79 16
REMARK SMILES IDX 80 17 81 18 85 19 82 20 84 21 83 22 86 23 87 24 88 25 8 26
REMARK SMILES IDX 9 27 10 28 11 29 12 31 13 32 14 33 75 34 15 35 74 36 16 37
REMARK SMILES IDX 17 38 18 39 68 40 19 41 73 42 67 43 69 44 20 45 72 46 66 47
REMARK SMILES IDX 65 48 21 50 53 51 33 52 52 53 34 54 37 55 51 56 70 57 35 58
REMARK SMILES IDX 36 59 50 61 71 62 38 63 22 64 23 65 31 66 24 67 26 68 32 69
REMARK SMILES IDX 25 70 27 71 28 72 29 73 30 74 54 75 55 76 63 77 56 78 58 79
REMARK SMILES IDX 64 80 57 81 59 82 60 83 61 84 62 85 39 86 40 87 48 88 41 89
REMARK SMILES IDX 43 90 49 91 42 92 44 93 45 94 46 95 47 96
REMARK H PARENT 5 6 1 13 1 14 1 15 10 30 69 49 37 60
REMARK Flexibility Score: inf
ROOT
ATOM      1  C   UNL A   1      35.610  22.805  23.457  1.00  0.00     0.023 C 
ENDROOT
BRANCH   1   2
ATOM      2  C   UNL A   1      34.683  22.856  24.661  1.00  0.00     0.116 C 
BRANCH   2   3
ATOM      3  N   UNL A   1      33.648  21.856  24.641  1.00  0.00    -0.351 N 
ATOM      4  C   UNL A   1      32.525  21.724  25.395  1.00  0.00     0.281 C 
ATOM      5  O   UNL A   1      31.766  20.795  25.080  1.00  0.00    -0.268 OA
ATOM      6  H   UNL A   1      33.774  21.149  23.969  1.00  0.00     0.163 HD
BRANCH   4   7
ATOM      7  C   UNL A   1      32.128  22.676  26.593  1.00  0.00     0.177 C 
ATOM      8  C   UNL A   1      30.621  22.785  26.818  1.00  0.00     0.083 C 
ATOM      9  C   UNL A   1      32.654  24.110  26.491  1.00  0.00     0.124 C 
ATOM     10  C   UNL A   1      30.203  24.171  26.347  1.00  0.00     0.052 C 
ATOM     11  C   UNL A   1      31.443  25.068  26.432  1.00  0.00     0.180 C 
BRANCH   7  12
ATOM     12  N   UNL A   1      32.713  22.057  27.822  1.00  0.00    -0.345 N 
ATOM     13  H   UNL A   1      32.130  21.275  28.120  1.00  0.00     0.345 HD
ATOM     14  H   UNL A   1      32.755  22.753  28.566  1.00  0.00     0.345 HD
ATOM     15  H   UNL A   1      33.655  21.721  27.618  1.00  0.00     0.345 HD
ENDBRANCH   7  12
BRANCH  11  16
ATOM     16  O   UNL A   1      31.742  25.961  25.355  1.00  0.00    -0.483 OA
BRANCH  16  17
ATOM     17  C   UNL A   1      31.893  27.306  25.405  1.00  0.00     0.197 A 
ATOM     18  C   UNL A   1      32.641  27.992  26.357  1.00  0.00     0.054 A 
ATOM     19  C   UNL A   1      31.164  28.070  24.470  1.00  0.00     0.310 A 
ATOM     20  C   UNL A   1      32.557  29.387  26.460  1.00  0.00     0.004 A 
ATOM     21  C   UNL A   1      31.069  29.466  24.571  1.00  0.00     0.090 A 
ATOM     22  C   UNL A   1      31.751  30.120  25.591  1.00  0.00     0.007 A 
BRANCH  19  23
ATOM     23  N   UNL A   1      30.460  27.426  23.358  1.00  0.00     0.066 N 
ATOM     24  O   UNL A   1      29.266  27.139  23.535  1.00  0.00    -0.258 OA
ATOM     25  O   UNL A   1      31.074  27.255  22.295  1.00  0.00    -0.258 OA
ENDBRANCH  19  23
ENDBRANCH  16  17
ENDBRANCH  11  16
ENDBRANCH   4   7
ENDBRANCH   2   3
ENDBRANCH   1   2
BRANCH   1  26
ATOM     26  C   UNL A   1      37.018  22.304  23.740  1.00  0.00     0.023 C 
BRANCH  26  27
ATOM     27  C   UNL A   1      37.288  21.884  25.183  1.00  0.00     0.116 C 
BRANCH  27  28
ATOM     28  N   UNL A   1      38.295  20.835  25.339  1.00  0.00    -0.352 N 
ATOM     29  C   UNL A   1      39.476  20.873  26.053  1.00  0.00     0.251 C 
ATOM     30  H   UNL A   1      38.106  19.989  24.872  1.00  0.00     0.163 HD
ATOM     31  O   UNL A   1      40.244  19.925  26.052  1.00  0.00    -0.269 OA
BRANCH  29  32
ATOM     32  C   UNL A   1      39.810  22.116  26.784  1.00  0.00     0.039 A 
ATOM     33  C   UNL A   1      40.801  22.077  27.766  1.00  0.00     0.014 A 
ATOM     34  C   UNL A   1      39.247  23.330  26.385  1.00  0.00     0.014 A 
ATOM     35  C   UNL A   1      41.323  23.275  28.258  1.00  0.00     0.010 A 
ATOM     36  C   UNL A   1      39.828  24.517  26.812  1.00  0.00     0.010 A 
ATOM     37  C   UNL A   1      40.891  24.503  27.730  1.00  0.00    -0.014 A 
BRANCH  37  38
ATOM     38  C   UNL A   1      41.574  25.783  28.052  1.00  0.00     0.031 A 
ATOM     39  C   UNL A   1      40.822  26.881  28.751  1.00  0.00     0.074 A 
ATOM     40  C   UNL A   1      42.817  26.012  27.580  1.00  0.00     0.049 A 
ATOM     41  N   UNL A   1      41.188  28.117  28.975  1.00  0.00    -0.248 NA
ATOM     42  C   UNL A   1      39.467  26.560  29.227  1.00  0.00     0.031 C 
ATOM     43  C   UNL A   1      43.620  25.063  26.803  1.00  0.00     0.029 A 
ATOM     44  N   UNL A   1      43.609  27.133  27.647  1.00  0.00    -0.354 N 
ATOM     45  C   UNL A   1      40.093  28.732  29.566  1.00  0.00     0.074 A 
ATOM     46  C   UNL A   1      39.040  27.744  29.643  1.00  0.00     0.031 C 
ATOM     47  C   UNL A   1      44.786  25.638  26.469  1.00  0.00     0.029 A 
ATOM     48  C   UNL A   1      44.803  27.008  26.971  1.00  0.00     0.049 A 
ATOM     49  H   UNL A   1      43.349  27.948  28.132  1.00  0.00     0.167 HD
ATOM     50  C   UNL A   1      39.982  29.999  30.033  1.00  0.00     0.034 A 
ATOM     51  C   UNL A   1      45.794  27.898  26.767  1.00  0.00     0.034 A 
ATOM     52  C   UNL A   1      41.054  30.955  30.027  1.00  0.00     0.049 A 
ATOM     53  C   UNL A   1      45.669  29.280  27.347  1.00  0.00     0.074 A 
ATOM     54  C   UNL A   1      41.083  32.216  30.595  1.00  0.00     0.029 A 
ATOM     55  N   UNL A   1      42.286  30.758  29.424  1.00  0.00    -0.354 N 
ATOM     56  N   UNL A   1      44.691  29.788  28.057  1.00  0.00    -0.248 NA
ATOM     57  C   UNL A   1      46.790  30.204  27.118  1.00  0.00     0.031 C 
ATOM     58  C   UNL A   1      42.333  32.786  30.328  1.00  0.00     0.029 A 
ATOM     59  C   UNL A   1      43.081  31.877  29.597  1.00  0.00     0.049 A 
ATOM     60  H   UNL A   1      42.556  29.941  28.944  1.00  0.00     0.167 HD
ATOM     61  C   UNL A   1      45.088  31.081  28.380  1.00  0.00     0.074 A 
ATOM     62  C   UNL A   1      46.405  31.270  27.808  1.00  0.00     0.031 C 
ATOM     63  C   UNL A   1      44.412  32.032  29.068  1.00  0.00     0.034 A 
BRANCH  50  64
ATOM     64  C   UNL A   1      38.676  30.396  30.665  1.00  0.00     0.023 A 
ATOM     65  C   UNL A   1      38.469  30.142  32.034  1.00  0.00     0.012 A 
ATOM     66  C   UNL A   1      37.679  31.060  29.924  1.00  0.00     0.148 A 
ATOM     67  C   UNL A   1      37.278  30.516  32.654  1.00  0.00     0.002 A 
ATOM     68  C   UNL A   1      36.509  31.463  30.557  1.00  0.00     0.091 A 
ATOM     69  F   UNL A   1      37.884  31.268  28.616  1.00  0.00    -0.205 F 
ATOM     70  C   UNL A   1      36.304  31.184  31.919  1.00  0.00     0.022 A 
BRANCH  68  71
ATOM     71  S   UNL A   1      35.224  32.389  29.710  1.00  0.00     0.127 S 
ATOM     72  O   UNL A   1      34.275  32.636  30.795  1.00  0.00    -0.237 OA
ATOM     73  O   UNL A   1      35.946  33.575  29.251  1.00  0.00    -0.237 OA
ATOM     74  O   UNL A   1      34.747  31.520  28.643  1.00  0.00    -0.744 OA
ENDBRANCH  68  71
ENDBRANCH  50  64
BRANCH  51  75
ATOM     75  C   UNL A   1      47.025  27.485  26.033  1.00  0.00     0.023 A 
ATOM     76  C   UNL A   1      48.016  26.754  26.717  1.00  0.00     0.012 A 
ATOM     77  C   UNL A   1      47.206  27.776  24.668  1.00  0.00     0.148 A 
ATOM     78  C   UNL A   1      49.174  26.339  26.060  1.00  0.00     0.002 A 
ATOM     79  C   UNL A   1      48.341  27.317  24.006  1.00  0.00     0.091 A 
ATOM     80  F   UNL A   1      46.262  28.490  24.038  1.00  0.00    -0.205 F 
ATOM     81  C   UNL A   1      49.332  26.610  24.703  1.00  0.00     0.022 A 
BRANCH  79  82
ATOM     82  S   UNL A   1      48.557  27.514  22.234  1.00  0.00     0.127 S 
ATOM     83  O   UNL A   1      48.668  26.127  21.791  1.00  0.00    -0.237 OA
ATOM     84  O   UNL A   1      47.318  28.188  21.845  1.00  0.00    -0.237 OA
ATOM     85  O   UNL A   1      49.753  28.332  22.081  1.00  0.00    -0.744 OA
ENDBRANCH  79  82
ENDBRANCH  51  75
BRANCH  63  86
ATOM     86  C   UNL A   1      45.079  33.368  29.256  1.00  0.00     0.023 A 
ATOM     87  C   UNL A   1      45.950  33.554  30.346  1.00  0.00     0.012 A 
ATOM     88  C   UNL A   1      44.923  34.396  28.307  1.00  0.00     0.148 A 
ATOM     89  C   UNL A   1      46.647  34.751  30.499  1.00  0.00     0.002 A 
ATOM     90  C   UNL A   1      45.650  35.573  28.443  1.00  0.00     0.091 A 
ATOM     91  F   UNL A   1      44.074  34.202  27.287  1.00  0.00    -0.205 F 
ATOM     92  C   UNL A   1      46.507  35.754  29.542  1.00  0.00     0.022 A 
BRANCH  90  93
ATOM     93  S   UNL A   1      45.604  36.883  27.215  1.00  0.00     0.127 S 
ATOM     94  O   UNL A   1      46.335  37.953  27.893  1.00  0.00    -0.237 OA
ATOM     95  O   UNL A   1      46.314  36.278  26.088  1.00  0.00    -0.237 OA
ATOM     96  O   UNL A   1      44.194  37.150  26.966  1.00  0.00    -0.744 OA
ENDBRANCH  90  93
ENDBRANCH  63  86
ENDBRANCH  37  38
ENDBRANCH  29  32
ENDBRANCH  27  28
ENDBRANCH  26  27
ENDBRANCH   1  26
TORSDOF 18
ENDMDL
MODEL 3
REMARK VINA RESULT:     -12.2      1.381      7.871
REMARK SMILES [NH3+][C@@]1(C(=O)NCCCCNC(=O)c2ccc(-c3c4nc(c(-c5cccc(S(=O)(=O)[O-])c5F)c5ccc([nH]5)c(-c5cccc(S(=O)(=O)[O-])c5F)c5nc(c(-c6cccc(S(=O)(=O)[O-])c6F)c6ccc3[nH]6)C=C5)C=C4)cc2)CC[C@H](Oc2ccccc2[N+](=O)[O-])C1
REMARK SMILES IDX 7 1 6 2 5 3 3 4 4 5 2 7 76 8 89 9 77 10 78 11 1 12 79 16
REMARK SMILES IDX 80 17 81 18 85 19 82 20 84 21 83 22 86 23 87 24 88 25 8 26
REMARK SMILES IDX 9 27 10 28 11 29 12 31 13 32 14 33 75 34 15 35 74 36 16 37
REMARK SMILES IDX 17 38 18 39 68 40 19 41 73 42 67 43 69 44 20 45 72 46 66 47
REMARK SMILES IDX 65 48 21 50 53 51 33 52 52 53 34 54 37 55 51 56 70 57 35 58
REMARK SMILES IDX 36 59 50 61 71 62 38 63 22 64 23 65 31 66 24 67 26 68 32 69
REMARK SMILES IDX 25 70 27 71 28 72 29 73 30 74 54 75 55 76 63 77 56 78 58 79
REMARK SMILES IDX 64 80 57 81 59 82 60 83 61 84 62 85 39 86 40 87 48 88 41 89
REMARK SMILES IDX 43 90 49 91 42 92 44 93 45 94 46 95 47 96
REMARK H PARENT 5 6 1 13 1 14 1 15 10 30 69 49 37 60
REMARK Flexibility Score: inf
ROOT
ATOM      1  C   UNL A   1      32.163  28.547  27.487  1.00  0.00     0.023 C 
ENDROOT
BRANCH   1   2
ATOM      2  C   UNL A   1      31.798  27.256  26.773  1.00  0.00     0.116 C 
BRANCH   2   3
ATOM      3  N   UNL A   1      32.128  27.251  25.371  1.00  0.00    -0.351 N 
ATOM      4  C   UNL A   1      31.638  26.508  24.345  1.00  0.00     0.281 C 
ATOM      5  O   UNL A   1      32.060  26.798  23.216  1.00  0.00    -0.268 OA
ATOM      6  H   UNL A   1      32.825  27.896  25.113  1.00  0.00     0.163 HD
BRANCH   4   7
ATOM      7  C   UNL A   1      30.572  25.352  24.501  1.00  0.00     0.177 C 
ATOM      8  C   UNL A   1      30.627  24.643  25.853  1.00  0.00     0.083 C 
ATOM      9  C   UNL A   1      30.637  24.253  23.436  1.00  0.00     0.124 C 
ATOM     10  C   UNL A   1      31.224  23.264  25.606  1.00  0.00     0.052 C 
ATOM     11  C   UNL A   1      30.953  22.914  24.138  1.00  0.00     0.180 C 
BRANCH   7  12
ATOM     12  N   UNL A   1      29.233  26.009  24.403  1.00  0.00    -0.345 N 
ATOM     13  H   UNL A   1      28.513  25.363  24.727  1.00  0.00     0.345 HD
ATOM     14  H   UNL A   1      29.050  26.265  23.434  1.00  0.00     0.345 HD
ATOM     15  H   UNL A   1      29.224  26.849  24.984  1.00  0.00     0.345 HD
ENDBRANCH   7  12
BRANCH  11  16
ATOM     16  O   UNL A   1      31.995  22.331  23.350  1.00  0.00    -0.483 OA
BRANCH  16  17
ATOM     17  C   UNL A   1      33.051  21.597  23.776  1.00  0.00     0.197 A 
ATOM     18  C   UNL A   1      33.010  20.240  24.081  1.00  0.00     0.054 A 
ATOM     19  C   UNL A   1      34.260  22.286  24.008  1.00  0.00     0.310 A 
ATOM     20  C   UNL A   1      34.092  19.621  24.723  1.00  0.00     0.004 A 
ATOM     21  C   UNL A   1      35.343  21.675  24.657  1.00  0.00     0.090 A 
ATOM     22  C   UNL A   1      35.243  20.341  25.037  1.00  0.00     0.007 A 
BRANCH  19  23
ATOM     23  N   UNL A   1      34.424  23.680  23.591  1.00  0.00     0.066 N 
ATOM     24  O   UNL A   1      34.686  24.508  24.476  1.00  0.00    -0.258 OA
ATOM     25  O   UNL A   1      34.346  23.944  22.382  1.00  0.00    -0.258 OA
ENDBRANCH  19  23
ENDBRANCH  16  17
ENDBRANCH  11  16
ENDBRANCH   4   7
ENDBRANCH   2   3
ENDBRANCH   1   2
BRANCH   1  26
ATOM     26  C   UNL A   1      31.562  29.812  26.892  1.00  0.00     0.023 C 
BRANCH  26  27
ATOM     27  C   UNL A   1      32.569  30.852  26.408  1.00  0.00     0.116 C 
BRANCH  27  28
ATOM     28  N   UNL A   1      32.424  32.176  27.013  1.00  0.00    -0.352 N 
ATOM     29  C   UNL A   1      33.341  32.888  27.760  1.00  0.00     0.251 C 
ATOM     30  H   UNL A   1      31.556  32.617  26.869  1.00  0.00     0.163 HD
ATOM     31  O   UNL A   1      33.056  33.972  28.241  1.00  0.00    -0.269 OA
BRANCH  29  32
ATOM     32  C   UNL A   1      34.668  32.278  28.003  1.00  0.00     0.039 A 
ATOM     33  C   UNL A   1      35.799  33.097  28.000  1.00  0.00     0.014 A 
ATOM     34  C   UNL A   1      34.759  30.936  28.377  1.00  0.00     0.014 A 
ATOM     35  C   UNL A   1      37.004  32.599  28.502  1.00  0.00     0.010 A 
ATOM     36  C   UNL A   1      35.934  30.473  28.954  1.00  0.00     0.010 A 
ATOM     37  C   UNL A   1      37.060  31.307  29.050  1.00  0.00    -0.014 A 
BRANCH  37  38
ATOM     38  C   UNL A   1      38.248  30.820  29.799  1.00  0.00     0.031 A 
ATOM     39  C   UNL A   1      39.139  29.771  29.195  1.00  0.00     0.074 A 
ATOM     40  C   UNL A   1      38.435  31.208  31.078  1.00  0.00     0.049 A 
ATOM     41  N   UNL A   1      40.121  29.107  29.747  1.00  0.00    -0.248 NA
ATOM     42  C   UNL A   1      38.865  29.390  27.800  1.00  0.00     0.031 C 
ATOM     43  C   UNL A   1      37.585  32.150  31.813  1.00  0.00     0.029 A 
ATOM     44  N   UNL A   1      39.377  30.827  32.002  1.00  0.00    -0.354 N 
ATOM     45  C   UNL A   1      40.545  28.196  28.789  1.00  0.00     0.074 A 
ATOM     46  C   UNL A   1      39.698  28.373  27.630  1.00  0.00     0.031 C 
ATOM     47  C   UNL A   1      38.044  32.273  33.068  1.00  0.00     0.029 A 
ATOM     48  C   UNL A   1      39.195  31.394  33.243  1.00  0.00     0.049 A 
ATOM     49  H   UNL A   1      40.113  30.207  31.796  1.00  0.00     0.167 HD
ATOM     50  C   UNL A   1      41.569  27.312  28.854  1.00  0.00     0.034 A 
ATOM     51  C   UNL A   1      39.870  31.218  34.397  1.00  0.00     0.034 A 
ATOM     52  C   UNL A   1      42.458  27.192  29.976  1.00  0.00     0.049 A 
ATOM     53  C   UNL A   1      41.039  30.272  34.425  1.00  0.00     0.074 A 
ATOM     54  C   UNL A   1      43.603  26.423  30.087  1.00  0.00     0.029 A 
ATOM     55  N   UNL A   1      42.305  27.859  31.182  1.00  0.00    -0.354 N 
ATOM     56  N   UNL A   1      41.534  29.547  33.451  1.00  0.00    -0.248 NA
ATOM     57  C   UNL A   1      41.758  30.136  35.700  1.00  0.00     0.031 C 
ATOM     58  C   UNL A   1      44.137  26.619  31.365  1.00  0.00     0.029 A 
ATOM     59  C   UNL A   1      43.327  27.512  32.047  1.00  0.00     0.049 A 
ATOM     60  H   UNL A   1      41.575  28.487  31.391  1.00  0.00     0.167 HD
ATOM     61  C   UNL A   1      42.633  28.888  33.989  1.00  0.00     0.074 A 
ATOM     62  C   UNL A   1      42.747  29.318  35.367  1.00  0.00     0.031 C 
ATOM     63  C   UNL A   1      43.459  27.989  33.399  1.00  0.00     0.034 A 
BRANCH  50  64
ATOM     64  C   UNL A   1      41.832  26.460  27.643  1.00  0.00     0.023 A 
ATOM     65  C   UNL A   1      42.428  27.043  26.508  1.00  0.00     0.012 A 
ATOM     66  C   UNL A   1      41.538  25.083  27.642  1.00  0.00     0.148 A 
ATOM     67  C   UNL A   1      42.702  26.276  25.377  1.00  0.00     0.002 A 
ATOM     68  C   UNL A   1      41.848  24.316  26.524  1.00  0.00     0.091 A 
ATOM     69  F   UNL A   1      40.946  24.552  28.722  1.00  0.00    -0.205 F 
ATOM     70  C   UNL A   1      42.422  24.913  25.389  1.00  0.00     0.022 A 
BRANCH  68  71
ATOM     71  S   UNL A   1      41.587  22.540  26.469  1.00  0.00     0.127 S 
ATOM     72  O   UNL A   1      42.136  22.122  27.758  1.00  0.00    -0.237 OA
ATOM     73  O   UNL A   1      40.131  22.442  26.367  1.00  0.00    -0.237 OA
ATOM     74  O   UNL A   1      42.308  22.069  25.295  1.00  0.00    -0.744 OA
ENDBRANCH  68  71
ENDBRANCH  50  64
BRANCH  51  75
ATOM     75  C   UNL A   1      39.496  32.007  35.605  1.00  0.00     0.023 A 
ATOM     76  C   UNL A   1      39.997  33.315  35.750  1.00  0.00     0.012 A 
ATOM     77  C   UNL A   1      38.628  31.493  36.586  1.00  0.00     0.148 A 
ATOM     78  C   UNL A   1      39.659  34.089  36.860  1.00  0.00     0.002 A 
ATOM     79  C   UNL A   1      38.255  32.287  37.667  1.00  0.00     0.091 A 
ATOM     80  F   UNL A   1      38.176  30.239  36.443  1.00  0.00    -0.205 F 
ATOM     81  C   UNL A   1      38.779  33.581  37.812  1.00  0.00     0.022 A 
BRANCH  79  82
ATOM     82  S   UNL A   1      37.029  31.753  38.866  1.00  0.00     0.127 S 
ATOM     83  O   UNL A   1      36.812  30.364  38.473  1.00  0.00    -0.237 OA
ATOM     84  O   UNL A   1      37.740  31.931  40.133  1.00  0.00    -0.237 OA
ATOM     85  O   UNL A   1      35.898  32.653  38.686  1.00  0.00    -0.744 OA
ENDBRANCH  79  82
ENDBRANCH  51  75
BRANCH  63  86
ATOM     86  C   UNL A   1      44.571  27.409  34.231  1.00  0.00     0.023 A 
ATOM     87  C   UNL A   1      45.818  28.063  34.263  1.00  0.00     0.012 A 
ATOM     88  C   UNL A   1      44.353  26.286  35.051  1.00  0.00     0.148 A 
ATOM     89  C   UNL A   1      46.840  27.598  35.089  1.00  0.00     0.002 A 
ATOM     90  C   UNL A   1      45.363  25.850  35.902  1.00  0.00     0.091 A 
ATOM     91  F   UNL A   1      43.164  25.671  34.990  1.00  0.00    -0.205 F 
ATOM     92  C   UNL A   1      46.608  26.501  35.916  1.00  0.00     0.022 A 
BRANCH  90  93
ATOM     93  S   UNL A   1      45.128  24.504  37.067  1.00  0.00     0.127 S 
ATOM     94  O   UNL A   1      46.422  24.468  37.746  1.00  0.00    -0.237 OA
ATOM     95  O   UNL A   1      44.021  24.994  37.890  1.00  0.00    -0.237 OA
ATOM     96  O   UNL A   1      44.809  23.331  36.266  1.00  0.00    -0.744 OA
ENDBRANCH  90  93
ENDBRANCH  63  86
ENDBRANCH  37  38
ENDBRANCH  29  32
ENDBRANCH  27  28
ENDBRANCH  26  27
ENDBRANCH   1  26
TORSDOF 18
ENDMDL
