MODEL 1
REMARK VINA RESULT:     -12.7      0.000      0.000
REMARK SMILES [NH3+]C[C@H]1CC[C@@H](C(=O)N[C@@H]2C=C[C@@H](C(=O)NCCCCNC(=O)c3ccc(-c4c5nc(c(-c6cccc(S(=O)(=O)[O-])c6F)c6ccc([nH]6)c(-c6cccc(S(=O)(=O)[O-])c6F)c6nc(c(-c7cccc(S(=O)(=O)[O-])c7F)c7ccc4[nH]7)C=C6)C=C5)cc3)C2)CC1
REMARK SMILES IDX 18 1 17 2 16 3 14 4 15 5 13 7 10 8 11 9 87 10 12 11 9 12
REMARK SMILES IDX 7 13 8 14 6 16 3 17 4 18 89 19 5 20 88 21 2 22 1 23 19 27
REMARK SMILES IDX 20 28 21 29 22 30 23 32 24 33 25 34 86 35 26 36 85 37 27 38
REMARK SMILES IDX 28 39 29 40 79 41 30 42 84 43 78 44 80 45 31 46 83 47 77 48
REMARK SMILES IDX 76 49 32 51 64 52 44 53 63 54 45 55 48 56 62 57 81 58 46 59
REMARK SMILES IDX 47 60 61 62 82 63 49 64 33 65 34 66 42 67 35 68 37 69 43 70
REMARK SMILES IDX 36 71 38 72 39 73 40 74 41 75 65 76 66 77 74 78 67 79 69 80
REMARK SMILES IDX 75 81 68 82 70 83 71 84 72 85 73 86 50 87 51 88 59 89 52 90
REMARK SMILES IDX 54 91 60 92 53 93 55 94 56 95 57 96 58 97
REMARK H PARENT 16 6 9 15 1 24 1 25 1 26 21 31 80 50 48 61
REMARK Flexibility Score: inf
ROOT
ATOM      1  C   UNL A   1      31.098  29.915  25.485  1.00  0.00     0.023 C 
ENDROOT
BRANCH   1   2
ATOM      2  C   UNL A   1      30.594  31.081  24.616  1.00  0.00     0.116 C 
BRANCH   2   3
ATOM      3  N   UNL A   1      29.344  30.837  23.861  1.00  0.00    -0.356 N 
ATOM      4  C   UNL A   1      28.664  29.823  23.249  1.00  0.00     0.227 C 
ATOM      5  O   UNL A   1      27.477  30.128  23.026  1.00  0.00    -0.274 OA
ATOM      6  H   UNL A   1      28.840  31.678  23.771  1.00  0.00     0.163 HD
BRANCH   4   7
ATOM      7  C   UNL A   1      29.112  28.340  22.728  1.00  0.00     0.103 C 
ATOM      8  C   UNL A   1      31.629  26.254  22.994  1.00  0.00     0.106 C 
ATOM      9  C   UNL A   1      30.173  25.765  23.923  1.00  0.00    -0.006 C 
ATOM     10  C   UNL A   1      31.008  27.972  22.145  1.00  0.00     0.047 C 
ATOM     11  C   UNL A   1      28.679  26.699  23.772  1.00  0.00    -0.016 C 
BRANCH   8  12
ATOM     12  N   UNL A   1      31.707  24.773  22.537  1.00  0.00    -0.350 N 
ATOM     13  C   UNL A   1      32.929  23.962  22.388  1.00  0.00     0.223 C 
ATOM     14  O   UNL A   1      32.939  23.058  21.549  1.00  0.00    -0.275 OA
ATOM     15  H   UNL A   1      30.854  24.330  22.325  1.00  0.00     0.164 HD
BRANCH  13  16
ATOM     16  C   UNL A   1      34.315  24.242  23.410  1.00  0.00     0.078 C 
ATOM     17  C   UNL A   1      31.991  23.278  26.297  1.00  0.00     0.044 C 
ATOM     18  C   UNL A   1      33.078  21.963  24.836  1.00  0.00     0.010 C 
ATOM     19  C   UNL A   1      32.813  25.140  26.294  1.00  0.00     0.010 C 
ATOM     20  C   UNL A   1      34.499  22.655  23.819  1.00  0.00     0.014 C 
ATOM     21  C   UNL A   1      34.191  25.433  24.921  1.00  0.00     0.014 C 
BRANCH  17  22
ATOM     22  C   UNL A   1      30.418  23.469  26.782  1.00  0.00     0.262 C 
BRANCH  22  23
ATOM     23  N   UNL A   1      29.538  22.304  26.728  1.00  0.00    -0.357 N 
ATOM     24  H   UNL A   1      28.614  22.590  26.404  1.00  0.00     0.344 HD
ATOM     25  H   UNL A   1      29.460  21.893  27.658  1.00  0.00     0.344 HD
ATOM     26  H   UNL A   1      29.925  21.615  26.084  1.00  0.00     0.344 HD
ENDBRANCH  22  23
ENDBRANCH  17  22
ENDBRANCH  13  16
ENDBRANCH   8  12
ENDBRANCH   4   7
ENDBRANCH   2   3
ENDBRANCH   1   2
BRANCH   1  27
ATOM     27  C   UNL A   1      32.500  29.409  25.213  1.00  0.00     0.023 C 
BRANCH  27  28
ATOM     28  C   UNL A   1      33.483  29.864  26.260  1.00  0.00     0.116 C 
BRANCH  28  29
ATOM     29  N   UNL A   1      33.176  31.191  26.806  1.00  0.00    -0.352 N 
ATOM     30  C   UNL A   1      33.922  31.930  27.688  1.00  0.00     0.251 C 
ATOM     31  H   UNL A   1      32.333  31.601  26.503  1.00  0.00     0.163 HD
ATOM     32  O   UNL A   1      33.510  32.980  28.162  1.00  0.00    -0.269 OA
BRANCH  30  33
ATOM     33  C   UNL A   1      35.229  31.375  28.052  1.00  0.00     0.039 A 
ATOM     34  C   UNL A   1      36.336  32.216  28.101  1.00  0.00     0.014 A 
ATOM     35  C   UNL A   1      35.268  30.071  28.548  1.00  0.00     0.014 A 
ATOM     36  C   UNL A   1      37.496  31.745  28.704  1.00  0.00     0.010 A 
ATOM     37  C   UNL A   1      36.359  29.675  29.290  1.00  0.00     0.010 A 
ATOM     38  C   UNL A   1      37.499  30.486  29.330  1.00  0.00    -0.014 A 
BRANCH  38  39
ATOM     39  C   UNL A   1      38.715  29.955  29.972  1.00  0.00     0.031 A 
ATOM     40  C   UNL A   1      39.078  30.439  31.348  1.00  0.00     0.074 A 
ATOM     41  C   UNL A   1      39.507  29.101  29.296  1.00  0.00     0.049 A 
ATOM     42  N   UNL A   1      40.104  30.118  32.087  1.00  0.00    -0.248 NA
ATOM     43  C   UNL A   1      38.197  31.454  31.962  1.00  0.00     0.031 C 
ATOM     44  C   UNL A   1      39.295  28.652  27.917  1.00  0.00     0.029 A 
ATOM     45  N   UNL A   1      40.656  28.464  29.679  1.00  0.00    -0.354 N 
ATOM     46  C   UNL A   1      40.011  30.914  33.220  1.00  0.00     0.074 A 
ATOM     47  C   UNL A   1      38.876  31.787  33.046  1.00  0.00     0.031 C 
ATOM     48  C   UNL A   1      40.266  27.787  27.583  1.00  0.00     0.029 A 
ATOM     49  C   UNL A   1      41.181  27.645  28.709  1.00  0.00     0.049 A 
ATOM     50  H   UNL A   1      41.068  28.582  30.566  1.00  0.00     0.167 HD
ATOM     51  C   UNL A   1      40.774  30.887  34.334  1.00  0.00     0.034 A 
ATOM     52  C   UNL A   1      42.278  26.865  28.738  1.00  0.00     0.034 A 
ATOM     53  C   UNL A   1      41.863  29.973  34.516  1.00  0.00     0.049 A 
ATOM     54  C   UNL A   1      43.079  26.810  30.011  1.00  0.00     0.074 A 
ATOM     55  C   UNL A   1      42.650  29.783  35.634  1.00  0.00     0.029 A 
ATOM     56  N   UNL A   1      42.320  29.096  33.543  1.00  0.00    -0.354 N 
ATOM     57  N   UNL A   1      42.881  27.449  31.140  1.00  0.00    -0.248 NA
ATOM     58  C   UNL A   1      44.230  25.898  30.029  1.00  0.00     0.031 C 
ATOM     59  C   UNL A   1      43.609  28.814  35.325  1.00  0.00     0.029 A 
ATOM     60  C   UNL A   1      43.390  28.371  34.029  1.00  0.00     0.049 A 
ATOM     61  H   UNL A   1      41.937  29.005  32.640  1.00  0.00     0.167 HD
ATOM     62  C   UNL A   1      43.860  26.992  32.013  1.00  0.00     0.074 A 
ATOM     63  C   UNL A   1      44.633  26.003  31.288  1.00  0.00     0.031 C 
ATOM     64  C   UNL A   1      44.109  27.363  33.294  1.00  0.00     0.034 A 
BRANCH  51  65
ATOM     65  C   UNL A   1      40.421  31.839  35.445  1.00  0.00     0.023 A 
ATOM     66  C   UNL A   1      41.215  32.984  35.671  1.00  0.00     0.012 A 
ATOM     67  C   UNL A   1      39.288  31.615  36.249  1.00  0.00     0.148 A 
ATOM     68  C   UNL A   1      40.912  33.867  36.705  1.00  0.00     0.002 A 
ATOM     69  C   UNL A   1      38.961  32.529  37.243  1.00  0.00     0.091 A 
ATOM     70  F   UNL A   1      38.564  30.507  36.040  1.00  0.00    -0.205 F 
ATOM     71  C   UNL A   1      39.778  33.647  37.482  1.00  0.00     0.022 A 
BRANCH  69  72
ATOM     72  S   UNL A   1      37.478  32.380  38.242  1.00  0.00     0.127 S 
ATOM     73  O   UNL A   1      37.836  33.170  39.420  1.00  0.00    -0.237 OA
ATOM     74  O   UNL A   1      36.467  32.993  37.380  1.00  0.00    -0.237 OA
ATOM     75  O   UNL A   1      37.293  30.956  38.482  1.00  0.00    -0.744 OA
ENDBRANCH  69  72
ENDBRANCH  51  65
BRANCH  52  76
ATOM     76  C   UNL A   1      42.635  26.029  27.558  1.00  0.00     0.023 A 
ATOM     77  C   UNL A   1      43.458  26.564  26.548  1.00  0.00     0.012 A 
ATOM     78  C   UNL A   1      42.185  24.700  27.445  1.00  0.00     0.148 A 
ATOM     79  C   UNL A   1      43.793  25.804  25.426  1.00  0.00     0.002 A 
ATOM     80  C   UNL A   1      42.569  23.930  26.354  1.00  0.00     0.091 A 
ATOM     81  F   UNL A   1      41.400  24.211  28.415  1.00  0.00    -0.205 F 
ATOM     82  C   UNL A   1      43.357  24.485  25.334  1.00  0.00     0.022 A 
BRANCH  80  83
ATOM     83  S   UNL A   1      42.162  22.186  26.216  1.00  0.00     0.127 S 
ATOM     84  O   UNL A   1      42.883  21.805  25.004  1.00  0.00    -0.237 OA
ATOM     85  O   UNL A   1      42.718  21.648  27.459  1.00  0.00    -0.237 OA
ATOM     86  O   UNL A   1      40.709  22.126  26.133  1.00  0.00    -0.744 OA
ENDBRANCH  80  83
ENDBRANCH  52  76
BRANCH  64  87
ATOM     87  C   UNL A   1      45.239  26.671  34.007  1.00  0.00     0.023 A 
ATOM     88  C   UNL A   1      46.554  27.156  33.881  1.00  0.00     0.012 A 
ATOM     89  C   UNL A   1      44.977  25.582  34.863  1.00  0.00     0.148 A 
ATOM     90  C   UNL A   1      47.601  26.545  34.568  1.00  0.00     0.002 A 
ATOM     91  C   UNL A   1      46.016  25.016  35.588  1.00  0.00     0.091 A 
ATOM     92  F   UNL A   1      43.718  25.129  34.955  1.00  0.00    -0.205 F 
ATOM     93  C   UNL A   1      47.329  25.484  35.430  1.00  0.00     0.022 A 
BRANCH  91  94
ATOM     94  S   UNL A   1      45.743  23.719  36.800  1.00  0.00     0.127 S 
ATOM     95  O   UNL A   1      45.229  22.635  35.964  1.00  0.00    -0.237 OA
ATOM     96  O   UNL A   1      47.092  23.499  37.324  1.00  0.00    -0.237 OA
ATOM     97  O   UNL A   1      44.800  24.263  37.767  1.00  0.00    -0.744 OA
ENDBRANCH  91  94
ENDBRANCH  64  87
ENDBRANCH  38  39
ENDBRANCH  30  33
ENDBRANCH  28  29
ENDBRANCH  27  28
ENDBRANCH   1  27
TORSDOF 18
ENDMDL
MODEL 2
REMARK VINA RESULT:     -12.7      2.002      2.789
REMARK SMILES [NH3+]C[C@H]1CC[C@@H](C(=O)N[C@@H]2C=C[C@@H](C(=O)NCCCCNC(=O)c3ccc(-c4c5nc(c(-c6cccc(S(=O)(=O)[O-])c6F)c6ccc([nH]6)c(-c6cccc(S(=O)(=O)[O-])c6F)c6nc(c(-c7cccc(S(=O)(=O)[O-])c7F)c7ccc4[nH]7)C=C6)C=C5)cc3)C2)CC1
REMARK SMILES IDX 18 1 17 2 16 3 14 4 15 5 13 7 10 8 11 9 87 10 12 11 9 12
REMARK SMILES IDX 7 13 8 14 6 16 3 17 4 18 89 19 5 20 88 21 2 22 1 23 19 27
REMARK SMILES IDX 20 28 21 29 22 30 23 32 24 33 25 34 86 35 26 36 85 37 27 38
REMARK SMILES IDX 28 39 29 40 79 41 30 42 84 43 78 44 80 45 31 46 83 47 77 48
REMARK SMILES IDX 76 49 32 51 64 52 44 53 63 54 45 55 48 56 62 57 81 58 46 59
REMARK SMILES IDX 47 60 61 62 82 63 49 64 33 65 34 66 42 67 35 68 37 69 43 70
REMARK SMILES IDX 36 71 38 72 39 73 40 74 41 75 65 76 66 77 74 78 67 79 69 80
REMARK SMILES IDX 75 81 68 82 70 83 71 84 72 85 73 86 50 87 51 88 59 89 52 90
REMARK SMILES IDX 54 91 60 92 53 93 55 94 56 95 57 96 58 97
REMARK H PARENT 16 6 9 15 1 24 1 25 1 26 21 31 80 50 48 61
REMARK Flexibility Score: inf
ROOT
ATOM      1  C   UNL A   1      31.287  27.924  25.557  1.00  0.00     0.023 C 
ENDROOT
BRANCH   1   2
ATOM      2  C   UNL A   1      31.161  28.632  24.196  1.00  0.00     0.116 C 
BRANCH   2   3
ATOM      3  N   UNL A   1      31.487  27.816  23.005  1.00  0.00    -0.356 N 
ATOM      4  C   UNL A   1      31.727  26.519  22.651  1.00  0.00     0.227 C 
ATOM      5  O   UNL A   1      31.647  26.353  21.419  1.00  0.00    -0.274 OA
ATOM      6  H   UNL A   1      31.551  28.396  22.212  1.00  0.00     0.163 HD
BRANCH   4   7
ATOM      7  C   UNL A   1      32.132  25.190  23.510  1.00  0.00     0.103 C 
ATOM      8  C   UNL A   1      33.317  24.386  26.461  1.00  0.00     0.106 C 
ATOM      9  C   UNL A   1      31.570  24.029  26.252  1.00  0.00    -0.006 C 
ATOM     10  C   UNL A   1      33.788  25.160  24.662  1.00  0.00     0.047 C 
ATOM     11  C   UNL A   1      30.807  24.263  24.673  1.00  0.00    -0.016 C 
BRANCH   8  12
ATOM     12  N   UNL A   1      33.420  22.980  27.109  1.00  0.00    -0.350 N 
ATOM     13  C   UNL A   1      33.818  21.729  26.438  1.00  0.00     0.223 C 
ATOM     14  O   UNL A   1      33.361  20.663  26.856  1.00  0.00    -0.275 OA
ATOM     15  H   UNL A   1      33.196  22.916  28.065  1.00  0.00     0.164 HD
BRANCH  13  16
ATOM     16  C   UNL A   1      34.952  21.751  25.112  1.00  0.00     0.078 C 
ATOM     17  C   UNL A   1      33.440  18.361  24.172  1.00  0.00     0.044 C 
ATOM     18  C   UNL A   1      32.652  20.431  23.801  1.00  0.00     0.010 C 
ATOM     19  C   UNL A   1      35.424  18.448  24.619  1.00  0.00     0.010 C 
ATOM     20  C   UNL A   1      33.792  21.916  23.952  1.00  0.00     0.014 C 
ATOM     21  C   UNL A   1      36.146  20.267  24.822  1.00  0.00     0.014 C 
BRANCH  17  22
ATOM     22  C   UNL A   1      32.867  16.981  24.889  1.00  0.00     0.262 C 
BRANCH  22  23
ATOM     23  N   UNL A   1      33.590  16.459  26.047  1.00  0.00    -0.357 N 
ATOM     24  H   UNL A   1      32.938  16.313  26.818  1.00  0.00     0.344 HD
ATOM     25  H   UNL A   1      34.307  17.127  26.330  1.00  0.00     0.344 HD
ATOM     26  H   UNL A   1      34.030  15.572  25.802  1.00  0.00     0.344 HD
ENDBRANCH  22  23
ENDBRANCH  17  22
ENDBRANCH  13  16
ENDBRANCH   8  12
ENDBRANCH   4   7
ENDBRANCH   2   3
ENDBRANCH   1   2
BRANCH   1  27
ATOM     27  C   UNL A   1      31.818  28.745  26.714  1.00  0.00     0.023 C 
BRANCH  27  28
ATOM     28  C   UNL A   1      32.877  29.724  26.279  1.00  0.00     0.116 C 
BRANCH  28  29
ATOM     29  N   UNL A   1      32.555  31.116  26.617  1.00  0.00    -0.352 N 
ATOM     30  C   UNL A   1      33.303  31.995  27.357  1.00  0.00     0.251 C 
ATOM     31  H   UNL A   1      31.699  31.459  26.271  1.00  0.00     0.163 HD
ATOM     32  O   UNL A   1      32.879  33.100  27.669  1.00  0.00    -0.269 OA
BRANCH  30  33
ATOM     33  C   UNL A   1      34.626  31.525  27.776  1.00  0.00     0.039 A 
ATOM     34  C   UNL A   1      35.644  32.451  27.983  1.00  0.00     0.014 A 
ATOM     35  C   UNL A   1      34.751  30.190  28.162  1.00  0.00     0.014 A 
ATOM     36  C   UNL A   1      36.796  32.030  28.635  1.00  0.00     0.010 A 
ATOM     37  C   UNL A   1      35.818  29.825  28.954  1.00  0.00     0.010 A 
ATOM     38  C   UNL A   1      36.872  30.725  29.151  1.00  0.00    -0.014 A 
BRANCH  38  39
ATOM     39  C   UNL A   1      38.083  30.245  29.841  1.00  0.00     0.031 A 
ATOM     40  C   UNL A   1      38.343  30.702  31.249  1.00  0.00     0.074 A 
ATOM     41  C   UNL A   1      38.960  29.463  29.184  1.00  0.00     0.049 A 
ATOM     42  N   UNL A   1      39.347  30.418  32.033  1.00  0.00    -0.248 NA
ATOM     43  C   UNL A   1      37.371  31.642  31.846  1.00  0.00     0.031 C 
ATOM     44  C   UNL A   1      38.848  29.050  27.781  1.00  0.00     0.029 A 
ATOM     45  N   UNL A   1      40.124  28.883  29.608  1.00  0.00    -0.354 N 
ATOM     46  C   UNL A   1      39.147  31.168  33.183  1.00  0.00     0.074 A 
ATOM     47  C   UNL A   1      37.971  31.977  32.975  1.00  0.00     0.031 C 
ATOM     48  C   UNL A   1      39.887  28.256  27.474  1.00  0.00     0.029 A 
ATOM     49  C   UNL A   1      40.749  28.131  28.643  1.00  0.00     0.049 A 
ATOM     50  H   UNL A   1      40.482  28.995  30.519  1.00  0.00     0.167 HD
ATOM     51  C   UNL A   1      39.851  31.148  34.335  1.00  0.00     0.034 A 
ATOM     52  C   UNL A   1      41.888  27.417  28.707  1.00  0.00     0.034 A 
ATOM     53  C   UNL A   1      40.983  30.294  34.547  1.00  0.00     0.049 A 
ATOM     54  C   UNL A   1      42.623  27.366  30.019  1.00  0.00     0.074 A 
ATOM     55  C   UNL A   1      41.721  30.114  35.700  1.00  0.00     0.029 A 
ATOM     56  N   UNL A   1      41.543  29.480  33.574  1.00  0.00    -0.354 N 
ATOM     57  N   UNL A   1      42.328  27.953  31.154  1.00  0.00    -0.248 NA
ATOM     58  C   UNL A   1      43.826  26.524  30.071  1.00  0.00     0.031 C 
ATOM     59  C   UNL A   1      42.752  29.215  35.413  1.00  0.00     0.029 A 
ATOM     60  C   UNL A   1      42.628  28.804  34.094  1.00  0.00     0.049 A 
ATOM     61  H   UNL A   1      41.214  29.398  32.649  1.00  0.00     0.167 HD
ATOM     62  C   UNL A   1      43.286  27.526  32.065  1.00  0.00     0.074 A 
ATOM     63  C   UNL A   1      44.155  26.609  31.353  1.00  0.00     0.031 C 
ATOM     64  C   UNL A   1      43.445  27.866  33.369  1.00  0.00     0.034 A 
BRANCH  51  65
ATOM     65  C   UNL A   1      39.382  32.039  35.455  1.00  0.00     0.023 A 
ATOM     66  C   UNL A   1      38.464  31.548  36.408  1.00  0.00     0.012 A 
ATOM     67  C   UNL A   1      39.871  33.353  35.579  1.00  0.00     0.148 A 
ATOM     68  C   UNL A   1      38.008  32.364  37.441  1.00  0.00     0.002 A 
ATOM     69  C   UNL A   1      39.453  34.142  36.643  1.00  0.00     0.091 A 
ATOM     70  F   UNL A   1      40.718  33.810  34.646  1.00  0.00    -0.205 F 
ATOM     71  C   UNL A   1      38.512  33.655  37.566  1.00  0.00     0.022 A 
BRANCH  69  72
ATOM     72  S   UNL A   1      40.104  35.787  36.939  1.00  0.00     0.127 S 
ATOM     73  O   UNL A   1      39.427  36.153  38.183  1.00  0.00    -0.237 OA
ATOM     74  O   UNL A   1      41.537  35.527  37.079  1.00  0.00    -0.237 OA
ATOM     75  O   UNL A   1      39.739  36.582  35.776  1.00  0.00    -0.744 OA
ENDBRANCH  69  72
ENDBRANCH  51  65
BRANCH  52  76
ATOM     76  C   UNL A   1      42.357  26.645  27.523  1.00  0.00     0.023 A 
ATOM     77  C   UNL A   1      43.126  27.285  26.532  1.00  0.00     0.012 A 
ATOM     78  C   UNL A   1      42.066  25.274  27.386  1.00  0.00     0.148 A 
ATOM     79  C   UNL A   1      43.564  26.585  25.407  1.00  0.00     0.002 A 
ATOM     80  C   UNL A   1      42.553  24.569  26.292  1.00  0.00     0.091 A 
ATOM     81  F   UNL A   1      41.329  24.683  28.338  1.00  0.00    -0.205 F 
ATOM     82  C   UNL A   1      43.284  25.226  25.291  1.00  0.00     0.022 A 
BRANCH  80  83
ATOM     83  S   UNL A   1      42.352  22.791  26.126  1.00  0.00     0.127 S 
ATOM     84  O   UNL A   1      40.900  22.649  26.171  1.00  0.00    -0.237 OA
ATOM     85  O   UNL A   1      42.956  22.542  24.816  1.00  0.00    -0.237 OA
ATOM     86  O   UNL A   1      43.081  22.207  27.243  1.00  0.00    -0.744 OA
ENDBRANCH  80  83
ENDBRANCH  52  76
BRANCH  64  87
ATOM     87  C   UNL A   1      44.576  27.218  34.119  1.00  0.00     0.023 A 
ATOM     88  C   UNL A   1      45.841  27.834  34.157  1.00  0.00     0.012 A 
ATOM     89  C   UNL A   1      44.357  26.035  34.852  1.00  0.00     0.148 A 
ATOM     90  C   UNL A   1      46.885  27.261  34.881  1.00  0.00     0.002 A 
ATOM     91  C   UNL A   1      45.384  25.502  35.618  1.00  0.00     0.091 A 
ATOM     92  F   UNL A   1      43.147  25.459  34.790  1.00  0.00    -0.205 F 
ATOM     93  C   UNL A   1      46.652  26.103  35.621  1.00  0.00     0.022 A 
BRANCH  91  94
ATOM     94  S   UNL A   1      45.145  24.077  36.684  1.00  0.00     0.127 S 
ATOM     95  O   UNL A   1      44.389  23.178  35.813  1.00  0.00    -0.237 OA
ATOM     96  O   UNL A   1      46.521  23.657  36.949  1.00  0.00    -0.237 OA
ATOM     97  O   UNL A   1      44.426  24.564  37.853  1.00  0.00    -0.744 OA
ENDBRANCH  91  94
ENDBRANCH  64  87
ENDBRANCH  38  39
ENDBRANCH  30  33
ENDBRANCH  28  29
ENDBRANCH  27  28
ENDBRANCH   1  27
TORSDOF 18
ENDMDL
MODEL 3
REMARK VINA RESULT:     -12.5      2.627      3.302
REMARK SMILES [NH3+]C[C@H]1CC[C@@H](C(=O)N[C@@H]2C=C[C@@H](C(=O)NCCCCNC(=O)c3ccc(-c4c5nc(c(-c6cccc(S(=O)(=O)[O-])c6F)c6ccc([nH]6)c(-c6cccc(S(=O)(=O)[O-])c6F)c6nc(c(-c7cccc(S(=O)(=O)[O-])c7F)c7ccc4[nH]7)C=C6)C=C5)cc3)C2)CC1
REMARK SMILES IDX 18 1 17 2 16 3 14 4 15 5 13 7 10 8 11 9 87 10 12 11 9 12
REMARK SMILES IDX 7 13 8 14 6 16 3 17 4 18 89 19 5 20 88 21 2 22 1 23 19 27
REMARK SMILES IDX 20 28 21 29 22 30 23 32 24 33 25 34 86 35 26 36 85 37 27 38
REMARK SMILES IDX 28 39 29 40 79 41 30 42 84 43 78 44 80 45 31 46 83 47 77 48
REMARK SMILES IDX 76 49 32 51 64 52 44 53 63 54 45 55 48 56 62 57 81 58 46 59
REMARK SMILES IDX 47 60 61 62 82 63 49 64 33 65 34 66 42 67 35 68 37 69 43 70
REMARK SMILES IDX 36 71 38 72 39 73 40 74 41 75 65 76 66 77 74 78 67 79 69 80
REMARK SMILES IDX 75 81 68 82 70 83 71 84 72 85 73 86 50 87 51 88 59 89 52 90
REMARK SMILES IDX 54 91 60 92 53 93 55 94 56 95 57 96 58 97
REMARK H PARENT 16 6 9 15 1 24 1 25 1 26 21 31 80 50 48 61
REMARK Flexibility Score: inf
ROOT
ATOM      1  C   UNL A   1      31.537  28.921  25.882  1.00  0.00     0.023 C 
ENDROOT
BRANCH   1   2
ATOM      2  C   UNL A   1      31.821  29.555  24.509  1.00  0.00     0.116 C 
BRANCH   2   3
ATOM      3  N   UNL A   1      31.478  28.732  23.328  1.00  0.00    -0.356 N 
ATOM      4  C   UNL A   1      31.209  27.437  22.989  1.00  0.00     0.227 C 
ATOM      5  O   UNL A   1      30.669  27.352  21.870  1.00  0.00    -0.274 OA
ATOM      6  H   UNL A   1      31.427  29.303  22.528  1.00  0.00     0.163 HD
BRANCH   4   7
ATOM      7  C   UNL A   1      31.493  26.011  23.736  1.00  0.00     0.103 C 
ATOM      8  C   UNL A   1      33.281  24.795  26.202  1.00  0.00     0.106 C 
ATOM      9  C   UNL A   1      31.527  24.923  26.564  1.00  0.00    -0.006 C 
ATOM     10  C   UNL A   1      33.356  25.493  24.315  1.00  0.00     0.047 C 
ATOM     11  C   UNL A   1      30.401  25.420  25.293  1.00  0.00    -0.016 C 
BRANCH   8  12
ATOM     12  N   UNL A   1      33.204  23.385  26.847  1.00  0.00    -0.350 N 
ATOM     13  C   UNL A   1      33.545  22.104  26.202  1.00  0.00     0.223 C 
ATOM     14  O   UNL A   1      32.961  21.083  26.572  1.00  0.00    -0.275 OA
ATOM     15  H   UNL A   1      32.895  23.341  27.780  1.00  0.00     0.164 HD
BRANCH  13  16
ATOM     16  C   UNL A   1      34.784  22.025  24.976  1.00  0.00     0.078 C 
ATOM     17  C   UNL A   1      33.274  18.615  24.111  1.00  0.00     0.044 C 
ATOM     18  C   UNL A   1      32.569  20.673  23.555  1.00  0.00     0.010 C 
ATOM     19  C   UNL A   1      35.216  18.690  24.716  1.00  0.00     0.010 C 
ATOM     20  C   UNL A   1      33.728  22.143  23.716  1.00  0.00     0.014 C 
ATOM     21  C   UNL A   1      35.962  20.503  24.873  1.00  0.00     0.014 C 
BRANCH  17  22
ATOM     22  C   UNL A   1      32.610  17.291  24.855  1.00  0.00     0.262 C 
BRANCH  22  23
ATOM     23  N   UNL A   1      32.929  17.066  26.264  1.00  0.00    -0.357 N 
ATOM     24  H   UNL A   1      32.306  17.627  26.847  1.00  0.00     0.344 HD
ATOM     25  H   UNL A   1      33.896  17.337  26.442  1.00  0.00     0.344 HD
ATOM     26  H   UNL A   1      32.805  16.079  26.487  1.00  0.00     0.344 HD
ENDBRANCH  22  23
ENDBRANCH  17  22
ENDBRANCH  13  16
ENDBRANCH   8  12
ENDBRANCH   4   7
ENDBRANCH   2   3
ENDBRANCH   1   2
BRANCH   1  27
ATOM     27  C   UNL A   1      32.727  28.397  26.658  1.00  0.00     0.023 C 
BRANCH  27  28
ATOM     28  C   UNL A   1      33.997  29.135  26.322  1.00  0.00     0.116 C 
BRANCH  28  29
ATOM     29  N   UNL A   1      34.013  30.516  26.819  1.00  0.00    -0.352 N 
ATOM     30  C   UNL A   1      34.932  31.097  27.655  1.00  0.00     0.251 C 
ATOM     31  H   UNL A   1      33.277  31.095  26.516  1.00  0.00     0.163 HD
ATOM     32  O   UNL A   1      34.781  32.230  28.093  1.00  0.00    -0.269 OA
BRANCH  30  33
ATOM     33  C   UNL A   1      36.089  30.274  28.017  1.00  0.00     0.039 A 
ATOM     34  C   UNL A   1      37.251  30.362  27.258  1.00  0.00     0.014 A 
ATOM     35  C   UNL A   1      36.052  29.599  29.238  1.00  0.00     0.014 A 
ATOM     36  C   UNL A   1      38.414  29.795  27.764  1.00  0.00     0.010 A 
ATOM     37  C   UNL A   1      37.238  29.190  29.807  1.00  0.00     0.010 A 
ATOM     38  C   UNL A   1      38.418  29.236  29.054  1.00  0.00    -0.014 A 
BRANCH  38  39
ATOM     39  C   UNL A   1      39.633  28.619  29.617  1.00  0.00     0.031 A 
ATOM     40  C   UNL A   1      40.217  29.191  30.878  1.00  0.00     0.074 A 
ATOM     41  C   UNL A   1      40.229  27.604  28.963  1.00  0.00     0.049 A 
ATOM     42  N   UNL A   1      41.281  28.816  31.533  1.00  0.00    -0.248 NA
ATOM     43  C   UNL A   1      39.545  30.370  31.462  1.00  0.00     0.031 C 
ATOM     44  C   UNL A   1      39.797  27.048  27.678  1.00  0.00     0.029 A 
ATOM     45  N   UNL A   1      41.333  26.866  29.290  1.00  0.00    -0.354 N 
ATOM     46  C   UNL A   1      41.424  29.730  32.568  1.00  0.00     0.074 A 
ATOM     47  C   UNL A   1      40.386  30.721  32.419  1.00  0.00     0.031 C 
ATOM     48  C   UNL A   1      40.611  26.033  27.343  1.00  0.00     0.029 A 
ATOM     49  C   UNL A   1      41.635  25.890  28.371  1.00  0.00     0.049 A 
ATOM     50  H   UNL A   1      41.863  27.019  30.106  1.00  0.00     0.167 HD
ATOM     51  C   UNL A   1      42.310  29.718  33.587  1.00  0.00     0.034 A 
ATOM     52  C   UNL A   1      42.627  24.980  28.371  1.00  0.00     0.034 A 
ATOM     53  C   UNL A   1      43.298  28.692  33.754  1.00  0.00     0.049 A 
ATOM     54  C   UNL A   1      43.567  24.952  29.546  1.00  0.00     0.074 A 
ATOM     55  C   UNL A   1      44.189  28.517  34.793  1.00  0.00     0.029 A 
ATOM     56  N   UNL A   1      43.524  27.668  32.846  1.00  0.00    -0.354 N 
ATOM     57  N   UNL A   1      43.586  25.724  30.606  1.00  0.00    -0.248 NA
ATOM     58  C   UNL A   1      44.596  23.904  29.544  1.00  0.00     0.031 C 
ATOM     59  C   UNL A   1      44.982  27.404  34.497  1.00  0.00     0.029 A 
ATOM     60  C   UNL A   1      44.553  26.863  33.294  1.00  0.00     0.049 A 
ATOM     61  H   UNL A   1      43.025  27.535  32.008  1.00  0.00     0.167 HD
ATOM     62  C   UNL A   1      44.605  25.235  31.415  1.00  0.00     0.074 A 
ATOM     63  C   UNL A   1      45.161  24.084  30.731  1.00  0.00     0.031 C 
ATOM     64  C   UNL A   1      45.053  25.699  32.608  1.00  0.00     0.034 A 
BRANCH  51  65
ATOM     65  C   UNL A   1      42.211  30.816  34.611  1.00  0.00     0.023 A 
ATOM     66  C   UNL A   1      41.413  30.638  35.761  1.00  0.00     0.012 A 
ATOM     67  C   UNL A   1      42.929  32.016  34.447  1.00  0.00     0.148 A 
ATOM     68  C   UNL A   1      41.298  31.650  36.711  1.00  0.00     0.002 A 
ATOM     69  C   UNL A   1      42.852  32.999  35.425  1.00  0.00     0.091 A 
ATOM     70  F   UNL A   1      43.656  32.179  33.334  1.00  0.00    -0.205 F 
ATOM     71  C   UNL A   1      42.027  32.825  36.550  1.00  0.00     0.022 A 
BRANCH  69  72
ATOM     72  S   UNL A   1      43.815  34.511  35.353  1.00  0.00     0.127 S 
ATOM     73  O   UNL A   1      45.141  34.001  35.004  1.00  0.00    -0.237 OA
ATOM     74  O   UNL A   1      43.144  35.249  34.282  1.00  0.00    -0.237 OA
ATOM     75  O   UNL A   1      43.711  35.121  36.670  1.00  0.00    -0.744 OA
ENDBRANCH  69  72
ENDBRANCH  51  65
BRANCH  52  76
ATOM     76  C   UNL A   1      42.735  23.988  27.265  1.00  0.00     0.023 A 
ATOM     77  C   UNL A   1      43.514  24.289  26.131  1.00  0.00     0.012 A 
ATOM     78  C   UNL A   1      42.090  22.739  27.343  1.00  0.00     0.148 A 
ATOM     79  C   UNL A   1      43.617  23.380  25.076  1.00  0.00     0.002 A 
ATOM     80  C   UNL A   1      42.243  21.816  26.315  1.00  0.00     0.091 A 
ATOM     81  F   UNL A   1      41.350  22.472  28.429  1.00  0.00    -0.205 F 
ATOM     82  C   UNL A   1      42.990  22.142  25.172  1.00  0.00     0.022 A 
BRANCH  80  83
ATOM     83  S   UNL A   1      41.579  20.150  26.411  1.00  0.00     0.127 S 
ATOM     84  O   UNL A   1      40.153  20.384  26.201  1.00  0.00    -0.237 OA
ATOM     85  O   UNL A   1      42.266  19.488  25.300  1.00  0.00    -0.237 OA
ATOM     86  O   UNL A   1      41.951  19.652  27.729  1.00  0.00    -0.744 OA
ENDBRANCH  80  83
ENDBRANCH  52  76
BRANCH  64  87
ATOM     87  C   UNL A   1      46.172  24.942  33.269  1.00  0.00     0.023 A 
ATOM     88  C   UNL A   1      47.502  25.377  33.118  1.00  0.00     0.012 A 
ATOM     89  C   UNL A   1      45.890  23.842  34.103  1.00  0.00     0.148 A 
ATOM     90  C   UNL A   1      48.542  24.704  33.757  1.00  0.00     0.002 A 
ATOM     91  C   UNL A   1      46.924  23.214  34.783  1.00  0.00     0.091 A 
ATOM     92  F   UNL A   1      44.616  23.438  34.221  1.00  0.00    -0.205 F 
ATOM     93  C   UNL A   1      48.251  23.632  34.599  1.00  0.00     0.022 A 
BRANCH  91  94
ATOM     94  S   UNL A   1      46.632  21.897  35.968  1.00  0.00     0.127 S 
ATOM     95  O   UNL A   1      47.979  21.357  36.147  1.00  0.00    -0.237 OA
ATOM     96  O   UNL A   1      46.110  22.631  37.121  1.00  0.00    -0.237 OA
ATOM     97  O   UNL A   1      45.676  20.995  35.341  1.00  0.00    -0.744 OA
ENDBRANCH  91  94
ENDBRANCH  64  87
ENDBRANCH  38  39
ENDBRANCH  30  33
ENDBRANCH  28  29
ENDBRANCH  27  28
ENDBRANCH   1  27
TORSDOF 18
ENDMDL
