MODEL 1
REMARK VINA RESULT:     -12.4      0.000      0.000
REMARK SMILES Cc1cc(C(=O)NCCCCNC(=O)c2ccc(-c3c4nc(c(-c5cccc(S(=O)(=O)[O-])c5F)c5ccc([nH]5)c(-c5cccc(S(=O)(=O)[O-])c5F)c5nc(c(-c6cccc(S(=O)(=O)[O-])c6F)c6ccc3[nH]6)C=C5)C=C4)cc2)ccc1NS(=O)(=O)c1ccc(C#N)cc1C
REMARK SMILES IDX 9 1 8 2 7 3 5 4 6 5 4 7 1 8 2 9 3 10 80 11 79 12 78 13 81 14
REMARK SMILES IDX 82 16 83 17 84 18 85 19 86 20 92 21 87 22 91 23 93 24 88 25
REMARK SMILES IDX 89 26 90 27 10 28 11 29 12 30 13 31 14 33 15 34 16 35 77 36
REMARK SMILES IDX 17 37 76 38 18 39 19 40 20 41 70 42 21 43 75 44 69 45 71 46
REMARK SMILES IDX 22 47 74 48 68 49 67 50 23 52 55 53 35 54 54 55 36 56 39 57
REMARK SMILES IDX 53 58 72 59 37 60 38 61 52 63 73 64 40 65 24 66 25 67 33 68
REMARK SMILES IDX 26 69 28 70 34 71 27 72 29 73 30 74 31 75 32 76 56 77 57 78
REMARK SMILES IDX 65 79 58 80 60 81 66 82 59 83 61 84 62 85 63 86 64 87 41 88
REMARK SMILES IDX 42 89 50 90 43 91 45 92 51 93 44 94 46 95 47 96 48 97 49 98
REMARK H PARENT 7 6 81 15 12 32 71 51 39 62
REMARK Flexibility Score: inf
ROOT
ATOM      1  C   UNL A   1      35.067  29.868  26.902  1.00  0.00     0.023 C 
ENDROOT
BRANCH   1   2
ATOM      2  C   UNL A   1      34.265  28.574  26.681  1.00  0.00     0.116 C 
BRANCH   2   3
ATOM      3  N   UNL A   1      33.074  28.491  27.510  1.00  0.00    -0.352 N 
ATOM      4  C   UNL A   1      31.778  28.154  27.193  1.00  0.00     0.251 C 
ATOM      5  O   UNL A   1      30.970  27.983  28.104  1.00  0.00    -0.269 OA
ATOM      6  H   UNL A   1      33.219  28.712  28.457  1.00  0.00     0.163 HD
BRANCH   4   7
ATOM      7  C   UNL A   1      31.346  27.917  25.788  1.00  0.00     0.040 A 
ATOM      8  C   UNL A   1      29.870  25.075  23.788  1.00  0.00     0.046 C 
ATOM      9  C   UNL A   1      30.638  26.330  24.091  1.00  0.00    -0.026 A 
ATOM     10  C   UNL A   1      30.871  26.653  25.439  1.00  0.00     0.019 A 
ATOM     11  C   UNL A   1      31.010  27.248  23.094  1.00  0.00     0.052 A 
ATOM     12  C   UNL A   1      31.175  28.574  23.455  1.00  0.00     0.028 A 
ATOM     13  C   UNL A   1      31.342  28.897  24.801  1.00  0.00     0.016 A 
BRANCH  11  14
ATOM     14  N   UNL A   1      31.544  26.733  21.877  1.00  0.00    -0.279 N 
ATOM     15  H   UNL A   1      30.925  26.726  21.112  1.00  0.00     0.180 HD
BRANCH  14  16
ATOM     16  S   UNL A   1      33.075  26.141  21.572  1.00  0.00     0.262 S 
ATOM     17  O   UNL A   1      33.082  25.855  20.152  1.00  0.00    -0.201 OA
ATOM     18  O   UNL A   1      34.021  27.072  22.153  1.00  0.00    -0.201 OA
BRANCH  16  19
ATOM     19  C   UNL A   1      33.340  24.562  22.401  1.00  0.00     0.090 A 
ATOM     20  C   UNL A   1      33.065  23.347  21.761  1.00  0.00     0.024 A 
ATOM     21  C   UNL A   1      33.592  24.570  23.791  1.00  0.00    -0.029 A 
ATOM     22  C   UNL A   1      32.798  22.200  22.524  1.00  0.00     0.021 A 
ATOM     23  C   UNL A   1      33.331  23.406  24.536  1.00  0.00     0.024 A 
ATOM     24  C   UNL A   1      34.192  25.732  24.535  1.00  0.00     0.046 C 
ATOM     25  C   UNL A   1      32.855  22.253  23.915  1.00  0.00     0.052 A 
BRANCH  25  26
ATOM     26  C   UNL A   1      32.347  21.177  24.720  1.00  0.00     0.099 C 
ATOM     27  N   UNL A   1      31.849  20.343  25.344  1.00  0.00    -0.192 NA
ENDBRANCH  25  26
ENDBRANCH  16  19
ENDBRANCH  14  16
ENDBRANCH  11  14
ENDBRANCH   4   7
ENDBRANCH   2   3
ENDBRANCH   1   2
BRANCH   1  28
ATOM     28  C   UNL A   1      35.720  30.013  28.269  1.00  0.00     0.023 C 
BRANCH  28  29
ATOM     29  C   UNL A   1      35.171  31.182  29.040  1.00  0.00     0.116 C 
BRANCH  29  30
ATOM     30  N   UNL A   1      35.095  32.404  28.286  1.00  0.00    -0.352 N 
ATOM     31  C   UNL A   1      35.496  33.661  28.690  1.00  0.00     0.251 C 
ATOM     32  H   UNL A   1      34.714  32.336  27.381  1.00  0.00     0.163 HD
ATOM     33  O   UNL A   1      35.018  34.622  28.094  1.00  0.00    -0.269 OA
BRANCH  31  34
ATOM     34  C   UNL A   1      36.611  33.831  29.675  1.00  0.00     0.039 A 
ATOM     35  C   UNL A   1      37.869  34.093  29.120  1.00  0.00     0.014 A 
ATOM     36  C   UNL A   1      36.543  33.302  30.959  1.00  0.00     0.014 A 
ATOM     37  C   UNL A   1      38.983  33.448  29.628  1.00  0.00     0.010 A 
ATOM     38  C   UNL A   1      37.601  32.572  31.409  1.00  0.00     0.010 A 
ATOM     39  C   UNL A   1      38.772  32.553  30.655  1.00  0.00    -0.014 A 
BRANCH  39  40
ATOM     40  C   UNL A   1      39.709  31.576  31.139  1.00  0.00     0.031 A 
ATOM     41  C   UNL A   1      39.727  30.305  30.407  1.00  0.00     0.074 A 
ATOM     42  C   UNL A   1      40.749  32.127  31.807  1.00  0.00     0.049 A 
ATOM     43  N   UNL A   1      40.495  29.319  30.678  1.00  0.00    -0.248 NA
ATOM     44  C   UNL A   1      38.834  30.048  29.274  1.00  0.00     0.031 C 
ATOM     45  C   UNL A   1      42.163  31.782  31.753  1.00  0.00     0.029 A 
ATOM     46  N   UNL A   1      40.734  33.191  32.696  1.00  0.00    -0.354 N 
ATOM     47  C   UNL A   1      40.488  28.509  29.560  1.00  0.00     0.074 A 
ATOM     48  C   UNL A   1      39.311  28.885  28.826  1.00  0.00     0.031 C 
ATOM     49  C   UNL A   1      42.814  32.435  32.737  1.00  0.00     0.029 A 
ATOM     50  C   UNL A   1      41.811  33.079  33.573  1.00  0.00     0.049 A 
ATOM     51  H   UNL A   1      40.066  33.914  32.705  1.00  0.00     0.167 HD
ATOM     52  C   UNL A   1      41.612  27.788  29.295  1.00  0.00     0.034 A 
ATOM     53  C   UNL A   1      41.572  32.731  34.882  1.00  0.00     0.034 A 
ATOM     54  C   UNL A   1      42.577  27.976  30.399  1.00  0.00     0.049 A 
ATOM     55  C   UNL A   1      41.956  31.287  35.181  1.00  0.00     0.074 A 
ATOM     56  C   UNL A   1      43.713  28.759  30.531  1.00  0.00     0.029 A 
ATOM     57  N   UNL A   1      42.208  27.608  31.692  1.00  0.00    -0.354 N 
ATOM     58  N   UNL A   1      42.288  30.416  34.266  1.00  0.00    -0.248 NA
ATOM     59  C   UNL A   1      42.040  30.718  36.523  1.00  0.00     0.031 C 
ATOM     60  C   UNL A   1      43.947  28.954  31.925  1.00  0.00     0.029 A 
ATOM     61  C   UNL A   1      42.980  28.266  32.640  1.00  0.00     0.049 A 
ATOM     62  H   UNL A   1      41.493  26.965  31.904  1.00  0.00     0.167 HD
ATOM     63  C   UNL A   1      42.509  29.191  34.824  1.00  0.00     0.074 A 
ATOM     64  C   UNL A   1      42.407  29.451  36.252  1.00  0.00     0.031 C 
ATOM     65  C   UNL A   1      42.716  28.068  34.066  1.00  0.00     0.034 A 
BRANCH  52  66
ATOM     66  C   UNL A   1      42.001  27.148  27.966  1.00  0.00     0.023 A 
ATOM     67  C   UNL A   1      42.050  28.016  26.851  1.00  0.00     0.012 A 
ATOM     68  C   UNL A   1      42.270  25.782  27.686  1.00  0.00     0.148 A 
ATOM     69  C   UNL A   1      42.297  27.568  25.548  1.00  0.00     0.002 A 
ATOM     70  C   UNL A   1      42.529  25.333  26.384  1.00  0.00     0.091 A 
ATOM     71  F   UNL A   1      42.282  24.881  28.664  1.00  0.00    -0.205 F 
ATOM     72  C   UNL A   1      42.532  26.225  25.312  1.00  0.00     0.022 A 
BRANCH  70  73
ATOM     73  S   UNL A   1      42.861  23.602  25.987  1.00  0.00     0.127 S 
ATOM     74  O   UNL A   1      43.237  23.679  24.575  1.00  0.00    -0.237 OA
ATOM     75  O   UNL A   1      43.964  23.281  26.893  1.00  0.00    -0.237 OA
ATOM     76  O   UNL A   1      41.626  22.869  26.243  1.00  0.00    -0.744 OA
ENDBRANCH  70  73
ENDBRANCH  52  66
BRANCH  53  77
ATOM     77  C   UNL A   1      40.370  33.454  35.427  1.00  0.00     0.023 A 
ATOM     78  C   UNL A   1      39.150  32.735  35.403  1.00  0.00     0.012 A 
ATOM     79  C   UNL A   1      40.526  34.491  36.367  1.00  0.00     0.148 A 
ATOM     80  C   UNL A   1      38.210  32.898  36.422  1.00  0.00     0.002 A 
ATOM     81  C   UNL A   1      39.588  34.635  37.389  1.00  0.00     0.091 A 
ATOM     82  F   UNL A   1      41.620  35.259  36.295  1.00  0.00    -0.205 F 
ATOM     83  C   UNL A   1      38.460  33.802  37.450  1.00  0.00     0.022 A 
BRANCH  81  84
ATOM     84  S   UNL A   1      39.853  35.772  38.757  1.00  0.00     0.127 S 
ATOM     85  O   UNL A   1      39.591  37.063  38.129  1.00  0.00    -0.237 OA
ATOM     86  O   UNL A   1      38.841  35.355  39.726  1.00  0.00    -0.237 OA
ATOM     87  O   UNL A   1      41.223  35.539  39.189  1.00  0.00    -0.744 OA
ENDBRANCH  81  84
ENDBRANCH  53  77
BRANCH  65  88
ATOM     88  C   UNL A   1      42.691  26.650  34.607  1.00  0.00     0.023 A 
ATOM     89  C   UNL A   1      41.577  26.121  35.283  1.00  0.00     0.012 A 
ATOM     90  C   UNL A   1      43.744  25.744  34.311  1.00  0.00     0.148 A 
ATOM     91  C   UNL A   1      41.542  24.795  35.725  1.00  0.00     0.002 A 
ATOM     92  C   UNL A   1      43.638  24.394  34.620  1.00  0.00     0.091 A 
ATOM     93  F   UNL A   1      44.876  26.188  33.745  1.00  0.00    -0.205 F 
ATOM     94  C   UNL A   1      42.561  23.924  35.370  1.00  0.00     0.022 A 
BRANCH  92  95
ATOM     95  S   UNL A   1      44.780  23.191  33.927  1.00  0.00     0.127 S 
ATOM     96  O   UNL A   1      44.302  21.946  34.523  1.00  0.00    -0.237 OA
ATOM     97  O   UNL A   1      44.527  23.318  32.491  1.00  0.00    -0.237 OA
ATOM     98  O   UNL A   1      46.105  23.634  34.340  1.00  0.00    -0.744 OA
ENDBRANCH  92  95
ENDBRANCH  65  88
ENDBRANCH  39  40
ENDBRANCH  31  34
ENDBRANCH  29  30
ENDBRANCH  28  29
ENDBRANCH   1  28
TORSDOF 18
ENDMDL
MODEL 2
REMARK VINA RESULT:     -12.1      1.585      2.304
REMARK SMILES Cc1cc(C(=O)NCCCCNC(=O)c2ccc(-c3c4nc(c(-c5cccc(S(=O)(=O)[O-])c5F)c5ccc([nH]5)c(-c5cccc(S(=O)(=O)[O-])c5F)c5nc(c(-c6cccc(S(=O)(=O)[O-])c6F)c6ccc3[nH]6)C=C5)C=C4)cc2)ccc1NS(=O)(=O)c1ccc(C#N)cc1C
REMARK SMILES IDX 9 1 8 2 7 3 5 4 6 5 4 7 1 8 2 9 3 10 80 11 79 12 78 13 81 14
REMARK SMILES IDX 82 16 83 17 84 18 85 19 86 20 92 21 87 22 91 23 93 24 88 25
REMARK SMILES IDX 89 26 90 27 10 28 11 29 12 30 13 31 14 33 15 34 16 35 77 36
REMARK SMILES IDX 17 37 76 38 18 39 19 40 20 41 70 42 21 43 75 44 69 45 71 46
REMARK SMILES IDX 22 47 74 48 68 49 67 50 23 52 55 53 35 54 54 55 36 56 39 57
REMARK SMILES IDX 53 58 72 59 37 60 38 61 52 63 73 64 40 65 24 66 25 67 33 68
REMARK SMILES IDX 26 69 28 70 34 71 27 72 29 73 30 74 31 75 32 76 56 77 57 78
REMARK SMILES IDX 65 79 58 80 60 81 66 82 59 83 61 84 62 85 63 86 64 87 41 88
REMARK SMILES IDX 42 89 50 90 43 91 45 92 51 93 44 94 46 95 47 96 48 97 49 98
REMARK H PARENT 7 6 81 15 12 32 71 51 39 62
REMARK Flexibility Score: inf
ROOT
ATOM      1  C   UNL A   1      33.962  29.239  27.319  1.00  0.00     0.023 C 
ENDROOT
BRANCH   1   2
ATOM      2  C   UNL A   1      34.016  28.192  26.192  1.00  0.00     0.116 C 
BRANCH   2   3
ATOM      3  N   UNL A   1      34.114  28.782  24.868  1.00  0.00    -0.352 N 
ATOM      4  C   UNL A   1      33.505  28.441  23.682  1.00  0.00     0.251 C 
ATOM      5  O   UNL A   1      33.610  29.201  22.721  1.00  0.00    -0.269 OA
ATOM      6  H   UNL A   1      34.718  29.557  24.810  1.00  0.00     0.163 HD
BRANCH   4   7
ATOM      7  C   UNL A   1      32.664  27.221  23.550  1.00  0.00     0.040 A 
ATOM      8  C   UNL A   1      29.013  26.324  23.905  1.00  0.00     0.046 C 
ATOM      9  C   UNL A   1      30.506  26.159  23.896  1.00  0.00    -0.026 A 
ATOM     10  C   UNL A   1      31.298  27.318  23.817  1.00  0.00     0.019 A 
ATOM     11  C   UNL A   1      31.127  24.901  23.830  1.00  0.00     0.052 A 
ATOM     12  C   UNL A   1      32.388  24.824  23.264  1.00  0.00     0.028 A 
ATOM     13  C   UNL A   1      33.146  25.985  23.130  1.00  0.00     0.016 A 
BRANCH  11  14
ATOM     14  N   UNL A   1      30.612  23.856  24.651  1.00  0.00    -0.279 N 
ATOM     15  H   UNL A   1      29.928  23.286  24.233  1.00  0.00     0.180 HD
BRANCH  14  16
ATOM     16  S   UNL A   1      31.010  23.468  26.225  1.00  0.00     0.262 S 
ATOM     17  O   UNL A   1      31.228  24.745  26.874  1.00  0.00    -0.201 OA
ATOM     18  O   UNL A   1      30.004  22.545  26.709  1.00  0.00    -0.201 OA
BRANCH  16  19
ATOM     19  C   UNL A   1      32.583  22.592  26.304  1.00  0.00     0.090 A 
ATOM     20  C   UNL A   1      33.555  22.923  27.257  1.00  0.00     0.024 A 
ATOM     21  C   UNL A   1      32.927  21.735  25.236  1.00  0.00    -0.029 A 
ATOM     22  C   UNL A   1      34.903  22.615  27.018  1.00  0.00     0.021 A 
ATOM     23  C   UNL A   1      34.282  21.426  25.020  1.00  0.00     0.024 A 
ATOM     24  C   UNL A   1      31.926  21.064  24.335  1.00  0.00     0.046 C 
ATOM     25  C   UNL A   1      35.272  21.935  25.858  1.00  0.00     0.052 A 
BRANCH  25  26
ATOM     26  C   UNL A   1      36.650  21.828  25.467  1.00  0.00     0.099 C 
ATOM     27  N   UNL A   1      37.777  21.813  25.218  1.00  0.00    -0.192 NA
ENDBRANCH  25  26
ENDBRANCH  16  19
ENDBRANCH  14  16
ENDBRANCH  11  14
ENDBRANCH   4   7
ENDBRANCH   2   3
ENDBRANCH   1   2
BRANCH   1  28
ATOM     28  C   UNL A   1      35.251  30.012  27.560  1.00  0.00     0.023 C 
BRANCH  28  29
ATOM     29  C   UNL A   1      35.163  30.898  28.772  1.00  0.00     0.116 C 
BRANCH  29  30
ATOM     30  N   UNL A   1      34.561  32.180  28.525  1.00  0.00    -0.352 N 
ATOM     31  C   UNL A   1      34.661  33.314  29.304  1.00  0.00     0.251 C 
ATOM     32  H   UNL A   1      34.016  32.257  27.709  1.00  0.00     0.163 HD
ATOM     33  O   UNL A   1      33.799  34.176  29.157  1.00  0.00    -0.269 OA
BRANCH  31  34
ATOM     34  C   UNL A   1      35.876  33.564  30.143  1.00  0.00     0.039 A 
ATOM     35  C   UNL A   1      37.059  33.803  29.433  1.00  0.00     0.014 A 
ATOM     36  C   UNL A   1      35.964  33.122  31.458  1.00  0.00     0.014 A 
ATOM     37  C   UNL A   1      38.236  33.206  29.853  1.00  0.00     0.010 A 
ATOM     38  C   UNL A   1      37.079  32.437  31.833  1.00  0.00     0.010 A 
ATOM     39  C   UNL A   1      38.158  32.380  30.954  1.00  0.00    -0.014 A 
BRANCH  39  40
ATOM     40  C   UNL A   1      39.163  31.449  31.392  1.00  0.00     0.031 A 
ATOM     41  C   UNL A   1      39.157  30.151  30.709  1.00  0.00     0.074 A 
ATOM     42  C   UNL A   1      40.237  32.055  31.947  1.00  0.00     0.049 A 
ATOM     43  N   UNL A   1      39.975  29.198  30.950  1.00  0.00    -0.248 NA
ATOM     44  C   UNL A   1      38.180  29.825  29.667  1.00  0.00     0.031 C 
ATOM     45  C   UNL A   1      41.651  31.747  31.785  1.00  0.00     0.029 A 
ATOM     46  N   UNL A   1      40.265  33.152  32.794  1.00  0.00    -0.354 N 
ATOM     47  C   UNL A   1      39.898  28.344  29.867  1.00  0.00     0.074 A 
ATOM     48  C   UNL A   1      38.652  28.659  29.224  1.00  0.00     0.031 C 
ATOM     49  C   UNL A   1      42.364  32.456  32.685  1.00  0.00     0.029 A 
ATOM     50  C   UNL A   1      41.416  33.105  33.580  1.00  0.00     0.049 A 
ATOM     51  H   UNL A   1      39.579  33.856  32.834  1.00  0.00     0.167 HD
ATOM     52  C   UNL A   1      41.018  27.645  29.534  1.00  0.00     0.034 A 
ATOM     53  C   UNL A   1      41.299  32.802  34.916  1.00  0.00     0.034 A 
ATOM     54  C   UNL A   1      42.067  27.902  30.543  1.00  0.00     0.049 A 
ATOM     55  C   UNL A   1      41.751  31.382  35.234  1.00  0.00     0.074 A 
ATOM     56  C   UNL A   1      43.184  28.721  30.548  1.00  0.00     0.029 A 
ATOM     57  N   UNL A   1      41.820  27.576  31.876  1.00  0.00    -0.354 N 
ATOM     58  N   UNL A   1      42.031  30.485  34.328  1.00  0.00    -0.248 NA
ATOM     59  C   UNL A   1      41.965  30.870  36.584  1.00  0.00     0.031 C 
ATOM     60  C   UNL A   1      43.530  28.978  31.909  1.00  0.00     0.029 A 
ATOM     61  C   UNL A   1      42.649  28.292  32.730  1.00  0.00     0.049 A 
ATOM     62  H   UNL A   1      41.146  26.923  32.173  1.00  0.00     0.167 HD
ATOM     63  C   UNL A   1      42.336  29.290  34.909  1.00  0.00     0.074 A 
ATOM     64  C   UNL A   1      42.347  29.603  36.331  1.00  0.00     0.031 C 
ATOM     65  C   UNL A   1      42.512  28.143  34.180  1.00  0.00     0.034 A 
BRANCH  52  66
ATOM     66  C   UNL A   1      41.313  26.963  28.201  1.00  0.00     0.023 A 
ATOM     67  C   UNL A   1      41.163  27.767  27.048  1.00  0.00     0.012 A 
ATOM     68  C   UNL A   1      41.667  25.610  27.958  1.00  0.00     0.148 A 
ATOM     69  C   UNL A   1      41.303  27.267  25.748  1.00  0.00     0.002 A 
ATOM     70  C   UNL A   1      41.820  25.109  26.658  1.00  0.00     0.091 A 
ATOM     71  F   UNL A   1      41.865  24.770  28.970  1.00  0.00    -0.205 F 
ATOM     72  C   UNL A   1      41.627  25.935  25.551  1.00  0.00     0.022 A 
BRANCH  70  73
ATOM     73  S   UNL A   1      42.256  23.391  26.309  1.00  0.00     0.127 S 
ATOM     74  O   UNL A   1      40.944  22.742  26.281  1.00  0.00    -0.237 OA
ATOM     75  O   UNL A   1      42.911  23.495  25.005  1.00  0.00    -0.237 OA
ATOM     76  O   UNL A   1      43.122  22.950  27.397  1.00  0.00    -0.744 OA
ENDBRANCH  70  73
ENDBRANCH  52  66
BRANCH  53  77
ATOM     77  C   UNL A   1      40.126  33.514  35.534  1.00  0.00     0.023 A 
ATOM     78  C   UNL A   1      38.928  32.765  35.632  1.00  0.00     0.012 A 
ATOM     79  C   UNL A   1      40.329  34.584  36.426  1.00  0.00     0.148 A 
ATOM     80  C   UNL A   1      38.069  32.938  36.719  1.00  0.00     0.002 A 
ATOM     81  C   UNL A   1      39.473  34.739  37.517  1.00  0.00     0.091 A 
ATOM     82  F   UNL A   1      41.393  35.376  36.243  1.00  0.00    -0.205 F 
ATOM     83  C   UNL A   1      38.376  33.881  37.694  1.00  0.00     0.022 A 
BRANCH  81  84
ATOM     84  S   UNL A   1      39.816  35.925  38.823  1.00  0.00     0.127 S 
ATOM     85  O   UNL A   1      39.602  37.196  38.138  1.00  0.00    -0.237 OA
ATOM     86  O   UNL A   1      38.805  35.603  39.829  1.00  0.00    -0.237 OA
ATOM     87  O   UNL A   1      41.183  35.649  39.243  1.00  0.00    -0.744 OA
ENDBRANCH  81  84
ENDBRANCH  53  77
BRANCH  65  88
ATOM     88  C   UNL A   1      42.577  26.748  34.772  1.00  0.00     0.023 A 
ATOM     89  C   UNL A   1      41.481  26.156  35.425  1.00  0.00     0.012 A 
ATOM     90  C   UNL A   1      43.708  25.920  34.553  1.00  0.00     0.148 A 
ATOM     91  C   UNL A   1      41.532  24.848  35.916  1.00  0.00     0.002 A 
ATOM     92  C   UNL A   1      43.697  24.578  34.908  1.00  0.00     0.091 A 
ATOM     93  F   UNL A   1      44.825  26.433  34.014  1.00  0.00    -0.205 F 
ATOM     94  C   UNL A   1      42.630  24.049  35.634  1.00  0.00     0.022 A 
BRANCH  92  95
ATOM     95  S   UNL A   1      44.957  23.446  34.306  1.00  0.00     0.127 S 
ATOM     96  O   UNL A   1      44.444  22.156  34.759  1.00  0.00    -0.237 OA
ATOM     97  O   UNL A   1      44.894  23.656  32.859  1.00  0.00    -0.237 OA
ATOM     98  O   UNL A   1      46.201  23.893  34.919  1.00  0.00    -0.744 OA
ENDBRANCH  92  95
ENDBRANCH  65  88
ENDBRANCH  39  40
ENDBRANCH  31  34
ENDBRANCH  29  30
ENDBRANCH  28  29
ENDBRANCH   1  28
TORSDOF 18
ENDMDL
MODEL 3
REMARK VINA RESULT:     -12.0      2.222      2.819
REMARK SMILES Cc1cc(C(=O)NCCCCNC(=O)c2ccc(-c3c4nc(c(-c5cccc(S(=O)(=O)[O-])c5F)c5ccc([nH]5)c(-c5cccc(S(=O)(=O)[O-])c5F)c5nc(c(-c6cccc(S(=O)(=O)[O-])c6F)c6ccc3[nH]6)C=C5)C=C4)cc2)ccc1NS(=O)(=O)c1ccc(C#N)cc1C
REMARK SMILES IDX 9 1 8 2 7 3 5 4 6 5 4 7 1 8 2 9 3 10 80 11 79 12 78 13 81 14
REMARK SMILES IDX 82 16 83 17 84 18 85 19 86 20 92 21 87 22 91 23 93 24 88 25
REMARK SMILES IDX 89 26 90 27 10 28 11 29 12 30 13 31 14 33 15 34 16 35 77 36
REMARK SMILES IDX 17 37 76 38 18 39 19 40 20 41 70 42 21 43 75 44 69 45 71 46
REMARK SMILES IDX 22 47 74 48 68 49 67 50 23 52 55 53 35 54 54 55 36 56 39 57
REMARK SMILES IDX 53 58 72 59 37 60 38 61 52 63 73 64 40 65 24 66 25 67 33 68
REMARK SMILES IDX 26 69 28 70 34 71 27 72 29 73 30 74 31 75 32 76 56 77 57 78
REMARK SMILES IDX 65 79 58 80 60 81 66 82 59 83 61 84 62 85 63 86 64 87 41 88
REMARK SMILES IDX 42 89 50 90 43 91 45 92 51 93 44 94 46 95 47 96 48 97 49 98
REMARK H PARENT 7 6 81 15 12 32 71 51 39 62
REMARK Flexibility Score: inf
ROOT
ATOM      1  C   UNL A   1      35.271  29.253  27.180  1.00  0.00     0.023 C 
ENDROOT
BRANCH   1   2
ATOM      2  C   UNL A   1      33.924  28.983  26.485  1.00  0.00     0.116 C 
BRANCH   2   3
ATOM      3  N   UNL A   1      34.069  28.604  25.089  1.00  0.00    -0.352 N 
ATOM      4  C   UNL A   1      33.689  27.462  24.421  1.00  0.00     0.251 C 
ATOM      5  O   UNL A   1      33.760  27.441  23.193  1.00  0.00    -0.269 OA
ATOM      6  H   UNL A   1      34.512  29.278  24.526  1.00  0.00     0.163 HD
BRANCH   4   7
ATOM      7  C   UNL A   1      33.124  26.283  25.133  1.00  0.00     0.040 A 
ATOM      8  C   UNL A   1      34.438  23.390  27.172  1.00  0.00     0.046 C 
ATOM      9  C   UNL A   1      33.529  24.176  26.271  1.00  0.00    -0.026 A 
ATOM     10  C   UNL A   1      34.000  25.397  25.758  1.00  0.00     0.019 A 
ATOM     11  C   UNL A   1      32.195  23.804  26.033  1.00  0.00     0.052 A 
ATOM     12  C   UNL A   1      31.288  24.797  25.704  1.00  0.00     0.028 A 
ATOM     13  C   UNL A   1      31.762  26.029  25.256  1.00  0.00     0.016 A 
BRANCH  11  14
ATOM     14  N   UNL A   1      31.917  22.428  25.784  1.00  0.00    -0.279 N 
ATOM     15  H   UNL A   1      31.427  21.959  26.497  1.00  0.00     0.180 HD
BRANCH  14  16
ATOM     16  S   UNL A   1      32.312  21.505  24.451  1.00  0.00     0.262 S 
ATOM     17  O   UNL A   1      31.802  20.183  24.755  1.00  0.00    -0.201 OA
ATOM     18  O   UNL A   1      31.864  22.228  23.278  1.00  0.00    -0.201 OA
BRANCH  16  19
ATOM     19  C   UNL A   1      34.098  21.325  24.286  1.00  0.00     0.090 A 
ATOM     20  C   UNL A   1      34.783  20.266  24.895  1.00  0.00     0.024 A 
ATOM     21  C   UNL A   1      34.832  22.403  23.745  1.00  0.00    -0.029 A 
ATOM     22  C   UNL A   1      36.150  20.392  25.184  1.00  0.00     0.021 A 
ATOM     23  C   UNL A   1      36.205  22.505  24.034  1.00  0.00     0.024 A 
ATOM     24  C   UNL A   1      34.257  23.433  22.811  1.00  0.00     0.046 C 
ATOM     25  C   UNL A   1      36.841  21.547  24.822  1.00  0.00     0.052 A 
BRANCH  25  26
ATOM     26  C   UNL A   1      38.162  21.809  25.321  1.00  0.00     0.099 C 
ATOM     27  N   UNL A   1      39.200  21.966  25.800  1.00  0.00    -0.192 NA
ENDBRANCH  25  26
ENDBRANCH  16  19
ENDBRANCH  14  16
ENDBRANCH  11  14
ENDBRANCH   4   7
ENDBRANCH   2   3
ENDBRANCH   1   2
BRANCH   1  28
ATOM     28  C   UNL A   1      35.232  30.260  28.319  1.00  0.00     0.023 C 
BRANCH  28  29
ATOM     29  C   UNL A   1      36.311  31.300  28.195  1.00  0.00     0.116 C 
BRANCH  29  30
ATOM     30  N   UNL A   1      35.823  32.633  27.961  1.00  0.00    -0.352 N 
ATOM     31  C   UNL A   1      35.914  33.717  28.809  1.00  0.00     0.251 C 
ATOM     32  H   UNL A   1      35.375  32.789  27.099  1.00  0.00     0.163 HD
ATOM     33  O   UNL A   1      35.131  34.644  28.624  1.00  0.00    -0.269 OA
BRANCH  31  34
ATOM     34  C   UNL A   1      37.047  33.837  29.782  1.00  0.00     0.039 A 
ATOM     35  C   UNL A   1      38.307  34.055  29.213  1.00  0.00     0.014 A 
ATOM     36  C   UNL A   1      36.975  33.302  31.063  1.00  0.00     0.014 A 
ATOM     37  C   UNL A   1      39.402  33.364  29.703  1.00  0.00     0.010 A 
ATOM     38  C   UNL A   1      38.009  32.529  31.495  1.00  0.00     0.010 A 
ATOM     39  C   UNL A   1      39.169  32.470  30.726  1.00  0.00    -0.014 A 
BRANCH  39  40
ATOM     40  C   UNL A   1      40.074  31.455  31.192  1.00  0.00     0.031 A 
ATOM     41  C   UNL A   1      39.958  30.155  30.523  1.00  0.00     0.074 A 
ATOM     42  C   UNL A   1      41.192  31.963  31.760  1.00  0.00     0.049 A 
ATOM     43  N   UNL A   1      40.679  29.132  30.789  1.00  0.00    -0.248 NA
ATOM     44  C   UNL A   1      38.972  29.908  29.468  1.00  0.00     0.031 C 
ATOM     45  C   UNL A   1      42.573  31.522  31.626  1.00  0.00     0.029 A 
ATOM     46  N   UNL A   1      41.308  33.064  32.596  1.00  0.00    -0.354 N 
ATOM     47  C   UNL A   1      40.540  28.276  29.714  1.00  0.00     0.074 A 
ATOM     48  C   UNL A   1      39.340  28.698  29.045  1.00  0.00     0.031 C 
ATOM     49  C   UNL A   1      43.334  32.172  32.531  1.00  0.00     0.029 A 
ATOM     50  C   UNL A   1      42.436  32.918  33.402  1.00  0.00     0.049 A 
ATOM     51  H   UNL A   1      40.691  33.830  32.615  1.00  0.00     0.167 HD
ATOM     52  C   UNL A   1      41.594  27.470  29.408  1.00  0.00     0.034 A 
ATOM     53  C   UNL A   1      42.268  32.645  34.739  1.00  0.00     0.034 A 
ATOM     54  C   UNL A   1      42.646  27.641  30.433  1.00  0.00     0.049 A 
ATOM     55  C   UNL A   1      42.580  31.193  35.081  1.00  0.00     0.074 A 
ATOM     56  C   UNL A   1      43.835  28.351  30.450  1.00  0.00     0.029 A 
ATOM     57  N   UNL A   1      42.347  27.355  31.765  1.00  0.00    -0.354 N 
ATOM     58  N   UNL A   1      42.790  30.262  34.189  1.00  0.00    -0.248 NA
ATOM     59  C   UNL A   1      42.722  30.679  36.440  1.00  0.00     0.031 C 
ATOM     60  C   UNL A   1      44.181  28.591  31.813  1.00  0.00     0.029 A 
ATOM     61  C   UNL A   1      43.225  28.001  32.625  1.00  0.00     0.049 A 
ATOM     62  H   UNL A   1      41.610  26.772  32.057  1.00  0.00     0.167 HD
ATOM     63  C   UNL A   1      42.971  29.050  34.788  1.00  0.00     0.074 A 
ATOM     64  C   UNL A   1      42.987  29.379  36.207  1.00  0.00     0.031 C 
ATOM     65  C   UNL A   1      43.051  27.884  34.074  1.00  0.00     0.034 A 
BRANCH  52  66
ATOM     66  C   UNL A   1      41.846  26.748  28.088  1.00  0.00     0.023 A 
ATOM     67  C   UNL A   1      41.486  27.454  26.918  1.00  0.00     0.012 A 
ATOM     68  C   UNL A   1      42.346  25.436  27.879  1.00  0.00     0.148 A 
ATOM     69  C   UNL A   1      41.565  26.894  25.637  1.00  0.00     0.002 A 
ATOM     70  C   UNL A   1      42.437  24.876  26.597  1.00  0.00     0.091 A 
ATOM     71  F   UNL A   1      42.744  24.691  28.906  1.00  0.00    -0.205 F 
ATOM     72  C   UNL A   1      42.036  25.602  25.475  1.00  0.00     0.022 A 
BRANCH  70  73
ATOM     73  S   UNL A   1      43.054  23.206  26.292  1.00  0.00     0.127 S 
ATOM     74  O   UNL A   1      44.466  23.331  26.654  1.00  0.00    -0.237 OA
ATOM     75  O   UNL A   1      42.256  22.405  27.220  1.00  0.00    -0.237 OA
ATOM     76  O   UNL A   1      42.817  22.924  24.880  1.00  0.00    -0.744 OA
ENDBRANCH  70  73
ENDBRANCH  52  66
BRANCH  53  77
ATOM     77  C   UNL A   1      41.158  33.470  35.329  1.00  0.00     0.023 A 
ATOM     78  C   UNL A   1      41.282  34.873  35.181  1.00  0.00     0.012 A 
ATOM     79  C   UNL A   1      39.873  32.920  35.502  1.00  0.00     0.148 A 
ATOM     80  C   UNL A   1      40.152  35.671  34.993  1.00  0.00     0.002 A 
ATOM     81  C   UNL A   1      38.750  33.722  35.297  1.00  0.00     0.091 A 
ATOM     82  F   UNL A   1      39.770  31.615  35.781  1.00  0.00    -0.205 F 
ATOM     83  C   UNL A   1      38.890  35.084  34.986  1.00  0.00     0.022 A 
BRANCH  81  84
ATOM     84  S   UNL A   1      37.092  33.030  35.260  1.00  0.00     0.127 S 
ATOM     85  O   UNL A   1      36.767  32.953  36.680  1.00  0.00    -0.237 OA
ATOM     86  O   UNL A   1      36.335  34.040  34.521  1.00  0.00    -0.237 OA
ATOM     87  O   UNL A   1      37.223  31.758  34.565  1.00  0.00    -0.744 OA
ENDBRANCH  81  84
ENDBRANCH  53  77
BRANCH  65  88
ATOM     88  C   UNL A   1      42.974  26.496  34.683  1.00  0.00     0.023 A 
ATOM     89  C   UNL A   1      41.830  26.031  35.356  1.00  0.00     0.012 A 
ATOM     90  C   UNL A   1      44.008  25.550  34.459  1.00  0.00     0.148 A 
ATOM     91  C   UNL A   1      41.747  24.731  35.862  1.00  0.00     0.002 A 
ATOM     92  C   UNL A   1      43.857  24.220  34.831  1.00  0.00     0.091 A 
ATOM     93  F   UNL A   1      45.165  25.934  33.901  1.00  0.00    -0.205 F 
ATOM     94  C   UNL A   1      42.750  23.816  35.576  1.00  0.00     0.022 A 
BRANCH  92  95
ATOM     95  S   UNL A   1      44.982  22.954  34.228  1.00  0.00     0.127 S 
ATOM     96  O   UNL A   1      44.399  21.740  34.793  1.00  0.00    -0.237 OA
ATOM     97  O   UNL A   1      44.840  23.081  32.776  1.00  0.00    -0.237 OA
ATOM     98  O   UNL A   1      46.295  23.331  34.733  1.00  0.00    -0.744 OA
ENDBRANCH  92  95
ENDBRANCH  65  88
ENDBRANCH  39  40
ENDBRANCH  31  34
ENDBRANCH  29  30
ENDBRANCH  28  29
ENDBRANCH   1  28
TORSDOF 18
ENDMDL
