MODEL 1
REMARK VINA RESULT:     -11.5      0.000      0.000
REMARK SMILES CCCN1C(=O)CO[C@H](C(=O)NCCCCNC(=O)c2ccc(-c3c4nc(c(-c5cccc(S(=O)(=O)[O-])c5F)c5ccc([nH]5)c(-c5cccc(S(=O)(=O)[O-])c5F)c5nc(c(-c6cccc(S(=O)(=O)[O-])c6F)c6ccc3[nH]6)C=C5)C=C4)cc2)[C@@H]1c1cncn1C1CC1
REMARK SMILES IDX 15 1 14 2 13 3 12 4 10 5 11 6 9 8 4 9 5 10 83 11 6 12 7 13
REMARK SMILES IDX 8 14 3 15 2 16 1 17 84 18 85 19 88 20 86 21 87 22 89 23
REMARK SMILES IDX 90 24 91 25 16 26 17 27 18 28 19 30 20 31 21 32 82 33 22 34
REMARK SMILES IDX 81 35 23 36 24 37 25 38 75 39 26 40 80 41 74 42 76 43 27 44
REMARK SMILES IDX 79 45 73 46 72 47 28 49 60 50 40 51 59 52 41 53 44 54 58 55
REMARK SMILES IDX 77 56 42 57 43 58 57 60 78 61 45 62 29 63 30 64 38 65 31 66
REMARK SMILES IDX 33 67 39 68 32 69 34 70 35 71 36 72 37 73 61 74 62 75 70 76
REMARK SMILES IDX 63 77 65 78 71 79 64 80 66 81 67 82 68 83 69 84 46 85 47 86
REMARK SMILES IDX 55 87 48 88 50 89 56 90 49 91 51 92 52 93 53 94 54 95
REMARK H PARENT 12 7 17 29 76 48 44 59
REMARK Flexibility Score: inf
ROOT
ATOM      1  C   UNL A   1      31.932  29.315  26.844  1.00  0.00     0.023 C 
ENDROOT
BRANCH   1   2
ATOM      2  C   UNL A   1      32.426  27.884  27.057  1.00  0.00     0.023 C 
BRANCH   2   3
ATOM      3  C   UNL A   1      31.355  26.803  27.016  1.00  0.00     0.116 C 
BRANCH   3   4
ATOM      4  N   UNL A   1      30.672  26.682  25.747  1.00  0.00    -0.354 N 
ATOM      5  C   UNL A   1      30.550  25.575  24.958  1.00  0.00     0.251 C 
ATOM      6  O   UNL A   1      29.705  25.595  24.058  1.00  0.00    -0.272 OA
ATOM      7  H   UNL A   1      30.241  27.500  25.410  1.00  0.00     0.163 HD
BRANCH   5   8
ATOM      8  C   UNL A   1      31.414  24.314  25.169  1.00  0.00     0.236 C 
ATOM      9  N   UNL A   1      33.679  23.231  24.846  1.00  0.00    -0.329 N 
ATOM     10  C   UNL A   1      33.105  22.047  25.309  1.00  0.00     0.249 C 
ATOM     11  C   UNL A   1      32.859  24.428  24.620  1.00  0.00     0.172 C 
ATOM     12  O   UNL A   1      33.771  21.057  25.618  1.00  0.00    -0.272 OA
ATOM     13  C   UNL A   1      31.568  22.018  25.438  1.00  0.00     0.261 C 
ATOM     14  O   UNL A   1      30.831  23.066  24.824  1.00  0.00    -0.356 OA
BRANCH   9  15
ATOM     15  C   UNL A   1      35.134  23.303  24.650  1.00  0.00     0.120 C 
BRANCH  15  16
ATOM     16  C   UNL A   1      35.914  23.938  25.800  1.00  0.00     0.018 C 
ATOM     17  C   UNL A   1      37.365  23.494  25.845  1.00  0.00     0.006 C 
ENDBRANCH  15  16
ENDBRANCH   9  15
BRANCH  11  18
ATOM     18  C   UNL A   1      33.034  25.023  23.247  1.00  0.00     0.064 A 
ATOM     19  C   UNL A   1      33.040  24.238  22.092  1.00  0.00     0.136 A 
ATOM     20  N   UNL A   1      33.192  26.311  22.750  1.00  0.00    -0.330 N 
ATOM     21  N   UNL A   1      33.188  24.970  20.959  1.00  0.00    -0.245 NA
ATOM     22  C   UNL A   1      33.265  26.206  21.378  1.00  0.00     0.199 A 
BRANCH  20  23
ATOM     23  C   UNL A   1      33.351  27.641  23.318  1.00  0.00     0.088 C 
ATOM     24  C   UNL A   1      34.011  28.847  22.696  1.00  0.00     0.027 C 
ATOM     25  C   UNL A   1      32.538  28.845  22.905  1.00  0.00     0.027 C 
ENDBRANCH  20  23
ENDBRANCH  11  18
ENDBRANCH   5   8
ENDBRANCH   3   4
ENDBRANCH   2   3
ENDBRANCH   1   2
BRANCH   1  26
ATOM     26  C   UNL A   1      32.935  30.294  26.237  1.00  0.00     0.116 C 
BRANCH  26  27
ATOM     27  N   UNL A   1      32.846  31.637  26.794  1.00  0.00    -0.352 N 
ATOM     28  C   UNL A   1      33.701  32.292  27.648  1.00  0.00     0.251 C 
ATOM     29  H   UNL A   1      32.054  32.153  26.518  1.00  0.00     0.163 HD
ATOM     30  O   UNL A   1      33.403  33.405  28.078  1.00  0.00    -0.269 OA
BRANCH  28  31
ATOM     31  C   UNL A   1      34.956  31.640  28.082  1.00  0.00     0.039 A 
ATOM     32  C   UNL A   1      36.123  32.406  28.167  1.00  0.00     0.014 A 
ATOM     33  C   UNL A   1      34.977  30.290  28.441  1.00  0.00     0.014 A 
ATOM     34  C   UNL A   1      37.285  31.842  28.701  1.00  0.00     0.010 A 
ATOM     35  C   UNL A   1      36.112  29.754  29.044  1.00  0.00     0.010 A 
ATOM     36  C   UNL A   1      37.276  30.524  29.190  1.00  0.00    -0.014 A 
BRANCH  36  37
ATOM     37  C   UNL A   1      38.455  29.950  29.892  1.00  0.00     0.031 A 
ATOM     38  C   UNL A   1      38.839  30.437  31.264  1.00  0.00     0.074 A 
ATOM     39  C   UNL A   1      39.244  29.062  29.252  1.00  0.00     0.049 A 
ATOM     40  N   UNL A   1      39.869  30.101  31.998  1.00  0.00    -0.248 NA
ATOM     41  C   UNL A   1      37.969  31.452  31.879  1.00  0.00     0.031 C 
ATOM     42  C   UNL A   1      39.034  28.573  27.887  1.00  0.00     0.029 A 
ATOM     43  N   UNL A   1      40.398  28.434  29.653  1.00  0.00    -0.354 N 
ATOM     44  C   UNL A   1      39.794  30.889  33.140  1.00  0.00     0.074 A 
ATOM     45  C   UNL A   1      38.634  31.741  32.989  1.00  0.00     0.031 C 
ATOM     46  C   UNL A   1      40.023  27.723  27.567  1.00  0.00     0.029 A 
ATOM     47  C   UNL A   1      40.950  27.623  28.689  1.00  0.00     0.049 A 
ATOM     48  H   UNL A   1      40.794  28.554  30.547  1.00  0.00     0.167 HD
ATOM     49  C   UNL A   1      40.596  30.884  34.232  1.00  0.00     0.034 A 
ATOM     50  C   UNL A   1      42.079  26.885  28.702  1.00  0.00     0.034 A 
ATOM     51  C   UNL A   1      41.718  30.001  34.406  1.00  0.00     0.049 A 
ATOM     52  C   UNL A   1      42.923  26.856  29.947  1.00  0.00     0.074 A 
ATOM     53  C   UNL A   1      42.531  29.852  35.516  1.00  0.00     0.029 A 
ATOM     54  N   UNL A   1      42.187  29.119  33.446  1.00  0.00    -0.354 N 
ATOM     55  N   UNL A   1      42.736  27.481  31.085  1.00  0.00    -0.248 NA
ATOM     56  C   UNL A   1      44.114  25.994  29.926  1.00  0.00     0.031 C 
ATOM     57  C   UNL A   1      43.501  28.888  35.222  1.00  0.00     0.029 A 
ATOM     58  C   UNL A   1      43.283  28.426  33.934  1.00  0.00     0.049 A 
ATOM     59  H   UNL A   1      41.800  29.002  32.548  1.00  0.00     0.167 HD
ATOM     60  C   UNL A   1      43.761  27.061  31.925  1.00  0.00     0.074 A 
ATOM     61  C   UNL A   1      44.556  26.112  31.172  1.00  0.00     0.031 C 
ATOM     62  C   UNL A   1      44.030  27.440  33.198  1.00  0.00     0.034 A 
BRANCH  49  63
ATOM     63  C   UNL A   1      40.249  31.821  35.359  1.00  0.00     0.023 A 
ATOM     64  C   UNL A   1      40.948  33.039  35.483  1.00  0.00     0.012 A 
ATOM     65  C   UNL A   1      39.198  31.533  36.252  1.00  0.00     0.148 A 
ATOM     66  C   UNL A   1      40.632  33.940  36.499  1.00  0.00     0.002 A 
ATOM     67  C   UNL A   1      38.861  32.456  37.236  1.00  0.00     0.091 A 
ATOM     68  F   UNL A   1      38.559  30.361  36.132  1.00  0.00    -0.205 F 
ATOM     69  C   UNL A   1      39.583  33.653  37.367  1.00  0.00     0.022 A 
BRANCH  67  70
ATOM     70  S   UNL A   1      37.475  32.214  38.353  1.00  0.00     0.127 S 
ATOM     71  O   UNL A   1      37.985  32.807  39.588  1.00  0.00    -0.237 OA
ATOM     72  O   UNL A   1      36.414  32.985  37.701  1.00  0.00    -0.237 OA
ATOM     73  O   UNL A   1      37.240  30.779  38.395  1.00  0.00    -0.744 OA
ENDBRANCH  67  70
ENDBRANCH  49  63
BRANCH  50  74
ATOM     74  C   UNL A   1      42.433  26.046  27.522  1.00  0.00     0.023 A 
ATOM     75  C   UNL A   1      43.201  26.609  26.485  1.00  0.00     0.012 A 
ATOM     76  C   UNL A   1      42.042  24.696  27.432  1.00  0.00     0.148 A 
ATOM     77  C   UNL A   1      43.549  25.853  25.364  1.00  0.00     0.002 A 
ATOM     78  C   UNL A   1      42.439  23.932  26.338  1.00  0.00     0.091 A 
ATOM     79  F   UNL A   1      41.299  24.181  28.422  1.00  0.00    -0.205 F 
ATOM     80  C   UNL A   1      43.178  24.513  25.296  1.00  0.00     0.022 A 
BRANCH  78  81
ATOM     81  S   UNL A   1      42.117  22.168  26.231  1.00  0.00     0.127 S 
ATOM     82  O   UNL A   1      42.977  21.773  25.120  1.00  0.00    -0.237 OA
ATOM     83  O   UNL A   1      42.555  21.699  27.546  1.00  0.00    -0.237 OA
ATOM     84  O   UNL A   1      40.683  22.047  26.001  1.00  0.00    -0.744 OA
ENDBRANCH  78  81
ENDBRANCH  50  74
BRANCH  62  85
ATOM     85  C   UNL A   1      45.215  26.809  33.882  1.00  0.00     0.023 A 
ATOM     86  C   UNL A   1      46.478  27.427  33.799  1.00  0.00     0.012 A 
ATOM     87  C   UNL A   1      45.060  25.651  34.670  1.00  0.00     0.148 A 
ATOM     88  C   UNL A   1      47.575  26.886  34.467  1.00  0.00     0.002 A 
ATOM     89  C   UNL A   1      46.149  25.144  35.370  1.00  0.00     0.091 A 
ATOM     90  F   UNL A   1      43.855  25.066  34.720  1.00  0.00    -0.205 F 
ATOM     91  C   UNL A   1      47.410  25.754  35.261  1.00  0.00     0.022 A 
BRANCH  89  92
ATOM     92  S   UNL A   1      46.004  23.746  36.489  1.00  0.00     0.127 S 
ATOM     93  O   UNL A   1      47.404  23.477  36.813  1.00  0.00    -0.237 OA
ATOM     94  O   UNL A   1      45.220  24.307  37.590  1.00  0.00    -0.237 OA
ATOM     95  O   UNL A   1      45.323  22.701  35.736  1.00  0.00    -0.744 OA
ENDBRANCH  89  92
ENDBRANCH  62  85
ENDBRANCH  36  37
ENDBRANCH  28  31
ENDBRANCH  26  27
ENDBRANCH   1  26
TORSDOF 18
ENDMDL
MODEL 2
REMARK VINA RESULT:     -11.4      5.010     10.245
REMARK SMILES CCCN1C(=O)CO[C@H](C(=O)NCCCCNC(=O)c2ccc(-c3c4nc(c(-c5cccc(S(=O)(=O)[O-])c5F)c5ccc([nH]5)c(-c5cccc(S(=O)(=O)[O-])c5F)c5nc(c(-c6cccc(S(=O)(=O)[O-])c6F)c6ccc3[nH]6)C=C5)C=C4)cc2)[C@@H]1c1cncn1C1CC1
REMARK SMILES IDX 15 1 14 2 13 3 12 4 10 5 11 6 9 8 4 9 5 10 83 11 6 12 7 13
REMARK SMILES IDX 8 14 3 15 2 16 1 17 84 18 85 19 88 20 86 21 87 22 89 23
REMARK SMILES IDX 90 24 91 25 16 26 17 27 18 28 19 30 20 31 21 32 82 33 22 34
REMARK SMILES IDX 81 35 23 36 24 37 25 38 75 39 26 40 80 41 74 42 76 43 27 44
REMARK SMILES IDX 79 45 73 46 72 47 28 49 60 50 40 51 59 52 41 53 44 54 58 55
REMARK SMILES IDX 77 56 42 57 43 58 57 60 78 61 45 62 29 63 30 64 38 65 31 66
REMARK SMILES IDX 33 67 39 68 32 69 34 70 35 71 36 72 37 73 61 74 62 75 70 76
REMARK SMILES IDX 63 77 65 78 71 79 64 80 66 81 67 82 68 83 69 84 46 85 47 86
REMARK SMILES IDX 55 87 48 88 50 89 56 90 49 91 51 92 52 93 53 94 54 95
REMARK H PARENT 12 7 17 29 76 48 44 59
REMARK Flexibility Score: inf
ROOT
ATOM      1  C   UNL A   1      37.031  21.283  24.321  1.00  0.00     0.023 C 
ENDROOT
BRANCH   1   2
ATOM      2  C   UNL A   1      36.950  22.460  23.349  1.00  0.00     0.023 C 
BRANCH   2   3
ATOM      3  C   UNL A   1      35.843  23.467  23.625  1.00  0.00     0.116 C 
BRANCH   3   4
ATOM      4  N   UNL A   1      34.516  23.014  23.272  1.00  0.00    -0.354 N 
ATOM      5  C   UNL A   1      33.450  23.762  22.868  1.00  0.00     0.251 C 
ATOM      6  O   UNL A   1      32.493  23.176  22.350  1.00  0.00    -0.272 OA
ATOM      7  H   UNL A   1      34.363  22.043  23.332  1.00  0.00     0.163 HD
BRANCH   5   8
ATOM      8  C   UNL A   1      33.414  25.297  23.020  1.00  0.00     0.236 C 
ATOM      9  N   UNL A   1      33.317  27.256  24.620  1.00  0.00    -0.329 N 
ATOM     10  C   UNL A   1      33.172  28.077  23.501  1.00  0.00     0.249 C 
ATOM     11  C   UNL A   1      33.327  25.793  24.485  1.00  0.00     0.172 C 
ATOM     12  O   UNL A   1      33.270  29.304  23.555  1.00  0.00    -0.272 OA
ATOM     13  C   UNL A   1      32.887  27.381  22.154  1.00  0.00     0.261 C 
ATOM     14  O   UNL A   1      32.516  26.010  22.182  1.00  0.00    -0.356 OA
BRANCH   9  15
ATOM     15  C   UNL A   1      33.535  27.863  25.941  1.00  0.00     0.120 C 
BRANCH  15  16
ATOM     16  C   UNL A   1      32.380  28.714  26.463  1.00  0.00     0.018 C 
ATOM     17  C   UNL A   1      31.730  28.128  27.704  1.00  0.00     0.006 C 
ENDBRANCH  15  16
ENDBRANCH   9  15
BRANCH  11  18
ATOM     18  C   UNL A   1      32.344  25.102  25.394  1.00  0.00     0.064 A 
ATOM     19  C   UNL A   1      30.983  25.416  25.392  1.00  0.00     0.136 A 
ATOM     20  N   UNL A   1      32.431  24.093  26.344  1.00  0.00    -0.330 N 
ATOM     21  N   UNL A   1      30.269  24.664  26.267  1.00  0.00    -0.245 NA
ATOM     22  C   UNL A   1      31.154  23.874  26.815  1.00  0.00     0.199 A 
BRANCH  20  23
ATOM     23  C   UNL A   1      33.499  23.316  26.953  1.00  0.00     0.088 C 
ATOM     24  C   UNL A   1      33.379  22.125  27.872  1.00  0.00     0.027 C 
ATOM     25  C   UNL A   1      33.918  21.939  26.498  1.00  0.00     0.027 C 
ENDBRANCH  20  23
ENDBRANCH  11  18
ENDBRANCH   5   8
ENDBRANCH   3   4
ENDBRANCH   2   3
ENDBRANCH   1   2
BRANCH   1  26
ATOM     26  C   UNL A   1      37.698  21.561  25.667  1.00  0.00     0.116 C 
BRANCH  26  27
ATOM     27  N   UNL A   1      38.837  20.695  25.941  1.00  0.00    -0.352 N 
ATOM     28  C   UNL A   1      40.060  21.000  26.492  1.00  0.00     0.251 C 
ATOM     29  H   UNL A   1      38.714  19.750  25.694  1.00  0.00     0.163 HD
ATOM     30  O   UNL A   1      40.932  20.136  26.562  1.00  0.00    -0.269 OA
BRANCH  28  31
ATOM     31  C   UNL A   1      40.338  22.377  26.958  1.00  0.00     0.039 A 
ATOM     32  C   UNL A   1      41.280  22.569  27.974  1.00  0.00     0.014 A 
ATOM     33  C   UNL A   1      39.704  23.475  26.374  1.00  0.00     0.014 A 
ATOM     34  C   UNL A   1      41.654  23.867  28.335  1.00  0.00     0.010 A 
ATOM     35  C   UNL A   1      40.134  24.764  26.680  1.00  0.00     0.010 A 
ATOM     36  C   UNL A   1      41.120  24.976  27.657  1.00  0.00    -0.014 A 
BRANCH  36  37
ATOM     37  C   UNL A   1      41.607  26.356  27.923  1.00  0.00     0.031 A 
ATOM     38  C   UNL A   1      43.016  26.750  27.571  1.00  0.00     0.074 A 
ATOM     39  C   UNL A   1      40.811  27.228  28.578  1.00  0.00     0.049 A 
ATOM     40  N   UNL A   1      43.633  27.883  27.789  1.00  0.00    -0.248 NA
ATOM     41  C   UNL A   1      43.849  25.730  26.914  1.00  0.00     0.031 C 
ATOM     42  C   UNL A   1      39.456  26.944  29.054  1.00  0.00     0.029 A 
ATOM     43  N   UNL A   1      41.040  28.520  28.983  1.00  0.00    -0.354 N 
ATOM     44  C   UNL A   1      44.933  27.701  27.334  1.00  0.00     0.074 A 
ATOM     45  C   UNL A   1      45.025  26.339  26.854  1.00  0.00     0.031 C 
ATOM     46  C   UNL A   1      38.973  28.029  29.683  1.00  0.00     0.029 A 
ATOM     47  C   UNL A   1      39.990  29.075  29.679  1.00  0.00     0.049 A 
ATOM     48  H   UNL A   1      41.876  29.005  28.795  1.00  0.00     0.167 HD
ATOM     49  C   UNL A   1      45.951  28.594  27.288  1.00  0.00     0.034 A 
ATOM     50  C   UNL A   1      39.861  30.287  30.254  1.00  0.00     0.034 A 
ATOM     51  C   UNL A   1      45.846  29.963  27.715  1.00  0.00     0.049 A 
ATOM     52  C   UNL A   1      40.987  31.278  30.141  1.00  0.00     0.074 A 
ATOM     53  C   UNL A   1      46.790  30.970  27.617  1.00  0.00     0.029 A 
ATOM     54  N   UNL A   1      44.731  30.518  28.323  1.00  0.00    -0.354 N 
ATOM     55  N   UNL A   1      42.150  31.141  29.551  1.00  0.00    -0.248 NA
ATOM     56  C   UNL A   1      40.773  32.604  30.741  1.00  0.00     0.031 C 
ATOM     57  C   UNL A   1      46.251  32.132  28.179  1.00  0.00     0.029 A 
ATOM     58  C   UNL A   1      44.965  31.852  28.612  1.00  0.00     0.049 A 
ATOM     59  H   UNL A   1      43.896  30.036  28.521  1.00  0.00     0.167 HD
ATOM     60  C   UNL A   1      42.789  32.369  29.675  1.00  0.00     0.074 A 
ATOM     61  C   UNL A   1      41.876  33.246  30.380  1.00  0.00     0.031 C 
ATOM     62  C   UNL A   1      44.027  32.733  29.259  1.00  0.00     0.034 A 
BRANCH  49  63
ATOM     63  C   UNL A   1      47.256  28.135  26.691  1.00  0.00     0.023 A 
ATOM     64  C   UNL A   1      48.319  27.781  27.548  1.00  0.00     0.012 A 
ATOM     65  C   UNL A   1      47.414  27.993  25.299  1.00  0.00     0.148 A 
ATOM     66  C   UNL A   1      49.530  27.328  27.027  1.00  0.00     0.002 A 
ATOM     67  C   UNL A   1      48.610  27.499  24.790  1.00  0.00     0.091 A 
ATOM     68  F   UNL A   1      46.400  28.355  24.499  1.00  0.00    -0.205 F 
ATOM     69  C   UNL A   1      49.671  27.177  25.651  1.00  0.00     0.022 A 
BRANCH  67  70
ATOM     70  S   UNL A   1      48.862  27.195  23.037  1.00  0.00     0.127 S 
ATOM     71  O   UNL A   1      50.321  27.155  22.952  1.00  0.00    -0.237 OA
ATOM     72  O   UNL A   1      48.206  25.900  22.850  1.00  0.00    -0.237 OA
ATOM     73  O   UNL A   1      48.223  28.302  22.342  1.00  0.00    -0.744 OA
ENDBRANCH  67  70
ENDBRANCH  49  63
BRANCH  50  74
ATOM     74  C   UNL A   1      38.581  30.662  30.920  1.00  0.00     0.023 A 
ATOM     75  C   UNL A   1      38.403  30.362  32.285  1.00  0.00     0.012 A 
ATOM     76  C   UNL A   1      37.556  31.334  30.225  1.00  0.00     0.148 A 
ATOM     77  C   UNL A   1      37.217  30.697  32.939  1.00  0.00     0.002 A 
ATOM     78  C   UNL A   1      36.398  31.712  30.898  1.00  0.00     0.091 A 
ATOM     79  F   UNL A   1      37.737  31.597  28.924  1.00  0.00    -0.205 F 
ATOM     80  C   UNL A   1      36.219  31.381  32.249  1.00  0.00     0.022 A 
BRANCH  78  81
ATOM     81  S   UNL A   1      35.120  32.709  30.122  1.00  0.00     0.127 S 
ATOM     82  O   UNL A   1      34.210  32.950  31.237  1.00  0.00    -0.237 OA
ATOM     83  O   UNL A   1      35.876  33.881  29.679  1.00  0.00    -0.237 OA
ATOM     84  O   UNL A   1      34.594  31.892  29.036  1.00  0.00    -0.744 OA
ENDBRANCH  78  81
ENDBRANCH  50  74
BRANCH  62  85
ATOM     85  C   UNL A   1      44.467  34.150  29.521  1.00  0.00     0.023 A 
ATOM     86  C   UNL A   1      45.094  34.470  30.741  1.00  0.00     0.012 A 
ATOM     87  C   UNL A   1      44.332  35.141  28.530  1.00  0.00     0.148 A 
ATOM     88  C   UNL A   1      45.554  35.764  30.982  1.00  0.00     0.002 A 
ATOM     89  C   UNL A   1      44.833  36.418  28.760  1.00  0.00     0.091 A 
ATOM     90  F   UNL A   1      43.714  34.822  27.384  1.00  0.00    -0.205 F 
ATOM     91  C   UNL A   1      45.435  36.733  29.989  1.00  0.00     0.022 A 
BRANCH  89  92
ATOM     92  S   UNL A   1      44.808  37.700  27.502  1.00  0.00     0.127 S 
ATOM     93  O   UNL A   1      45.233  38.873  28.263  1.00  0.00    -0.237 OA
ATOM     94  O   UNL A   1      45.792  37.210  26.536  1.00  0.00    -0.237 OA
ATOM     95  O   UNL A   1      43.440  37.739  27.000  1.00  0.00    -0.744 OA
ENDBRANCH  89  92
ENDBRANCH  62  85
ENDBRANCH  36  37
ENDBRANCH  28  31
ENDBRANCH  26  27
ENDBRANCH   1  26
TORSDOF 18
ENDMDL
MODEL 3
REMARK VINA RESULT:     -11.4      1.276      7.633
REMARK SMILES CCCN1C(=O)CO[C@H](C(=O)NCCCCNC(=O)c2ccc(-c3c4nc(c(-c5cccc(S(=O)(=O)[O-])c5F)c5ccc([nH]5)c(-c5cccc(S(=O)(=O)[O-])c5F)c5nc(c(-c6cccc(S(=O)(=O)[O-])c6F)c6ccc3[nH]6)C=C5)C=C4)cc2)[C@@H]1c1cncn1C1CC1
REMARK SMILES IDX 15 1 14 2 13 3 12 4 10 5 11 6 9 8 4 9 5 10 83 11 6 12 7 13
REMARK SMILES IDX 8 14 3 15 2 16 1 17 84 18 85 19 88 20 86 21 87 22 89 23
REMARK SMILES IDX 90 24 91 25 16 26 17 27 18 28 19 30 20 31 21 32 82 33 22 34
REMARK SMILES IDX 81 35 23 36 24 37 25 38 75 39 26 40 80 41 74 42 76 43 27 44
REMARK SMILES IDX 79 45 73 46 72 47 28 49 60 50 40 51 59 52 41 53 44 54 58 55
REMARK SMILES IDX 77 56 42 57 43 58 57 60 78 61 45 62 29 63 30 64 38 65 31 66
REMARK SMILES IDX 33 67 39 68 32 69 34 70 35 71 36 72 37 73 61 74 62 75 70 76
REMARK SMILES IDX 63 77 65 78 71 79 64 80 66 81 67 82 68 83 69 84 46 85 47 86
REMARK SMILES IDX 55 87 48 88 50 89 56 90 49 91 51 92 52 93 53 94 54 95
REMARK H PARENT 12 7 17 29 76 48 44 59
REMARK Flexibility Score: inf
ROOT
ATOM      1  C   UNL A   1      31.790  30.184  26.964  1.00  0.00     0.023 C 
ENDROOT
BRANCH   1   2
ATOM      2  C   UNL A   1      32.550  28.874  27.168  1.00  0.00     0.023 C 
BRANCH   2   3
ATOM      3  C   UNL A   1      31.691  27.649  27.449  1.00  0.00     0.116 C 
BRANCH   3   4
ATOM      4  N   UNL A   1      30.978  27.138  26.301  1.00  0.00    -0.354 N 
ATOM      5  C   UNL A   1      30.893  25.848  25.867  1.00  0.00     0.251 C 
ATOM      6  O   UNL A   1      30.021  25.570  25.037  1.00  0.00    -0.272 OA
ATOM      7  H   UNL A   1      30.492  27.806  25.764  1.00  0.00     0.163 HD
BRANCH   5   8
ATOM      8  C   UNL A   1      31.831  24.740  26.389  1.00  0.00     0.236 C 
ATOM      9  N   UNL A   1      34.066  23.578  26.143  1.00  0.00    -0.329 N 
ATOM     10  C   UNL A   1      33.618  22.657  27.090  1.00  0.00     0.249 C 
ATOM     11  C   UNL A   1      33.172  24.620  25.622  1.00  0.00     0.172 C 
ATOM     12  O   UNL A   1      34.363  21.840  27.634  1.00  0.00    -0.272 OA
ATOM     13  C   UNL A   1      32.119  22.702  27.455  1.00  0.00     0.261 C 
ATOM     14  O   UNL A   1      31.256  23.461  26.621  1.00  0.00    -0.356 OA
BRANCH   9  15
ATOM     15  C   UNL A   1      35.472  23.549  25.712  1.00  0.00     0.120 C 
BRANCH  15  16
ATOM     16  C   UNL A   1      35.824  22.447  24.716  1.00  0.00     0.018 C 
ATOM     17  C   UNL A   1      36.603  22.961  23.518  1.00  0.00     0.006 C 
ENDBRANCH  15  16
ENDBRANCH   9  15
BRANCH  11  18
ATOM     18  C   UNL A   1      33.116  24.664  24.117  1.00  0.00     0.064 A 
ATOM     19  C   UNL A   1      33.676  25.711  23.382  1.00  0.00     0.136 A 
ATOM     20  N   UNL A   1      32.608  23.828  23.131  1.00  0.00    -0.330 N 
ATOM     21  N   UNL A   1      33.536  25.548  22.043  1.00  0.00    -0.245 NA
ATOM     22  C   UNL A   1      32.905  24.410  21.917  1.00  0.00     0.199 A 
BRANCH  20  23
ATOM     23  C   UNL A   1      31.834  22.596  23.098  1.00  0.00     0.088 C 
ATOM     24  C   UNL A   1      32.118  21.337  22.316  1.00  0.00     0.027 C 
ATOM     25  C   UNL A   1      32.233  21.320  23.799  1.00  0.00     0.027 C 
ENDBRANCH  20  23
ENDBRANCH  11  18
ENDBRANCH   5   8
ENDBRANCH   3   4
ENDBRANCH   2   3
ENDBRANCH   1   2
BRANCH   1  26
ATOM     26  C   UNL A   1      32.542  31.297  26.238  1.00  0.00     0.116 C 
BRANCH  26  27
ATOM     27  N   UNL A   1      32.375  32.608  26.852  1.00  0.00    -0.352 N 
ATOM     28  C   UNL A   1      33.164  33.252  27.775  1.00  0.00     0.251 C 
ATOM     29  H   UNL A   1      31.577  33.107  26.563  1.00  0.00     0.163 HD
ATOM     30  O   UNL A   1      32.804  34.332  28.241  1.00  0.00    -0.269 OA
BRANCH  28  31
ATOM     31  C   UNL A   1      34.423  32.626  28.238  1.00  0.00     0.039 A 
ATOM     32  C   UNL A   1      35.610  33.361  28.165  1.00  0.00     0.014 A 
ATOM     33  C   UNL A   1      34.428  31.337  28.775  1.00  0.00     0.014 A 
ATOM     34  C   UNL A   1      36.783  32.839  28.719  1.00  0.00     0.010 A 
ATOM     35  C   UNL A   1      35.578  30.852  29.394  1.00  0.00     0.010 A 
ATOM     36  C   UNL A   1      36.766  31.600  29.382  1.00  0.00    -0.014 A 
BRANCH  36  37
ATOM     37  C   UNL A   1      37.963  31.090  30.103  1.00  0.00     0.031 A 
ATOM     38  C   UNL A   1      38.833  30.029  29.485  1.00  0.00     0.074 A 
ATOM     39  C   UNL A   1      38.209  31.508  31.363  1.00  0.00     0.049 A 
ATOM     40  N   UNL A   1      39.874  29.419  29.991  1.00  0.00    -0.248 NA
ATOM     41  C   UNL A   1      38.470  29.574  28.133  1.00  0.00     0.031 C 
ATOM     42  C   UNL A   1      37.394  32.466  32.112  1.00  0.00     0.029 A 
ATOM     43  N   UNL A   1      39.201  31.156  32.246  1.00  0.00    -0.354 N 
ATOM     44  C   UNL A   1      40.266  28.484  29.041  1.00  0.00     0.074 A 
ATOM     45  C   UNL A   1      39.333  28.587  27.939  1.00  0.00     0.031 C 
ATOM     46  C   UNL A   1      37.918  32.628  33.338  1.00  0.00     0.029 A 
ATOM     47  C   UNL A   1      39.089  31.768  33.474  1.00  0.00     0.049 A 
ATOM     48  H   UNL A   1      39.923  30.526  32.023  1.00  0.00     0.167 HD
ATOM     49  C   UNL A   1      41.325  27.639  29.065  1.00  0.00     0.034 A 
ATOM     50  C   UNL A   1      39.841  31.649  34.586  1.00  0.00     0.034 A 
ATOM     51  C   UNL A   1      42.282  27.574  30.136  1.00  0.00     0.049 A 
ATOM     52  C   UNL A   1      41.043  30.743  34.567  1.00  0.00     0.074 A 
ATOM     53  C   UNL A   1      43.441  26.822  30.208  1.00  0.00     0.029 A 
ATOM     54  N   UNL A   1      42.193  28.284  31.322  1.00  0.00    -0.354 N 
ATOM     55  N   UNL A   1      41.496  29.995  33.591  1.00  0.00    -0.248 NA
ATOM     56  C   UNL A   1      41.858  30.691  35.790  1.00  0.00     0.031 C 
ATOM     57  C   UNL A   1      44.047  27.067  31.445  1.00  0.00     0.029 A 
ATOM     58  C   UNL A   1      43.272  27.985  32.136  1.00  0.00     0.049 A 
ATOM     59  H   UNL A   1      41.468  28.910  31.552  1.00  0.00     0.167 HD
ATOM     60  C   UNL A   1      42.665  29.413  34.066  1.00  0.00     0.074 A 
ATOM     61  C   UNL A   1      42.863  29.911  35.412  1.00  0.00     0.031 C 
ATOM     62  C   UNL A   1      43.491  28.532  33.450  1.00  0.00     0.034 A 
BRANCH  49  63
ATOM     63  C   UNL A   1      41.543  26.758  27.863  1.00  0.00     0.023 A 
ATOM     64  C   UNL A   1      42.242  27.271  26.750  1.00  0.00     0.012 A 
ATOM     65  C   UNL A   1      41.117  25.416  27.852  1.00  0.00     0.148 A 
ATOM     66  C   UNL A   1      42.483  26.473  25.633  1.00  0.00     0.002 A 
ATOM     67  C   UNL A   1      41.399  24.614  26.752  1.00  0.00     0.091 A 
ATOM     68  F   UNL A   1      40.435  24.952  28.910  1.00  0.00    -0.205 F 
ATOM     69  C   UNL A   1      42.072  25.143  25.639  1.00  0.00     0.022 A 
BRANCH  67  70
ATOM     70  S   UNL A   1      40.979  22.867  26.696  1.00  0.00     0.127 S 
ATOM     71  O   UNL A   1      41.446  22.411  28.004  1.00  0.00    -0.237 OA
ATOM     72  O   UNL A   1      39.524  22.904  26.548  1.00  0.00    -0.237 OA
ATOM     73  O   UNL A   1      41.690  22.322  25.550  1.00  0.00    -0.744 OA
ENDBRANCH  67  70
ENDBRANCH  49  63
BRANCH  50  74
ATOM     74  C   UNL A   1      39.527  32.472  35.789  1.00  0.00     0.023 A 
ATOM     75  C   UNL A   1      40.107  33.749  35.917  1.00  0.00     0.012 A 
ATOM     76  C   UNL A   1      38.643  32.016  36.786  1.00  0.00     0.148 A 
ATOM     77  C   UNL A   1      39.837  34.546  37.030  1.00  0.00     0.002 A 
ATOM     78  C   UNL A   1      38.336  32.838  37.866  1.00  0.00     0.091 A 
ATOM     79  F   UNL A   1      38.113  30.793  36.654  1.00  0.00    -0.205 F 
ATOM     80  C   UNL A   1      38.944  34.095  37.999  1.00  0.00     0.022 A 
BRANCH  78  81
ATOM     81  S   UNL A   1      37.098  32.392  39.090  1.00  0.00     0.127 S 
ATOM     82  O   UNL A   1      35.856  32.674  38.377  1.00  0.00    -0.237 OA
ATOM     83  O   UNL A   1      37.378  30.971  39.301  1.00  0.00    -0.237 OA
ATOM     84  O   UNL A   1      37.374  33.234  40.247  1.00  0.00    -0.744 OA
ENDBRANCH  78  81
ENDBRANCH  50  74
BRANCH  62  85
ATOM     85  C   UNL A   1      44.709  28.066  34.205  1.00  0.00     0.023 A 
ATOM     86  C   UNL A   1      45.910  28.797  34.110  1.00  0.00     0.012 A 
ATOM     87  C   UNL A   1      44.641  26.955  35.068  1.00  0.00     0.148 A 
ATOM     88  C   UNL A   1      47.032  28.411  34.841  1.00  0.00     0.002 A 
ATOM     89  C   UNL A   1      45.751  26.604  35.828  1.00  0.00     0.091 A 
ATOM     90  F   UNL A   1      43.495  26.260  35.129  1.00  0.00    -0.205 F 
ATOM     91  C   UNL A   1      46.950  27.325  35.708  1.00  0.00     0.022 A 
BRANCH  89  92
ATOM     92  S   UNL A   1      45.705  25.278  37.039  1.00  0.00     0.127 S 
ATOM     93  O   UNL A   1      45.886  24.098  36.195  1.00  0.00    -0.237 OA
ATOM     94  O   UNL A   1      46.848  25.596  37.896  1.00  0.00    -0.237 OA
ATOM     95  O   UNL A   1      44.410  25.384  37.699  1.00  0.00    -0.744 OA
ENDBRANCH  89  92
ENDBRANCH  62  85
ENDBRANCH  36  37
ENDBRANCH  28  31
ENDBRANCH  26  27
ENDBRANCH   1  26
TORSDOF 18
ENDMDL
