MODEL 1
REMARK VINA RESULT:     -11.9      0.000      0.000
REMARK SMILES O=C(NCCCCNC(=O)[C@H]1C=C[C@@H](NC(=O)c2ccc(Cl)cn2)C1)c1ccc(-c2c3nc(c(-c4cccc(S(=O)(=O)[O-])c4F)c4ccc([nH]4)c(-c4cccc(S(=O)(=O)[O-])c4F)c4nc(c(-c5cccc(S(=O)(=O)[O-])c5F)c5ccc2[nH]5)C=C4)C=C3)cc1
REMARK SMILES IDX 5 1 4 2 3 3 1 4 2 5 26 7 27 8 88 9 28 10 87 11 29 12 30 13
REMARK SMILES IDX 31 14 81 15 32 16 86 17 80 18 82 19 33 20 85 21 79 22 78 23
REMARK SMILES IDX 34 25 66 26 46 27 65 28 47 29 50 30 64 31 83 32 48 33 49 34
REMARK SMILES IDX 63 36 84 37 51 38 35 39 36 40 44 41 37 42 39 43 45 44 38 45
REMARK SMILES IDX 40 46 41 47 42 48 43 49 67 50 68 51 76 52 69 53 71 54 77 55
REMARK SMILES IDX 70 56 72 57 73 58 74 59 75 60 52 61 53 62 61 63 54 64 56 65
REMARK SMILES IDX 62 66 55 67 57 68 58 69 59 70 60 71 6 72 7 73 8 74 9 75
REMARK SMILES IDX 10 77 11 78 12 79 25 80 13 81 14 82 15 83 16 84 17 86 18 87
REMARK SMILES IDX 19 88 24 89 20 90 23 91 21 92 22 93
REMARK H PARENT 3 6 82 24 50 35 8 76 15 85
REMARK Flexibility Score: inf
ROOT
ATOM      1  C   UNL A   1      31.404  31.840  26.822  1.00  0.00     0.023 C 
ENDROOT
BRANCH   1   2
ATOM      2  C   UNL A   1      32.705  32.539  27.196  1.00  0.00     0.116 C 
BRANCH   2   3
ATOM      3  N   UNL A   1      32.507  33.914  27.624  1.00  0.00    -0.352 N 
ATOM      4  O   UNL A   1      32.773  35.720  28.944  1.00  0.00    -0.269 OA
ATOM      5  C   UNL A   1      33.165  34.604  28.615  1.00  0.00     0.251 C 
ATOM      6  H   UNL A   1      31.812  34.416  27.141  1.00  0.00     0.163 HD
BRANCH   5   7
ATOM      7  C   UNL A   1      34.322  33.979  29.293  1.00  0.00     0.039 A 
ATOM      8  C   UNL A   1      34.124  33.019  30.289  1.00  0.00     0.014 A 
ATOM      9  C   UNL A   1      35.616  34.361  28.930  1.00  0.00     0.014 A 
ATOM     10  C   UNL A   1      35.213  32.529  31.003  1.00  0.00     0.010 A 
ATOM     11  C   UNL A   1      36.714  33.810  29.598  1.00  0.00     0.010 A 
ATOM     12  C   UNL A   1      36.520  32.906  30.652  1.00  0.00    -0.014 A 
BRANCH  12  13
ATOM     13  C   UNL A   1      37.668  32.245  31.323  1.00  0.00     0.031 A 
ATOM     14  C   UNL A   1      38.415  31.111  30.678  1.00  0.00     0.074 A 
ATOM     15  C   UNL A   1      38.017  32.678  32.551  1.00  0.00     0.049 A 
ATOM     16  N   UNL A   1      39.449  30.452  31.132  1.00  0.00    -0.248 NA
ATOM     17  C   UNL A   1      37.944  30.650  29.362  1.00  0.00     0.031 C 
ATOM     18  C   UNL A   1      37.323  33.731  33.297  1.00  0.00     0.029 A 
ATOM     19  N   UNL A   1      39.027  32.288  33.391  1.00  0.00    -0.354 N 
ATOM     20  C   UNL A   1      39.731  29.475  30.184  1.00  0.00     0.074 A 
ATOM     21  C   UNL A   1      38.758  29.629  29.123  1.00  0.00     0.031 C 
ATOM     22  C   UNL A   1      37.932  33.912  34.476  1.00  0.00     0.029 A 
ATOM     23  C   UNL A   1      39.029  32.959  34.591  1.00  0.00     0.049 A 
ATOM     24  H   UNL A   1      39.686  31.595  33.158  1.00  0.00     0.167 HD
ATOM     25  C   UNL A   1      40.718  28.549  30.197  1.00  0.00     0.034 A 
ATOM     26  C   UNL A   1      39.812  32.811  35.677  1.00  0.00     0.034 A 
ATOM     27  C   UNL A   1      41.708  28.434  31.237  1.00  0.00     0.049 A 
ATOM     28  C   UNL A   1      40.915  31.794  35.642  1.00  0.00     0.074 A 
ATOM     29  C   UNL A   1      42.809  27.596  31.284  1.00  0.00     0.029 A 
ATOM     30  N   UNL A   1      41.712  29.163  32.415  1.00  0.00    -0.354 N 
ATOM     31  N   UNL A   1      41.269  31.000  34.662  1.00  0.00    -0.248 NA
ATOM     32  C   UNL A   1      41.740  31.668  36.851  1.00  0.00     0.031 C 
ATOM     33  C   UNL A   1      43.465  27.802  32.502  1.00  0.00     0.029 A 
ATOM     34  C   UNL A   1      42.780  28.780  33.207  1.00  0.00     0.049 A 
ATOM     35  H   UNL A   1      41.051  29.854  32.653  1.00  0.00     0.167 HD
ATOM     36  C   UNL A   1      42.366  30.287  35.128  1.00  0.00     0.074 A 
ATOM     37  C   UNL A   1      42.641  30.774  36.466  1.00  0.00     0.031 C 
ATOM     38  C   UNL A   1      43.066  29.301  34.518  1.00  0.00     0.034 A 
BRANCH  25  39
ATOM     39  C   UNL A   1      40.825  27.600  29.032  1.00  0.00     0.023 A 
ATOM     40  C   UNL A   1      39.916  26.529  28.927  1.00  0.00     0.012 A 
ATOM     41  C   UNL A   1      41.739  27.840  27.987  1.00  0.00     0.148 A 
ATOM     42  C   UNL A   1      39.920  25.704  27.801  1.00  0.00     0.002 A 
ATOM     43  C   UNL A   1      41.714  27.034  26.854  1.00  0.00     0.091 A 
ATOM     44  F   UNL A   1      42.605  28.855  28.116  1.00  0.00    -0.205 F 
ATOM     45  C   UNL A   1      40.808  25.964  26.761  1.00  0.00     0.022 A 
BRANCH  43  46
ATOM     46  S   UNL A   1      42.768  27.326  25.428  1.00  0.00     0.127 S 
ATOM     47  O   UNL A   1      42.631  26.066  24.697  1.00  0.00    -0.237 OA
ATOM     48  O   UNL A   1      42.118  28.472  24.793  1.00  0.00    -0.237 OA
ATOM     49  O   UNL A   1      44.098  27.595  25.958  1.00  0.00    -0.744 OA
ENDBRANCH  43  46
ENDBRANCH  25  39
BRANCH  26  50
ATOM     50  C   UNL A   1      39.591  33.674  36.871  1.00  0.00     0.023 A 
ATOM     51  C   UNL A   1      39.985  35.023  36.835  1.00  0.00     0.012 A 
ATOM     52  C   UNL A   1      38.952  33.175  38.022  1.00  0.00     0.148 A 
ATOM     53  C   UNL A   1      39.769  35.855  37.935  1.00  0.00     0.002 A 
ATOM     54  C   UNL A   1      38.684  34.024  39.089  1.00  0.00     0.091 A 
ATOM     55  F   UNL A   1      38.603  31.880  38.051  1.00  0.00    -0.205 F 
ATOM     56  C   UNL A   1      39.107  35.360  39.055  1.00  0.00     0.022 A 
BRANCH  54  57
ATOM     57  S   UNL A   1      37.697  33.483  40.490  1.00  0.00     0.127 S 
ATOM     58  O   UNL A   1      36.418  33.179  39.857  1.00  0.00    -0.237 OA
ATOM     59  O   UNL A   1      38.442  32.316  40.966  1.00  0.00    -0.237 OA
ATOM     60  O   UNL A   1      37.710  34.609  41.415  1.00  0.00    -0.744 OA
ENDBRANCH  54  57
ENDBRANCH  26  50
BRANCH  38  61
ATOM     61  C   UNL A   1      44.196  28.679  35.292  1.00  0.00     0.023 A 
ATOM     62  C   UNL A   1      45.500  29.192  35.139  1.00  0.00     0.012 A 
ATOM     63  C   UNL A   1      43.964  27.634  36.206  1.00  0.00     0.148 A 
ATOM     64  C   UNL A   1      46.562  28.653  35.862  1.00  0.00     0.002 A 
ATOM     65  C   UNL A   1      45.020  27.131  36.956  1.00  0.00     0.091 A 
ATOM     66  F   UNL A   1      42.720  27.147  36.320  1.00  0.00    -0.205 F 
ATOM     67  C   UNL A   1      46.321  27.631  36.777  1.00  0.00     0.022 A 
BRANCH  65  68
ATOM     68  S   UNL A   1      44.786  25.875  38.218  1.00  0.00     0.127 S 
ATOM     69  O   UNL A   1      46.164  25.607  38.631  1.00  0.00    -0.237 OA
ATOM     70  O   UNL A   1      43.977  26.578  39.215  1.00  0.00    -0.237 OA
ATOM     71  O   UNL A   1      44.102  24.771  37.559  1.00  0.00    -0.744 OA
ENDBRANCH  65  68
ENDBRANCH  38  61
ENDBRANCH  12  13
ENDBRANCH   5   7
ENDBRANCH   2   3
ENDBRANCH   1   2
BRANCH   1  72
ATOM     72  C   UNL A   1      31.566  30.476  26.152  1.00  0.00     0.023 C 
BRANCH  72  73
ATOM     73  C   UNL A   1      33.008  30.004  25.995  1.00  0.00     0.116 C 
BRANCH  73  74
ATOM     74  N   UNL A   1      33.366  29.775  24.606  1.00  0.00    -0.356 N 
ATOM     75  C   UNL A   1      33.433  28.609  23.897  1.00  0.00     0.227 C 
ATOM     76  H   UNL A   1      33.597  30.585  24.096  1.00  0.00     0.163 HD
ATOM     77  O   UNL A   1      33.746  28.661  22.707  1.00  0.00    -0.274 OA
BRANCH  75  78
ATOM     78  C   UNL A   1      33.137  27.296  24.609  1.00  0.00     0.103 C 
ATOM     79  C   UNL A   1      31.671  27.004  24.755  1.00  0.00    -0.016 C 
ATOM     80  C   UNL A   1      33.619  26.092  23.793  1.00  0.00     0.047 C 
ATOM     81  C   UNL A   1      31.424  25.703  24.559  1.00  0.00    -0.006 C 
ATOM     82  C   UNL A   1      32.678  24.963  24.221  1.00  0.00     0.106 C 
BRANCH  82  83
ATOM     83  N   UNL A   1      32.378  24.019  23.177  1.00  0.00    -0.344 N 
ATOM     84  C   UNL A   1      33.095  22.911  22.782  1.00  0.00     0.270 C 
ATOM     85  H   UNL A   1      31.546  24.186  22.677  1.00  0.00     0.164 HD
ATOM     86  O   UNL A   1      32.678  22.201  21.872  1.00  0.00    -0.267 OA
BRANCH  84  87
ATOM     87  C   UNL A   1      34.379  22.576  23.465  1.00  0.00     0.128 A 
ATOM     88  C   UNL A   1      34.394  21.725  24.568  1.00  0.00     0.036 A 
ATOM     89  N   UNL A   1      35.495  23.153  22.949  1.00  0.00    -0.250 NA
ATOM     90  C   UNL A   1      35.611  21.489  25.206  1.00  0.00     0.024 A 
ATOM     91  C   UNL A   1      36.664  22.880  23.574  1.00  0.00     0.132 A 
ATOM     92  C   UNL A   1      36.768  22.074  24.699  1.00  0.00     0.059 A 
ATOM     93  Cl  UNL A   1      38.284  21.807  25.456  1.00  0.00    -0.083 Cl
ENDBRANCH  84  87
ENDBRANCH  82  83
ENDBRANCH  75  78
ENDBRANCH  73  74
ENDBRANCH  72  73
ENDBRANCH   1  72
TORSDOF 16
ENDMDL
MODEL 2
REMARK VINA RESULT:     -11.8      3.337      8.601
REMARK SMILES O=C(NCCCCNC(=O)[C@H]1C=C[C@@H](NC(=O)c2ccc(Cl)cn2)C1)c1ccc(-c2c3nc(c(-c4cccc(S(=O)(=O)[O-])c4F)c4ccc([nH]4)c(-c4cccc(S(=O)(=O)[O-])c4F)c4nc(c(-c5cccc(S(=O)(=O)[O-])c5F)c5ccc2[nH]5)C=C4)C=C3)cc1
REMARK SMILES IDX 5 1 4 2 3 3 1 4 2 5 26 7 27 8 88 9 28 10 87 11 29 12 30 13
REMARK SMILES IDX 31 14 81 15 32 16 86 17 80 18 82 19 33 20 85 21 79 22 78 23
REMARK SMILES IDX 34 25 66 26 46 27 65 28 47 29 50 30 64 31 83 32 48 33 49 34
REMARK SMILES IDX 63 36 84 37 51 38 35 39 36 40 44 41 37 42 39 43 45 44 38 45
REMARK SMILES IDX 40 46 41 47 42 48 43 49 67 50 68 51 76 52 69 53 71 54 77 55
REMARK SMILES IDX 70 56 72 57 73 58 74 59 75 60 52 61 53 62 61 63 54 64 56 65
REMARK SMILES IDX 62 66 55 67 57 68 58 69 59 70 60 71 6 72 7 73 8 74 9 75
REMARK SMILES IDX 10 77 11 78 12 79 25 80 13 81 14 82 15 83 16 84 17 86 18 87
REMARK SMILES IDX 19 88 24 89 20 90 23 91 21 92 22 93
REMARK H PARENT 3 6 82 24 50 35 8 76 15 85
REMARK Flexibility Score: inf
ROOT
ATOM      1  C   UNL A   1      34.021  28.272  25.369  1.00  0.00     0.023 C 
ENDROOT
BRANCH   1   2
ATOM      2  C   UNL A   1      33.871  28.558  26.859  1.00  0.00     0.116 C 
BRANCH   2   3
ATOM      3  N   UNL A   1      33.684  29.970  27.149  1.00  0.00    -0.352 N 
ATOM      4  O   UNL A   1      34.120  31.944  28.141  1.00  0.00    -0.269 OA
ATOM      5  C   UNL A   1      34.500  30.809  27.869  1.00  0.00     0.251 C 
ATOM      6  H   UNL A   1      32.867  30.377  26.782  1.00  0.00     0.163 HD
BRANCH   5   7
ATOM      7  C   UNL A   1      35.818  30.323  28.334  1.00  0.00     0.039 A 
ATOM      8  C   UNL A   1      36.952  30.476  27.532  1.00  0.00     0.014 A 
ATOM      9  C   UNL A   1      35.916  29.702  29.582  1.00  0.00     0.014 A 
ATOM     10  C   UNL A   1      38.159  29.907  27.925  1.00  0.00     0.010 A 
ATOM     11  C   UNL A   1      37.148  29.197  30.009  1.00  0.00     0.010 A 
ATOM     12  C   UNL A   1      38.274  29.278  29.176  1.00  0.00    -0.014 A 
BRANCH  12  13
ATOM     13  C   UNL A   1      39.610  28.823  29.638  1.00  0.00     0.031 A 
ATOM     14  C   UNL A   1      40.346  29.527  30.742  1.00  0.00     0.074 A 
ATOM     15  C   UNL A   1      40.163  27.761  29.019  1.00  0.00     0.049 A 
ATOM     16  N   UNL A   1      41.508  29.232  31.266  1.00  0.00    -0.248 NA
ATOM     17  C   UNL A   1      39.709  30.714  31.333  1.00  0.00     0.031 C 
ATOM     18  C   UNL A   1      39.564  27.040  27.893  1.00  0.00     0.029 A 
ATOM     19  N   UNL A   1      41.349  27.110  29.236  1.00  0.00    -0.354 N 
ATOM     20  C   UNL A   1      41.763  30.213  32.217  1.00  0.00     0.074 A 
ATOM     21  C   UNL A   1      40.630  31.115  32.202  1.00  0.00     0.031 C 
ATOM     22  C   UNL A   1      40.377  26.040  27.526  1.00  0.00     0.029 A 
ATOM     23  C   UNL A   1      41.575  26.077  28.356  1.00  0.00     0.049 A 
ATOM     24  H   UNL A   1      41.979  27.358  29.951  1.00  0.00     0.167 HD
ATOM     25  C   UNL A   1      42.836  30.337  33.032  1.00  0.00     0.034 A 
ATOM     26  C   UNL A   1      42.637  25.261  28.214  1.00  0.00     0.034 A 
ATOM     27  C   UNL A   1      43.937  29.409  33.070  1.00  0.00     0.049 A 
ATOM     28  C   UNL A   1      43.795  25.410  29.156  1.00  0.00     0.074 A 
ATOM     29  C   UNL A   1      45.017  29.394  33.935  1.00  0.00     0.029 A 
ATOM     30  N   UNL A   1      44.109  28.345  32.199  1.00  0.00    -0.354 N 
ATOM     31  N   UNL A   1      43.935  26.238  30.163  1.00  0.00    -0.248 NA
ATOM     32  C   UNL A   1      44.931  24.499  28.961  1.00  0.00     0.031 C 
ATOM     33  C   UNL A   1      45.855  28.334  33.573  1.00  0.00     0.029 A 
ATOM     34  C   UNL A   1      45.288  27.680  32.491  1.00  0.00     0.049 A 
ATOM     35  H   UNL A   1      43.484  28.097  31.480  1.00  0.00     0.167 HD
ATOM     36  C   UNL A   1      45.167  25.942  30.729  1.00  0.00     0.074 A 
ATOM     37  C   UNL A   1      45.716  24.831  29.977  1.00  0.00     0.031 C 
ATOM     38  C   UNL A   1      45.802  26.551  31.760  1.00  0.00     0.034 A 
BRANCH  25  39
ATOM     39  C   UNL A   1      42.872  31.492  33.998  1.00  0.00     0.023 A 
ATOM     40  C   UNL A   1      43.386  32.734  33.573  1.00  0.00     0.012 A 
ATOM     41  C   UNL A   1      42.289  31.383  35.276  1.00  0.00     0.148 A 
ATOM     42  C   UNL A   1      43.325  33.849  34.409  1.00  0.00     0.002 A 
ATOM     43  C   UNL A   1      42.203  32.507  36.090  1.00  0.00     0.091 A 
ATOM     44  F   UNL A   1      41.822  30.188  35.666  1.00  0.00    -0.205 F 
ATOM     45  C   UNL A   1      42.723  33.739  35.661  1.00  0.00     0.022 A 
BRANCH  43  46
ATOM     46  S   UNL A   1      41.385  32.490  37.691  1.00  0.00     0.127 S 
ATOM     47  O   UNL A   1      40.042  32.038  37.331  1.00  0.00    -0.237 OA
ATOM     48  O   UNL A   1      42.179  31.509  38.432  1.00  0.00    -0.237 OA
ATOM     49  O   UNL A   1      41.467  33.852  38.200  1.00  0.00    -0.744 OA
ENDBRANCH  43  46
ENDBRANCH  25  39
BRANCH  26  50
ATOM     50  C   UNL A   1      42.629  24.215  27.155  1.00  0.00     0.023 A 
ATOM     51  C   UNL A   1      43.309  24.446  25.945  1.00  0.00     0.012 A 
ATOM     52  C   UNL A   1      41.991  22.976  27.359  1.00  0.00     0.148 A 
ATOM     53  C   UNL A   1      43.331  23.471  24.947  1.00  0.00     0.002 A 
ATOM     54  C   UNL A   1      42.071  21.987  26.386  1.00  0.00     0.091 A 
ATOM     55  F   UNL A   1      41.328  22.779  28.507  1.00  0.00    -0.205 F 
ATOM     56  C   UNL A   1      42.725  22.238  25.172  1.00  0.00     0.022 A 
BRANCH  54  57
ATOM     57  S   UNL A   1      41.446  20.329  26.685  1.00  0.00     0.127 S 
ATOM     58  O   UNL A   1      40.014  20.568  26.829  1.00  0.00    -0.237 OA
ATOM     59  O   UNL A   1      41.833  19.624  25.461  1.00  0.00    -0.237 OA
ATOM     60  O   UNL A   1      42.150  19.872  27.876  1.00  0.00    -0.744 OA
ENDBRANCH  54  57
ENDBRANCH  26  50
BRANCH  38  61
ATOM     61  C   UNL A   1      47.162  26.030  32.135  1.00  0.00     0.023 A 
ATOM     62  C   UNL A   1      48.295  26.496  31.437  1.00  0.00     0.012 A 
ATOM     63  C   UNL A   1      47.327  25.130  33.205  1.00  0.00     0.148 A 
ATOM     64  C   UNL A   1      49.569  26.050  31.780  1.00  0.00     0.002 A 
ATOM     65  C   UNL A   1      48.606  24.724  33.569  1.00  0.00     0.091 A 
ATOM     66  F   UNL A   1      46.235  24.683  33.842  1.00  0.00    -0.205 F 
ATOM     67  C   UNL A   1      49.726  25.173  32.850  1.00  0.00     0.022 A 
BRANCH  65  68
ATOM     68  S   UNL A   1      48.907  23.666  34.989  1.00  0.00     0.127 S 
ATOM     69  O   UNL A   1      48.272  22.417  34.570  1.00  0.00    -0.237 OA
ATOM     70  O   UNL A   1      50.369  23.619  35.040  1.00  0.00    -0.237 OA
ATOM     71  O   UNL A   1      48.287  24.337  36.123  1.00  0.00    -0.744 OA
ENDBRANCH  65  68
ENDBRANCH  38  61
ENDBRANCH  12  13
ENDBRANCH   5   7
ENDBRANCH   2   3
ENDBRANCH   1   2
BRANCH   1  72
ATOM     72  C   UNL A   1      33.422  29.327  24.439  1.00  0.00     0.023 C 
BRANCH  72  73
ATOM     73  C   UNL A   1      33.445  28.966  22.958  1.00  0.00     0.116 C 
BRANCH  73  74
ATOM     74  N   UNL A   1      32.128  29.038  22.351  1.00  0.00    -0.356 N 
ATOM     75  C   UNL A   1      31.016  28.276  22.570  1.00  0.00     0.227 C 
ATOM     76  H   UNL A   1      32.020  29.747  21.676  1.00  0.00     0.163 HD
ATOM     77  O   UNL A   1      29.989  28.538  21.943  1.00  0.00    -0.274 OA
BRANCH  75  78
ATOM     78  C   UNL A   1      31.097  27.126  23.565  1.00  0.00     0.103 C 
ATOM     79  C   UNL A   1      29.782  26.440  23.805  1.00  0.00    -0.016 C 
ATOM     80  C   UNL A   1      31.957  25.976  23.027  1.00  0.00     0.047 C 
ATOM     81  C   UNL A   1      29.948  25.116  23.911  1.00  0.00    -0.006 C 
ATOM     82  C   UNL A   1      31.382  24.738  23.718  1.00  0.00     0.106 C 
BRANCH  82  83
ATOM     83  N   UNL A   1      31.430  23.542  22.918  1.00  0.00    -0.344 N 
ATOM     84  C   UNL A   1      32.446  22.620  22.806  1.00  0.00     0.270 C 
ATOM     85  H   UNL A   1      30.627  23.358  22.379  1.00  0.00     0.164 HD
ATOM     86  O   UNL A   1      32.308  21.639  22.080  1.00  0.00    -0.267 OA
BRANCH  84  87
ATOM     87  C   UNL A   1      33.713  22.813  23.569  1.00  0.00     0.128 A 
ATOM     88  C   UNL A   1      33.755  22.581  24.942  1.00  0.00     0.036 A 
ATOM     89  N   UNL A   1      34.786  23.227  22.846  1.00  0.00    -0.250 NA
ATOM     90  C   UNL A   1      34.948  22.832  25.620  1.00  0.00     0.024 A 
ATOM     91  C   UNL A   1      35.935  23.433  23.530  1.00  0.00     0.132 A 
ATOM     92  C   UNL A   1      36.059  23.263  24.902  1.00  0.00     0.059 A 
ATOM     93  Cl  UNL A   1      37.544  23.582  25.699  1.00  0.00    -0.083 Cl
ENDBRANCH  84  87
ENDBRANCH  82  83
ENDBRANCH  75  78
ENDBRANCH  73  74
ENDBRANCH  72  73
ENDBRANCH   1  72
TORSDOF 16
ENDMDL
MODEL 3
REMARK VINA RESULT:     -11.7      1.306      1.643
REMARK SMILES O=C(NCCCCNC(=O)[C@H]1C=C[C@@H](NC(=O)c2ccc(Cl)cn2)C1)c1ccc(-c2c3nc(c(-c4cccc(S(=O)(=O)[O-])c4F)c4ccc([nH]4)c(-c4cccc(S(=O)(=O)[O-])c4F)c4nc(c(-c5cccc(S(=O)(=O)[O-])c5F)c5ccc2[nH]5)C=C4)C=C3)cc1
REMARK SMILES IDX 5 1 4 2 3 3 1 4 2 5 26 7 27 8 88 9 28 10 87 11 29 12 30 13
REMARK SMILES IDX 31 14 81 15 32 16 86 17 80 18 82 19 33 20 85 21 79 22 78 23
REMARK SMILES IDX 34 25 66 26 46 27 65 28 47 29 50 30 64 31 83 32 48 33 49 34
REMARK SMILES IDX 63 36 84 37 51 38 35 39 36 40 44 41 37 42 39 43 45 44 38 45
REMARK SMILES IDX 40 46 41 47 42 48 43 49 67 50 68 51 76 52 69 53 71 54 77 55
REMARK SMILES IDX 70 56 72 57 73 58 74 59 75 60 52 61 53 62 61 63 54 64 56 65
REMARK SMILES IDX 62 66 55 67 57 68 58 69 59 70 60 71 6 72 7 73 8 74 9 75
REMARK SMILES IDX 10 77 11 78 12 79 25 80 13 81 14 82 15 83 16 84 17 86 18 87
REMARK SMILES IDX 19 88 24 89 20 90 23 91 21 92 22 93
REMARK H PARENT 3 6 82 24 50 35 8 76 15 85
REMARK Flexibility Score: inf
ROOT
ATOM      1  C   UNL A   1      31.321  31.782  26.500  1.00  0.00     0.023 C 
ENDROOT
BRANCH   1   2
ATOM      2  C   UNL A   1      32.619  32.506  26.836  1.00  0.00     0.116 C 
BRANCH   2   3
ATOM      3  N   UNL A   1      32.403  33.848  27.352  1.00  0.00    -0.352 N 
ATOM      4  O   UNL A   1      32.645  35.567  28.786  1.00  0.00    -0.269 OA
ATOM      5  C   UNL A   1      33.052  34.481  28.386  1.00  0.00     0.251 C 
ATOM      6  H   UNL A   1      31.700  34.370  26.903  1.00  0.00     0.163 HD
BRANCH   5   7
ATOM      7  C   UNL A   1      34.217  33.828  29.022  1.00  0.00     0.039 A 
ATOM      8  C   UNL A   1      34.040  32.730  29.867  1.00  0.00     0.014 A 
ATOM      9  C   UNL A   1      35.499  34.325  28.773  1.00  0.00     0.014 A 
ATOM     10  C   UNL A   1      35.128  32.203  30.555  1.00  0.00     0.010 A 
ATOM     11  C   UNL A   1      36.602  33.745  29.407  1.00  0.00     0.010 A 
ATOM     12  C   UNL A   1      36.423  32.693  30.317  1.00  0.00    -0.014 A 
BRANCH  12  13
ATOM     13  C   UNL A   1      37.582  32.006  30.941  1.00  0.00     0.031 A 
ATOM     14  C   UNL A   1      38.405  31.000  30.186  1.00  0.00     0.074 A 
ATOM     15  C   UNL A   1      37.871  32.296  32.225  1.00  0.00     0.049 A 
ATOM     16  N   UNL A   1      39.457  30.337  30.592  1.00  0.00    -0.248 NA
ATOM     17  C   UNL A   1      37.998  30.689  28.807  1.00  0.00     0.031 C 
ATOM     18  C   UNL A   1      37.102  33.211  33.072  1.00  0.00     0.029 A 
ATOM     19  N   UNL A   1      38.874  31.849  33.046  1.00  0.00    -0.354 N 
ATOM     20  C   UNL A   1      39.817  29.504  29.540  1.00  0.00     0.074 A 
ATOM     21  C   UNL A   1      38.870  29.746  28.471  1.00  0.00     0.031 C 
ATOM     22  C   UNL A   1      37.665  33.269  34.286  1.00  0.00     0.029 A 
ATOM     23  C   UNL A   1      38.805  32.361  34.321  1.00  0.00     0.049 A 
ATOM     24  H   UNL A   1      39.574  31.223  32.752  1.00  0.00     0.167 HD
ATOM     25  C   UNL A   1      40.849  28.630  29.472  1.00  0.00     0.034 A 
ATOM     26  C   UNL A   1      39.561  32.113  35.408  1.00  0.00     0.034 A 
ATOM     27  C   UNL A   1      41.811  28.430  30.524  1.00  0.00     0.049 A 
ATOM     28  C   UNL A   1      40.715  31.160  35.285  1.00  0.00     0.074 A 
ATOM     29  C   UNL A   1      42.951  27.645  30.507  1.00  0.00     0.029 A 
ATOM     30  N   UNL A   1      41.742  29.002  31.784  1.00  0.00    -0.354 N 
ATOM     31  N   UNL A   1      41.139  30.515  34.226  1.00  0.00    -0.248 NA
ATOM     32  C   UNL A   1      41.508  30.920  36.498  1.00  0.00     0.031 C 
ATOM     33  C   UNL A   1      43.559  27.724  31.764  1.00  0.00     0.029 A 
ATOM     34  C   UNL A   1      42.804  28.571  32.560  1.00  0.00     0.049 A 
ATOM     35  H   UNL A   1      41.040  29.625  32.083  1.00  0.00     0.167 HD
ATOM     36  C   UNL A   1      42.256  29.801  34.639  1.00  0.00     0.074 A 
ATOM     37  C   UNL A   1      42.464  30.126  36.037  1.00  0.00     0.031 C 
ATOM     38  C   UNL A   1      43.023  28.934  33.936  1.00  0.00     0.034 A 
BRANCH  25  39
ATOM     39  C   UNL A   1      41.039  27.843  28.202  1.00  0.00     0.023 A 
ATOM     40  C   UNL A   1      41.688  28.444  27.105  1.00  0.00     0.012 A 
ATOM     41  C   UNL A   1      40.688  26.479  28.138  1.00  0.00     0.148 A 
ATOM     42  C   UNL A   1      41.978  27.702  25.960  1.00  0.00     0.002 A 
ATOM     43  C   UNL A   1      41.012  25.739  27.007  1.00  0.00     0.091 A 
ATOM     44  F   UNL A   1      40.057  25.932  29.187  1.00  0.00    -0.205 F 
ATOM     45  C   UNL A   1      41.653  26.349  25.916  1.00  0.00     0.022 A 
BRANCH  43  46
ATOM     46  S   UNL A   1      40.699  23.974  26.876  1.00  0.00     0.127 S 
ATOM     47  O   UNL A   1      41.558  23.605  25.751  1.00  0.00    -0.237 OA
ATOM     48  O   UNL A   1      41.153  23.483  28.176  1.00  0.00    -0.237 OA
ATOM     49  O   UNL A   1      39.268  23.835  26.636  1.00  0.00    -0.744 OA
ENDBRANCH  43  46
ENDBRANCH  25  39
BRANCH  26  50
ATOM     50  C   UNL A   1      39.260  32.805  36.691  1.00  0.00     0.023 A 
ATOM     51  C   UNL A   1      39.850  34.053  36.962  1.00  0.00     0.012 A 
ATOM     52  C   UNL A   1      38.359  32.254  37.622  1.00  0.00     0.148 A 
ATOM     53  C   UNL A   1      39.566  34.729  38.150  1.00  0.00     0.002 A 
ATOM     54  C   UNL A   1      38.034  32.961  38.774  1.00  0.00     0.091 A 
ATOM     55  F   UNL A   1      37.824  31.053  37.362  1.00  0.00    -0.205 F 
ATOM     56  C   UNL A   1      38.649  34.191  39.048  1.00  0.00     0.022 A 
BRANCH  54  57
ATOM     57  S   UNL A   1      36.743  32.392  39.887  1.00  0.00     0.127 S 
ATOM     58  O   UNL A   1      37.274  31.107  40.331  1.00  0.00    -0.237 OA
ATOM     59  O   UNL A   1      36.729  33.440  40.910  1.00  0.00    -0.237 OA
ATOM     60  O   UNL A   1      35.537  32.348  39.071  1.00  0.00    -0.744 OA
ENDBRANCH  54  57
ENDBRANCH  26  50
BRANCH  38  61
ATOM     61  C   UNL A   1      44.159  28.272  34.666  1.00  0.00     0.023 A 
ATOM     62  C   UNL A   1      45.427  28.889  34.672  1.00  0.00     0.012 A 
ATOM     63  C   UNL A   1      43.963  27.080  35.389  1.00  0.00     0.148 A 
ATOM     64  C   UNL A   1      46.491  28.311  35.362  1.00  0.00     0.002 A 
ATOM     65  C   UNL A   1      45.018  26.533  36.110  1.00  0.00     0.091 A 
ATOM     66  F   UNL A   1      42.755  26.499  35.352  1.00  0.00    -0.205 F 
ATOM     67  C   UNL A   1      46.285  27.141  36.088  1.00  0.00     0.022 A 
BRANCH  65  68
ATOM     68  S   UNL A   1      44.821  25.077  37.143  1.00  0.00     0.127 S 
ATOM     69  O   UNL A   1      46.170  24.907  37.680  1.00  0.00    -0.237 OA
ATOM     70  O   UNL A   1      43.826  25.519  38.121  1.00  0.00    -0.237 OA
ATOM     71  O   UNL A   1      44.361  24.019  36.253  1.00  0.00    -0.744 OA
ENDBRANCH  65  68
ENDBRANCH  38  61
ENDBRANCH  12  13
ENDBRANCH   5   7
ENDBRANCH   2   3
ENDBRANCH   1   2
BRANCH   1  72
ATOM     72  C   UNL A   1      31.476  30.313  26.107  1.00  0.00     0.023 C 
BRANCH  72  73
ATOM     73  C   UNL A   1      32.895  29.893  25.739  1.00  0.00     0.116 C 
BRANCH  73  74
ATOM     74  N   UNL A   1      33.031  29.584  24.326  1.00  0.00    -0.356 N 
ATOM     75  C   UNL A   1      32.986  28.381  23.681  1.00  0.00     0.227 C 
ATOM     76  H   UNL A   1      33.179  30.364  23.743  1.00  0.00     0.163 HD
ATOM     77  O   UNL A   1      33.109  28.365  22.456  1.00  0.00    -0.274 OA
BRANCH  75  78
ATOM     78  C   UNL A   1      32.805  27.112  24.503  1.00  0.00     0.103 C 
ATOM     79  C   UNL A   1      31.372  26.803  24.833  1.00  0.00    -0.016 C 
ATOM     80  C   UNL A   1      33.222  25.866  23.714  1.00  0.00     0.047 C 
ATOM     81  C   UNL A   1      31.137  25.488  24.748  1.00  0.00    -0.006 C 
ATOM     82  C   UNL A   1      32.364  24.751  24.316  1.00  0.00     0.106 C 
BRANCH  82  83
ATOM     83  N   UNL A   1      31.972  23.736  23.372  1.00  0.00    -0.344 N 
ATOM     84  C   UNL A   1      32.650  22.597  22.999  1.00  0.00     0.270 C 
ATOM     85  H   UNL A   1      31.100  23.874  22.936  1.00  0.00     0.164 HD
ATOM     86  O   UNL A   1      32.154  21.826  22.183  1.00  0.00    -0.267 OA
BRANCH  84  87
ATOM     87  C   UNL A   1      33.988  22.301  23.591  1.00  0.00     0.128 A 
ATOM     88  C   UNL A   1      35.128  22.953  23.127  1.00  0.00     0.036 A 
ATOM     89  N   UNL A   1      34.008  21.370  24.580  1.00  0.00    -0.250 NA
ATOM     90  C   UNL A   1      36.362  22.599  23.672  1.00  0.00     0.024 A 
ATOM     91  C   UNL A   1      35.218  21.072  25.107  1.00  0.00     0.132 A 
ATOM     92  C   UNL A   1      36.408  21.643  24.682  1.00  0.00     0.059 A 
ATOM     93  Cl  UNL A   1      37.907  21.182  25.378  1.00  0.00    -0.083 Cl
ENDBRANCH  84  87
ENDBRANCH  82  83
ENDBRANCH  75  78
ENDBRANCH  73  74
ENDBRANCH  72  73
ENDBRANCH   1  72
TORSDOF 16
ENDMDL
