MODEL 1
REMARK VINA RESULT:     -11.7      0.000      0.000
REMARK SMILES O=C(NCCCCNC(=O)[C@H]1C[C@@H](O)CN1C(=O)C[C@@H]1CSCC[NH2+]1)c1ccc(-c2c3nc(c(-c4cccc(S(=O)(=O)[O-])c4F)c4ccc([nH]4)c(-c4cccc(S(=O)(=O)[O-])c4F)c4nc(c(-c5cccc(S(=O)(=O)[O-])c5F)c5ccc2[nH]5)C=C4)C=C3)cc1
REMARK SMILES IDX 5 1 4 2 3 3 1 4 2 5 26 7 27 8 88 9 28 10 87 11 29 12 30 13
REMARK SMILES IDX 31 14 81 15 32 16 86 17 80 18 82 19 33 20 85 21 79 22 78 23
REMARK SMILES IDX 34 25 66 26 46 27 65 28 47 29 50 30 64 31 83 32 48 33 49 34
REMARK SMILES IDX 63 36 84 37 51 38 35 39 36 40 44 41 37 42 39 43 45 44 38 45
REMARK SMILES IDX 40 46 41 47 42 48 43 49 67 50 68 51 76 52 69 53 71 54 77 55
REMARK SMILES IDX 70 56 72 57 73 58 74 59 75 60 52 61 53 62 61 63 54 64 56 65
REMARK SMILES IDX 62 66 55 67 57 68 58 69 59 70 60 71 6 72 7 73 8 74 9 75
REMARK SMILES IDX 10 77 11 78 12 79 16 80 13 81 15 82 17 83 18 84 19 85 20 86
REMARK SMILES IDX 21 87 25 88 22 89 24 90 23 93 14 94
REMARK H PARENT 3 6 82 24 50 35 8 76 25 91 25 92 14 95
REMARK Flexibility Score: inf
ROOT
ATOM      1  C   UNL A   1      31.361  31.308  26.488  1.00  0.00     0.023 C 
ENDROOT
BRANCH   1   2
ATOM      2  C   UNL A   1      32.659  31.945  26.937  1.00  0.00     0.116 C 
BRANCH   2   3
ATOM      3  N   UNL A   1      32.483  33.343  27.306  1.00  0.00    -0.352 N 
ATOM      4  O   UNL A   1      32.764  35.175  28.594  1.00  0.00    -0.269 OA
ATOM      5  C   UNL A   1      33.166  34.072  28.249  1.00  0.00     0.251 C 
ATOM      6  H   UNL A   1      31.784  33.831  26.814  1.00  0.00     0.163 HD
BRANCH   5   7
ATOM      7  C   UNL A   1      34.383  33.484  28.847  1.00  0.00     0.039 A 
ATOM      8  C   UNL A   1      34.262  32.455  29.785  1.00  0.00     0.014 A 
ATOM      9  C   UNL A   1      35.639  33.978  28.492  1.00  0.00     0.014 A 
ATOM     10  C   UNL A   1      35.379  32.023  30.478  1.00  0.00     0.010 A 
ATOM     11  C   UNL A   1      36.779  33.454  29.107  1.00  0.00     0.010 A 
ATOM     12  C   UNL A   1      36.653  32.481  30.112  1.00  0.00    -0.014 A 
BRANCH  12  13
ATOM     13  C   UNL A   1      37.839  31.795  30.678  1.00  0.00     0.031 A 
ATOM     14  C   UNL A   1      38.592  30.750  29.910  1.00  0.00     0.074 A 
ATOM     15  C   UNL A   1      38.206  32.130  31.931  1.00  0.00     0.049 A 
ATOM     16  N   UNL A   1      39.634  30.058  30.289  1.00  0.00    -0.248 NA
ATOM     17  C   UNL A   1      38.122  30.433  28.552  1.00  0.00     0.031 C 
ATOM     18  C   UNL A   1      37.507  33.102  32.781  1.00  0.00     0.029 A 
ATOM     19  N   UNL A   1      39.238  31.691  32.718  1.00  0.00    -0.354 N 
ATOM     20  C   UNL A   1      39.917  29.188  29.244  1.00  0.00     0.074 A 
ATOM     21  C   UNL A   1      38.945  29.450  28.204  1.00  0.00     0.031 C 
ATOM     22  C   UNL A   1      38.133  33.192  33.960  1.00  0.00     0.029 A 
ATOM     23  C   UNL A   1      39.226  32.233  33.982  1.00  0.00     0.049 A 
ATOM     24  H   UNL A   1      39.919  31.050  32.409  1.00  0.00     0.167 HD
ATOM     25  C   UNL A   1      40.900  28.259  29.170  1.00  0.00     0.034 A 
ATOM     26  C   UNL A   1      39.977  31.954  35.062  1.00  0.00     0.034 A 
ATOM     27  C   UNL A   1      41.877  28.037  30.203  1.00  0.00     0.049 A 
ATOM     28  C   UNL A   1      41.056  30.921  34.936  1.00  0.00     0.074 A 
ATOM     29  C   UNL A   1      42.975  27.193  30.176  1.00  0.00     0.029 A 
ATOM     30  N   UNL A   1      41.863  28.633  31.454  1.00  0.00    -0.354 N 
ATOM     31  N   UNL A   1      41.416  30.232  33.881  1.00  0.00    -0.248 NA
ATOM     32  C   UNL A   1      41.846  30.639  36.140  1.00  0.00     0.031 C 
ATOM     33  C   UNL A   1      43.596  27.243  31.428  1.00  0.00     0.029 A 
ATOM     34  C   UNL A   1      42.909  28.147  32.222  1.00  0.00     0.049 A 
ATOM     35  H   UNL A   1      41.207  29.303  31.753  1.00  0.00     0.167 HD
ATOM     36  C   UNL A   1      42.482  29.444  34.289  1.00  0.00     0.074 A 
ATOM     37  C   UNL A   1      42.737  29.774  35.677  1.00  0.00     0.031 C 
ATOM     38  C   UNL A   1      43.172  28.512  33.589  1.00  0.00     0.034 A 
BRANCH  25  39
ATOM     39  C   UNL A   1      40.999  27.409  27.930  1.00  0.00     0.023 A 
ATOM     40  C   UNL A   1      41.618  27.921  26.774  1.00  0.00     0.012 A 
ATOM     41  C   UNL A   1      40.600  26.057  27.963  1.00  0.00     0.148 A 
ATOM     42  C   UNL A   1      41.831  27.103  25.665  1.00  0.00     0.002 A 
ATOM     43  C   UNL A   1      40.853  25.237  26.870  1.00  0.00     0.091 A 
ATOM     44  F   UNL A   1      39.999  25.596  29.070  1.00  0.00    -0.205 F 
ATOM     45  C   UNL A   1      41.462  25.761  25.717  1.00  0.00     0.022 A 
BRANCH  43  46
ATOM     46  S   UNL A   1      40.492  23.478  26.868  1.00  0.00     0.127 S 
ATOM     47  O   UNL A   1      39.076  23.468  26.503  1.00  0.00    -0.237 OA
ATOM     48  O   UNL A   1      41.394  22.982  25.828  1.00  0.00    -0.237 OA
ATOM     49  O   UNL A   1      40.788  23.002  28.213  1.00  0.00    -0.744 OA
ENDBRANCH  43  46
ENDBRANCH  25  39
BRANCH  26  50
ATOM     50  C   UNL A   1      39.717  32.649  36.352  1.00  0.00     0.023 A 
ATOM     51  C   UNL A   1      40.445  33.806  36.683  1.00  0.00     0.012 A 
ATOM     52  C   UNL A   1      38.734  32.174  37.246  1.00  0.00     0.148 A 
ATOM     53  C   UNL A   1      40.229  34.454  37.900  1.00  0.00     0.002 A 
ATOM     54  C   UNL A   1      38.480  32.863  38.424  1.00  0.00     0.091 A 
ATOM     55  F   UNL A   1      38.060  31.062  36.920  1.00  0.00    -0.205 F 
ATOM     56  C   UNL A   1      39.241  33.990  38.765  1.00  0.00     0.022 A 
BRANCH  54  57
ATOM     57  S   UNL A   1      37.125  32.414  39.514  1.00  0.00     0.127 S 
ATOM     58  O   UNL A   1      37.279  33.384  40.595  1.00  0.00    -0.237 OA
ATOM     59  O   UNL A   1      35.959  32.627  38.656  1.00  0.00    -0.237 OA
ATOM     60  O   UNL A   1      37.357  31.021  39.869  1.00  0.00    -0.744 OA
ENDBRANCH  54  57
ENDBRANCH  26  50
BRANCH  38  61
ATOM     61  C   UNL A   1      44.277  27.790  34.309  1.00  0.00     0.023 A 
ATOM     62  C   UNL A   1      45.556  28.377  34.388  1.00  0.00     0.012 A 
ATOM     63  C   UNL A   1      44.035  26.565  34.959  1.00  0.00     0.148 A 
ATOM     64  C   UNL A   1      46.587  27.738  35.074  1.00  0.00     0.002 A 
ATOM     65  C   UNL A   1      45.052  25.960  35.685  1.00  0.00     0.091 A 
ATOM     66  F   UNL A   1      42.815  26.018  34.857  1.00  0.00    -0.205 F 
ATOM     67  C   UNL A   1      46.332  26.537  35.732  1.00  0.00     0.022 A 
BRANCH  65  68
ATOM     68  S   UNL A   1      44.797  24.461  36.641  1.00  0.00     0.127 S 
ATOM     69  O   UNL A   1      46.171  24.027  36.889  1.00  0.00    -0.237 OA
ATOM     70  O   UNL A   1      44.094  24.966  37.821  1.00  0.00    -0.237 OA
ATOM     71  O   UNL A   1      44.008  23.573  35.799  1.00  0.00    -0.744 OA
ENDBRANCH  65  68
ENDBRANCH  38  61
ENDBRANCH  12  13
ENDBRANCH   5   7
ENDBRANCH   2   3
ENDBRANCH   1   2
BRANCH   1  72
ATOM     72  C   UNL A   1      31.536  30.309  25.355  1.00  0.00     0.023 C 
BRANCH  72  73
ATOM     73  C   UNL A   1      32.847  29.519  25.386  1.00  0.00     0.116 C 
BRANCH  73  74
ATOM     74  N   UNL A   1      33.489  29.388  24.083  1.00  0.00    -0.354 N 
ATOM     75  C   UNL A   1      33.388  28.385  23.159  1.00  0.00     0.242 C 
ATOM     76  H   UNL A   1      34.084  30.131  23.833  1.00  0.00     0.163 HD
ATOM     77  O   UNL A   1      34.098  28.423  22.148  1.00  0.00    -0.273 OA
BRANCH  75  78
ATOM     78  C   UNL A   1      32.438  27.198  23.404  1.00  0.00     0.177 C 
ATOM     79  C   UNL A   1      31.537  26.969  22.178  1.00  0.00     0.069 C 
ATOM     80  N   UNL A   1      33.170  25.936  23.564  1.00  0.00    -0.328 N 
ATOM     81  C   UNL A   1      32.207  25.822  21.425  1.00  0.00     0.136 C 
ATOM     82  C   UNL A   1      32.822  24.975  22.534  1.00  0.00     0.152 C 
BRANCH  80  83
ATOM     83  C   UNL A   1      33.997  25.747  24.636  1.00  0.00     0.229 C 
ATOM     84  O   UNL A   1      33.992  26.515  25.591  1.00  0.00    -0.275 OA
BRANCH  83  85
ATOM     85  C   UNL A   1      34.896  24.544  24.685  1.00  0.00     0.166 C 
BRANCH  85  86
ATOM     86  C   UNL A   1      34.559  23.565  25.832  1.00  0.00     0.201 C 
ATOM     87  C   UNL A   1      35.661  22.577  26.284  1.00  0.00     0.135 C 
ATOM     88  N   UNL A   1      33.260  22.886  25.604  1.00  0.00    -0.342 N 
ATOM     89  S   UNL A   1      36.012  21.245  25.103  1.00  0.00    -0.150 SA
ATOM     90  C   UNL A   1      33.336  21.819  24.585  1.00  0.00     0.271 C 
ATOM     91  H   UNL A   1      32.579  23.580  25.298  1.00  0.00     0.346 HD
ATOM     92  H   UNL A   1      32.986  22.448  26.484  1.00  0.00     0.346 HD
ATOM     93  C   UNL A   1      34.304  20.673  24.899  1.00  0.00     0.131 C 
ENDBRANCH  85  86
ENDBRANCH  83  85
ENDBRANCH  80  83
BRANCH  81  94
ATOM     94  O   UNL A   1      33.210  26.300  20.534  1.00  0.00    -0.391 OA
ATOM     95  H   UNL A   1      33.583  25.554  20.039  1.00  0.00     0.211 HD
ENDBRANCH  81  94
ENDBRANCH  75  78
ENDBRANCH  73  74
ENDBRANCH  72  73
ENDBRANCH   1  72
TORSDOF 18
ENDMDL
MODEL 2
REMARK VINA RESULT:     -11.7      5.992     11.087
REMARK SMILES O=C(NCCCCNC(=O)[C@H]1C[C@@H](O)CN1C(=O)C[C@@H]1CSCC[NH2+]1)c1ccc(-c2c3nc(c(-c4cccc(S(=O)(=O)[O-])c4F)c4ccc([nH]4)c(-c4cccc(S(=O)(=O)[O-])c4F)c4nc(c(-c5cccc(S(=O)(=O)[O-])c5F)c5ccc2[nH]5)C=C4)C=C3)cc1
REMARK SMILES IDX 5 1 4 2 3 3 1 4 2 5 26 7 27 8 88 9 28 10 87 11 29 12 30 13
REMARK SMILES IDX 31 14 81 15 32 16 86 17 80 18 82 19 33 20 85 21 79 22 78 23
REMARK SMILES IDX 34 25 66 26 46 27 65 28 47 29 50 30 64 31 83 32 48 33 49 34
REMARK SMILES IDX 63 36 84 37 51 38 35 39 36 40 44 41 37 42 39 43 45 44 38 45
REMARK SMILES IDX 40 46 41 47 42 48 43 49 67 50 68 51 76 52 69 53 71 54 77 55
REMARK SMILES IDX 70 56 72 57 73 58 74 59 75 60 52 61 53 62 61 63 54 64 56 65
REMARK SMILES IDX 62 66 55 67 57 68 58 69 59 70 60 71 6 72 7 73 8 74 9 75
REMARK SMILES IDX 10 77 11 78 12 79 16 80 13 81 15 82 17 83 18 84 19 85 20 86
REMARK SMILES IDX 21 87 25 88 22 89 24 90 23 93 14 94
REMARK H PARENT 3 6 82 24 50 35 8 76 25 91 25 92 14 95
REMARK Flexibility Score: inf
ROOT
ATOM      1  C   UNL A   1      38.155  19.810  24.878  1.00  0.00     0.023 C 
ENDROOT
BRANCH   1   2
ATOM      2  C   UNL A   1      39.046  20.050  26.078  1.00  0.00     0.116 C 
BRANCH   2   3
ATOM      3  N   UNL A   1      40.237  19.214  26.051  1.00  0.00    -0.352 N 
ATOM      4  O   UNL A   1      42.446  18.797  25.847  1.00  0.00    -0.269 OA
ATOM      5  C   UNL A   1      41.556  19.600  26.091  1.00  0.00     0.251 C 
ATOM      6  H   UNL A   1      40.079  18.243  25.999  1.00  0.00     0.163 HD
BRANCH   5   7
ATOM      7  C   UNL A   1      41.867  21.008  26.416  1.00  0.00     0.039 A 
ATOM      8  C   UNL A   1      42.104  21.371  27.745  1.00  0.00     0.014 A 
ATOM      9  C   UNL A   1      41.894  21.965  25.402  1.00  0.00     0.014 A 
ATOM     10  C   UNL A   1      42.219  22.709  28.081  1.00  0.00     0.010 A 
ATOM     11  C   UNL A   1      42.130  23.303  25.730  1.00  0.00     0.010 A 
ATOM     12  C   UNL A   1      42.283  23.683  27.074  1.00  0.00    -0.014 A 
BRANCH  12  13
ATOM     13  C   UNL A   1      42.685  25.059  27.447  1.00  0.00     0.031 A 
ATOM     14  C   UNL A   1      41.734  26.012  28.107  1.00  0.00     0.074 A 
ATOM     15  C   UNL A   1      43.944  25.438  27.145  1.00  0.00     0.049 A 
ATOM     16  N   UNL A   1      41.946  27.250  28.472  1.00  0.00    -0.248 NA
ATOM     17  C   UNL A   1      40.374  25.527  28.394  1.00  0.00     0.031 C 
ATOM     18  C   UNL A   1      44.932  24.598  26.457  1.00  0.00     0.029 A 
ATOM     19  N   UNL A   1      44.608  26.617  27.358  1.00  0.00    -0.354 N 
ATOM     20  C   UNL A   1      40.740  27.711  28.982  1.00  0.00     0.074 A 
ATOM     21  C   UNL A   1      39.800  26.614  28.896  1.00  0.00     0.031 C 
ATOM     22  C   UNL A   1      46.074  25.282  26.315  1.00  0.00     0.029 A 
ATOM     23  C   UNL A   1      45.877  26.629  26.828  1.00  0.00     0.049 A 
ATOM     24  H   UNL A   1      44.216  27.379  27.843  1.00  0.00     0.167 HD
ATOM     25  C   UNL A   1      40.454  28.940  29.473  1.00  0.00     0.034 A 
ATOM     26  C   UNL A   1      46.771  27.628  26.717  1.00  0.00     0.034 A 
ATOM     27  C   UNL A   1      41.413  30.008  29.580  1.00  0.00     0.049 A 
ATOM     28  C   UNL A   1      46.415  28.972  27.277  1.00  0.00     0.074 A 
ATOM     29  C   UNL A   1      41.247  31.254  30.161  1.00  0.00     0.029 A 
ATOM     30  N   UNL A   1      42.703  29.974  29.072  1.00  0.00    -0.354 N 
ATOM     31  N   UNL A   1      45.328  29.337  27.911  1.00  0.00    -0.248 NA
ATOM     32  C   UNL A   1      47.413  30.037  27.126  1.00  0.00     0.031 C 
ATOM     33  C   UNL A   1      42.419  31.989  29.962  1.00  0.00     0.029 A 
ATOM     34  C   UNL A   1      43.330  31.190  29.292  1.00  0.00     0.049 A 
ATOM     35  H   UNL A   1      43.113  29.200  28.623  1.00  0.00     0.167 HD
ATOM     36  C   UNL A   1      45.516  30.670  28.246  1.00  0.00     0.074 A 
ATOM     37  C   UNL A   1      46.839  31.035  27.782  1.00  0.00     0.031 C 
ATOM     38  C   UNL A   1      44.661  31.524  28.858  1.00  0.00     0.034 A 
BRANCH  25  39
ATOM     39  C   UNL A   1      39.055  29.217  29.956  1.00  0.00     0.023 A 
ATOM     40  C   UNL A   1      38.684  28.878  31.272  1.00  0.00     0.012 A 
ATOM     41  C   UNL A   1      38.154  29.939  29.147  1.00  0.00     0.148 A 
ATOM     42  C   UNL A   1      37.435  29.245  31.772  1.00  0.00     0.002 A 
ATOM     43  C   UNL A   1      36.928  30.338  29.665  1.00  0.00     0.091 A 
ATOM     44  F   UNL A   1      38.523  30.239  27.892  1.00  0.00    -0.205 F 
ATOM     45  C   UNL A   1      36.565  29.985  30.975  1.00  0.00     0.022 A 
BRANCH  43  46
ATOM     46  S   UNL A   1      35.771  31.364  28.752  1.00  0.00     0.127 S 
ATOM     47  O   UNL A   1      35.200  30.399  27.812  1.00  0.00    -0.237 OA
ATOM     48  O   UNL A   1      34.855  31.804  29.804  1.00  0.00    -0.237 OA
ATOM     49  O   UNL A   1      36.562  32.425  28.144  1.00  0.00    -0.744 OA
ENDBRANCH  43  46
ENDBRANCH  25  39
BRANCH  26  50
ATOM     50  C   UNL A   1      48.071  27.393  26.031  1.00  0.00     0.023 A 
ATOM     51  C   UNL A   1      49.192  26.988  26.778  1.00  0.00     0.012 A 
ATOM     52  C   UNL A   1      48.194  27.555  24.636  1.00  0.00     0.148 A 
ATOM     53  C   UNL A   1      50.424  26.788  26.153  1.00  0.00     0.002 A 
ATOM     54  C   UNL A   1      49.406  27.290  24.012  1.00  0.00     0.091 A 
ATOM     55  F   UNL A   1      47.118  27.955  23.943  1.00  0.00    -0.205 F 
ATOM     56  C   UNL A   1      50.529  26.928  24.771  1.00  0.00     0.022 A 
BRANCH  54  57
ATOM     57  S   UNL A   1      49.580  27.303  22.225  1.00  0.00     0.127 S 
ATOM     58  O   UNL A   1      50.994  26.977  22.060  1.00  0.00    -0.237 OA
ATOM     59  O   UNL A   1      48.652  26.246  21.820  1.00  0.00    -0.237 OA
ATOM     60  O   UNL A   1      49.179  28.640  21.806  1.00  0.00    -0.744 OA
ENDBRANCH  54  57
ENDBRANCH  26  50
BRANCH  38  61
ATOM     61  C   UNL A   1      45.136  32.936  29.072  1.00  0.00     0.023 A 
ATOM     62  C   UNL A   1      45.831  33.265  30.253  1.00  0.00     0.012 A 
ATOM     63  C   UNL A   1      44.949  33.917  28.080  1.00  0.00     0.148 A 
ATOM     64  C   UNL A   1      46.303  34.558  30.459  1.00  0.00     0.002 A 
ATOM     65  C   UNL A   1      45.469  35.191  28.270  1.00  0.00     0.091 A 
ATOM     66  F   UNL A   1      44.271  33.586  26.972  1.00  0.00    -0.205 F 
ATOM     67  C   UNL A   1      46.133  35.518  29.463  1.00  0.00     0.022 A 
BRANCH  65  68
ATOM     68  S   UNL A   1      45.382  36.467  27.008  1.00  0.00     0.127 S 
ATOM     69  O   UNL A   1      46.086  35.834  25.894  1.00  0.00    -0.237 OA
ATOM     70  O   UNL A   1      43.939  36.610  26.815  1.00  0.00    -0.237 OA
ATOM     71  O   UNL A   1      46.039  37.639  27.571  1.00  0.00    -0.744 OA
ENDBRANCH  65  68
ENDBRANCH  38  61
ENDBRANCH  12  13
ENDBRANCH   5   7
ENDBRANCH   2   3
ENDBRANCH   1   2
BRANCH   1  72
ATOM     72  C   UNL A   1      37.259  20.992  24.543  1.00  0.00     0.023 C 
BRANCH  72  73
ATOM     73  C   UNL A   1      36.323  21.435  25.670  1.00  0.00     0.116 C 
BRANCH  73  74
ATOM     74  N   UNL A   1      35.698  22.733  25.444  1.00  0.00    -0.354 N 
ATOM     75  C   UNL A   1      34.401  23.121  25.640  1.00  0.00     0.242 C 
ATOM     76  H   UNL A   1      36.297  23.432  25.098  1.00  0.00     0.163 HD
ATOM     77  O   UNL A   1      34.052  24.255  25.292  1.00  0.00    -0.273 OA
BRANCH  75  78
ATOM     78  C   UNL A   1      33.379  22.137  26.240  1.00  0.00     0.177 C 
ATOM     79  C   UNL A   1      32.686  22.761  27.463  1.00  0.00     0.069 C 
ATOM     80  N   UNL A   1      32.286  21.846  25.305  1.00  0.00    -0.328 N 
ATOM     81  C   UNL A   1      31.351  23.269  26.924  1.00  0.00     0.136 C 
ATOM     82  C   UNL A   1      31.000  22.264  25.831  1.00  0.00     0.152 C 
BRANCH  80  83
ATOM     83  C   UNL A   1      32.532  21.182  24.137  1.00  0.00     0.229 C 
ATOM     84  O   UNL A   1      32.854  21.781  23.116  1.00  0.00    -0.275 OA
BRANCH  83  85
ATOM     85  C   UNL A   1      32.467  19.681  24.099  1.00  0.00     0.166 C 
BRANCH  85  86
ATOM     86  C   UNL A   1      33.508  18.993  25.009  1.00  0.00     0.201 C 
ATOM     87  C   UNL A   1      34.618  18.155  24.330  1.00  0.00     0.135 C 
ATOM     88  N   UNL A   1      32.857  18.258  26.122  1.00  0.00    -0.342 N 
ATOM     89  S   UNL A   1      34.050  16.590  23.609  1.00  0.00    -0.150 SA
ATOM     90  C   UNL A   1      32.244  16.984  25.694  1.00  0.00     0.271 C 
ATOM     91  H   UNL A   1      32.129  18.850  26.522  1.00  0.00     0.346 HD
ATOM     92  H   UNL A   1      33.581  18.033  26.805  1.00  0.00     0.346 HD
ATOM     93  C   UNL A   1      33.209  15.958  25.085  1.00  0.00     0.131 C 
ENDBRANCH  85  86
ENDBRANCH  83  85
ENDBRANCH  80  83
BRANCH  81  94
ATOM     94  O   UNL A   1      31.472  24.582  26.387  1.00  0.00    -0.391 OA
ATOM     95  H   UNL A   1      31.632  25.212  27.108  1.00  0.00     0.211 HD
ENDBRANCH  81  94
ENDBRANCH  75  78
ENDBRANCH  73  74
ENDBRANCH  72  73
ENDBRANCH   1  72
TORSDOF 18
ENDMDL
MODEL 3
REMARK VINA RESULT:     -11.5      5.752     11.147
REMARK SMILES O=C(NCCCCNC(=O)[C@H]1C[C@@H](O)CN1C(=O)C[C@@H]1CSCC[NH2+]1)c1ccc(-c2c3nc(c(-c4cccc(S(=O)(=O)[O-])c4F)c4ccc([nH]4)c(-c4cccc(S(=O)(=O)[O-])c4F)c4nc(c(-c5cccc(S(=O)(=O)[O-])c5F)c5ccc2[nH]5)C=C4)C=C3)cc1
REMARK SMILES IDX 5 1 4 2 3 3 1 4 2 5 26 7 27 8 88 9 28 10 87 11 29 12 30 13
REMARK SMILES IDX 31 14 81 15 32 16 86 17 80 18 82 19 33 20 85 21 79 22 78 23
REMARK SMILES IDX 34 25 66 26 46 27 65 28 47 29 50 30 64 31 83 32 48 33 49 34
REMARK SMILES IDX 63 36 84 37 51 38 35 39 36 40 44 41 37 42 39 43 45 44 38 45
REMARK SMILES IDX 40 46 41 47 42 48 43 49 67 50 68 51 76 52 69 53 71 54 77 55
REMARK SMILES IDX 70 56 72 57 73 58 74 59 75 60 52 61 53 62 61 63 54 64 56 65
REMARK SMILES IDX 62 66 55 67 57 68 58 69 59 70 60 71 6 72 7 73 8 74 9 75
REMARK SMILES IDX 10 77 11 78 12 79 16 80 13 81 15 82 17 83 18 84 19 85 20 86
REMARK SMILES IDX 21 87 25 88 22 89 24 90 23 93 14 94
REMARK H PARENT 3 6 82 24 50 35 8 76 25 91 25 92 14 95
REMARK Flexibility Score: inf
ROOT
ATOM      1  C   UNL A   1      38.154  19.774  24.933  1.00  0.00     0.023 C 
ENDROOT
BRANCH   1   2
ATOM      2  C   UNL A   1      39.071  20.033  26.109  1.00  0.00     0.116 C 
BRANCH   2   3
ATOM      3  N   UNL A   1      40.265  19.201  26.066  1.00  0.00    -0.352 N 
ATOM      4  O   UNL A   1      42.473  18.792  25.838  1.00  0.00    -0.269 OA
ATOM      5  C   UNL A   1      41.583  19.591  26.095  1.00  0.00     0.251 C 
ATOM      6  H   UNL A   1      40.109  18.230  26.010  1.00  0.00     0.163 HD
BRANCH   5   7
ATOM      7  C   UNL A   1      41.892  20.998  26.425  1.00  0.00     0.039 A 
ATOM      8  C   UNL A   1      42.153  21.353  27.751  1.00  0.00     0.014 A 
ATOM      9  C   UNL A   1      41.895  21.963  25.417  1.00  0.00     0.014 A 
ATOM     10  C   UNL A   1      42.267  22.689  28.095  1.00  0.00     0.010 A 
ATOM     11  C   UNL A   1      42.131  23.299  25.750  1.00  0.00     0.010 A 
ATOM     12  C   UNL A   1      42.308  23.670  27.093  1.00  0.00    -0.014 A 
BRANCH  12  13
ATOM     13  C   UNL A   1      42.709  25.046  27.469  1.00  0.00     0.031 A 
ATOM     14  C   UNL A   1      41.756  26.000  28.123  1.00  0.00     0.074 A 
ATOM     15  C   UNL A   1      43.970  25.423  27.175  1.00  0.00     0.049 A 
ATOM     16  N   UNL A   1      41.968  27.238  28.489  1.00  0.00    -0.248 NA
ATOM     17  C   UNL A   1      40.394  25.517  28.402  1.00  0.00     0.031 C 
ATOM     18  C   UNL A   1      44.961  24.581  26.492  1.00  0.00     0.029 A 
ATOM     19  N   UNL A   1      44.635  26.600  27.392  1.00  0.00    -0.354 N 
ATOM     20  C   UNL A   1      40.760  27.701  28.992  1.00  0.00     0.074 A 
ATOM     21  C   UNL A   1      39.818  26.605  28.901  1.00  0.00     0.031 C 
ATOM     22  C   UNL A   1      46.105  25.263  26.357  1.00  0.00     0.029 A 
ATOM     23  C   UNL A   1      45.907  26.610  26.869  1.00  0.00     0.049 A 
ATOM     24  H   UNL A   1      44.241  27.364  27.873  1.00  0.00     0.167 HD
ATOM     25  C   UNL A   1      40.472  28.930  29.481  1.00  0.00     0.034 A 
ATOM     26  C   UNL A   1      46.803  27.608  26.763  1.00  0.00     0.034 A 
ATOM     27  C   UNL A   1      41.432  29.997  29.594  1.00  0.00     0.049 A 
ATOM     28  C   UNL A   1      46.446  28.953  27.321  1.00  0.00     0.074 A 
ATOM     29  C   UNL A   1      41.265  31.243  30.174  1.00  0.00     0.029 A 
ATOM     30  N   UNL A   1      42.725  29.961  29.094  1.00  0.00    -0.354 N 
ATOM     31  N   UNL A   1      45.356  29.319  27.948  1.00  0.00    -0.248 NA
ATOM     32  C   UNL A   1      47.447  30.017  27.175  1.00  0.00     0.031 C 
ATOM     33  C   UNL A   1      42.439  31.977  29.982  1.00  0.00     0.029 A 
ATOM     34  C   UNL A   1      43.352  31.175  29.317  1.00  0.00     0.049 A 
ATOM     35  H   UNL A   1      43.136  29.186  28.647  1.00  0.00     0.167 HD
ATOM     36  C   UNL A   1      45.544  30.652  28.284  1.00  0.00     0.074 A 
ATOM     37  C   UNL A   1      46.870  31.015  27.828  1.00  0.00     0.031 C 
ATOM     38  C   UNL A   1      44.686  31.508  28.890  1.00  0.00     0.034 A 
BRANCH  25  39
ATOM     39  C   UNL A   1      39.071  29.210  29.956  1.00  0.00     0.023 A 
ATOM     40  C   UNL A   1      38.685  28.851  31.262  1.00  0.00     0.012 A 
ATOM     41  C   UNL A   1      38.183  29.952  29.151  1.00  0.00     0.148 A 
ATOM     42  C   UNL A   1      37.434  29.219  31.757  1.00  0.00     0.002 A 
ATOM     43  C   UNL A   1      36.955  30.351  29.665  1.00  0.00     0.091 A 
ATOM     44  F   UNL A   1      38.566  30.270  27.905  1.00  0.00    -0.205 F 
ATOM     45  C   UNL A   1      36.577  29.979  30.965  1.00  0.00     0.022 A 
BRANCH  43  46
ATOM     46  S   UNL A   1      35.814  31.401  28.758  1.00  0.00     0.127 S 
ATOM     47  O   UNL A   1      36.703  32.459  28.280  1.00  0.00    -0.237 OA
ATOM     48  O   UNL A   1      35.329  30.496  27.716  1.00  0.00    -0.237 OA
ATOM     49  O   UNL A   1      34.805  31.827  29.718  1.00  0.00    -0.744 OA
ENDBRANCH  43  46
ENDBRANCH  25  39
BRANCH  26  50
ATOM     50  C   UNL A   1      48.107  27.371  26.085  1.00  0.00     0.023 A 
ATOM     51  C   UNL A   1      49.222  26.960  26.837  1.00  0.00     0.012 A 
ATOM     52  C   UNL A   1      48.240  27.537  24.691  1.00  0.00     0.148 A 
ATOM     53  C   UNL A   1      50.457  26.758  26.220  1.00  0.00     0.002 A 
ATOM     54  C   UNL A   1      49.455  27.270  24.074  1.00  0.00     0.091 A 
ATOM     55  F   UNL A   1      47.169  27.943  23.992  1.00  0.00    -0.205 F 
ATOM     56  C   UNL A   1      50.571  26.902  24.839  1.00  0.00     0.022 A 
BRANCH  54  57
ATOM     57  S   UNL A   1      49.640  27.289  22.288  1.00  0.00     0.127 S 
ATOM     58  O   UNL A   1      51.053  26.957  22.132  1.00  0.00    -0.237 OA
ATOM     59  O   UNL A   1      48.710  26.238  21.874  1.00  0.00    -0.237 OA
ATOM     60  O   UNL A   1      49.249  28.629  21.871  1.00  0.00    -0.744 OA
ENDBRANCH  54  57
ENDBRANCH  26  50
BRANCH  38  61
ATOM     61  C   UNL A   1      45.162  32.919  29.107  1.00  0.00     0.023 A 
ATOM     62  C   UNL A   1      45.827  33.253  30.304  1.00  0.00     0.012 A 
ATOM     63  C   UNL A   1      45.007  33.894  28.104  1.00  0.00     0.148 A 
ATOM     64  C   UNL A   1      46.300  34.546  30.514  1.00  0.00     0.002 A 
ATOM     65  C   UNL A   1      45.528  35.167  28.298  1.00  0.00     0.091 A 
ATOM     66  F   UNL A   1      44.357  33.558  26.981  1.00  0.00    -0.205 F 
ATOM     67  C   UNL A   1      46.161  35.500  29.507  1.00  0.00     0.022 A 
BRANCH  65  68
ATOM     68  S   UNL A   1      45.480  36.434  27.026  1.00  0.00     0.127 S 
ATOM     69  O   UNL A   1      44.042  36.648  26.871  1.00  0.00    -0.237 OA
ATOM     70  O   UNL A   1      46.196  37.538  27.666  1.00  0.00    -0.237 OA
ATOM     71  O   UNL A   1      46.151  35.867  25.864  1.00  0.00    -0.744 OA
ENDBRANCH  65  68
ENDBRANCH  38  61
ENDBRANCH  12  13
ENDBRANCH   5   7
ENDBRANCH   2   3
ENDBRANCH   1   2
BRANCH   1  72
ATOM     72  C   UNL A   1      37.213  20.929  24.632  1.00  0.00     0.023 C 
BRANCH  72  73
ATOM     73  C   UNL A   1      35.738  20.659  24.939  1.00  0.00     0.116 C 
BRANCH  73  74
ATOM     74  N   UNL A   1      35.285  21.221  26.206  1.00  0.00    -0.354 N 
ATOM     75  C   UNL A   1      34.210  22.026  26.468  1.00  0.00     0.242 C 
ATOM     76  H   UNL A   1      35.834  20.988  26.988  1.00  0.00     0.163 HD
ATOM     77  O   UNL A   1      34.056  22.474  27.609  1.00  0.00    -0.273 OA
BRANCH  75  78
ATOM     78  C   UNL A   1      33.236  22.409  25.339  1.00  0.00     0.177 C 
ATOM     79  C   UNL A   1      31.903  21.659  25.502  1.00  0.00     0.069 C 
ATOM     80  N   UNL A   1      32.868  23.828  25.391  1.00  0.00    -0.328 N 
ATOM     81  C   UNL A   1      30.976  22.673  26.167  1.00  0.00     0.136 C 
ATOM     82  C   UNL A   1      31.445  24.011  25.603  1.00  0.00     0.152 C 
BRANCH  80  83
ATOM     83  C   UNL A   1      33.809  24.796  25.171  1.00  0.00     0.229 C 
ATOM     84  O   UNL A   1      34.795  24.583  24.474  1.00  0.00    -0.275 OA
BRANCH  83  85
ATOM     85  C   UNL A   1      33.616  26.172  25.743  1.00  0.00     0.166 C 
BRANCH  85  86
ATOM     86  C   UNL A   1      33.719  27.299  24.692  1.00  0.00     0.201 C 
ATOM     87  C   UNL A   1      33.588  28.760  25.185  1.00  0.00     0.135 C 
ATOM     88  N   UNL A   1      32.855  27.028  23.516  1.00  0.00    -0.342 N 
ATOM     89  S   UNL A   1      31.914  29.238  25.695  1.00  0.00    -0.150 SA
ATOM     90  C   UNL A   1      31.423  27.273  23.781  1.00  0.00     0.271 C 
ATOM     91  H   UNL A   1      32.973  26.052  23.244  1.00  0.00     0.346 HD
ATOM     92  H   UNL A   1      33.141  27.666  22.773  1.00  0.00     0.346 HD
ATOM     93  C   UNL A   1      31.062  28.708  24.185  1.00  0.00     0.131 C 
ENDBRANCH  85  86
ENDBRANCH  83  85
ENDBRANCH  80  83
BRANCH  81  94
ATOM     94  O   UNL A   1      31.107  22.646  27.585  1.00  0.00    -0.391 OA
ATOM     95  H   UNL A   1      32.044  22.728  27.825  1.00  0.00     0.211 HD
ENDBRANCH  81  94
ENDBRANCH  75  78
ENDBRANCH  73  74
ENDBRANCH  72  73
ENDBRANCH   1  72
TORSDOF 18
ENDMDL
