MODEL 1
REMARK VINA RESULT:     -11.9      0.000      0.000
REMARK SMILES CCn1cc(Br)cc1C(=O)N[C@@H]1C=C[C@@H](C(=O)NCCCCNC(=O)c2ccc(-c3c4nc(c(-c5cccc(S(=O)(=O)[O-])c5F)c5ccc([nH]5)c(-c5cccc(S(=O)(=O)[O-])c5F)c5nc(c(-c6cccc(S(=O)(=O)[O-])c6F)c6ccc3[nH]6)C=C5)C=C4)cc2)C1
REMARK SMILES IDX 20 1 19 2 18 3 16 4 17 5 15 7 12 8 13 9 89 10 14 11 11 12
REMARK SMILES IDX 9 13 10 14 8 16 3 17 4 18 5 19 7 20 6 21 2 22 1 23 21 24
REMARK SMILES IDX 22 25 23 26 24 27 25 29 26 30 27 31 88 32 28 33 87 34 29 35
REMARK SMILES IDX 30 36 31 37 81 38 32 39 86 40 80 41 82 42 33 43 85 44 79 45
REMARK SMILES IDX 78 46 34 48 66 49 46 50 65 51 47 52 50 53 64 54 83 55 48 56
REMARK SMILES IDX 49 57 63 59 84 60 51 61 35 62 36 63 44 64 37 65 39 66 45 67
REMARK SMILES IDX 38 68 40 69 41 70 42 71 43 72 67 73 68 74 76 75 69 76 71 77
REMARK SMILES IDX 77 78 70 79 72 80 73 81 74 82 75 83 52 84 53 85 61 86 54 87
REMARK SMILES IDX 56 88 62 89 55 90 57 91 58 92 59 93 60 94
REMARK H PARENT 18 6 11 15 23 28 82 47 50 58
REMARK Flexibility Score: inf
ROOT
ATOM      1  C   UNL A   1      31.339  31.133  25.674  1.00  0.00     0.023 C 
ENDROOT
BRANCH   1   2
ATOM      2  C   UNL A   1      32.021  29.759  25.666  1.00  0.00     0.116 C 
BRANCH   2   3
ATOM      3  N   UNL A   1      32.935  29.610  24.558  1.00  0.00    -0.356 N 
ATOM      4  C   UNL A   1      33.620  28.559  24.043  1.00  0.00     0.227 C 
ATOM      5  O   UNL A   1      34.467  28.843  23.186  1.00  0.00    -0.274 OA
ATOM      6  H   UNL A   1      33.095  30.452  24.073  1.00  0.00     0.163 HD
BRANCH   4   7
ATOM      7  C   UNL A   1      33.392  27.081  24.391  1.00  0.00     0.103 C 
ATOM      8  C   UNL A   1      31.794  26.198  26.027  1.00  0.00     0.106 C 
ATOM      9  C   UNL A   1      31.314  26.015  24.633  1.00  0.00    -0.006 C 
ATOM     10  C   UNL A   1      33.266  26.611  25.847  1.00  0.00     0.047 C 
ATOM     11  C   UNL A   1      32.157  26.544  23.743  1.00  0.00    -0.016 C 
BRANCH   8  12
ATOM     12  N   UNL A   1      31.538  25.052  26.851  1.00  0.00    -0.345 N 
ATOM     13  C   UNL A   1      32.061  23.781  26.754  1.00  0.00     0.268 C 
ATOM     14  O   UNL A   1      31.528  22.920  27.459  1.00  0.00    -0.268 OA
ATOM     15  H   UNL A   1      30.901  25.194  27.588  1.00  0.00     0.164 HD
BRANCH  13  16
ATOM     16  C   UNL A   1      33.272  23.500  25.989  1.00  0.00     0.108 A 
ATOM     17  N   UNL A   1      33.492  23.125  24.666  1.00  0.00    -0.343 N 
ATOM     18  C   UNL A   1      34.846  23.187  24.393  1.00  0.00     0.102 A 
ATOM     19  C   UNL A   1      35.502  23.418  25.566  1.00  0.00     0.036 A 
ATOM     20  C   UNL A   1      34.541  23.563  26.573  1.00  0.00     0.049 A 
ATOM     21  Br  UNL A   1      37.349  23.573  25.816  1.00  0.00    -0.049 Br
BRANCH  17  22
ATOM     22  C   UNL A   1      32.562  22.778  23.604  1.00  0.00     0.119 C 
ATOM     23  C   UNL A   1      32.957  23.176  22.192  1.00  0.00     0.027 C 
ENDBRANCH  17  22
ENDBRANCH  13  16
ENDBRANCH   8  12
ENDBRANCH   4   7
ENDBRANCH   2   3
ENDBRANCH   1   2
BRANCH   1  24
ATOM     24  C   UNL A   1      31.402  31.898  27.007  1.00  0.00     0.023 C 
BRANCH  24  25
ATOM     25  C   UNL A   1      32.700  32.659  27.227  1.00  0.00     0.116 C 
BRANCH  25  26
ATOM     26  N   UNL A   1      32.499  34.063  27.615  1.00  0.00    -0.352 N 
ATOM     27  C   UNL A   1      33.106  34.743  28.665  1.00  0.00     0.251 C 
ATOM     28  H   UNL A   1      31.863  34.579  27.070  1.00  0.00     0.163 HD
ATOM     29  O   UNL A   1      32.624  35.766  29.126  1.00  0.00    -0.269 OA
BRANCH  27  30
ATOM     30  C   UNL A   1      34.373  34.203  29.190  1.00  0.00     0.039 A 
ATOM     31  C   UNL A   1      34.462  33.466  30.377  1.00  0.00     0.014 A 
ATOM     32  C   UNL A   1      35.488  34.400  28.390  1.00  0.00     0.014 A 
ATOM     33  C   UNL A   1      35.681  32.866  30.698  1.00  0.00     0.010 A 
ATOM     34  C   UNL A   1      36.584  33.612  28.574  1.00  0.00     0.010 A 
ATOM     35  C   UNL A   1      36.735  32.938  29.777  1.00  0.00    -0.014 A 
BRANCH  35  36
ATOM     36  C   UNL A   1      38.006  32.255  29.970  1.00  0.00     0.031 A 
ATOM     37  C   UNL A   1      38.054  30.874  29.425  1.00  0.00     0.074 A 
ATOM     38  C   UNL A   1      39.113  32.942  30.341  1.00  0.00     0.049 A 
ATOM     39  N   UNL A   1      38.167  29.770  30.086  1.00  0.00    -0.248 NA
ATOM     40  C   UNL A   1      37.789  30.679  27.989  1.00  0.00     0.031 C 
ATOM     41  C   UNL A   1      39.241  34.392  30.578  1.00  0.00     0.029 A 
ATOM     42  N   UNL A   1      40.406  32.528  30.403  1.00  0.00    -0.354 N 
ATOM     43  C   UNL A   1      38.269  28.771  29.121  1.00  0.00     0.074 A 
ATOM     44  C   UNL A   1      37.785  29.348  27.895  1.00  0.00     0.031 C 
ATOM     45  C   UNL A   1      40.534  34.759  30.463  1.00  0.00     0.029 A 
ATOM     46  C   UNL A   1      41.340  33.563  30.341  1.00  0.00     0.049 A 
ATOM     47  H   UNL A   1      40.661  31.581  30.484  1.00  0.00     0.167 HD
ATOM     48  C   UNL A   1      39.025  27.658  29.336  1.00  0.00     0.034 A 
ATOM     49  C   UNL A   1      42.677  33.442  30.148  1.00  0.00     0.034 A 
ATOM     50  C   UNL A   1      39.388  27.534  30.727  1.00  0.00     0.049 A 
ATOM     51  C   UNL A   1      43.036  32.051  30.502  1.00  0.00     0.074 A 
ATOM     52  C   UNL A   1      38.696  27.464  31.920  1.00  0.00     0.029 A 
ATOM     53  N   UNL A   1      40.677  27.879  31.059  1.00  0.00    -0.354 N 
ATOM     54  N   UNL A   1      42.924  31.570  31.709  1.00  0.00    -0.248 NA
ATOM     55  C   UNL A   1      43.072  31.069  29.432  1.00  0.00     0.031 C 
ATOM     56  C   UNL A   1      39.468  28.244  32.832  1.00  0.00     0.029 A 
ATOM     57  C   UNL A   1      40.621  28.673  32.171  1.00  0.00     0.049 A 
ATOM     58  H   UNL A   1      41.493  27.604  30.581  1.00  0.00     0.167 HD
ATOM     59  C   UNL A   1      42.395  30.300  31.518  1.00  0.00     0.074 A 
ATOM     60  C   UNL A   1      42.619  30.006  30.102  1.00  0.00     0.031 C 
ATOM     61  C   UNL A   1      41.560  29.740  32.443  1.00  0.00     0.034 A 
BRANCH  48  62
ATOM     62  C   UNL A   1      39.790  26.905  28.268  1.00  0.00     0.023 A 
ATOM     63  C   UNL A   1      39.666  25.497  28.263  1.00  0.00     0.012 A 
ATOM     64  C   UNL A   1      40.823  27.457  27.478  1.00  0.00     0.148 A 
ATOM     65  C   UNL A   1      40.561  24.682  27.562  1.00  0.00     0.002 A 
ATOM     66  C   UNL A   1      41.659  26.647  26.717  1.00  0.00     0.091 A 
ATOM     67  F   UNL A   1      41.109  28.759  27.560  1.00  0.00    -0.205 F 
ATOM     68  C   UNL A   1      41.555  25.258  26.782  1.00  0.00     0.022 A 
BRANCH  66  69
ATOM     69  S   UNL A   1      42.931  27.345  25.656  1.00  0.00     0.127 S 
ATOM     70  O   UNL A   1      42.132  28.155  24.742  1.00  0.00    -0.237 OA
ATOM     71  O   UNL A   1      43.738  28.100  26.615  1.00  0.00    -0.237 OA
ATOM     72  O   UNL A   1      43.618  26.200  25.071  1.00  0.00    -0.744 OA
ENDBRANCH  66  69
ENDBRANCH  48  62
BRANCH  49  73
ATOM     73  C   UNL A   1      43.613  34.339  29.431  1.00  0.00     0.023 A 
ATOM     74  C   UNL A   1      44.380  35.275  30.153  1.00  0.00     0.012 A 
ATOM     75  C   UNL A   1      43.967  34.082  28.087  1.00  0.00     0.148 A 
ATOM     76  C   UNL A   1      45.485  35.907  29.568  1.00  0.00     0.002 A 
ATOM     77  C   UNL A   1      45.064  34.716  27.509  1.00  0.00     0.091 A 
ATOM     78  F   UNL A   1      43.287  33.147  27.409  1.00  0.00    -0.205 F 
ATOM     79  C   UNL A   1      45.833  35.620  28.250  1.00  0.00     0.022 A 
BRANCH  77  80
ATOM     80  S   UNL A   1      45.586  34.374  25.821  1.00  0.00     0.127 S 
ATOM     81  O   UNL A   1      46.535  35.460  25.574  1.00  0.00    -0.237 OA
ATOM     82  O   UNL A   1      46.188  33.051  25.954  1.00  0.00    -0.237 OA
ATOM     83  O   UNL A   1      44.375  34.442  25.011  1.00  0.00    -0.744 OA
ENDBRANCH  77  80
ENDBRANCH  49  73
BRANCH  61  84
ATOM     84  C   UNL A   1      41.418  30.426  33.781  1.00  0.00     0.023 A 
ATOM     85  C   UNL A   1      42.378  30.302  34.809  1.00  0.00     0.012 A 
ATOM     86  C   UNL A   1      40.378  31.356  33.939  1.00  0.00     0.148 A 
ATOM     87  C   UNL A   1      42.289  31.069  35.973  1.00  0.00     0.002 A 
ATOM     88  C   UNL A   1      40.317  32.148  35.077  1.00  0.00     0.091 A 
ATOM     89  F   UNL A   1      39.479  31.470  32.950  1.00  0.00    -0.205 F 
ATOM     90  C   UNL A   1      41.265  32.003  36.103  1.00  0.00     0.022 A 
BRANCH  88  91
ATOM     91  S   UNL A   1      39.093  33.448  35.248  1.00  0.00     0.127 S 
ATOM     92  O   UNL A   1      39.369  34.282  34.081  1.00  0.00    -0.237 OA
ATOM     93  O   UNL A   1      37.834  32.705  35.186  1.00  0.00    -0.237 OA
ATOM     94  O   UNL A   1      39.351  34.073  36.541  1.00  0.00    -0.744 OA
ENDBRANCH  88  91
ENDBRANCH  61  84
ENDBRANCH  35  36
ENDBRANCH  27  30
ENDBRANCH  25  26
ENDBRANCH  24  25
ENDBRANCH   1  24
TORSDOF 17
ENDMDL
MODEL 2
REMARK VINA RESULT:     -11.4      2.046      2.572
REMARK SMILES CCn1cc(Br)cc1C(=O)N[C@@H]1C=C[C@@H](C(=O)NCCCCNC(=O)c2ccc(-c3c4nc(c(-c5cccc(S(=O)(=O)[O-])c5F)c5ccc([nH]5)c(-c5cccc(S(=O)(=O)[O-])c5F)c5nc(c(-c6cccc(S(=O)(=O)[O-])c6F)c6ccc3[nH]6)C=C5)C=C4)cc2)C1
REMARK SMILES IDX 20 1 19 2 18 3 16 4 17 5 15 7 12 8 13 9 89 10 14 11 11 12
REMARK SMILES IDX 9 13 10 14 8 16 3 17 4 18 5 19 7 20 6 21 2 22 1 23 21 24
REMARK SMILES IDX 22 25 23 26 24 27 25 29 26 30 27 31 88 32 28 33 87 34 29 35
REMARK SMILES IDX 30 36 31 37 81 38 32 39 86 40 80 41 82 42 33 43 85 44 79 45
REMARK SMILES IDX 78 46 34 48 66 49 46 50 65 51 47 52 50 53 64 54 83 55 48 56
REMARK SMILES IDX 49 57 63 59 84 60 51 61 35 62 36 63 44 64 37 65 39 66 45 67
REMARK SMILES IDX 38 68 40 69 41 70 42 71 43 72 67 73 68 74 76 75 69 76 71 77
REMARK SMILES IDX 77 78 70 79 72 80 73 81 74 82 75 83 52 84 53 85 61 86 54 87
REMARK SMILES IDX 56 88 62 89 55 90 57 91 58 92 59 93 60 94
REMARK H PARENT 18 6 11 15 23 28 82 47 50 58
REMARK Flexibility Score: inf
ROOT
ATOM      1  C   UNL A   1      31.455  30.520  26.674  1.00  0.00     0.023 C 
ENDROOT
BRANCH   1   2
ATOM      2  C   UNL A   1      32.407  29.937  25.621  1.00  0.00     0.116 C 
BRANCH   2   3
ATOM      3  N   UNL A   1      31.768  29.784  24.335  1.00  0.00    -0.356 N 
ATOM      4  C   UNL A   1      31.684  28.763  23.446  1.00  0.00     0.227 C 
ATOM      5  O   UNL A   1      31.200  29.053  22.344  1.00  0.00    -0.274 OA
ATOM      6  H   UNL A   1      31.293  30.595  24.040  1.00  0.00     0.163 HD
BRANCH   4   7
ATOM      7  C   UNL A   1      32.079  27.304  23.715  1.00  0.00     0.103 C 
ATOM      8  C   UNL A   1      32.085  25.470  22.087  1.00  0.00     0.106 C 
ATOM      9  C   UNL A   1      33.457  25.966  22.366  1.00  0.00    -0.006 C 
ATOM     10  C   UNL A   1      31.236  26.135  23.186  1.00  0.00     0.047 C 
ATOM     11  C   UNL A   1      33.452  27.000  23.210  1.00  0.00    -0.016 C 
BRANCH   8  12
ATOM     12  N   UNL A   1      32.024  24.040  21.997  1.00  0.00    -0.345 N 
ATOM     13  C   UNL A   1      32.766  23.097  22.674  1.00  0.00     0.268 C 
ATOM     14  O   UNL A   1      32.665  21.936  22.270  1.00  0.00    -0.268 OA
ATOM     15  H   UNL A   1      31.361  23.684  21.363  1.00  0.00     0.164 HD
BRANCH  13  16
ATOM     16  C   UNL A   1      33.499  23.421  23.894  1.00  0.00     0.108 A 
ATOM     17  N   UNL A   1      33.093  23.727  25.191  1.00  0.00    -0.343 N 
ATOM     18  C   UNL A   1      34.199  23.752  26.021  1.00  0.00     0.102 A 
ATOM     19  C   UNL A   1      35.313  23.649  25.242  1.00  0.00     0.036 A 
ATOM     20  C   UNL A   1      34.895  23.494  23.915  1.00  0.00     0.049 A 
ATOM     21  Br  UNL A   1      37.094  23.654  25.812  1.00  0.00    -0.049 Br
BRANCH  17  22
ATOM     22  C   UNL A   1      31.769  23.932  25.755  1.00  0.00     0.119 C 
ATOM     23  C   UNL A   1      31.010  22.691  26.191  1.00  0.00     0.027 C 
ENDBRANCH  17  22
ENDBRANCH  13  16
ENDBRANCH   8  12
ENDBRANCH   4   7
ENDBRANCH   2   3
ENDBRANCH   1   2
BRANCH   1  24
ATOM     24  C   UNL A   1      31.358  32.054  26.704  1.00  0.00     0.023 C 
BRANCH  24  25
ATOM     25  C   UNL A   1      32.583  32.745  27.281  1.00  0.00     0.116 C 
BRANCH  25  26
ATOM     26  N   UNL A   1      32.331  34.129  27.710  1.00  0.00    -0.352 N 
ATOM     27  C   UNL A   1      32.941  34.814  28.754  1.00  0.00     0.251 C 
ATOM     28  H   UNL A   1      31.652  34.626  27.200  1.00  0.00     0.163 HD
ATOM     29  O   UNL A   1      32.428  35.802  29.255  1.00  0.00    -0.269 OA
BRANCH  27  30
ATOM     30  C   UNL A   1      34.251  34.324  29.222  1.00  0.00     0.039 A 
ATOM     31  C   UNL A   1      34.438  33.682  30.452  1.00  0.00     0.014 A 
ATOM     32  C   UNL A   1      35.300  34.464  28.326  1.00  0.00     0.014 A 
ATOM     33  C   UNL A   1      35.684  33.116  30.724  1.00  0.00     0.010 A 
ATOM     34  C   UNL A   1      36.416  33.700  28.487  1.00  0.00     0.010 A 
ATOM     35  C   UNL A   1      36.665  33.122  29.723  1.00  0.00    -0.014 A 
BRANCH  35  36
ATOM     36  C   UNL A   1      37.955  32.464  29.871  1.00  0.00     0.031 A 
ATOM     37  C   UNL A   1      37.982  31.050  29.417  1.00  0.00     0.074 A 
ATOM     38  C   UNL A   1      39.076  33.183  30.119  1.00  0.00     0.049 A 
ATOM     39  N   UNL A   1      38.155  29.993  30.140  1.00  0.00    -0.248 NA
ATOM     40  C   UNL A   1      37.621  30.758  28.018  1.00  0.00     0.031 C 
ATOM     41  C   UNL A   1      39.201  34.647  30.250  1.00  0.00     0.029 A 
ATOM     42  N   UNL A   1      40.375  32.785  30.117  1.00  0.00    -0.354 N 
ATOM     43  C   UNL A   1      38.202  28.933  29.238  1.00  0.00     0.074 A 
ATOM     44  C   UNL A   1      37.628  29.424  28.013  1.00  0.00     0.031 C 
ATOM     45  C   UNL A   1      40.479  35.016  30.020  1.00  0.00     0.029 A 
ATOM     46  C   UNL A   1      41.289  33.821  29.922  1.00  0.00     0.049 A 
ATOM     47  H   UNL A   1      40.647  31.847  30.242  1.00  0.00     0.167 HD
ATOM     48  C   UNL A   1      38.986  27.844  29.473  1.00  0.00     0.034 A 
ATOM     49  C   UNL A   1      42.611  33.699  29.644  1.00  0.00     0.034 A 
ATOM     50  C   UNL A   1      39.446  27.815  30.840  1.00  0.00     0.049 A 
ATOM     51  C   UNL A   1      43.012  32.337  30.063  1.00  0.00     0.074 A 
ATOM     52  C   UNL A   1      38.839  27.819  32.080  1.00  0.00     0.029 A 
ATOM     53  N   UNL A   1      40.750  28.192  31.057  1.00  0.00    -0.354 N 
ATOM     54  N   UNL A   1      42.989  31.936  31.303  1.00  0.00    -0.248 NA
ATOM     55  C   UNL A   1      42.986  31.286  29.060  1.00  0.00     0.031 C 
ATOM     56  C   UNL A   1      39.662  28.664  32.883  1.00  0.00     0.029 A 
ATOM     57  C   UNL A   1      40.761  29.058  32.116  1.00  0.00     0.049 A 
ATOM     58  H   UNL A   1      41.535  27.893  30.543  1.00  0.00     0.167 HD
ATOM     59  C   UNL A   1      42.465  30.652  31.234  1.00  0.00     0.074 A 
ATOM     60  C   UNL A   1      42.594  30.266  29.829  1.00  0.00     0.031 C 
ATOM     61  C   UNL A   1      41.703  30.149  32.251  1.00  0.00     0.034 A 
BRANCH  48  62
ATOM     62  C   UNL A   1      39.684  27.027  28.406  1.00  0.00     0.023 A 
ATOM     63  C   UNL A   1      39.581  25.621  28.504  1.00  0.00     0.012 A 
ATOM     64  C   UNL A   1      40.651  27.534  27.509  1.00  0.00     0.148 A 
ATOM     65  C   UNL A   1      40.435  24.769  27.796  1.00  0.00     0.002 A 
ATOM     66  C   UNL A   1      41.443  26.683  26.746  1.00  0.00     0.091 A 
ATOM     67  F   UNL A   1      40.923  28.841  27.482  1.00  0.00    -0.205 F 
ATOM     68  C   UNL A   1      41.364  25.300  26.911  1.00  0.00     0.022 A 
BRANCH  66  69
ATOM     69  S   UNL A   1      42.627  27.319  25.553  1.00  0.00     0.127 S 
ATOM     70  O   UNL A   1      42.824  26.157  24.693  1.00  0.00    -0.237 OA
ATOM     71  O   UNL A   1      41.879  28.422  24.949  1.00  0.00    -0.237 OA
ATOM     72  O   UNL A   1      43.780  27.743  26.339  1.00  0.00    -0.744 OA
ENDBRANCH  66  69
ENDBRANCH  48  62
BRANCH  49  73
ATOM     73  C   UNL A   1      43.484  34.553  28.805  1.00  0.00     0.023 A 
ATOM     74  C   UNL A   1      43.639  34.265  27.434  1.00  0.00     0.012 A 
ATOM     75  C   UNL A   1      43.929  35.809  29.277  1.00  0.00     0.148 A 
ATOM     76  C   UNL A   1      44.185  35.210  26.556  1.00  0.00     0.002 A 
ATOM     77  C   UNL A   1      44.476  36.742  28.401  1.00  0.00     0.091 A 
ATOM     78  F   UNL A   1      43.729  36.120  30.565  1.00  0.00    -0.205 F 
ATOM     79  C   UNL A   1      44.594  36.451  27.036  1.00  0.00     0.022 A 
BRANCH  77  80
ATOM     80  S   UNL A   1      45.001  38.374  28.948  1.00  0.00     0.127 S 
ATOM     81  O   UNL A   1      45.542  38.946  27.714  1.00  0.00    -0.237 OA
ATOM     82  O   UNL A   1      43.742  38.961  29.396  1.00  0.00    -0.237 OA
ATOM     83  O   UNL A   1      45.998  38.141  29.986  1.00  0.00    -0.744 OA
ENDBRANCH  77  80
ENDBRANCH  49  73
BRANCH  61  84
ATOM     84  C   UNL A   1      41.646  30.921  33.546  1.00  0.00     0.023 A 
ATOM     85  C   UNL A   1      40.652  31.887  33.817  1.00  0.00     0.012 A 
ATOM     86  C   UNL A   1      42.513  30.539  34.582  1.00  0.00     0.148 A 
ATOM     87  C   UNL A   1      40.542  32.472  35.082  1.00  0.00     0.002 A 
ATOM     88  C   UNL A   1      42.374  31.089  35.849  1.00  0.00     0.091 A 
ATOM     89  F   UNL A   1      43.446  29.613  34.313  1.00  0.00    -0.205 F 
ATOM     90  C   UNL A   1      41.395  32.064  36.103  1.00  0.00     0.022 A 
BRANCH  88  91
ATOM     91  S   UNL A   1      43.362  30.517  37.232  1.00  0.00     0.127 S 
ATOM     92  O   UNL A   1      43.201  29.068  37.143  1.00  0.00    -0.237 OA
ATOM     93  O   UNL A   1      44.698  31.007  36.887  1.00  0.00    -0.237 OA
ATOM     94  O   UNL A   1      42.788  31.141  38.419  1.00  0.00    -0.744 OA
ENDBRANCH  88  91
ENDBRANCH  61  84
ENDBRANCH  35  36
ENDBRANCH  27  30
ENDBRANCH  25  26
ENDBRANCH  24  25
ENDBRANCH   1  24
TORSDOF 17
ENDMDL
MODEL 3
REMARK VINA RESULT:     -11.3      4.482      9.659
REMARK SMILES CCn1cc(Br)cc1C(=O)N[C@@H]1C=C[C@@H](C(=O)NCCCCNC(=O)c2ccc(-c3c4nc(c(-c5cccc(S(=O)(=O)[O-])c5F)c5ccc([nH]5)c(-c5cccc(S(=O)(=O)[O-])c5F)c5nc(c(-c6cccc(S(=O)(=O)[O-])c6F)c6ccc3[nH]6)C=C5)C=C4)cc2)C1
REMARK SMILES IDX 20 1 19 2 18 3 16 4 17 5 15 7 12 8 13 9 89 10 14 11 11 12
REMARK SMILES IDX 9 13 10 14 8 16 3 17 4 18 5 19 7 20 6 21 2 22 1 23 21 24
REMARK SMILES IDX 22 25 23 26 24 27 25 29 26 30 27 31 88 32 28 33 87 34 29 35
REMARK SMILES IDX 30 36 31 37 81 38 32 39 86 40 80 41 82 42 33 43 85 44 79 45
REMARK SMILES IDX 78 46 34 48 66 49 46 50 65 51 47 52 50 53 64 54 83 55 48 56
REMARK SMILES IDX 49 57 63 59 84 60 51 61 35 62 36 63 44 64 37 65 39 66 45 67
REMARK SMILES IDX 38 68 40 69 41 70 42 71 43 72 67 73 68 74 76 75 69 76 71 77
REMARK SMILES IDX 77 78 70 79 72 80 73 81 74 82 75 83 52 84 53 85 61 86 54 87
REMARK SMILES IDX 56 88 62 89 55 90 57 91 58 92 59 93 60 94
REMARK H PARENT 18 6 11 15 23 28 82 47 50 58
REMARK Flexibility Score: inf
ROOT
ATOM      1  C   UNL A   1      36.784  20.905  24.563  1.00  0.00     0.023 C 
ENDROOT
BRANCH   1   2
ATOM      2  C   UNL A   1      36.019  21.585  25.706  1.00  0.00     0.116 C 
BRANCH   2   3
ATOM      3  N   UNL A   1      34.703  21.020  25.893  1.00  0.00    -0.356 N 
ATOM      4  C   UNL A   1      33.447  21.524  25.814  1.00  0.00     0.227 C 
ATOM      5  O   UNL A   1      32.546  20.781  26.225  1.00  0.00    -0.274 OA
ATOM      6  H   UNL A   1      34.723  20.065  26.130  1.00  0.00     0.163 HD
BRANCH   4   7
ATOM      7  C   UNL A   1      33.062  22.886  25.217  1.00  0.00     0.103 C 
ATOM      8  C   UNL A   1      32.228  23.302  22.949  1.00  0.00     0.106 C 
ATOM      9  C   UNL A   1      31.138  23.358  23.957  1.00  0.00    -0.006 C 
ATOM     10  C   UNL A   1      33.507  23.298  23.807  1.00  0.00     0.047 C 
ATOM     11  C   UNL A   1      31.581  23.078  25.186  1.00  0.00    -0.016 C 
BRANCH   8  12
ATOM     12  N   UNL A   1      32.115  24.333  21.959  1.00  0.00    -0.345 N 
ATOM     13  C   UNL A   1      31.751  25.652  22.119  1.00  0.00     0.268 C 
ATOM     14  O   UNL A   1      31.533  26.284  21.083  1.00  0.00    -0.268 OA
ATOM     15  H   UNL A   1      32.327  24.060  21.037  1.00  0.00     0.164 HD
BRANCH  13  16
ATOM     16  C   UNL A   1      31.778  26.308  23.423  1.00  0.00     0.108 A 
ATOM     17  N   UNL A   1      30.795  26.559  24.378  1.00  0.00    -0.343 N 
ATOM     18  C   UNL A   1      31.392  27.032  25.533  1.00  0.00     0.102 A 
ATOM     19  C   UNL A   1      32.710  27.256  25.265  1.00  0.00     0.036 A 
ATOM     20  C   UNL A   1      32.952  26.859  23.945  1.00  0.00     0.049 A 
ATOM     21  Br  UNL A   1      34.004  27.922  26.439  1.00  0.00    -0.049 Br
BRANCH  17  22
ATOM     22  C   UNL A   1      29.358  26.341  24.352  1.00  0.00     0.119 C 
ATOM     23  C   UNL A   1      28.538  27.282  23.488  1.00  0.00     0.027 C 
ENDBRANCH  17  22
ENDBRANCH  13  16
ENDBRANCH   8  12
ENDBRANCH   4   7
ENDBRANCH   2   3
ENDBRANCH   1   2
BRANCH   1  24
ATOM     24  C   UNL A   1      37.738  19.774  24.983  1.00  0.00     0.023 C 
BRANCH  24  25
ATOM     25  C   UNL A   1      39.068  20.257  25.539  1.00  0.00     0.116 C 
BRANCH  25  26
ATOM     26  N   UNL A   1      40.058  19.183  25.711  1.00  0.00    -0.352 N 
ATOM     27  C   UNL A   1      41.420  19.321  25.954  1.00  0.00     0.251 C 
ATOM     28  H   UNL A   1      39.717  18.263  25.646  1.00  0.00     0.163 HD
ATOM     29  O   UNL A   1      42.203  18.413  25.726  1.00  0.00    -0.269 OA
BRANCH  27  30
ATOM     30  C   UNL A   1      41.888  20.596  26.526  1.00  0.00     0.039 A 
ATOM     31  C   UNL A   1      42.562  21.572  25.782  1.00  0.00     0.014 A 
ATOM     32  C   UNL A   1      41.550  20.820  27.853  1.00  0.00     0.014 A 
ATOM     33  C   UNL A   1      42.817  22.807  26.381  1.00  0.00     0.010 A 
ATOM     34  C   UNL A   1      41.573  22.093  28.337  1.00  0.00     0.010 A 
ATOM     35  C   UNL A   1      42.304  23.059  27.661  1.00  0.00    -0.014 A 
BRANCH  35  36
ATOM     36  C   UNL A   1      42.423  24.349  28.324  1.00  0.00     0.031 A 
ATOM     37  C   UNL A   1      41.284  25.274  28.084  1.00  0.00     0.074 A 
ATOM     38  C   UNL A   1      43.342  24.546  29.299  1.00  0.00     0.049 A 
ATOM     39  N   UNL A   1      41.303  26.396  27.443  1.00  0.00    -0.248 NA
ATOM     40  C   UNL A   1      39.931  24.831  28.463  1.00  0.00     0.031 C 
ATOM     41  C   UNL A   1      44.301  23.569  29.848  1.00  0.00     0.029 A 
ATOM     42  N   UNL A   1      43.492  25.600  30.144  1.00  0.00    -0.354 N 
ATOM     43  C   UNL A   1      40.022  26.923  27.588  1.00  0.00     0.074 A 
ATOM     44  C   UNL A   1      39.181  25.828  27.992  1.00  0.00     0.031 C 
ATOM     45  C   UNL A   1      44.699  23.964  31.076  1.00  0.00     0.029 A 
ATOM     46  C   UNL A   1      44.187  25.296  31.316  1.00  0.00     0.049 A 
ATOM     47  H   UNL A   1      43.142  26.498  29.946  1.00  0.00     0.167 HD
ATOM     48  C   UNL A   1      39.819  28.269  27.665  1.00  0.00     0.034 A 
ATOM     49  C   UNL A   1      44.285  26.068  32.426  1.00  0.00     0.034 A 
ATOM     50  C   UNL A   1      40.997  28.999  27.262  1.00  0.00     0.049 A 
ATOM     51  C   UNL A   1      43.962  27.453  32.014  1.00  0.00     0.074 A 
ATOM     52  C   UNL A   1      41.786  29.042  26.130  1.00  0.00     0.029 A 
ATOM     53  N   UNL A   1      41.754  29.547  28.270  1.00  0.00    -0.354 N 
ATOM     54  N   UNL A   1      44.693  28.138  31.181  1.00  0.00    -0.248 NA
ATOM     55  C   UNL A   1      42.587  27.899  32.162  1.00  0.00     0.031 C 
ATOM     56  C   UNL A   1      43.121  29.149  26.623  1.00  0.00     0.029 A 
ATOM     57  C   UNL A   1      43.065  29.249  28.015  1.00  0.00     0.049 A 
ATOM     58  H   UNL A   1      41.414  30.062  29.038  1.00  0.00     0.167 HD
ATOM     59  C   UNL A   1      43.767  28.769  30.360  1.00  0.00     0.074 A 
ATOM     60  C   UNL A   1      42.498  28.679  31.081  1.00  0.00     0.031 C 
ATOM     61  C   UNL A   1      44.053  29.028  29.048  1.00  0.00     0.034 A 
BRANCH  48  62
ATOM     62  C   UNL A   1      38.736  28.941  28.481  1.00  0.00     0.023 A 
ATOM     63  C   UNL A   1      37.908  29.869  27.808  1.00  0.00     0.012 A 
ATOM     64  C   UNL A   1      38.672  28.937  29.892  1.00  0.00     0.148 A 
ATOM     65  C   UNL A   1      37.110  30.783  28.504  1.00  0.00     0.002 A 
ATOM     66  C   UNL A   1      37.816  29.791  30.578  1.00  0.00     0.091 A 
ATOM     67  F   UNL A   1      39.539  28.210  30.602  1.00  0.00    -0.205 F 
ATOM     68  C   UNL A   1      37.059  30.740  29.891  1.00  0.00     0.022 A 
BRANCH  66  69
ATOM     69  S   UNL A   1      37.678  29.745  32.370  1.00  0.00     0.127 S 
ATOM     70  O   UNL A   1      36.579  30.677  32.599  1.00  0.00    -0.237 OA
ATOM     71  O   UNL A   1      37.362  28.337  32.608  1.00  0.00    -0.237 OA
ATOM     72  O   UNL A   1      38.986  30.154  32.869  1.00  0.00    -0.744 OA
ENDBRANCH  66  69
ENDBRANCH  48  62
BRANCH  49  73
ATOM     73  C   UNL A   1      44.365  25.669  33.851  1.00  0.00     0.023 A 
ATOM     74  C   UNL A   1      43.185  25.527  34.608  1.00  0.00     0.012 A 
ATOM     75  C   UNL A   1      45.567  25.149  34.385  1.00  0.00     0.148 A 
ATOM     76  C   UNL A   1      43.193  24.857  35.838  1.00  0.00     0.002 A 
ATOM     77  C   UNL A   1      45.570  24.488  35.611  1.00  0.00     0.091 A 
ATOM     78  F   UNL A   1      46.683  25.220  33.648  1.00  0.00    -0.205 F 
ATOM     79  C   UNL A   1      44.382  24.329  36.334  1.00  0.00     0.022 A 
BRANCH  77  80
ATOM     80  S   UNL A   1      47.063  23.760  36.300  1.00  0.00     0.127 S 
ATOM     81  O   UNL A   1      46.707  23.621  37.712  1.00  0.00    -0.237 OA
ATOM     82  O   UNL A   1      47.153  22.503  35.563  1.00  0.00    -0.237 OA
ATOM     83  O   UNL A   1      48.128  24.723  36.044  1.00  0.00    -0.744 OA
ENDBRANCH  77  80
ENDBRANCH  49  73
BRANCH  61  84
ATOM     84  C   UNL A   1      45.475  28.836  28.579  1.00  0.00     0.023 A 
ATOM     85  C   UNL A   1      46.495  29.780  28.826  1.00  0.00     0.012 A 
ATOM     86  C   UNL A   1      45.826  27.594  28.027  1.00  0.00     0.148 A 
ATOM     87  C   UNL A   1      47.827  29.500  28.510  1.00  0.00     0.002 A 
ATOM     88  C   UNL A   1      47.155  27.301  27.754  1.00  0.00     0.091 A 
ATOM     89  F   UNL A   1      44.847  26.703  27.806  1.00  0.00    -0.205 F 
ATOM     90  C   UNL A   1      48.160  28.254  27.985  1.00  0.00     0.022 A 
BRANCH  88  91
ATOM     91  S   UNL A   1      47.659  25.675  27.191  1.00  0.00     0.127 S 
ATOM     92  O   UNL A   1      49.113  25.805  27.146  1.00  0.00    -0.237 OA
ATOM     93  O   UNL A   1      47.154  24.803  28.253  1.00  0.00    -0.237 OA
ATOM     94  O   UNL A   1      47.006  25.478  25.901  1.00  0.00    -0.744 OA
ENDBRANCH  88  91
ENDBRANCH  61  84
ENDBRANCH  35  36
ENDBRANCH  27  30
ENDBRANCH  25  26
ENDBRANCH  24  25
ENDBRANCH   1  24
TORSDOF 17
ENDMDL
