MODEL 1
REMARK VINA RESULT:     -12.9      0.000      0.000
REMARK SMILES C[C@H]1c2ccc(O)cc2OC(=O)[C@@H]1CC(=O)N[C@@H](CC1=c2ccccc2=NC1)C(=O)NCCCCNC(=O)c1ccc(-c2c3nc(c(-c4cccc(S(=O)(=O)[O-])c4F)c4ccc([nH]4)c(-c4cccc(S(=O)(=O)[O-])c4F)c4nc(c(-c5cccc(S(=O)(=O)[O-])c5F)c5ccc2[nH]5)C=C4)C=C3)cc1
REMARK SMILES IDX 33 1 32 2 31 3 29 4 30 5 18 7 17 8 15 9 16 10 14 12 13 13
REMARK SMILES IDX 1 14 2 15 3 16 4 17 9 18 11 19 5 20 8 21 10 22 12 23 6 24
REMARK SMILES IDX 7 25 19 27 20 28 21 29 28 30 22 31 26 32 27 33 23 34 25 35
REMARK SMILES IDX 24 36 34 37 35 38 36 39 37 40 38 42 39 43 40 44 101 45 41 46
REMARK SMILES IDX 100 47 42 48 43 49 44 50 94 51 45 52 99 53 93 54 95 55 46 56
REMARK SMILES IDX 98 57 92 58 91 59 47 61 79 62 59 63 78 64 60 65 63 66 77 67
REMARK SMILES IDX 96 68 61 69 62 70 76 72 97 73 64 74 48 75 49 76 57 77 50 78
REMARK SMILES IDX 52 79 58 80 51 81 53 82 54 83 55 84 56 85 80 86 81 87 89 88
REMARK SMILES IDX 82 89 84 90 90 91 83 92 85 93 86 94 87 95 88 96 65 97 66 98
REMARK SMILES IDX 74 99 67 100 69 101 75 102 68 103 70 104 71 105 72 106
REMARK SMILES IDX 73 107
REMARK H PARENT 31 6 17 11 7 26 36 41 95 60 63 71
REMARK Flexibility Score: inf
ROOT
ATOM      1  C   UNL A   1      36.237  23.091  23.575  1.00  0.00     0.023 C 
ENDROOT
BRANCH   1   2
ATOM      2  C   UNL A   1      34.963  23.919  23.657  1.00  0.00     0.116 C 
BRANCH   2   3
ATOM      3  N   UNL A   1      34.344  24.255  22.406  1.00  0.00    -0.354 N 
ATOM      4  C   UNL A   1      33.012  24.183  22.110  1.00  0.00     0.242 C 
ATOM      5  O   UNL A   1      32.631  24.726  21.068  1.00  0.00    -0.273 OA
ATOM      6  H   UNL A   1      34.939  24.570  21.688  1.00  0.00     0.163 HD
BRANCH   4   7
ATOM      7  C   UNL A   1      31.973  23.538  23.078  1.00  0.00     0.175 C 
BRANCH   7   8
ATOM      8  N   UNL A   1      30.637  24.160  23.029  1.00  0.00    -0.344 N 
ATOM      9  C   UNL A   1      30.193  25.386  23.415  1.00  0.00     0.221 C 
ATOM     10  O   UNL A   1      29.003  25.660  23.250  1.00  0.00    -0.275 OA
ATOM     11  H   UNL A   1      29.937  23.582  22.647  1.00  0.00     0.164 HD
BRANCH   9  12
ATOM     12  C   UNL A   1      31.122  26.394  24.060  1.00  0.00     0.116 C 
BRANCH  12  13
ATOM     13  C   UNL A   1      31.789  27.302  23.007  1.00  0.00     0.116 C 
ATOM     14  C   UNL A   1      33.936  28.380  22.152  1.00  0.00     0.014 C 
ATOM     15  C   UNL A   1      33.253  27.661  23.325  1.00  0.00     0.034 C 
ATOM     16  C   UNL A   1      33.287  28.519  24.561  1.00  0.00    -0.001 A 
ATOM     17  C   UNL A   1      34.365  28.497  25.451  1.00  0.00     0.011 A 
ATOM     18  C   UNL A   1      32.192  29.334  24.856  1.00  0.00     0.138 A 
ATOM     19  C   UNL A   1      31.022  28.591  22.883  1.00  0.00     0.315 C 
ATOM     20  C   UNL A   1      34.310  29.240  26.634  1.00  0.00     0.047 A 
ATOM     21  C   UNL A   1      32.114  30.064  26.035  1.00  0.00     0.093 A 
ATOM     22  O   UNL A   1      31.125  29.465  23.952  1.00  0.00    -0.426 OA
ATOM     23  O   UNL A   1      30.306  28.844  21.924  1.00  0.00    -0.251 OA
ATOM     24  C   UNL A   1      33.177  29.998  26.925  1.00  0.00     0.119 A 
BRANCH  24  25
ATOM     25  O   UNL A   1      33.076  30.705  28.085  1.00  0.00    -0.508 OA
ATOM     26  H   UNL A   1      32.369  30.537  28.676  1.00  0.00     0.293 HD
ENDBRANCH  24  25
ENDBRANCH  12  13
ENDBRANCH   9  12
ENDBRANCH   7   8
BRANCH   7  27
ATOM     27  C   UNL A   1      31.974  21.965  23.010  1.00  0.00     0.068 C 
BRANCH  27  28
ATOM     28  C   UNL A   1      32.214  21.226  24.304  1.00  0.00    -0.037 C 
ATOM     29  C   UNL A   1      32.168  21.615  25.577  1.00  0.00     0.001 A 
ATOM     30  C   UNL A   1      32.664  19.790  24.303  1.00  0.00     0.174 C 
ATOM     31  C   UNL A   1      31.610  22.659  26.364  1.00  0.00     0.010 A 
ATOM     32  C   UNL A   1      33.218  20.742  26.146  1.00  0.00     0.065 A 
ATOM     33  N   UNL A   1      33.525  19.663  25.496  1.00  0.00    -0.280 NA
ATOM     34  C   UNL A   1      32.194  22.993  27.526  1.00  0.00     0.001 A 
ATOM     35  C   UNL A   1      33.931  21.282  27.326  1.00  0.00     0.028 A 
ATOM     36  C   UNL A   1      33.449  22.382  27.925  1.00  0.00     0.002 A 
ENDBRANCH  27  28
ENDBRANCH   7  27
ENDBRANCH   4   7
ENDBRANCH   2   3
ENDBRANCH   1   2
BRANCH   1  37
ATOM     37  C   UNL A   1      36.157  21.698  24.188  1.00  0.00     0.023 C 
BRANCH  37  38
ATOM     38  C   UNL A   1      36.945  21.486  25.477  1.00  0.00     0.116 C 
BRANCH  38  39
ATOM     39  N   UNL A   1      38.213  20.786  25.305  1.00  0.00    -0.352 N 
ATOM     40  C   UNL A   1      39.434  21.029  25.908  1.00  0.00     0.251 C 
ATOM     41  H   UNL A   1      38.199  20.033  24.671  1.00  0.00     0.163 HD
ATOM     42  O   UNL A   1      40.404  20.313  25.674  1.00  0.00    -0.269 OA
BRANCH  40  43
ATOM     43  C   UNL A   1      39.552  22.228  26.753  1.00  0.00     0.039 A 
ATOM     44  C   UNL A   1      38.898  23.399  26.372  1.00  0.00     0.014 A 
ATOM     45  C   UNL A   1      40.544  22.239  27.735  1.00  0.00     0.014 A 
ATOM     46  C   UNL A   1      39.439  24.615  26.771  1.00  0.00     0.010 A 
ATOM     47  C   UNL A   1      41.008  23.463  28.215  1.00  0.00     0.010 A 
ATOM     48  C   UNL A   1      40.534  24.660  27.655  1.00  0.00    -0.014 A 
BRANCH  48  49
ATOM     49  C   UNL A   1      41.229  25.950  27.912  1.00  0.00     0.031 A 
ATOM     50  C   UNL A   1      40.583  27.022  28.761  1.00  0.00     0.074 A 
ATOM     51  C   UNL A   1      42.468  26.141  27.423  1.00  0.00     0.049 A 
ATOM     52  N   UNL A   1      41.017  28.227  29.031  1.00  0.00    -0.248 NA
ATOM     53  C   UNL A   1      39.284  26.710  29.386  1.00  0.00     0.031 C 
ATOM     54  C   UNL A   1      43.204  25.182  26.599  1.00  0.00     0.029 A 
ATOM     55  N   UNL A   1      43.328  27.201  27.554  1.00  0.00    -0.354 N 
ATOM     56  C   UNL A   1      40.023  28.836  29.791  1.00  0.00     0.074 A 
ATOM     57  C   UNL A   1      38.966  27.865  29.957  1.00  0.00     0.031 C 
ATOM     58  C   UNL A   1      44.421  25.676  26.332  1.00  0.00     0.029 A 
ATOM     59  C   UNL A   1      44.522  27.016  26.900  1.00  0.00     0.049 A 
ATOM     60  H   UNL A   1      43.112  28.013  28.066  1.00  0.00     0.167 HD
ATOM     61  C   UNL A   1      40.001  30.084  30.314  1.00  0.00     0.034 A 
ATOM     62  C   UNL A   1      45.575  27.840  26.745  1.00  0.00     0.034 A 
ATOM     63  C   UNL A   1      41.090  31.020  30.225  1.00  0.00     0.049 A 
ATOM     64  C   UNL A   1      45.532  29.210  27.352  1.00  0.00     0.074 A 
ATOM     65  C   UNL A   1      41.175  32.290  30.771  1.00  0.00     0.029 A 
ATOM     66  N   UNL A   1      42.283  30.786  29.562  1.00  0.00    -0.354 N 
ATOM     67  N   UNL A   1      44.599  29.748  28.096  1.00  0.00    -0.248 NA
ATOM     68  C   UNL A   1      46.686  30.084  27.100  1.00  0.00     0.031 C 
ATOM     69  C   UNL A   1      42.424  32.823  30.439  1.00  0.00     0.029 A 
ATOM     70  C   UNL A   1      43.112  31.887  29.686  1.00  0.00     0.049 A 
ATOM     71  H   UNL A   1      42.507  29.961  29.075  1.00  0.00     0.167 HD
ATOM     72  C   UNL A   1      45.048  31.026  28.402  1.00  0.00     0.074 A 
ATOM     73  C   UNL A   1      46.353  31.169  27.788  1.00  0.00     0.031 C 
ATOM     74  C   UNL A   1      44.424  32.001  29.104  1.00  0.00     0.034 A 
BRANCH  61  75
ATOM     75  C   UNL A   1      38.784  30.518  31.085  1.00  0.00     0.023 A 
ATOM     76  C   UNL A   1      38.726  30.287  32.472  1.00  0.00     0.012 A 
ATOM     77  C   UNL A   1      37.764  31.266  30.461  1.00  0.00     0.148 A 
ATOM     78  C   UNL A   1      37.669  30.790  33.230  1.00  0.00     0.002 A 
ATOM     79  C   UNL A   1      36.727  31.786  31.228  1.00  0.00     0.091 A 
ATOM     80  F   UNL A   1      37.838  31.464  29.138  1.00  0.00    -0.205 F 
ATOM     81  C   UNL A   1      36.677  31.547  32.611  1.00  0.00     0.022 A 
BRANCH  79  82
ATOM     82  S   UNL A   1      35.429  32.821  30.541  1.00  0.00     0.127 S 
ATOM     83  O   UNL A   1      36.157  34.057  30.256  1.00  0.00    -0.237 OA
ATOM     84  O   UNL A   1      35.028  32.063  29.356  1.00  0.00    -0.237 OA
ATOM     85  O   UNL A   1      34.408  32.929  31.574  1.00  0.00    -0.744 OA
ENDBRANCH  79  82
ENDBRANCH  61  75
BRANCH  62  86
ATOM     86  C   UNL A   1      46.760  27.359  25.989  1.00  0.00     0.023 A 
ATOM     87  C   UNL A   1      46.880  27.672  24.624  1.00  0.00     0.012 A 
ATOM     88  C   UNL A   1      47.812  26.688  26.643  1.00  0.00     0.148 A 
ATOM     89  C   UNL A   1      48.032  27.326  23.919  1.00  0.00     0.002 A 
ATOM     90  C   UNL A   1      48.977  26.392  25.949  1.00  0.00     0.091 A 
ATOM     91  F   UNL A   1      47.665  26.394  27.942  1.00  0.00    -0.205 F 
ATOM     92  C   UNL A   1      49.085  26.700  24.583  1.00  0.00     0.022 A 
BRANCH  90  93
ATOM     93  S   UNL A   1      50.432  25.716  26.755  1.00  0.00     0.127 S 
ATOM     94  O   UNL A   1      51.344  25.543  25.627  1.00  0.00    -0.237 OA
ATOM     95  O   UNL A   1      50.790  26.791  27.680  1.00  0.00    -0.237 OA
ATOM     96  O   UNL A   1      49.990  24.489  27.404  1.00  0.00    -0.744 OA
ENDBRANCH  90  93
ENDBRANCH  62  86
BRANCH  74  97
ATOM     97  C   UNL A   1      45.129  33.318  29.246  1.00  0.00     0.023 A 
ATOM     98  C   UNL A   1      45.994  33.515  30.339  1.00  0.00     0.012 A 
ATOM     99  C   UNL A   1      45.013  34.313  28.257  1.00  0.00     0.148 A 
ATOM    100  C   UNL A   1      46.728  34.695  30.453  1.00  0.00     0.002 A 
ATOM    101  C   UNL A   1      45.770  35.473  28.362  1.00  0.00     0.091 A 
ATOM    102  F   UNL A   1      44.170  34.104  27.236  1.00  0.00    -0.205 F 
ATOM    103  C   UNL A   1      46.625  35.666  29.461  1.00  0.00     0.022 A 
BRANCH 101 104
ATOM    104  S   UNL A   1      45.757  36.751  27.100  1.00  0.00     0.127 S 
ATOM    105  O   UNL A   1      46.673  37.738  27.668  1.00  0.00    -0.237 OA
ATOM    106  O   UNL A   1      46.274  36.039  25.931  1.00  0.00    -0.237 OA
ATOM    107  O   UNL A   1      44.371  37.183  26.981  1.00  0.00    -0.744 OA
ENDBRANCH 101 104
ENDBRANCH  74  97
ENDBRANCH  48  49
ENDBRANCH  40  43
ENDBRANCH  38  39
ENDBRANCH  37  38
ENDBRANCH   1  37
TORSDOF 20
ENDMDL
MODEL 2
REMARK VINA RESULT:     -12.6      2.418      7.731
REMARK SMILES C[C@H]1c2ccc(O)cc2OC(=O)[C@@H]1CC(=O)N[C@@H](CC1=c2ccccc2=NC1)C(=O)NCCCCNC(=O)c1ccc(-c2c3nc(c(-c4cccc(S(=O)(=O)[O-])c4F)c4ccc([nH]4)c(-c4cccc(S(=O)(=O)[O-])c4F)c4nc(c(-c5cccc(S(=O)(=O)[O-])c5F)c5ccc2[nH]5)C=C4)C=C3)cc1
REMARK SMILES IDX 33 1 32 2 31 3 29 4 30 5 18 7 17 8 15 9 16 10 14 12 13 13
REMARK SMILES IDX 1 14 2 15 3 16 4 17 9 18 11 19 5 20 8 21 10 22 12 23 6 24
REMARK SMILES IDX 7 25 19 27 20 28 21 29 28 30 22 31 26 32 27 33 23 34 25 35
REMARK SMILES IDX 24 36 34 37 35 38 36 39 37 40 38 42 39 43 40 44 101 45 41 46
REMARK SMILES IDX 100 47 42 48 43 49 44 50 94 51 45 52 99 53 93 54 95 55 46 56
REMARK SMILES IDX 98 57 92 58 91 59 47 61 79 62 59 63 78 64 60 65 63 66 77 67
REMARK SMILES IDX 96 68 61 69 62 70 76 72 97 73 64 74 48 75 49 76 57 77 50 78
REMARK SMILES IDX 52 79 58 80 51 81 53 82 54 83 55 84 56 85 80 86 81 87 89 88
REMARK SMILES IDX 82 89 84 90 90 91 83 92 85 93 86 94 87 95 88 96 65 97 66 98
REMARK SMILES IDX 74 99 67 100 69 101 75 102 68 103 70 104 71 105 72 106
REMARK SMILES IDX 73 107
REMARK H PARENT 31 6 17 11 7 26 36 41 95 60 63 71
REMARK Flexibility Score: inf
ROOT
ATOM      1  C   UNL A   1      37.374  21.086  25.030  1.00  0.00     0.023 C 
ENDROOT
BRANCH   1   2
ATOM      2  C   UNL A   1      35.897  21.090  25.397  1.00  0.00     0.116 C 
BRANCH   2   3
ATOM      3  N   UNL A   1      35.532  21.868  26.547  1.00  0.00    -0.354 N 
ATOM      4  C   UNL A   1      34.275  22.024  27.060  1.00  0.00     0.242 C 
ATOM      5  O   UNL A   1      34.177  22.537  28.179  1.00  0.00    -0.273 OA
ATOM      6  H   UNL A   1      36.261  22.336  27.014  1.00  0.00     0.163 HD
BRANCH   4   7
ATOM      7  C   UNL A   1      33.002  21.495  26.331  1.00  0.00     0.175 C 
BRANCH   7   8
ATOM      8  N   UNL A   1      31.753  22.169  26.734  1.00  0.00    -0.344 N 
ATOM      9  C   UNL A   1      31.366  23.471  26.674  1.00  0.00     0.221 C 
ATOM     10  O   UNL A   1      30.242  23.770  27.080  1.00  0.00    -0.275 OA
ATOM     11  H   UNL A   1      31.077  21.566  27.119  1.00  0.00     0.164 HD
BRANCH   9  12
ATOM     12  C   UNL A   1      32.295  24.546  26.148  1.00  0.00     0.116 C 
BRANCH  12  13
ATOM     13  C   UNL A   1      32.435  24.470  24.615  1.00  0.00     0.116 C 
ATOM     14  C   UNL A   1      33.696  25.232  22.534  1.00  0.00     0.014 C 
ATOM     15  C   UNL A   1      33.429  25.488  24.024  1.00  0.00     0.034 C 
ATOM     16  C   UNL A   1      32.884  26.877  24.231  1.00  0.00    -0.001 A 
ATOM     17  C   UNL A   1      33.719  27.983  24.407  1.00  0.00     0.011 A 
ATOM     18  C   UNL A   1      31.501  27.065  24.290  1.00  0.00     0.138 A 
ATOM     19  C   UNL A   1      31.098  24.710  23.965  1.00  0.00     0.315 C 
ATOM     20  C   UNL A   1      33.169  29.236  24.691  1.00  0.00     0.047 A 
ATOM     21  C   UNL A   1      30.939  28.299  24.589  1.00  0.00     0.093 A 
ATOM     22  O   UNL A   1      30.616  26.007  24.028  1.00  0.00    -0.426 OA
ATOM     23  O   UNL A   1      30.442  23.813  23.453  1.00  0.00    -0.251 OA
ATOM     24  C   UNL A   1      31.786  29.378  24.800  1.00  0.00     0.119 A 
BRANCH  24  25
ATOM     25  O   UNL A   1      31.218  30.577  25.111  1.00  0.00    -0.508 OA
ATOM     26  H   UNL A   1      30.421  30.839  24.696  1.00  0.00     0.293 HD
ENDBRANCH  24  25
ENDBRANCH  12  13
ENDBRANCH   9  12
ENDBRANCH   7   8
BRANCH   7  27
ATOM     27  C   UNL A   1      33.206  21.356  24.775  1.00  0.00     0.068 C 
BRANCH  27  28
ATOM     28  C   UNL A   1      32.656  20.110  24.125  1.00  0.00    -0.037 C 
ATOM     29  C   UNL A   1      32.614  18.839  24.521  1.00  0.00     0.001 A 
ATOM     30  C   UNL A   1      32.081  20.152  22.735  1.00  0.00     0.174 C 
ATOM     31  C   UNL A   1      32.702  18.082  25.722  1.00  0.00     0.010 A 
ATOM     32  C   UNL A   1      32.728  18.162  23.211  1.00  0.00     0.065 A 
ATOM     33  N   UNL A   1      32.403  18.834  22.152  1.00  0.00    -0.280 NA
ATOM     34  C   UNL A   1      33.117  16.806  25.667  1.00  0.00     0.001 A 
ATOM     35  C   UNL A   1      33.367  16.826  23.233  1.00  0.00     0.028 A 
ATOM     36  C   UNL A   1      33.585  16.233  24.418  1.00  0.00     0.002 A 
ENDBRANCH  27  28
ENDBRANCH   7  27
ENDBRANCH   4   7
ENDBRANCH   2   3
ENDBRANCH   1   2
BRANCH   1  37
ATOM     37  C   UNL A   1      38.198  22.231  25.607  1.00  0.00     0.023 C 
BRANCH  37  38
ATOM     38  C   UNL A   1      39.439  21.830  26.399  1.00  0.00     0.116 C 
BRANCH  38  39
ATOM     39  N   UNL A   1      39.905  20.470  26.150  1.00  0.00    -0.352 N 
ATOM     40  C   UNL A   1      41.193  19.967  26.189  1.00  0.00     0.251 C 
ATOM     41  H   UNL A   1      39.204  19.817  25.923  1.00  0.00     0.163 HD
ATOM     42  O   UNL A   1      41.408  18.775  25.985  1.00  0.00    -0.269 OA
BRANCH  40  43
ATOM     43  C   UNL A   1      42.295  20.924  26.380  1.00  0.00     0.039 A 
ATOM     44  C   UNL A   1      42.713  21.234  27.672  1.00  0.00     0.014 A 
ATOM     45  C   UNL A   1      42.678  21.703  25.287  1.00  0.00     0.014 A 
ATOM     46  C   UNL A   1      43.277  22.484  27.900  1.00  0.00     0.010 A 
ATOM     47  C   UNL A   1      43.343  22.908  25.515  1.00  0.00     0.010 A 
ATOM     48  C   UNL A   1      43.549  23.356  26.829  1.00  0.00    -0.014 A 
BRANCH  48  49
ATOM     49  C   UNL A   1      43.958  24.760  27.100  1.00  0.00     0.031 A 
ATOM     50  C   UNL A   1      45.360  25.233  26.786  1.00  0.00     0.074 A 
ATOM     51  C   UNL A   1      43.053  25.630  27.584  1.00  0.00     0.049 A 
ATOM     52  N   UNL A   1      45.904  26.400  27.020  1.00  0.00    -0.248 NA
ATOM     53  C   UNL A   1      46.274  24.278  26.132  1.00  0.00     0.031 C 
ATOM     54  C   UNL A   1      41.667  25.302  27.919  1.00  0.00     0.029 A 
ATOM     55  N   UNL A   1      43.160  26.967  27.870  1.00  0.00    -0.354 N 
ATOM     56  C   UNL A   1      47.229  26.300  26.609  1.00  0.00     0.074 A 
ATOM     57  C   UNL A   1      47.410  24.962  26.094  1.00  0.00     0.031 C 
ATOM     58  C   UNL A   1      41.039  26.415  28.325  1.00  0.00     0.029 A 
ATOM     59  C   UNL A   1      41.996  27.515  28.352  1.00  0.00     0.049 A 
ATOM     60  H   UNL A   1      43.989  27.482  27.743  1.00  0.00     0.167 HD
ATOM     61  C   UNL A   1      48.202  27.242  26.643  1.00  0.00     0.034 A 
ATOM     62  C   UNL A   1      41.729  28.757  28.797  1.00  0.00     0.034 A 
ATOM     63  C   UNL A   1      48.000  28.599  27.072  1.00  0.00     0.049 A 
ATOM     64  C   UNL A   1      42.818  29.786  28.806  1.00  0.00     0.074 A 
ATOM     65  C   UNL A   1      48.917  29.637  27.092  1.00  0.00     0.029 A 
ATOM     66  N   UNL A   1      46.803  29.112  27.542  1.00  0.00    -0.354 N 
ATOM     67  N   UNL A   1      44.051  29.677  28.378  1.00  0.00    -0.248 NA
ATOM     68  C   UNL A   1      42.481  31.106  29.356  1.00  0.00     0.031 C 
ATOM     69  C   UNL A   1      48.271  30.780  27.572  1.00  0.00     0.029 A 
ATOM     70  C   UNL A   1      46.956  30.452  27.853  1.00  0.00     0.049 A 
ATOM     71  H   UNL A   1      45.969  28.600  27.641  1.00  0.00     0.167 HD
ATOM     72  C   UNL A   1      44.641  30.913  28.608  1.00  0.00     0.074 A 
ATOM     73  C   UNL A   1      43.621  31.764  29.184  1.00  0.00     0.031 C 
ATOM     74  C   UNL A   1      45.921  31.297  28.387  1.00  0.00     0.034 A 
BRANCH  61  75
ATOM     75  C   UNL A   1      49.577  26.871  26.158  1.00  0.00     0.023 A 
ATOM     76  C   UNL A   1      50.395  26.053  26.960  1.00  0.00     0.012 A 
ATOM     77  C   UNL A   1      50.003  27.222  24.860  1.00  0.00     0.148 A 
ATOM     78  C   UNL A   1      51.621  25.591  26.481  1.00  0.00     0.002 A 
ATOM     79  C   UNL A   1      51.214  26.735  24.380  1.00  0.00     0.091 A 
ATOM     80  F   UNL A   1      49.210  28.009  24.121  1.00  0.00    -0.205 F 
ATOM     81  C   UNL A   1      52.025  25.923  25.190  1.00  0.00     0.022 A 
BRANCH  79  82
ATOM     82  S   UNL A   1      51.804  27.057  22.714  1.00  0.00     0.127 S 
ATOM     83  O   UNL A   1      50.622  26.731  21.916  1.00  0.00    -0.237 OA
ATOM     84  O   UNL A   1      52.125  28.482  22.772  1.00  0.00    -0.237 OA
ATOM     85  O   UNL A   1      52.946  26.177  22.512  1.00  0.00    -0.744 OA
ENDBRANCH  79  82
ENDBRANCH  61  75
BRANCH  62  86
ATOM     86  C   UNL A   1      40.350  29.077  29.250  1.00  0.00     0.023 A 
ATOM     87  C   UNL A   1      39.373  29.420  28.298  1.00  0.00     0.012 A 
ATOM     88  C   UNL A   1      39.983  28.940  30.603  1.00  0.00     0.148 A 
ATOM     89  C   UNL A   1      38.049  29.619  28.686  1.00  0.00     0.002 A 
ATOM     90  C   UNL A   1      38.653  29.089  30.974  1.00  0.00     0.091 A 
ATOM     91  F   UNL A   1      40.937  28.623  31.489  1.00  0.00    -0.205 F 
ATOM     92  C   UNL A   1      37.687  29.439  30.019  1.00  0.00     0.022 A 
BRANCH  90  93
ATOM     93  S   UNL A   1      38.075  28.739  32.638  1.00  0.00     0.127 S 
ATOM     94  O   UNL A   1      36.700  29.232  32.585  1.00  0.00    -0.237 OA
ATOM     95  O   UNL A   1      38.208  27.284  32.703  1.00  0.00    -0.237 OA
ATOM     96  O   UNL A   1      38.971  29.464  33.528  1.00  0.00    -0.744 OA
ENDBRANCH  90  93
ENDBRANCH  62  86
BRANCH  74  97
ATOM     97  C   UNL A   1      46.305  32.696  28.774  1.00  0.00     0.023 A 
ATOM     98  C   UNL A   1      46.899  32.918  30.030  1.00  0.00     0.012 A 
ATOM     99  C   UNL A   1      46.168  33.763  27.866  1.00  0.00     0.148 A 
ATOM    100  C   UNL A   1      47.344  34.191  30.385  1.00  0.00     0.002 A 
ATOM    101  C   UNL A   1      46.641  35.022  28.215  1.00  0.00     0.091 A 
ATOM    102  F   UNL A   1      45.585  33.524  26.682  1.00  0.00    -0.205 F 
ATOM    103  C   UNL A   1      47.225  35.238  29.474  1.00  0.00     0.022 A 
BRANCH 101 104
ATOM    104  S   UNL A   1      46.595  36.417  27.083  1.00  0.00     0.127 S 
ATOM    105  O   UNL A   1      45.158  36.610  26.909  1.00  0.00    -0.237 OA
ATOM    106  O   UNL A   1      47.265  37.465  27.854  1.00  0.00    -0.237 OA
ATOM    107  O   UNL A   1      47.316  35.989  25.891  1.00  0.00    -0.744 OA
ENDBRANCH 101 104
ENDBRANCH  74  97
ENDBRANCH  48  49
ENDBRANCH  40  43
ENDBRANCH  38  39
ENDBRANCH  37  38
ENDBRANCH   1  37
TORSDOF 20
ENDMDL
MODEL 3
REMARK VINA RESULT:     -12.6      2.436      3.627
REMARK SMILES C[C@H]1c2ccc(O)cc2OC(=O)[C@@H]1CC(=O)N[C@@H](CC1=c2ccccc2=NC1)C(=O)NCCCCNC(=O)c1ccc(-c2c3nc(c(-c4cccc(S(=O)(=O)[O-])c4F)c4ccc([nH]4)c(-c4cccc(S(=O)(=O)[O-])c4F)c4nc(c(-c5cccc(S(=O)(=O)[O-])c5F)c5ccc2[nH]5)C=C4)C=C3)cc1
REMARK SMILES IDX 33 1 32 2 31 3 29 4 30 5 18 7 17 8 15 9 16 10 14 12 13 13
REMARK SMILES IDX 1 14 2 15 3 16 4 17 9 18 11 19 5 20 8 21 10 22 12 23 6 24
REMARK SMILES IDX 7 25 19 27 20 28 21 29 28 30 22 31 26 32 27 33 23 34 25 35
REMARK SMILES IDX 24 36 34 37 35 38 36 39 37 40 38 42 39 43 40 44 101 45 41 46
REMARK SMILES IDX 100 47 42 48 43 49 44 50 94 51 45 52 99 53 93 54 95 55 46 56
REMARK SMILES IDX 98 57 92 58 91 59 47 61 79 62 59 63 78 64 60 65 63 66 77 67
REMARK SMILES IDX 96 68 61 69 62 70 76 72 97 73 64 74 48 75 49 76 57 77 50 78
REMARK SMILES IDX 52 79 58 80 51 81 53 82 54 83 55 84 56 85 80 86 81 87 89 88
REMARK SMILES IDX 82 89 84 90 90 91 83 92 85 93 86 94 87 95 88 96 65 97 66 98
REMARK SMILES IDX 74 99 67 100 69 101 75 102 68 103 70 104 71 105 72 106
REMARK SMILES IDX 73 107
REMARK H PARENT 31 6 17 11 7 26 36 41 95 60 63 71
REMARK Flexibility Score: inf
ROOT
ATOM      1  C   UNL A   1      37.475  23.733  26.132  1.00  0.00     0.023 C 
ENDROOT
BRANCH   1   2
ATOM      2  C   UNL A   1      36.090  23.104  26.140  1.00  0.00     0.116 C 
BRANCH   2   3
ATOM      3  N   UNL A   1      36.026  21.706  25.820  1.00  0.00    -0.354 N 
ATOM      4  C   UNL A   1      35.005  21.062  25.180  1.00  0.00     0.242 C 
ATOM      5  O   UNL A   1      35.218  19.911  24.785  1.00  0.00    -0.273 OA
ATOM      6  H   UNL A   1      36.797  21.156  26.088  1.00  0.00     0.163 HD
BRANCH   4   7
ATOM      7  C   UNL A   1      33.649  21.760  24.855  1.00  0.00     0.175 C 
BRANCH   7   8
ATOM      8  N   UNL A   1      33.634  22.475  23.565  1.00  0.00    -0.344 N 
ATOM      9  C   UNL A   1      33.348  23.765  23.248  1.00  0.00     0.221 C 
ATOM     10  O   UNL A   1      33.421  24.111  22.067  1.00  0.00    -0.275 OA
ATOM     11  H   UNL A   1      33.873  21.914  22.792  1.00  0.00     0.164 HD
BRANCH   9  12
ATOM     12  C   UNL A   1      32.920  24.761  24.306  1.00  0.00     0.116 C 
BRANCH  12  13
ATOM     13  C   UNL A   1      31.385  24.826  24.433  1.00  0.00     0.116 C 
ATOM     14  C   UNL A   1      29.243  26.119  23.942  1.00  0.00     0.014 C 
ATOM     15  C   UNL A   1      30.776  26.175  24.005  1.00  0.00     0.034 C 
ATOM     16  C   UNL A   1      31.227  27.241  24.968  1.00  0.00    -0.001 A 
ATOM     17  C   UNL A   1      31.405  28.570  24.575  1.00  0.00     0.011 A 
ATOM     18  C   UNL A   1      31.516  26.888  26.289  1.00  0.00     0.138 A 
ATOM     19  C   UNL A   1      30.979  24.577  25.861  1.00  0.00     0.315 C 
ATOM     20  C   UNL A   1      31.915  29.504  25.481  1.00  0.00     0.047 A 
ATOM     21  C   UNL A   1      32.040  27.800  27.195  1.00  0.00     0.093 A 
ATOM     22  O   UNL A   1      31.266  25.589  26.760  1.00  0.00    -0.426 OA
ATOM     23  O   UNL A   1      30.468  23.528  26.228  1.00  0.00    -0.251 OA
ATOM     24  C   UNL A   1      32.248  29.106  26.775  1.00  0.00     0.119 A 
BRANCH  24  25
ATOM     25  O   UNL A   1      32.781  29.982  27.672  1.00  0.00    -0.508 OA
ATOM     26  H   UNL A   1      32.218  30.511  28.202  1.00  0.00     0.293 HD
ENDBRANCH  24  25
ENDBRANCH  12  13
ENDBRANCH   9  12
ENDBRANCH   7   8
BRANCH   7  27
ATOM     27  C   UNL A   1      32.408  20.824  25.108  1.00  0.00     0.068 C 
BRANCH  27  28
ATOM     28  C   UNL A   1      32.315  19.574  24.267  1.00  0.00    -0.037 C 
ATOM     29  C   UNL A   1      32.540  18.291  24.544  1.00  0.00     0.001 A 
ATOM     30  C   UNL A   1      31.982  19.651  22.801  1.00  0.00     0.174 C 
ATOM     31  C   UNL A   1      32.625  17.432  25.675  1.00  0.00     0.010 A 
ATOM     32  C   UNL A   1      33.038  17.832  23.229  1.00  0.00     0.065 A 
ATOM     33  N   UNL A   1      32.726  18.534  22.185  1.00  0.00    -0.280 NA
ATOM     34  C   UNL A   1      33.360  16.311  25.597  1.00  0.00     0.001 A 
ATOM     35  C   UNL A   1      33.989  16.698  23.264  1.00  0.00     0.028 A 
ATOM     36  C   UNL A   1      34.159  16.030  24.417  1.00  0.00     0.002 A 
ENDBRANCH  27  28
ENDBRANCH   7  27
ENDBRANCH   4   7
ENDBRANCH   2   3
ENDBRANCH   1   2
BRANCH   1  37
ATOM     37  C   UNL A   1      38.596  22.850  25.598  1.00  0.00     0.023 C 
BRANCH  37  38
ATOM     38  C   UNL A   1      39.386  22.064  26.641  1.00  0.00     0.116 C 
BRANCH  38  39
ATOM     39  N   UNL A   1      39.782  20.725  26.220  1.00  0.00    -0.352 N 
ATOM     40  C   UNL A   1      41.049  20.180  26.118  1.00  0.00     0.251 C 
ATOM     41  H   UNL A   1      39.043  20.122  25.975  1.00  0.00     0.163 HD
ATOM     42  O   UNL A   1      41.204  19.010  25.778  1.00  0.00    -0.269 OA
BRANCH  40  43
ATOM     43  C   UNL A   1      42.197  21.076  26.331  1.00  0.00     0.039 A 
ATOM     44  C   UNL A   1      42.630  21.333  27.631  1.00  0.00     0.014 A 
ATOM     45  C   UNL A   1      42.619  21.862  25.258  1.00  0.00     0.014 A 
ATOM     46  C   UNL A   1      43.255  22.548  27.889  1.00  0.00     0.010 A 
ATOM     47  C   UNL A   1      43.343  23.026  25.515  1.00  0.00     0.010 A 
ATOM     48  C   UNL A   1      43.570  23.431  26.840  1.00  0.00    -0.014 A 
BRANCH  48  49
ATOM     49  C   UNL A   1      44.049  24.806  27.145  1.00  0.00     0.031 A 
ATOM     50  C   UNL A   1      43.113  25.840  27.729  1.00  0.00     0.074 A 
ATOM     51  C   UNL A   1      45.343  25.114  26.945  1.00  0.00     0.049 A 
ATOM     52  N   UNL A   1      43.345  27.101  27.992  1.00  0.00    -0.248 NA
ATOM     53  C   UNL A   1      41.740  25.414  28.056  1.00  0.00     0.031 C 
ATOM     54  C   UNL A   1      46.350  24.204  26.397  1.00  0.00     0.029 A 
ATOM     55  N   UNL A   1      46.036  26.273  27.185  1.00  0.00    -0.354 N 
ATOM     56  C   UNL A   1      42.141  27.630  28.446  1.00  0.00     0.074 A 
ATOM     57  C   UNL A   1      41.179  26.553  28.440  1.00  0.00     0.031 C 
ATOM     58  C   UNL A   1      47.539  24.822  26.381  1.00  0.00     0.029 A 
ATOM     59  C   UNL A   1      47.364  26.194  26.845  1.00  0.00     0.049 A 
ATOM     60  H   UNL A   1      45.621  27.081  27.564  1.00  0.00     0.167 HD
ATOM     61  C   UNL A   1      41.868  28.895  28.846  1.00  0.00     0.034 A 
ATOM     62  C   UNL A   1      48.334  27.126  26.873  1.00  0.00     0.034 A 
ATOM     63  C   UNL A   1      42.845  29.945  28.937  1.00  0.00     0.049 A 
ATOM     64  C   UNL A   1      48.009  28.513  27.339  1.00  0.00     0.074 A 
ATOM     65  C   UNL A   1      42.669  31.245  29.381  1.00  0.00     0.029 A 
ATOM     66  N   UNL A   1      44.181  29.817  28.592  1.00  0.00    -0.354 N 
ATOM     67  N   UNL A   1      46.874  28.978  27.797  1.00  0.00    -0.248 NA
ATOM     68  C   UNL A   1      49.095  29.501  27.292  1.00  0.00     0.031 C 
ATOM     69  C   UNL A   1      43.900  31.902  29.307  1.00  0.00     0.029 A 
ATOM     70  C   UNL A   1      44.840  31.013  28.815  1.00  0.00     0.049 A 
ATOM     71  H   UNL A   1      44.597  28.999  28.240  1.00  0.00     0.167 HD
ATOM     72  C   UNL A   1      47.105  30.315  28.093  1.00  0.00     0.074 A 
ATOM     73  C   UNL A   1      48.498  30.577  27.792  1.00  0.00     0.031 C 
ATOM     74  C   UNL A   1      46.235  31.247  28.548  1.00  0.00     0.034 A 
BRANCH  61  75
ATOM     75  C   UNL A   1      40.463  29.225  29.273  1.00  0.00     0.023 A 
ATOM     76  C   UNL A   1      39.517  29.602  28.301  1.00  0.00     0.012 A 
ATOM     77  C   UNL A   1      40.051  29.035  30.608  1.00  0.00     0.148 A 
ATOM     78  C   UNL A   1      38.180  29.789  28.651  1.00  0.00     0.002 A 
ATOM     79  C   UNL A   1      38.711  29.198  30.943  1.00  0.00     0.091 A 
ATOM     80  F   UNL A   1      40.973  28.685  31.515  1.00  0.00    -0.205 F 
ATOM     81  C   UNL A   1      37.776  29.577  29.966  1.00  0.00     0.022 A 
BRANCH  79  82
ATOM     82  S   UNL A   1      38.075  28.897  32.596  1.00  0.00     0.127 S 
ATOM     83  O   UNL A   1      38.928  29.769  33.403  1.00  0.00    -0.237 OA
ATOM     84  O   UNL A   1      36.687  29.343  32.476  1.00  0.00    -0.237 OA
ATOM     85  O   UNL A   1      38.243  27.471  32.841  1.00  0.00    -0.744 OA
ENDBRANCH  79  82
ENDBRANCH  61  75
BRANCH  62  86
ATOM     86  C   UNL A   1      49.710  26.746  26.457  1.00  0.00     0.023 A 
ATOM     87  C   UNL A   1      50.457  25.872  27.266  1.00  0.00     0.012 A 
ATOM     88  C   UNL A   1      50.232  27.162  25.217  1.00  0.00     0.148 A 
ATOM     89  C   UNL A   1      51.705  25.415  26.845  1.00  0.00     0.002 A 
ATOM     90  C   UNL A   1      51.451  26.664  24.781  1.00  0.00     0.091 A 
ATOM     91  F   UNL A   1      49.501  28.004  24.473  1.00  0.00    -0.205 F 
ATOM     92  C   UNL A   1      52.195  25.798  25.598  1.00  0.00     0.022 A 
BRANCH  90  93
ATOM     93  S   UNL A   1      52.091  26.991  23.135  1.00  0.00     0.127 S 
ATOM     94  O   UNL A   1      53.205  26.049  23.056  1.00  0.00    -0.237 OA
ATOM     95  O   UNL A   1      50.941  26.660  22.294  1.00  0.00    -0.237 OA
ATOM     96  O   UNL A   1      52.455  28.402  23.127  1.00  0.00    -0.744 OA
ENDBRANCH  90  93
ENDBRANCH  62  86
BRANCH  74  97
ATOM     97  C   UNL A   1      46.748  32.644  28.742  1.00  0.00     0.023 A 
ATOM     98  C   UNL A   1      47.276  33.010  29.995  1.00  0.00     0.012 A 
ATOM     99  C   UNL A   1      46.798  33.554  27.669  1.00  0.00     0.148 A 
ATOM    100  C   UNL A   1      47.838  34.272  30.182  1.00  0.00     0.002 A 
ATOM    101  C   UNL A   1      47.387  34.799  27.855  1.00  0.00     0.091 A 
ATOM    102  F   UNL A   1      46.275  33.184  26.492  1.00  0.00    -0.205 F 
ATOM    103  C   UNL A   1      47.903  35.160  29.112  1.00  0.00     0.022 A 
BRANCH 101 104
ATOM    104  S   UNL A   1      47.579  35.984  26.519  1.00  0.00     0.127 S 
ATOM    105  O   UNL A   1      48.270  37.082  27.193  1.00  0.00    -0.237 OA
ATOM    106  O   UNL A   1      48.399  35.242  25.561  1.00  0.00    -0.237 OA
ATOM    107  O   UNL A   1      46.232  36.287  26.055  1.00  0.00    -0.744 OA
ENDBRANCH 101 104
ENDBRANCH  74  97
ENDBRANCH  48  49
ENDBRANCH  40  43
ENDBRANCH  38  39
ENDBRANCH  37  38
ENDBRANCH   1  37
TORSDOF 20
ENDMDL
