MODEL 1
REMARK VINA RESULT:     -13.7      0.000      0.000
REMARK SMILES Cc1ccccc1CNC(=O)N1CCC(CC(=O)NCCCCNC(=O)c2ccc(-c3c4nc(c(-c5cccc(S(=O)(=O)[O-])c5F)c5ccc([nH]5)c(-c5cccc(S(=O)(=O)[O-])c5F)c5nc(c(-c6cccc(S(=O)(=O)[O-])c6F)c6ccc3[nH]6)C=C5)C=C4)cc2)CC1
REMARK SMILES IDX 21 1 20 2 19 3 17 4 18 5 16 7 15 8 9 9 10 10 11 12 12 13
REMARK SMILES IDX 13 14 91 15 14 16 90 17 8 18 7 19 1 20 2 21 3 22 4 23 6 24
REMARK SMILES IDX 5 25 22 26 23 27 24 28 25 29 26 31 27 32 28 33 89 34 29 35
REMARK SMILES IDX 88 36 30 37 31 38 32 39 82 40 33 41 87 42 81 43 83 44 34 45
REMARK SMILES IDX 86 46 80 47 79 48 35 50 67 51 47 52 66 53 48 54 51 55 65 56
REMARK SMILES IDX 84 57 49 58 50 59 64 61 85 62 52 63 36 64 37 65 45 66 38 67
REMARK SMILES IDX 40 68 46 69 39 70 41 71 42 72 43 73 44 74 68 75 69 76 77 77
REMARK SMILES IDX 70 78 72 79 78 80 71 81 73 82 74 83 75 84 76 85 53 86 54 87
REMARK SMILES IDX 62 88 55 89 57 90 63 91 56 92 58 93 59 94 60 95 61 96
REMARK H PARENT 19 6 9 11 24 30 83 49 51 60
REMARK Flexibility Score: inf
ROOT
ATOM      1  C   UNL A   1      36.248  20.971  25.381  1.00  0.00     0.023 C 
ENDROOT
BRANCH   1   2
ATOM      2  C   UNL A   1      35.548  19.774  24.695  1.00  0.00     0.116 C 
BRANCH   2   3
ATOM      3  N   UNL A   1      34.176  19.527  25.143  1.00  0.00    -0.356 N 
ATOM      4  C   UNL A   1      32.964  19.913  24.642  1.00  0.00     0.220 C 
ATOM      5  O   UNL A   1      31.944  19.505  25.205  1.00  0.00    -0.275 OA
ATOM      6  H   UNL A   1      34.115  18.980  25.959  1.00  0.00     0.163 HD
BRANCH   4   7
ATOM      7  C   UNL A   1      32.847  20.869  23.458  1.00  0.00     0.103 C 
BRANCH   7   8
ATOM      8  C   UNL A   1      32.824  22.358  23.880  1.00  0.00     0.002 C 
ATOM      9  N   UNL A   1      31.754  26.822  21.611  1.00  0.00    -0.334 N 
ATOM     10  C   UNL A   1      32.496  25.686  21.630  1.00  0.00     0.317 C 
ATOM     11  H   UNL A   1      31.420  27.122  20.735  1.00  0.00     0.165 HD
ATOM     12  O   UNL A   1      33.071  25.325  20.608  1.00  0.00    -0.249 OA
ATOM     13  N   UNL A   1      32.659  25.083  22.849  1.00  0.00    -0.325 N 
ATOM     14  C   UNL A   1      33.959  24.577  23.201  1.00  0.00     0.121 C 
ATOM     15  C   UNL A   1      31.551  24.562  23.641  1.00  0.00     0.121 C 
ATOM     16  C   UNL A   1      33.956  23.075  23.165  1.00  0.00     0.026 C 
ATOM     17  C   UNL A   1      31.477  23.030  23.557  1.00  0.00     0.026 C 
BRANCH   9  18
ATOM     18  C   UNL A   1      31.405  27.632  22.756  1.00  0.00     0.153 C 
BRANCH  18  19
ATOM     19  C   UNL A   1      30.126  28.418  22.563  1.00  0.00    -0.026 A 
ATOM     20  C   UNL A   1      28.691  26.714  23.859  1.00  0.00     0.044 C 
ATOM     21  C   UNL A   1      28.895  28.008  23.118  1.00  0.00    -0.046 A 
ATOM     22  C   UNL A   1      27.772  28.845  22.988  1.00  0.00     0.004 A 
ATOM     23  C   UNL A   1      27.853  30.076  22.337  1.00  0.00     0.000 A 
ATOM     24  C   UNL A   1      30.187  29.670  21.913  1.00  0.00     0.006 A 
ATOM     25  C   UNL A   1      29.064  30.488  21.797  1.00  0.00     0.000 A 
ENDBRANCH  18  19
ENDBRANCH   9  18
ENDBRANCH   7   8
ENDBRANCH   4   7
ENDBRANCH   2   3
ENDBRANCH   1   2
BRANCH   1  26
ATOM     26  C   UNL A   1      37.652  21.299  24.887  1.00  0.00     0.023 C 
BRANCH  26  27
ATOM     27  C   UNL A   1      38.168  22.543  25.567  1.00  0.00     0.116 C 
BRANCH  27  28
ATOM     28  N   UNL A   1      39.455  22.376  26.225  1.00  0.00    -0.352 N 
ATOM     29  C   UNL A   1      40.366  23.329  26.673  1.00  0.00     0.251 C 
ATOM     30  H   UNL A   1      39.724  21.441  26.378  1.00  0.00     0.163 HD
ATOM     31  O   UNL A   1      41.462  22.959  27.039  1.00  0.00    -0.269 OA
BRANCH  29  32
ATOM     32  C   UNL A   1      39.923  24.743  26.853  1.00  0.00     0.039 A 
ATOM     33  C   UNL A   1      40.669  25.751  26.228  1.00  0.00     0.014 A 
ATOM     34  C   UNL A   1      39.040  25.079  27.866  1.00  0.00     0.014 A 
ATOM     35  C   UNL A   1      40.761  27.004  26.830  1.00  0.00     0.010 A 
ATOM     36  C   UNL A   1      39.289  26.221  28.579  1.00  0.00     0.010 A 
ATOM     37  C   UNL A   1      40.182  27.169  28.078  1.00  0.00    -0.014 A 
BRANCH  37  38
ATOM     38  C   UNL A   1      40.339  28.310  28.957  1.00  0.00     0.031 A 
ATOM     39  C   UNL A   1      39.435  29.459  28.751  1.00  0.00     0.074 A 
ATOM     40  C   UNL A   1      41.084  28.180  30.073  1.00  0.00     0.049 A 
ATOM     41  N   UNL A   1      39.489  30.555  29.414  1.00  0.00    -0.248 NA
ATOM     42  C   UNL A   1      38.380  29.445  27.743  1.00  0.00     0.031 C 
ATOM     43  C   UNL A   1      41.008  28.961  31.303  1.00  0.00     0.029 A 
ATOM     44  N   UNL A   1      42.196  27.389  30.281  1.00  0.00    -0.354 N 
ATOM     45  C   UNL A   1      38.358  31.284  29.116  1.00  0.00     0.074 A 
ATOM     46  C   UNL A   1      37.735  30.577  28.028  1.00  0.00     0.031 C 
ATOM     47  C   UNL A   1      42.150  28.797  31.997  1.00  0.00     0.029 A 
ATOM     48  C   UNL A   1      43.063  28.065  31.138  1.00  0.00     0.049 A 
ATOM     49  H   UNL A   1      42.349  26.498  29.891  1.00  0.00     0.167 HD
ATOM     50  C   UNL A   1      38.043  32.332  29.926  1.00  0.00     0.034 A 
ATOM     51  C   UNL A   1      44.247  28.574  30.669  1.00  0.00     0.034 A 
ATOM     52  C   UNL A   1      39.164  32.608  30.842  1.00  0.00     0.049 A 
ATOM     53  C   UNL A   1      44.321  30.095  30.732  1.00  0.00     0.074 A 
ATOM     54  C   UNL A   1      39.426  32.260  32.156  1.00  0.00     0.029 A 
ATOM     55  N   UNL A   1      40.368  33.058  30.308  1.00  0.00    -0.354 N 
ATOM     56  N   UNL A   1      43.293  30.881  30.917  1.00  0.00    -0.248 NA
ATOM     57  C   UNL A   1      45.568  30.847  30.620  1.00  0.00     0.031 C 
ATOM     58  C   UNL A   1      40.825  32.402  32.373  1.00  0.00     0.029 A 
ATOM     59  C   UNL A   1      41.407  32.874  31.208  1.00  0.00     0.049 A 
ATOM     60  H   UNL A   1      40.470  33.452  29.411  1.00  0.00     0.167 HD
ATOM     61  C   UNL A   1      43.681  32.194  30.846  1.00  0.00     0.074 A 
ATOM     62  C   UNL A   1      45.128  32.115  30.731  1.00  0.00     0.031 C 
ATOM     63  C   UNL A   1      42.777  33.227  30.838  1.00  0.00     0.034 A 
BRANCH  50  64
ATOM     64  C   UNL A   1      36.667  32.962  30.086  1.00  0.00     0.023 A 
ATOM     65  C   UNL A   1      36.086  33.519  28.923  1.00  0.00     0.012 A 
ATOM     66  C   UNL A   1      35.929  33.144  31.281  1.00  0.00     0.148 A 
ATOM     67  C   UNL A   1      34.900  34.264  28.950  1.00  0.00     0.002 A 
ATOM     68  C   UNL A   1      34.759  33.910  31.318  1.00  0.00     0.091 A 
ATOM     69  F   UNL A   1      36.317  32.554  32.407  1.00  0.00    -0.205 F 
ATOM     70  C   UNL A   1      34.245  34.478  30.153  1.00  0.00     0.022 A 
BRANCH  68  71
ATOM     71  S   UNL A   1      33.869  34.256  32.850  1.00  0.00     0.127 S 
ATOM     72  O   UNL A   1      33.424  32.921  33.253  1.00  0.00    -0.237 OA
ATOM     73  O   UNL A   1      34.915  34.828  33.697  1.00  0.00    -0.237 OA
ATOM     74  O   UNL A   1      32.786  35.169  32.506  1.00  0.00    -0.744 OA
ENDBRANCH  68  71
ENDBRANCH  50  64
BRANCH  51  75
ATOM     75  C   UNL A   1      44.865  27.707  29.612  1.00  0.00     0.023 A 
ATOM     76  C   UNL A   1      45.204  26.387  30.007  1.00  0.00     0.012 A 
ATOM     77  C   UNL A   1      44.740  27.985  28.238  1.00  0.00     0.148 A 
ATOM     78  C   UNL A   1      45.225  25.341  29.083  1.00  0.00     0.002 A 
ATOM     79  C   UNL A   1      44.800  26.937  27.315  1.00  0.00     0.091 A 
ATOM     80  F   UNL A   1      44.508  29.246  27.855  1.00  0.00    -0.205 F 
ATOM     81  C   UNL A   1      44.982  25.610  27.743  1.00  0.00     0.022 A 
BRANCH  79  82
ATOM     82  S   UNL A   1      44.544  27.204  25.553  1.00  0.00     0.127 S 
ATOM     83  O   UNL A   1      45.892  27.547  25.109  1.00  0.00    -0.237 OA
ATOM     84  O   UNL A   1      44.061  25.901  25.096  1.00  0.00    -0.237 OA
ATOM     85  O   UNL A   1      43.550  28.266  25.474  1.00  0.00    -0.744 OA
ENDBRANCH  79  82
ENDBRANCH  51  75
BRANCH  63  86
ATOM     86  C   UNL A   1      43.091  34.673  30.470  1.00  0.00     0.023 A 
ATOM     87  C   UNL A   1      43.528  35.616  31.419  1.00  0.00     0.012 A 
ATOM     88  C   UNL A   1      43.109  35.096  29.113  1.00  0.00     0.148 A 
ATOM     89  C   UNL A   1      43.901  36.918  31.062  1.00  0.00     0.002 A 
ATOM     90  C   UNL A   1      43.601  36.349  28.751  1.00  0.00     0.091 A 
ATOM     91  F   UNL A   1      42.631  34.293  28.151  1.00  0.00    -0.205 F 
ATOM     92  C   UNL A   1      43.964  37.277  29.724  1.00  0.00     0.022 A 
BRANCH  90  93
ATOM     93  S   UNL A   1      43.948  36.741  27.029  1.00  0.00     0.127 S 
ATOM     94  O   UNL A   1      42.616  37.033  26.506  1.00  0.00    -0.237 OA
ATOM     95  O   UNL A   1      44.827  37.908  27.140  1.00  0.00    -0.237 OA
ATOM     96  O   UNL A   1      44.604  35.552  26.501  1.00  0.00    -0.744 OA
ENDBRANCH  90  93
ENDBRANCH  63  86
ENDBRANCH  37  38
ENDBRANCH  29  32
ENDBRANCH  27  28
ENDBRANCH  26  27
ENDBRANCH   1  26
TORSDOF 17
ENDMDL
MODEL 2
REMARK VINA RESULT:     -13.2      3.874      9.736
REMARK SMILES Cc1ccccc1CNC(=O)N1CCC(CC(=O)NCCCCNC(=O)c2ccc(-c3c4nc(c(-c5cccc(S(=O)(=O)[O-])c5F)c5ccc([nH]5)c(-c5cccc(S(=O)(=O)[O-])c5F)c5nc(c(-c6cccc(S(=O)(=O)[O-])c6F)c6ccc3[nH]6)C=C5)C=C4)cc2)CC1
REMARK SMILES IDX 21 1 20 2 19 3 17 4 18 5 16 7 15 8 9 9 10 10 11 12 12 13
REMARK SMILES IDX 13 14 91 15 14 16 90 17 8 18 7 19 1 20 2 21 3 22 4 23 6 24
REMARK SMILES IDX 5 25 22 26 23 27 24 28 25 29 26 31 27 32 28 33 89 34 29 35
REMARK SMILES IDX 88 36 30 37 31 38 32 39 82 40 33 41 87 42 81 43 83 44 34 45
REMARK SMILES IDX 86 46 80 47 79 48 35 50 67 51 47 52 66 53 48 54 51 55 65 56
REMARK SMILES IDX 84 57 49 58 50 59 64 61 85 62 52 63 36 64 37 65 45 66 38 67
REMARK SMILES IDX 40 68 46 69 39 70 41 71 42 72 43 73 44 74 68 75 69 76 77 77
REMARK SMILES IDX 70 78 72 79 78 80 71 81 73 82 74 83 75 84 76 85 53 86 54 87
REMARK SMILES IDX 62 88 55 89 57 90 63 91 56 92 58 93 59 94 60 95 61 96
REMARK H PARENT 19 6 9 11 24 30 83 49 51 60
REMARK Flexibility Score: inf
ROOT
ATOM      1  C   UNL A   1      32.781  29.774  25.070  1.00  0.00     0.023 C 
ENDROOT
BRANCH   1   2
ATOM      2  C   UNL A   1      32.928  29.002  23.737  1.00  0.00     0.116 C 
BRANCH   2   3
ATOM      3  N   UNL A   1      31.781  29.113  22.833  1.00  0.00    -0.356 N 
ATOM      4  C   UNL A   1      30.526  28.571  22.874  1.00  0.00     0.220 C 
ATOM      5  O   UNL A   1      29.728  28.885  21.987  1.00  0.00    -0.275 OA
ATOM      6  H   UNL A   1      31.945  29.684  22.049  1.00  0.00     0.163 HD
BRANCH   4   7
ATOM      7  C   UNL A   1      30.118  27.557  23.939  1.00  0.00     0.103 C 
BRANCH   7   8
ATOM      8  C   UNL A   1      31.227  26.525  24.252  1.00  0.00     0.002 C 
ATOM      9  N   UNL A   1      31.416  21.757  26.110  1.00  0.00    -0.334 N 
ATOM     10  C   UNL A   1      31.037  23.048  26.283  1.00  0.00     0.317 C 
ATOM     11  H   UNL A   1      30.771  21.063  26.379  1.00  0.00     0.165 HD
ATOM     12  O   UNL A   1      30.169  23.316  27.108  1.00  0.00    -0.249 OA
ATOM     13  N   UNL A   1      31.759  23.993  25.603  1.00  0.00    -0.325 N 
ATOM     14  C   UNL A   1      32.124  25.206  26.284  1.00  0.00     0.121 C 
ATOM     15  C   UNL A   1      31.842  24.045  24.148  1.00  0.00     0.121 C 
ATOM     16  C   UNL A   1      31.314  26.358  25.759  1.00  0.00     0.026 C 
ATOM     17  C   UNL A   1      30.960  25.167  23.579  1.00  0.00     0.026 C 
BRANCH   9  18
ATOM     18  C   UNL A   1      32.676  21.303  25.567  1.00  0.00     0.153 C 
BRANCH  18  19
ATOM     19  C   UNL A   1      32.583  19.949  24.896  1.00  0.00    -0.026 A 
ATOM     20  C   UNL A   1      32.107  20.951  22.571  1.00  0.00     0.044 C 
ATOM     21  C   UNL A   1      32.371  19.805  23.510  1.00  0.00    -0.046 A 
ATOM     22  C   UNL A   1      32.404  18.518  22.940  1.00  0.00     0.004 A 
ATOM     23  C   UNL A   1      32.659  17.387  23.715  1.00  0.00     0.000 A 
ATOM     24  C   UNL A   1      32.846  18.791  25.661  1.00  0.00     0.006 A 
ATOM     25  C   UNL A   1      32.879  17.525  25.079  1.00  0.00     0.000 A 
ENDBRANCH  18  19
ENDBRANCH   9  18
ENDBRANCH   7   8
ENDBRANCH   4   7
ENDBRANCH   2   3
ENDBRANCH   1   2
BRANCH   1  26
ATOM     26  C   UNL A   1      33.809  29.453  26.147  1.00  0.00     0.023 C 
BRANCH  26  27
ATOM     27  C   UNL A   1      33.517  30.241  27.400  1.00  0.00     0.116 C 
BRANCH  27  28
ATOM     28  N   UNL A   1      34.351  31.420  27.575  1.00  0.00    -0.352 N 
ATOM     29  C   UNL A   1      35.611  31.552  28.153  1.00  0.00     0.251 C 
ATOM     30  H   UNL A   1      33.965  32.257  27.230  1.00  0.00     0.163 HD
ATOM     31  O   UNL A   1      36.048  32.666  28.348  1.00  0.00    -0.269 OA
BRANCH  29  32
ATOM     32  C   UNL A   1      36.457  30.338  28.358  1.00  0.00     0.039 A 
ATOM     33  C   UNL A   1      36.734  29.945  29.674  1.00  0.00     0.014 A 
ATOM     34  C   UNL A   1      37.223  29.832  27.321  1.00  0.00     0.014 A 
ATOM     35  C   UNL A   1      37.948  29.323  29.958  1.00  0.00     0.010 A 
ATOM     36  C   UNL A   1      38.497  29.422  27.606  1.00  0.00     0.010 A 
ATOM     37  C   UNL A   1      38.874  29.204  28.933  1.00  0.00    -0.014 A 
BRANCH  37  38
ATOM     38  C   UNL A   1      40.254  28.785  29.061  1.00  0.00     0.031 A 
ATOM     39  C   UNL A   1      40.555  27.356  28.850  1.00  0.00     0.074 A 
ATOM     40  C   UNL A   1      41.223  29.722  29.089  1.00  0.00     0.049 A 
ATOM     41  N   UNL A   1      41.718  26.830  28.982  1.00  0.00    -0.248 NA
ATOM     42  C   UNL A   1      39.526  26.394  28.471  1.00  0.00     0.031 C 
ATOM     43  C   UNL A   1      42.631  29.573  28.734  1.00  0.00     0.029 A 
ATOM     44  N   UNL A   1      41.171  31.004  29.596  1.00  0.00    -0.354 N 
ATOM     45  C   UNL A   1      41.660  25.548  28.478  1.00  0.00     0.074 A 
ATOM     46  C   UNL A   1      40.262  25.308  28.231  1.00  0.00     0.031 C 
ATOM     47  C   UNL A   1      43.327  30.594  29.266  1.00  0.00     0.029 A 
ATOM     48  C   UNL A   1      42.417  31.316  30.137  1.00  0.00     0.049 A 
ATOM     49  H   UNL A   1      40.385  31.598  29.578  1.00  0.00     0.167 HD
ATOM     50  C   UNL A   1      42.835  24.909  28.226  1.00  0.00     0.034 A 
ATOM     51  C   UNL A   1      42.579  31.422  31.495  1.00  0.00     0.034 A 
ATOM     52  C   UNL A   1      43.954  25.679  28.797  1.00  0.00     0.049 A 
ATOM     53  C   UNL A   1      43.509  30.364  32.079  1.00  0.00     0.074 A 
ATOM     54  C   UNL A   1      44.857  26.583  28.263  1.00  0.00     0.029 A 
ATOM     55  N   UNL A   1      44.035  25.815  30.180  1.00  0.00    -0.354 N 
ATOM     56  N   UNL A   1      43.890  29.283  31.452  1.00  0.00    -0.248 NA
ATOM     57  C   UNL A   1      44.106  30.462  33.408  1.00  0.00     0.031 C 
ATOM     58  C   UNL A   1      45.401  27.341  29.338  1.00  0.00     0.029 A 
ATOM     59  C   UNL A   1      44.862  26.872  30.526  1.00  0.00     0.049 A 
ATOM     60  H   UNL A   1      43.566  25.238  30.827  1.00  0.00     0.167 HD
ATOM     61  C   UNL A   1      44.660  28.503  32.276  1.00  0.00     0.074 A 
ATOM     62  C   UNL A   1      44.824  29.325  33.465  1.00  0.00     0.031 C 
ATOM     63  C   UNL A   1      45.053  27.235  31.929  1.00  0.00     0.034 A 
BRANCH  50  64
ATOM     64  C   UNL A   1      43.035  23.739  27.274  1.00  0.00     0.023 A 
ATOM     65  C   UNL A   1      43.810  23.987  26.117  1.00  0.00     0.012 A 
ATOM     66  C   UNL A   1      42.462  22.446  27.356  1.00  0.00     0.148 A 
ATOM     67  C   UNL A   1      43.948  23.054  25.082  1.00  0.00     0.002 A 
ATOM     68  C   UNL A   1      42.575  21.520  26.313  1.00  0.00     0.091 A 
ATOM     69  F   UNL A   1      41.822  22.062  28.455  1.00  0.00    -0.205 F 
ATOM     70  C   UNL A   1      43.313  21.825  25.169  1.00  0.00     0.022 A 
BRANCH  68  71
ATOM     71  S   UNL A   1      41.752  19.914  26.343  1.00  0.00     0.127 S 
ATOM     72  O   UNL A   1      42.398  19.219  25.228  1.00  0.00    -0.237 OA
ATOM     73  O   UNL A   1      42.109  19.404  27.665  1.00  0.00    -0.237 OA
ATOM     74  O   UNL A   1      40.330  20.170  26.144  1.00  0.00    -0.744 OA
ENDBRANCH  68  71
ENDBRANCH  50  64
BRANCH  51  75
ATOM     75  C   UNL A   1      41.373  32.002  32.172  1.00  0.00     0.023 A 
ATOM     76  C   UNL A   1      41.000  33.311  31.770  1.00  0.00     0.012 A 
ATOM     77  C   UNL A   1      40.417  31.204  32.828  1.00  0.00     0.148 A 
ATOM     78  C   UNL A   1      39.673  33.737  31.841  1.00  0.00     0.002 A 
ATOM     79  C   UNL A   1      39.097  31.654  32.930  1.00  0.00     0.091 A 
ATOM     80  F   UNL A   1      40.787  30.004  33.289  1.00  0.00    -0.205 F 
ATOM     81  C   UNL A   1      38.714  32.892  32.384  1.00  0.00     0.022 A 
BRANCH  79  82
ATOM     82  S   UNL A   1      37.800  30.642  33.662  1.00  0.00     0.127 S 
ATOM     83  O   UNL A   1      38.199  29.303  33.238  1.00  0.00    -0.237 OA
ATOM     84  O   UNL A   1      37.956  30.902  35.093  1.00  0.00    -0.237 OA
ATOM     85  O   UNL A   1      36.559  31.154  33.097  1.00  0.00    -0.744 OA
ENDBRANCH  79  82
ENDBRANCH  51  75
BRANCH  63  86
ATOM     86  C   UNL A   1      45.647  26.203  32.881  1.00  0.00     0.023 A 
ATOM     87  C   UNL A   1      47.034  26.064  33.076  1.00  0.00     0.012 A 
ATOM     88  C   UNL A   1      44.815  25.435  33.742  1.00  0.00     0.148 A 
ATOM     89  C   UNL A   1      47.573  25.178  34.017  1.00  0.00     0.002 A 
ATOM     90  C   UNL A   1      45.354  24.651  34.760  1.00  0.00     0.091 A 
ATOM     91  F   UNL A   1      43.485  25.440  33.573  1.00  0.00    -0.205 F 
ATOM     92  C   UNL A   1      46.733  24.491  34.879  1.00  0.00     0.022 A 
BRANCH  90  93
ATOM     93  S   UNL A   1      44.303  23.970  36.053  1.00  0.00     0.127 S 
ATOM     94  O   UNL A   1      45.262  23.232  36.872  1.00  0.00    -0.237 OA
ATOM     95  O   UNL A   1      43.761  25.174  36.688  1.00  0.00    -0.237 OA
ATOM     96  O   UNL A   1      43.309  23.174  35.345  1.00  0.00    -0.744 OA
ENDBRANCH  90  93
ENDBRANCH  63  86
ENDBRANCH  37  38
ENDBRANCH  29  32
ENDBRANCH  27  28
ENDBRANCH  26  27
ENDBRANCH   1  26
TORSDOF 17
ENDMDL
MODEL 3
REMARK VINA RESULT:     -13.1      2.153      2.510
REMARK SMILES Cc1ccccc1CNC(=O)N1CCC(CC(=O)NCCCCNC(=O)c2ccc(-c3c4nc(c(-c5cccc(S(=O)(=O)[O-])c5F)c5ccc([nH]5)c(-c5cccc(S(=O)(=O)[O-])c5F)c5nc(c(-c6cccc(S(=O)(=O)[O-])c6F)c6ccc3[nH]6)C=C5)C=C4)cc2)CC1
REMARK SMILES IDX 21 1 20 2 19 3 17 4 18 5 16 7 15 8 9 9 10 10 11 12 12 13
REMARK SMILES IDX 13 14 91 15 14 16 90 17 8 18 7 19 1 20 2 21 3 22 4 23 6 24
REMARK SMILES IDX 5 25 22 26 23 27 24 28 25 29 26 31 27 32 28 33 89 34 29 35
REMARK SMILES IDX 88 36 30 37 31 38 32 39 82 40 33 41 87 42 81 43 83 44 34 45
REMARK SMILES IDX 86 46 80 47 79 48 35 50 67 51 47 52 66 53 48 54 51 55 65 56
REMARK SMILES IDX 84 57 49 58 50 59 64 61 85 62 52 63 36 64 37 65 45 66 38 67
REMARK SMILES IDX 40 68 46 69 39 70 41 71 42 72 43 73 44 74 68 75 69 76 77 77
REMARK SMILES IDX 70 78 72 79 78 80 71 81 73 82 74 83 75 84 76 85 53 86 54 87
REMARK SMILES IDX 62 88 55 89 57 90 63 91 56 92 58 93 59 94 60 95 61 96
REMARK H PARENT 19 6 9 11 24 30 83 49 51 60
REMARK Flexibility Score: inf
ROOT
ATOM      1  C   UNL A   1      36.621  20.446  25.068  1.00  0.00     0.023 C 
ENDROOT
BRANCH   1   2
ATOM      2  C   UNL A   1      35.118  20.787  24.942  1.00  0.00     0.116 C 
BRANCH   2   3
ATOM      3  N   UNL A   1      34.400  20.878  26.214  1.00  0.00    -0.356 N 
ATOM      4  C   UNL A   1      34.102  21.937  27.026  1.00  0.00     0.220 C 
ATOM      5  O   UNL A   1      33.421  21.725  28.034  1.00  0.00    -0.275 OA
ATOM      6  H   UNL A   1      34.069  20.013  26.548  1.00  0.00     0.163 HD
BRANCH   4   7
ATOM      7  C   UNL A   1      34.633  23.341  26.750  1.00  0.00     0.103 C 
BRANCH   7   8
ATOM      8  C   UNL A   1      33.772  24.127  25.733  1.00  0.00     0.002 C 
ATOM      9  N   UNL A   1      31.498  28.713  25.588  1.00  0.00    -0.334 N 
ATOM     10  C   UNL A   1      31.643  27.517  26.211  1.00  0.00     0.317 C 
ATOM     11  H   UNL A   1      31.451  29.512  26.161  1.00  0.00     0.165 HD
ATOM     12  O   UNL A   1      31.293  27.400  27.381  1.00  0.00    -0.249 OA
ATOM     13  N   UNL A   1      32.055  26.468  25.431  1.00  0.00    -0.325 N 
ATOM     14  C   UNL A   1      31.421  25.188  25.602  1.00  0.00     0.121 C 
ATOM     15  C   UNL A   1      33.337  26.441  24.736  1.00  0.00     0.121 C 
ATOM     16  C   UNL A   1      32.360  24.232  26.281  1.00  0.00     0.026 C 
ATOM     17  C   UNL A   1      34.343  25.530  25.455  1.00  0.00     0.026 C 
BRANCH   9  18
ATOM     18  C   UNL A   1      31.408  28.927  24.161  1.00  0.00     0.153 C 
BRANCH  18  19
ATOM     19  C   UNL A   1      30.022  29.330  23.705  1.00  0.00    -0.026 A 
ATOM     20  C   UNL A   1      29.263  26.899  23.314  1.00  0.00     0.044 C 
ATOM     21  C   UNL A   1      29.031  28.384  23.367  1.00  0.00    -0.046 A 
ATOM     22  C   UNL A   1      27.734  28.831  23.056  1.00  0.00     0.004 A 
ATOM     23  C   UNL A   1      27.404  30.186  23.091  1.00  0.00     0.000 A 
ATOM     24  C   UNL A   1      29.664  30.696  23.740  1.00  0.00     0.006 A 
ATOM     25  C   UNL A   1      28.372  31.120  23.433  1.00  0.00     0.000 A 
ENDBRANCH  18  19
ENDBRANCH   9  18
ENDBRANCH   7   8
ENDBRANCH   4   7
ENDBRANCH   2   3
ENDBRANCH   1   2
BRANCH   1  26
ATOM     26  C   UNL A   1      37.595  21.540  24.649  1.00  0.00     0.023 C 
BRANCH  26  27
ATOM     27  C   UNL A   1      37.899  22.445  25.818  1.00  0.00     0.116 C 
BRANCH  27  28
ATOM     28  N   UNL A   1      39.199  22.216  26.430  1.00  0.00    -0.352 N 
ATOM     29  C   UNL A   1      40.171  23.123  26.843  1.00  0.00     0.251 C 
ATOM     30  H   UNL A   1      39.429  21.269  26.574  1.00  0.00     0.163 HD
ATOM     31  O   UNL A   1      41.259  22.701  27.171  1.00  0.00    -0.269 OA
BRANCH  29  32
ATOM     32  C   UNL A   1      39.802  24.557  27.038  1.00  0.00     0.039 A 
ATOM     33  C   UNL A   1      40.547  25.526  26.353  1.00  0.00     0.014 A 
ATOM     34  C   UNL A   1      39.006  24.940  28.104  1.00  0.00     0.014 A 
ATOM     35  C   UNL A   1      40.735  26.779  26.934  1.00  0.00     0.010 A 
ATOM     36  C   UNL A   1      39.351  26.075  28.787  1.00  0.00     0.010 A 
ATOM     37  C   UNL A   1      40.249  26.979  28.217  1.00  0.00    -0.014 A 
BRANCH  37  38
ATOM     38  C   UNL A   1      40.514  28.119  29.071  1.00  0.00     0.031 A 
ATOM     39  C   UNL A   1      39.613  29.281  28.956  1.00  0.00     0.074 A 
ATOM     40  C   UNL A   1      41.369  27.979  30.104  1.00  0.00     0.049 A 
ATOM     41  N   UNL A   1      39.752  30.378  29.605  1.00  0.00    -0.248 NA
ATOM     42  C   UNL A   1      38.459  29.283  28.063  1.00  0.00     0.031 C 
ATOM     43  C   UNL A   1      41.433  28.763  31.333  1.00  0.00     0.029 A 
ATOM     44  N   UNL A   1      42.483  27.170  30.199  1.00  0.00    -0.354 N 
ATOM     45  C   UNL A   1      38.608  31.125  29.424  1.00  0.00     0.074 A 
ATOM     46  C   UNL A   1      37.865  30.426  28.408  1.00  0.00     0.031 C 
ATOM     47  C   UNL A   1      42.638  28.582  31.905  1.00  0.00     0.029 A 
ATOM     48  C   UNL A   1      43.446  27.833  30.959  1.00  0.00     0.049 A 
ATOM     49  H   UNL A   1      42.581  26.276  29.798  1.00  0.00     0.167 HD
ATOM     50  C   UNL A   1      38.395  32.179  30.259  1.00  0.00     0.034 A 
ATOM     51  C   UNL A   1      44.582  28.322  30.368  1.00  0.00     0.034 A 
ATOM     52  C   UNL A   1      39.609  32.438  31.052  1.00  0.00     0.049 A 
ATOM     53  C   UNL A   1      44.686  29.842  30.418  1.00  0.00     0.074 A 
ATOM     54  C   UNL A   1      40.000  32.088  32.334  1.00  0.00     0.029 A 
ATOM     55  N   UNL A   1      40.759  32.868  30.395  1.00  0.00    -0.354 N 
ATOM     56  N   UNL A   1      43.696  30.645  30.706  1.00  0.00    -0.248 NA
ATOM     57  C   UNL A   1      45.927  30.574  30.175  1.00  0.00     0.031 C 
ATOM     58  C   UNL A   1      41.417  32.208  32.404  1.00  0.00     0.029 A 
ATOM     59  C   UNL A   1      41.882  32.669  31.183  1.00  0.00     0.049 A 
ATOM     60  H   UNL A   1      40.773  33.259  29.492  1.00  0.00     0.167 HD
ATOM     61  C   UNL A   1      44.095  31.951  30.591  1.00  0.00     0.074 A 
ATOM     62  C   UNL A   1      45.522  31.848  30.327  1.00  0.00     0.031 C 
ATOM     63  C   UNL A   1      43.212  32.999  30.672  1.00  0.00     0.034 A 
BRANCH  50  64
ATOM     64  C   UNL A   1      37.054  32.832  30.558  1.00  0.00     0.023 A 
ATOM     65  C   UNL A   1      36.588  32.740  31.891  1.00  0.00     0.012 A 
ATOM     66  C   UNL A   1      36.163  33.445  29.643  1.00  0.00     0.148 A 
ATOM     67  C   UNL A   1      35.307  33.156  32.276  1.00  0.00     0.002 A 
ATOM     68  C   UNL A   1      34.874  33.839  30.018  1.00  0.00     0.091 A 
ATOM     69  F   UNL A   1      36.549  33.698  28.397  1.00  0.00    -0.205 F 
ATOM     70  C   UNL A   1      34.440  33.688  31.335  1.00  0.00     0.022 A 
BRANCH  68  71
ATOM     71  S   UNL A   1      33.681  34.510  28.841  1.00  0.00     0.127 S 
ATOM     72  O   UNL A   1      34.428  35.620  28.249  1.00  0.00    -0.237 OA
ATOM     73  O   UNL A   1      33.457  33.379  27.943  1.00  0.00    -0.237 OA
ATOM     74  O   UNL A   1      32.516  34.921  29.618  1.00  0.00    -0.744 OA
ENDBRANCH  68  71
ENDBRANCH  50  64
BRANCH  51  75
ATOM     75  C   UNL A   1      45.073  27.443  29.256  1.00  0.00     0.023 A 
ATOM     76  C   UNL A   1      45.342  26.093  29.599  1.00  0.00     0.012 A 
ATOM     77  C   UNL A   1      44.886  27.766  27.899  1.00  0.00     0.148 A 
ATOM     78  C   UNL A   1      45.234  25.073  28.652  1.00  0.00     0.002 A 
ATOM     79  C   UNL A   1      44.818  26.741  26.950  1.00  0.00     0.091 A 
ATOM     80  F   UNL A   1      44.720  29.050  27.559  1.00  0.00    -0.205 F 
ATOM     81  C   UNL A   1      44.931  25.394  27.336  1.00  0.00     0.022 A 
BRANCH  79  82
ATOM     82  S   UNL A   1      44.475  27.073  25.214  1.00  0.00     0.127 S 
ATOM     83  O   UNL A   1      45.697  27.758  24.800  1.00  0.00    -0.237 OA
ATOM     84  O   UNL A   1      44.307  25.731  24.656  1.00  0.00    -0.237 OA
ATOM     85  O   UNL A   1      43.257  27.871  25.216  1.00  0.00    -0.744 OA
ENDBRANCH  79  82
ENDBRANCH  51  75
BRANCH  63  86
ATOM     86  C   UNL A   1      43.509  34.438  30.269  1.00  0.00     0.023 A 
ATOM     87  C   UNL A   1      43.216  34.939  28.986  1.00  0.00     0.012 A 
ATOM     88  C   UNL A   1      43.951  35.392  31.226  1.00  0.00     0.148 A 
ATOM     89  C   UNL A   1      43.406  36.285  28.647  1.00  0.00     0.002 A 
ATOM     90  C   UNL A   1      44.018  36.750  30.918  1.00  0.00     0.091 A 
ATOM     91  F   UNL A   1      44.333  34.992  32.447  1.00  0.00    -0.205 F 
ATOM     92  C   UNL A   1      43.781  37.197  29.620  1.00  0.00     0.022 A 
BRANCH  90  93
ATOM     93  S   UNL A   1      44.235  37.979  32.216  1.00  0.00     0.127 S 
ATOM     94  O   UNL A   1      43.891  39.218  31.525  1.00  0.00    -0.237 OA
ATOM     95  O   UNL A   1      43.258  37.552  33.222  1.00  0.00    -0.237 OA
ATOM     96  O   UNL A   1      45.622  37.836  32.637  1.00  0.00    -0.744 OA
ENDBRANCH  90  93
ENDBRANCH  63  86
ENDBRANCH  37  38
ENDBRANCH  29  32
ENDBRANCH  27  28
ENDBRANCH  26  27
ENDBRANCH   1  26
TORSDOF 17
ENDMDL
