MODEL 1
REMARK VINA RESULT:     -12.0      0.000      0.000
REMARK SMILES O=C(CN1C(=O)N[C@](c2cccs2)(C2CC2)C1=O)NCCCCNC(=O)c1ccc(-c2c3nc(c(-c4cccc(S(=O)(=O)[O-])c4F)c4ccc([nH]4)c(-c4cccc(S(=O)(=O)[O-])c4F)c4nc(c(-c5cccc(S(=O)(=O)[O-])c5F)c5ccc2[nH]5)C=C4)C=C3)cc1
REMARK SMILES IDX 22 1 21 2 20 3 19 4 1 5 2 6 3 8 4 9 5 10 17 11 6 12 7 13
REMARK SMILES IDX 8 14 18 15 14 17 15 18 16 19 9 20 10 21 13 22 11 23 12 24
REMARK SMILES IDX 23 25 24 26 25 27 26 29 27 30 28 31 89 32 29 33 88 34 30 35
REMARK SMILES IDX 31 36 32 37 82 38 33 39 87 40 81 41 83 42 34 43 86 44 80 45
REMARK SMILES IDX 79 46 35 48 67 49 47 50 66 51 48 52 51 53 65 54 84 55 49 56
REMARK SMILES IDX 50 57 64 59 85 60 52 61 36 62 37 63 45 64 38 65 40 66 46 67
REMARK SMILES IDX 39 68 41 69 42 70 43 71 44 72 68 73 69 74 77 75 70 76 72 77
REMARK SMILES IDX 78 78 71 79 73 80 74 81 75 82 76 83 53 84 54 85 62 86 55 87
REMARK SMILES IDX 57 88 63 89 56 90 58 91 59 92 60 93 61 94
REMARK H PARENT 19 7 7 16 24 28 83 47 51 58
REMARK Flexibility Score: inf
ROOT
ATOM      1  C   UNL A   1      31.602  32.355  26.709  1.00  0.00     0.023 C 
ENDROOT
BRANCH   1   2
ATOM      2  C   UNL A   1      31.681  30.832  26.539  1.00  0.00     0.023 C 
BRANCH   2   3
ATOM      3  C   UNL A   1      32.895  30.158  27.179  1.00  0.00     0.116 C 
BRANCH   3   4
ATOM      4  N   UNL A   1      33.009  28.769  26.792  1.00  0.00    -0.355 N 
ATOM      5  O   UNL A   1      31.392  27.911  28.191  1.00  0.00    -0.273 OA
ATOM      6  C   UNL A   1      32.232  27.755  27.311  1.00  0.00     0.240 C 
ATOM      7  H   UNL A   1      33.685  28.533  26.116  1.00  0.00     0.163 HD
BRANCH   6   8
ATOM      8  C   UNL A   1      32.535  26.390  26.688  1.00  0.00     0.230 C 
BRANCH   8   9
ATOM      9  N   UNL A   1      31.739  26.007  25.534  1.00  0.00    -0.252 N 
ATOM     10  C   UNL A   1      30.608  25.258  25.530  1.00  0.00     0.325 C 
ATOM     11  C   UNL A   1      31.844  26.677  24.337  1.00  0.00     0.262 C 
ATOM     12  O   UNL A   1      30.068  24.705  26.476  1.00  0.00    -0.248 OA
ATOM     13  N   UNL A   1      30.072  25.249  24.272  1.00  0.00    -0.318 N 
ATOM     14  C   UNL A   1      30.720  26.177  23.371  1.00  0.00     0.158 C 
ATOM     15  O   UNL A   1      32.683  27.533  24.079  1.00  0.00    -0.271 OA
ATOM     16  H   UNL A   1      29.321  24.671  24.007  1.00  0.00     0.166 HD
BRANCH  14  17
ATOM     17  C   UNL A   1      31.367  25.345  22.278  1.00  0.00     0.030 C 
ATOM     18  C   UNL A   1      32.225  25.917  21.175  1.00  0.00     0.007 C 
ATOM     19  C   UNL A   1      32.828  24.975  22.188  1.00  0.00     0.007 C 
ENDBRANCH  14  17
BRANCH  14  20
ATOM     20  C   UNL A   1      29.713  27.314  23.172  1.00  0.00     0.040 A 
ATOM     21  C   UNL A   1      28.359  27.304  23.508  1.00  0.00     0.018 A 
ATOM     22  S   UNL A   1      30.082  28.793  22.376  1.00  0.00    -0.146 S 
ATOM     23  C   UNL A   1      27.661  28.486  23.124  1.00  0.00     0.012 A 
ATOM     24  C   UNL A   1      28.493  29.384  22.502  1.00  0.00     0.065 A 
ENDBRANCH  14  20
ENDBRANCH   8   9
ENDBRANCH   6   8
ENDBRANCH   3   4
ENDBRANCH   2   3
ENDBRANCH   1   2
BRANCH   1  25
ATOM     25  C   UNL A   1      32.809  33.013  27.373  1.00  0.00     0.116 C 
BRANCH  25  26
ATOM     26  N   UNL A   1      32.532  34.369  27.822  1.00  0.00    -0.352 N 
ATOM     27  C   UNL A   1      33.108  35.096  28.839  1.00  0.00     0.251 C 
ATOM     28  H   UNL A   1      31.827  34.839  27.321  1.00  0.00     0.163 HD
ATOM     29  O   UNL A   1      32.624  36.180  29.155  1.00  0.00    -0.269 OA
BRANCH  27  30
ATOM     30  C   UNL A   1      34.286  34.574  29.571  1.00  0.00     0.039 A 
ATOM     31  C   UNL A   1      34.097  34.019  30.841  1.00  0.00     0.014 A 
ATOM     32  C   UNL A   1      35.571  34.641  29.028  1.00  0.00     0.014 A 
ATOM     33  C   UNL A   1      35.183  33.469  31.531  1.00  0.00     0.010 A 
ATOM     34  C   UNL A   1      36.637  34.024  29.683  1.00  0.00     0.010 A 
ATOM     35  C   UNL A   1      36.457  33.430  30.942  1.00  0.00    -0.014 A 
BRANCH  35  36
ATOM     36  C   UNL A   1      37.599  32.755  31.615  1.00  0.00     0.031 A 
ATOM     37  C   UNL A   1      38.304  31.599  30.954  1.00  0.00     0.074 A 
ATOM     38  C   UNL A   1      37.953  33.126  32.862  1.00  0.00     0.049 A 
ATOM     39  N   UNL A   1      39.281  30.858  31.413  1.00  0.00    -0.248 NA
ATOM     40  C   UNL A   1      37.837  31.206  29.615  1.00  0.00     0.031 C 
ATOM     41  C   UNL A   1      37.308  34.184  33.644  1.00  0.00     0.029 A 
ATOM     42  N   UNL A   1      38.925  32.642  33.704  1.00  0.00    -0.354 N 
ATOM     43  C   UNL A   1      39.520  29.894  30.441  1.00  0.00     0.074 A 
ATOM     44  C   UNL A   1      38.565  30.124  29.379  1.00  0.00     0.031 C 
ATOM     45  C   UNL A   1      37.905  34.274  34.843  1.00  0.00     0.029 A 
ATOM     46  C   UNL A   1      38.948  33.257  34.934  1.00  0.00     0.049 A 
ATOM     47  H   UNL A   1      39.546  31.922  33.450  1.00  0.00     0.167 HD
ATOM     48  C   UNL A   1      40.460  28.918  30.422  1.00  0.00     0.034 A 
ATOM     49  C   UNL A   1      39.712  33.025  36.020  1.00  0.00     0.034 A 
ATOM     50  C   UNL A   1      41.431  28.711  31.462  1.00  0.00     0.049 A 
ATOM     51  C   UNL A   1      40.763  31.948  35.962  1.00  0.00     0.074 A 
ATOM     52  C   UNL A   1      42.481  27.809  31.490  1.00  0.00     0.029 A 
ATOM     53  N   UNL A   1      41.467  29.400  32.665  1.00  0.00    -0.354 N 
ATOM     54  N   UNL A   1      41.073  31.150  34.970  1.00  0.00    -0.248 NA
ATOM     55  C   UNL A   1      41.592  31.763  37.163  1.00  0.00     0.031 C 
ATOM     56  C   UNL A   1      43.125  27.924  32.726  1.00  0.00     0.029 A 
ATOM     57  C   UNL A   1      42.506  28.929  33.450  1.00  0.00     0.049 A 
ATOM     58  H   UNL A   1      40.845  30.117  32.922  1.00  0.00     0.167 HD
ATOM     59  C   UNL A   1      42.157  30.399  35.411  1.00  0.00     0.074 A 
ATOM     60  C   UNL A   1      42.462  30.850  36.752  1.00  0.00     0.031 C 
ATOM     61  C   UNL A   1      42.833  29.417  34.765  1.00  0.00     0.034 A 
BRANCH  48  62
ATOM     62  C   UNL A   1      40.510  28.012  29.218  1.00  0.00     0.023 A 
ATOM     63  C   UNL A   1      39.594  26.946  29.104  1.00  0.00     0.012 A 
ATOM     64  C   UNL A   1      41.413  28.260  28.166  1.00  0.00     0.148 A 
ATOM     65  C   UNL A   1      39.602  26.118  27.981  1.00  0.00     0.002 A 
ATOM     66  C   UNL A   1      41.383  27.462  27.028  1.00  0.00     0.091 A 
ATOM     67  F   UNL A   1      42.287  29.268  28.298  1.00  0.00    -0.205 F 
ATOM     68  C   UNL A   1      40.488  26.383  26.941  1.00  0.00     0.022 A 
BRANCH  66  69
ATOM     69  S   UNL A   1      42.424  27.772  25.597  1.00  0.00     0.127 S 
ATOM     70  O   UNL A   1      43.749  27.856  26.211  1.00  0.00    -0.237 OA
ATOM     71  O   UNL A   1      42.201  26.572  24.791  1.00  0.00    -0.237 OA
ATOM     72  O   UNL A   1      41.935  29.007  25.002  1.00  0.00    -0.744 OA
ENDBRANCH  66  69
ENDBRANCH  48  62
BRANCH  49  73
ATOM     73  C   UNL A   1      39.550  33.861  37.244  1.00  0.00     0.023 A 
ATOM     74  C   UNL A   1      40.104  35.156  37.279  1.00  0.00     0.012 A 
ATOM     75  C   UNL A   1      38.845  33.385  38.367  1.00  0.00     0.148 A 
ATOM     76  C   UNL A   1      39.994  35.946  38.423  1.00  0.00     0.002 A 
ATOM     77  C   UNL A   1      38.688  34.201  39.482  1.00  0.00     0.091 A 
ATOM     78  F   UNL A   1      38.333  32.148  38.317  1.00  0.00    -0.205 F 
ATOM     79  C   UNL A   1      39.278  35.473  39.520  1.00  0.00     0.022 A 
BRANCH  77  80
ATOM     80  S   UNL A   1      37.677  33.725  40.887  1.00  0.00     0.127 S 
ATOM     81  O   UNL A   1      36.507  33.146  40.232  1.00  0.00    -0.237 OA
ATOM     82  O   UNL A   1      38.543  32.761  41.567  1.00  0.00    -0.237 OA
ATOM     83  O   UNL A   1      37.439  34.951  41.636  1.00  0.00    -0.744 OA
ENDBRANCH  77  80
ENDBRANCH  49  73
BRANCH  61  84
ATOM     84  C   UNL A   1      44.006  28.788  35.473  1.00  0.00     0.023 A 
ATOM     85  C   UNL A   1      45.306  29.295  35.278  1.00  0.00     0.012 A 
ATOM     86  C   UNL A   1      43.805  27.736  36.390  1.00  0.00     0.148 A 
ATOM     87  C   UNL A   1      46.392  28.740  35.956  1.00  0.00     0.002 A 
ATOM     88  C   UNL A   1      44.883  27.225  37.102  1.00  0.00     0.091 A 
ATOM     89  F   UNL A   1      42.563  27.257  36.549  1.00  0.00    -0.205 F 
ATOM     90  C   UNL A   1      46.179  27.715  36.875  1.00  0.00     0.022 A 
BRANCH  88  91
ATOM     91  S   UNL A   1      44.691  25.975  38.378  1.00  0.00     0.127 S 
ATOM     92  O   UNL A   1      44.178  24.841  37.610  1.00  0.00    -0.237 OA
ATOM     93  O   UNL A   1      46.063  25.815  38.860  1.00  0.00    -0.237 OA
ATOM     94  O   UNL A   1      43.766  26.535  39.354  1.00  0.00    -0.744 OA
ENDBRANCH  88  91
ENDBRANCH  61  84
ENDBRANCH  35  36
ENDBRANCH  27  30
ENDBRANCH  25  26
ENDBRANCH   1  25
TORSDOF 17
ENDMDL
MODEL 2
REMARK VINA RESULT:     -11.9      6.158     12.027
REMARK SMILES O=C(CN1C(=O)N[C@](c2cccs2)(C2CC2)C1=O)NCCCCNC(=O)c1ccc(-c2c3nc(c(-c4cccc(S(=O)(=O)[O-])c4F)c4ccc([nH]4)c(-c4cccc(S(=O)(=O)[O-])c4F)c4nc(c(-c5cccc(S(=O)(=O)[O-])c5F)c5ccc2[nH]5)C=C4)C=C3)cc1
REMARK SMILES IDX 22 1 21 2 20 3 19 4 1 5 2 6 3 8 4 9 5 10 17 11 6 12 7 13
REMARK SMILES IDX 8 14 18 15 14 17 15 18 16 19 9 20 10 21 13 22 11 23 12 24
REMARK SMILES IDX 23 25 24 26 25 27 26 29 27 30 28 31 89 32 29 33 88 34 30 35
REMARK SMILES IDX 31 36 32 37 82 38 33 39 87 40 81 41 83 42 34 43 86 44 80 45
REMARK SMILES IDX 79 46 35 48 67 49 47 50 66 51 48 52 51 53 65 54 84 55 49 56
REMARK SMILES IDX 50 57 64 59 85 60 52 61 36 62 37 63 45 64 38 65 40 66 46 67
REMARK SMILES IDX 39 68 41 69 42 70 43 71 44 72 68 73 69 74 77 75 70 76 72 77
REMARK SMILES IDX 78 78 71 79 73 80 74 81 75 82 76 83 53 84 54 85 62 86 55 87
REMARK SMILES IDX 57 88 63 89 56 90 58 91 59 92 60 93 61 94
REMARK H PARENT 19 7 7 16 24 28 83 47 51 58
REMARK Flexibility Score: inf
ROOT
ATOM      1  C   UNL A   1      38.185  19.849  24.995  1.00  0.00     0.023 C 
ENDROOT
BRANCH   1   2
ATOM      2  C   UNL A   1      37.142  20.945  24.742  1.00  0.00     0.023 C 
BRANCH   2   3
ATOM      3  C   UNL A   1      35.687  20.538  24.972  1.00  0.00     0.116 C 
BRANCH   3   4
ATOM      4  N   UNL A   1      34.976  21.502  25.782  1.00  0.00    -0.355 N 
ATOM      5  O   UNL A   1      33.069  20.266  26.159  1.00  0.00    -0.273 OA
ATOM      6  C   UNL A   1      33.732  21.283  26.334  1.00  0.00     0.240 C 
ATOM      7  H   UNL A   1      35.409  22.371  25.949  1.00  0.00     0.163 HD
BRANCH   6   8
ATOM      8  C   UNL A   1      33.238  22.458  27.183  1.00  0.00     0.230 C 
BRANCH   8   9
ATOM      9  N   UNL A   1      32.465  23.480  26.498  1.00  0.00    -0.252 N 
ATOM     10  C   UNL A   1      31.164  23.801  26.706  1.00  0.00     0.325 C 
ATOM     11  C   UNL A   1      33.078  24.498  25.805  1.00  0.00     0.262 C 
ATOM     12  O   UNL A   1      30.366  23.260  27.458  1.00  0.00    -0.248 OA
ATOM     13  N   UNL A   1      30.847  24.914  25.978  1.00  0.00    -0.318 N 
ATOM     14  C   UNL A   1      31.999  25.542  25.370  1.00  0.00     0.158 C 
ATOM     15  O   UNL A   1      34.280  24.570  25.576  1.00  0.00    -0.271 OA
ATOM     16  H   UNL A   1      29.928  25.253  25.878  1.00  0.00     0.166 HD
BRANCH  14  17
ATOM     17  C   UNL A   1      31.812  25.436  23.867  1.00  0.00     0.030 C 
ATOM     18  C   UNL A   1      31.142  26.492  23.021  1.00  0.00     0.007 C 
ATOM     19  C   UNL A   1      32.604  26.178  22.818  1.00  0.00     0.007 C 
ENDBRANCH  14  17
BRANCH  14  20
ATOM     20  C   UNL A   1      32.222  26.830  26.169  1.00  0.00     0.040 A 
ATOM     21  C   UNL A   1      31.270  27.540  26.900  1.00  0.00     0.018 A 
ATOM     22  S   UNL A   1      33.710  27.691  26.201  1.00  0.00    -0.146 S 
ATOM     23  C   UNL A   1      31.765  28.749  27.471  1.00  0.00     0.012 A 
ATOM     24  C   UNL A   1      33.090  28.944  27.169  1.00  0.00     0.065 A 
ENDBRANCH  14  20
ENDBRANCH   8   9
ENDBRANCH   6   8
ENDBRANCH   3   4
ENDBRANCH   2   3
ENDBRANCH   1   2
BRANCH   1  25
ATOM     25  C   UNL A   1      39.368  20.247  25.875  1.00  0.00     0.116 C 
BRANCH  25  26
ATOM     26  N   UNL A   1      40.370  19.198  25.976  1.00  0.00    -0.352 N 
ATOM     27  C   UNL A   1      41.730  19.293  26.167  1.00  0.00     0.251 C 
ATOM     28  H   UNL A   1      40.024  18.280  25.896  1.00  0.00     0.163 HD
ATOM     29  O   UNL A   1      42.425  18.284  26.073  1.00  0.00    -0.269 OA
BRANCH  27  30
ATOM     30  C   UNL A   1      42.365  20.600  26.460  1.00  0.00     0.039 A 
ATOM     31  C   UNL A   1      42.851  21.365  25.395  1.00  0.00     0.014 A 
ATOM     32  C   UNL A   1      42.500  21.068  27.769  1.00  0.00     0.014 A 
ATOM     33  C   UNL A   1      43.406  22.626  25.638  1.00  0.00     0.010 A 
ATOM     34  C   UNL A   1      42.981  22.357  28.001  1.00  0.00     0.010 A 
ATOM     35  C   UNL A   1      43.440  23.152  26.939  1.00  0.00    -0.014 A 
BRANCH  35  36
ATOM     36  C   UNL A   1      43.926  24.533  27.202  1.00  0.00     0.031 A 
ATOM     37  C   UNL A   1      42.988  25.592  27.720  1.00  0.00     0.074 A 
ATOM     38  C   UNL A   1      45.198  24.862  26.895  1.00  0.00     0.049 A 
ATOM     39  N   UNL A   1      43.223  26.858  27.956  1.00  0.00    -0.248 NA
ATOM     40  C   UNL A   1      41.600  25.184  27.986  1.00  0.00     0.031 C 
ATOM     41  C   UNL A   1      46.191  23.951  26.321  1.00  0.00     0.029 A 
ATOM     42  N   UNL A   1      45.868  26.057  26.998  1.00  0.00    -0.354 N 
ATOM     43  C   UNL A   1      42.011  27.404  28.360  1.00  0.00     0.074 A 
ATOM     44  C   UNL A   1      41.033  26.339  28.309  1.00  0.00     0.031 C 
ATOM     45  C   UNL A   1      47.343  24.615  26.132  1.00  0.00     0.029 A 
ATOM     46  C   UNL A   1      47.162  26.007  26.532  1.00  0.00     0.049 A 
ATOM     47  H   UNL A   1      45.461  26.872  27.371  1.00  0.00     0.167 HD
ATOM     48  C   UNL A   1      41.736  28.670  28.757  1.00  0.00     0.034 A 
ATOM     49  C   UNL A   1      48.096  26.973  26.424  1.00  0.00     0.034 A 
ATOM     50  C   UNL A   1      42.716  29.720  28.841  1.00  0.00     0.049 A 
ATOM     51  C   UNL A   1      47.770  28.366  26.894  1.00  0.00     0.074 A 
ATOM     52  C   UNL A   1      42.554  31.009  29.319  1.00  0.00     0.029 A 
ATOM     53  N   UNL A   1      44.033  29.614  28.424  1.00  0.00    -0.354 N 
ATOM     54  N   UNL A   1      46.659  28.821  27.418  1.00  0.00    -0.248 NA
ATOM     55  C   UNL A   1      48.838  29.371  26.787  1.00  0.00     0.031 C 
ATOM     56  C   UNL A   1      43.761  31.694  29.153  1.00  0.00     0.029 A 
ATOM     57  C   UNL A   1      44.689  30.818  28.615  1.00  0.00     0.049 A 
ATOM     58  H   UNL A   1      44.441  28.802  28.048  1.00  0.00     0.167 HD
ATOM     59  C   UNL A   1      46.908  30.151  27.742  1.00  0.00     0.074 A 
ATOM     60  C   UNL A   1      48.280  30.422  27.372  1.00  0.00     0.031 C 
ATOM     61  C   UNL A   1      46.070  31.066  28.288  1.00  0.00     0.034 A 
BRANCH  48  62
ATOM     62  C   UNL A   1      40.321  28.989  29.167  1.00  0.00     0.023 A 
ATOM     63  C   UNL A   1      39.360  29.302  28.184  1.00  0.00     0.012 A 
ATOM     64  C   UNL A   1      39.926  28.907  30.517  1.00  0.00     0.148 A 
ATOM     65  C   UNL A   1      38.037  29.565  28.541  1.00  0.00     0.002 A 
ATOM     66  C   UNL A   1      38.596  29.123  30.860  1.00  0.00     0.091 A 
ATOM     67  F   UNL A   1      40.856  28.624  31.439  1.00  0.00    -0.205 F 
ATOM     68  C   UNL A   1      37.655  29.464  29.876  1.00  0.00     0.022 A 
BRANCH  66  69
ATOM     69  S   UNL A   1      37.985  28.935  32.539  1.00  0.00     0.127 S 
ATOM     70  O   UNL A   1      38.183  27.503  32.765  1.00  0.00    -0.237 OA
ATOM     71  O   UNL A   1      38.889  29.802  33.292  1.00  0.00    -0.237 OA
ATOM     72  O   UNL A   1      36.597  29.374  32.515  1.00  0.00    -0.744 OA
ENDBRANCH  66  69
ENDBRANCH  48  62
BRANCH  49  73
ATOM     73  C   UNL A   1      49.452  26.650  25.894  1.00  0.00     0.023 A 
ATOM     74  C   UNL A   1      50.346  25.902  26.686  1.00  0.00     0.012 A 
ATOM     75  C   UNL A   1      49.856  27.070  24.613  1.00  0.00     0.148 A 
ATOM     76  C   UNL A   1      51.631  25.612  26.226  1.00  0.00     0.002 A 
ATOM     77  C   UNL A   1      51.117  26.728  24.137  1.00  0.00     0.091 A 
ATOM     78  F   UNL A   1      48.994  27.789  23.880  1.00  0.00    -0.205 F 
ATOM     79  C   UNL A   1      52.013  26.017  24.950  1.00  0.00     0.022 A 
BRANCH  77  80
ATOM     80  S   UNL A   1      51.646  27.096  22.462  1.00  0.00     0.127 S 
ATOM     81  O   UNL A   1      51.916  28.529  22.541  1.00  0.00    -0.237 OA
ATOM     82  O   UNL A   1      52.834  26.251  22.330  1.00  0.00    -0.237 OA
ATOM     83  O   UNL A   1      50.536  26.708  21.602  1.00  0.00    -0.744 OA
ENDBRANCH  77  80
ENDBRANCH  49  73
BRANCH  61  84
ATOM     84  C   UNL A   1      46.620  32.441  28.569  1.00  0.00     0.023 A 
ATOM     85  C   UNL A   1      47.180  32.737  29.828  1.00  0.00     0.012 A 
ATOM     86  C   UNL A   1      46.644  33.422  27.557  1.00  0.00     0.148 A 
ATOM     87  C   UNL A   1      47.721  33.997  30.086  1.00  0.00     0.002 A 
ATOM     88  C   UNL A   1      47.233  34.655  27.802  1.00  0.00     0.091 A 
ATOM     89  F   UNL A   1      46.091  33.128  26.371  1.00  0.00    -0.205 F 
ATOM     90  C   UNL A   1      47.759  34.950  29.071  1.00  0.00     0.022 A 
BRANCH  88  91
ATOM     91  S   UNL A   1      47.418  35.908  26.528  1.00  0.00     0.127 S 
ATOM     92  O   UNL A   1      46.025  36.240  26.232  1.00  0.00    -0.237 OA
ATOM     93  O   UNL A   1      48.159  36.955  27.231  1.00  0.00    -0.237 OA
ATOM     94  O   UNL A   1      48.150  35.272  25.441  1.00  0.00    -0.744 OA
ENDBRANCH  88  91
ENDBRANCH  61  84
ENDBRANCH  35  36
ENDBRANCH  27  30
ENDBRANCH  25  26
ENDBRANCH   1  25
TORSDOF 17
ENDMDL
MODEL 3
REMARK VINA RESULT:     -11.8      6.579     11.579
REMARK SMILES O=C(CN1C(=O)N[C@](c2cccs2)(C2CC2)C1=O)NCCCCNC(=O)c1ccc(-c2c3nc(c(-c4cccc(S(=O)(=O)[O-])c4F)c4ccc([nH]4)c(-c4cccc(S(=O)(=O)[O-])c4F)c4nc(c(-c5cccc(S(=O)(=O)[O-])c5F)c5ccc2[nH]5)C=C4)C=C3)cc1
REMARK SMILES IDX 22 1 21 2 20 3 19 4 1 5 2 6 3 8 4 9 5 10 17 11 6 12 7 13
REMARK SMILES IDX 8 14 18 15 14 17 15 18 16 19 9 20 10 21 13 22 11 23 12 24
REMARK SMILES IDX 23 25 24 26 25 27 26 29 27 30 28 31 89 32 29 33 88 34 30 35
REMARK SMILES IDX 31 36 32 37 82 38 33 39 87 40 81 41 83 42 34 43 86 44 80 45
REMARK SMILES IDX 79 46 35 48 67 49 47 50 66 51 48 52 51 53 65 54 84 55 49 56
REMARK SMILES IDX 50 57 64 59 85 60 52 61 36 62 37 63 45 64 38 65 40 66 46 67
REMARK SMILES IDX 39 68 41 69 42 70 43 71 44 72 68 73 69 74 77 75 70 76 72 77
REMARK SMILES IDX 78 78 71 79 73 80 74 81 75 82 76 83 53 84 54 85 62 86 55 87
REMARK SMILES IDX 57 88 63 89 56 90 58 91 59 92 60 93 61 94
REMARK H PARENT 19 7 7 16 24 28 83 47 51 58
REMARK Flexibility Score: inf
ROOT
ATOM      1  C   UNL A   1      37.802  19.873  24.769  1.00  0.00     0.023 C 
ENDROOT
BRANCH   1   2
ATOM      2  C   UNL A   1      36.407  20.437  25.066  1.00  0.00     0.023 C 
BRANCH   2   3
ATOM      3  C   UNL A   1      36.336  21.951  25.270  1.00  0.00     0.116 C 
BRANCH   3   4
ATOM      4  N   UNL A   1      35.097  22.506  24.772  1.00  0.00    -0.355 N 
ATOM      5  O   UNL A   1      35.889  23.319  22.767  1.00  0.00    -0.273 OA
ATOM      6  C   UNL A   1      34.963  23.127  23.547  1.00  0.00     0.240 C 
ATOM      7  H   UNL A   1      34.299  22.438  25.344  1.00  0.00     0.163 HD
BRANCH   6   8
ATOM      8  C   UNL A   1      33.529  23.579  23.259  1.00  0.00     0.230 C 
BRANCH   8   9
ATOM      9  N   UNL A   1      33.254  25.000  23.386  1.00  0.00    -0.252 N 
ATOM     10  C   UNL A   1      33.296  25.935  22.404  1.00  0.00     0.325 C 
ATOM     11  C   UNL A   1      32.554  25.501  24.459  1.00  0.00     0.262 C 
ATOM     12  O   UNL A   1      33.633  25.787  21.239  1.00  0.00    -0.248 OA
ATOM     13  N   UNL A   1      32.825  27.124  22.886  1.00  0.00    -0.318 N 
ATOM     14  C   UNL A   1      32.238  27.011  24.203  1.00  0.00     0.158 C 
ATOM     15  O   UNL A   1      32.228  24.858  25.451  1.00  0.00    -0.271 OA
ATOM     16  H   UNL A   1      32.880  27.971  22.388  1.00  0.00     0.166 HD
BRANCH  14  17
ATOM     17  C   UNL A   1      33.096  27.843  25.138  1.00  0.00     0.030 C 
ATOM     18  C   UNL A   1      32.735  29.232  25.607  1.00  0.00     0.007 C 
ATOM     19  C   UNL A   1      32.826  28.100  26.601  1.00  0.00     0.007 C 
ENDBRANCH  14  17
BRANCH  14  20
ATOM     20  C   UNL A   1      30.728  27.157  23.983  1.00  0.00     0.040 A 
ATOM     21  C   UNL A   1      29.730  26.275  24.396  1.00  0.00     0.018 A 
ATOM     22  S   UNL A   1      30.012  28.423  23.065  1.00  0.00    -0.146 S 
ATOM     23  C   UNL A   1      28.421  26.645  23.971  1.00  0.00     0.012 A 
ATOM     24  C   UNL A   1      28.437  27.807  23.241  1.00  0.00     0.065 A 
ENDBRANCH  14  20
ENDBRANCH   8   9
ENDBRANCH   6   8
ENDBRANCH   3   4
ENDBRANCH   2   3
ENDBRANCH   1   2
BRANCH   1  25
ATOM     25  C   UNL A   1      38.909  20.299  25.728  1.00  0.00     0.116 C 
BRANCH  25  26
ATOM     26  N   UNL A   1      39.947  19.290  25.873  1.00  0.00    -0.352 N 
ATOM     27  C   UNL A   1      41.292  19.436  26.125  1.00  0.00     0.251 C 
ATOM     28  H   UNL A   1      39.640  18.359  25.776  1.00  0.00     0.163 HD
ATOM     29  O   UNL A   1      42.029  18.456  26.060  1.00  0.00    -0.269 OA
BRANCH  27  30
ATOM     30  C   UNL A   1      41.862  20.766  26.448  1.00  0.00     0.039 A 
ATOM     31  C   UNL A   1      42.160  21.642  25.400  1.00  0.00     0.014 A 
ATOM     32  C   UNL A   1      42.119  21.149  27.766  1.00  0.00     0.014 A 
ATOM     33  C   UNL A   1      42.647  22.924  25.679  1.00  0.00     0.010 A 
ATOM     34  C   UNL A   1      42.531  22.452  28.046  1.00  0.00     0.010 A 
ATOM     35  C   UNL A   1      42.800  23.356  27.006  1.00  0.00    -0.014 A 
BRANCH  35  36
ATOM     36  C   UNL A   1      43.214  24.750  27.323  1.00  0.00     0.031 A 
ATOM     37  C   UNL A   1      42.228  25.731  27.901  1.00  0.00     0.074 A 
ATOM     38  C   UNL A   1      44.461  25.162  27.012  1.00  0.00     0.049 A 
ATOM     39  N   UNL A   1      42.397  26.996  28.188  1.00  0.00    -0.248 NA
ATOM     40  C   UNL A   1      40.868  25.235  28.168  1.00  0.00     0.031 C 
ATOM     41  C   UNL A   1      45.493  24.334  26.384  1.00  0.00     0.029 A 
ATOM     42  N   UNL A   1      45.065  26.386  27.158  1.00  0.00    -0.354 N 
ATOM     43  C   UNL A   1      41.163  27.456  28.633  1.00  0.00     0.074 A 
ATOM     44  C   UNL A   1      40.245  26.341  28.549  1.00  0.00     0.031 C 
ATOM     45  C   UNL A   1      46.602  25.068  26.208  1.00  0.00     0.029 A 
ATOM     46  C   UNL A   1      46.352  26.429  26.672  1.00  0.00     0.049 A 
ATOM     47  H   UNL A   1      44.620  27.161  27.572  1.00  0.00     0.167 HD
ATOM     48  C   UNL A   1      40.826  28.687  29.090  1.00  0.00     0.034 A 
ATOM     49  C   UNL A   1      47.229  27.450  26.594  1.00  0.00     0.034 A 
ATOM     50  C   UNL A   1      41.747  29.785  29.206  1.00  0.00     0.049 A 
ATOM     51  C   UNL A   1      46.835  28.800  27.128  1.00  0.00     0.074 A 
ATOM     52  C   UNL A   1      41.522  31.041  29.743  1.00  0.00     0.029 A 
ATOM     53  N   UNL A   1      43.061  29.771  28.766  1.00  0.00    -0.354 N 
ATOM     54  N   UNL A   1      45.710  29.170  27.688  1.00  0.00    -0.248 NA
ATOM     55  C   UNL A   1      47.845  29.867  27.050  1.00  0.00     0.031 C 
ATOM     56  C   UNL A   1      42.687  31.799  29.590  1.00  0.00     0.029 A 
ATOM     57  C   UNL A   1      43.653  31.000  29.000  1.00  0.00     0.049 A 
ATOM     58  H   UNL A   1      43.507  28.999  28.348  1.00  0.00     0.167 HD
ATOM     59  C   UNL A   1      45.890  30.496  28.066  1.00  0.00     0.074 A 
ATOM     60  C   UNL A   1      47.239  30.859  27.689  1.00  0.00     0.031 C 
ATOM     61  C   UNL A   1      45.013  31.339  28.665  1.00  0.00     0.034 A 
BRANCH  48  62
ATOM     62  C   UNL A   1      39.402  28.908  29.534  1.00  0.00     0.023 A 
ATOM     63  C   UNL A   1      39.027  28.611  30.860  1.00  0.00     0.012 A 
ATOM     64  C   UNL A   1      38.455  29.475  28.660  1.00  0.00     0.148 A 
ATOM     65  C   UNL A   1      37.723  28.842  31.299  1.00  0.00     0.002 A 
ATOM     66  C   UNL A   1      37.171  29.748  29.118  1.00  0.00     0.091 A 
ATOM     67  F   UNL A   1      38.824  29.736  27.398  1.00  0.00    -0.205 F 
ATOM     68  C   UNL A   1      36.800  29.419  30.432  1.00  0.00     0.022 A 
BRANCH  66  69
ATOM     69  S   UNL A   1      35.933  30.567  28.106  1.00  0.00     0.127 S 
ATOM     70  O   UNL A   1      36.527  31.893  27.933  1.00  0.00    -0.237 OA
ATOM     71  O   UNL A   1      35.927  29.740  26.900  1.00  0.00    -0.237 OA
ATOM     72  O   UNL A   1      34.696  30.535  28.874  1.00  0.00    -0.744 OA
ENDBRANCH  66  69
ENDBRANCH  48  62
BRANCH  49  73
ATOM     73  C   UNL A   1      48.592  27.225  26.030  1.00  0.00     0.023 A 
ATOM     74  C   UNL A   1      49.617  26.741  26.866  1.00  0.00     0.012 A 
ATOM     75  C   UNL A   1      48.874  27.481  24.675  1.00  0.00     0.148 A 
ATOM     76  C   UNL A   1      50.908  26.552  26.372  1.00  0.00     0.002 A 
ATOM     77  C   UNL A   1      50.148  27.234  24.175  1.00  0.00     0.091 A 
ATOM     78  F   UNL A   1      47.888  27.950  23.898  1.00  0.00    -0.205 F 
ATOM     79  C   UNL A   1      51.171  26.790  25.026  1.00  0.00     0.022 A 
BRANCH  77  80
ATOM     80  S   UNL A   1      50.544  27.390  22.430  1.00  0.00     0.127 S 
ATOM     81  O   UNL A   1      49.504  26.572  21.813  1.00  0.00    -0.237 OA
ATOM     82  O   UNL A   1      50.402  28.831  22.219  1.00  0.00    -0.237 OA
ATOM     83  O   UNL A   1      51.906  26.894  22.288  1.00  0.00    -0.744 OA
ENDBRANCH  77  80
ENDBRANCH  49  73
BRANCH  61  84
ATOM     84  C   UNL A   1      45.490  32.729  28.998  1.00  0.00     0.023 A 
ATOM     85  C   UNL A   1      46.131  32.982  30.228  1.00  0.00     0.012 A 
ATOM     86  C   UNL A   1      45.365  33.772  28.058  1.00  0.00     0.148 A 
ATOM     87  C   UNL A   1      46.606  34.259  30.530  1.00  0.00     0.002 A 
ATOM     88  C   UNL A   1      45.889  35.026  28.344  1.00  0.00     0.091 A 
ATOM     89  F   UNL A   1      44.738  33.516  26.901  1.00  0.00    -0.205 F 
ATOM     90  C   UNL A   1      46.496  35.276  29.585  1.00  0.00     0.022 A 
BRANCH  88  91
ATOM     91  S   UNL A   1      45.884  36.369  27.150  1.00  0.00     0.127 S 
ATOM     92  O   UNL A   1      46.737  37.357  27.810  1.00  0.00    -0.237 OA
ATOM     93  O   UNL A   1      46.481  35.737  25.973  1.00  0.00    -0.237 OA
ATOM     94  O   UNL A   1      44.491  36.759  26.988  1.00  0.00    -0.744 OA
ENDBRANCH  88  91
ENDBRANCH  61  84
ENDBRANCH  35  36
ENDBRANCH  27  30
ENDBRANCH  25  26
ENDBRANCH   1  25
TORSDOF 17
ENDMDL
