MODEL 1
REMARK VINA RESULT:     -12.2      0.000      0.000
REMARK SMILES Cc1ccc(C(=O)[C@@H]2CCC[C@H]2C(=O)NCCCCNC(=O)c2ccc(-c3c4nc(c(-c5cccc(S(=O)(=O)[O-])c5F)c5ccc([nH]5)c(-c5cccc(S(=O)(=O)[O-])c5F)c5nc(c(-c6cccc(S(=O)(=O)[O-])c6F)c6ccc3[nH]6)C=C5)C=C4)cc2)c(C)c1
REMARK SMILES IDX 18 1 17 2 16 3 15 4 13 5 14 6 12 8 8 9 9 10 10 11 11 12 6 13
REMARK SMILES IDX 7 14 5 15 1 16 2 17 3 18 88 19 4 20 86 21 87 22 19 23 20 24
REMARK SMILES IDX 21 25 22 27 23 28 24 29 85 30 25 31 84 32 26 33 27 34 28 35
REMARK SMILES IDX 78 36 29 37 83 38 77 39 79 40 30 41 82 42 76 43 75 44 31 46
REMARK SMILES IDX 63 47 43 48 62 49 44 50 47 51 61 52 80 53 45 54 46 55 60 57
REMARK SMILES IDX 81 58 48 59 32 60 33 61 41 62 34 63 36 64 42 65 35 66 37 67
REMARK SMILES IDX 38 68 39 69 40 70 64 71 65 72 73 73 66 74 68 75 74 76 67 77
REMARK SMILES IDX 69 78 70 79 71 80 72 81 49 82 50 83 58 84 51 85 53 86 59 87
REMARK SMILES IDX 52 88 54 89 55 90 56 91 57 92
REMARK H PARENT 15 7 20 26 79 45 47 56
REMARK Flexibility Score: inf
ROOT
ATOM      1  C   UNL A   1      31.156  32.365  26.461  1.00  0.00     0.023 C 
ENDROOT
BRANCH   1   2
ATOM      2  C   UNL A   1      31.054  31.115  25.585  1.00  0.00     0.023 C 
BRANCH   2   3
ATOM      3  C   UNL A   1      32.041  30.000  25.933  1.00  0.00     0.116 C 
BRANCH   3   4
ATOM      4  N   UNL A   1      33.075  29.861  24.927  1.00  0.00    -0.356 N 
ATOM      5  C   UNL A   1      33.558  28.777  24.273  1.00  0.00     0.223 C 
ATOM      6  O   UNL A   1      34.478  28.963  23.470  1.00  0.00    -0.275 OA
ATOM      7  H   UNL A   1      33.505  30.710  24.673  1.00  0.00     0.163 HD
BRANCH   5   8
ATOM      8  C   UNL A   1      33.005  27.370  24.453  1.00  0.00     0.089 C 
ATOM      9  C   UNL A   1      32.961  26.517  23.185  1.00  0.00     0.073 C 
ATOM     10  C   UNL A   1      33.110  25.077  23.672  1.00  0.00     0.013 C 
ATOM     11  C   UNL A   1      34.000  25.163  24.900  1.00  0.00     0.002 C 
ATOM     12  C   UNL A   1      33.773  26.548  25.500  1.00  0.00     0.014 C 
BRANCH   9  13
ATOM     13  C   UNL A   1      31.773  26.650  22.232  1.00  0.00     0.167 C 
ATOM     14  O   UNL A   1      31.668  25.853  21.295  1.00  0.00    -0.294 OA
BRANCH  13  15
ATOM     15  C   UNL A   1      30.666  27.630  22.439  1.00  0.00     0.021 A 
ATOM     16  C   UNL A   1      27.733  30.661  23.376  1.00  0.00     0.044 C 
ATOM     17  C   UNL A   1      28.735  29.604  23.017  1.00  0.00    -0.051 A 
ATOM     18  C   UNL A   1      29.823  29.902  22.198  1.00  0.00     0.004 A 
ATOM     19  C   UNL A   1      28.613  28.311  23.541  1.00  0.00     0.007 A 
ATOM     20  C   UNL A   1      30.784  28.928  21.923  1.00  0.00     0.012 A 
ATOM     21  C   UNL A   1      29.557  27.308  23.250  1.00  0.00    -0.040 A 
ATOM     22  C   UNL A   1      29.359  25.954  23.879  1.00  0.00     0.045 C 
ENDBRANCH  13  15
ENDBRANCH   9  13
ENDBRANCH   5   8
ENDBRANCH   3   4
ENDBRANCH   2   3
ENDBRANCH   1   2
BRANCH   1  23
ATOM     23  C   UNL A   1      32.465  32.529  27.223  1.00  0.00     0.116 C 
BRANCH  23  24
ATOM     24  N   UNL A   1      32.756  33.912  27.580  1.00  0.00    -0.352 N 
ATOM     25  C   UNL A   1      33.830  34.409  28.279  1.00  0.00     0.251 C 
ATOM     26  H   UNL A   1      32.095  34.578  27.281  1.00  0.00     0.163 HD
ATOM     27  O   UNL A   1      33.882  35.598  28.579  1.00  0.00    -0.269 OA
BRANCH  25  28
ATOM     28  C   UNL A   1      34.903  33.485  28.699  1.00  0.00     0.039 A 
ATOM     29  C   UNL A   1      36.230  33.824  28.427  1.00  0.00     0.014 A 
ATOM     30  C   UNL A   1      34.597  32.325  29.417  1.00  0.00     0.014 A 
ATOM     31  C   UNL A   1      37.261  33.040  28.950  1.00  0.00     0.010 A 
ATOM     32  C   UNL A   1      35.625  31.581  29.986  1.00  0.00     0.010 A 
ATOM     33  C   UNL A   1      36.965  31.939  29.771  1.00  0.00    -0.014 A 
BRANCH  33  34
ATOM     34  C   UNL A   1      38.034  31.171  30.456  1.00  0.00     0.031 A 
ATOM     35  C   UNL A   1      38.415  31.504  31.871  1.00  0.00     0.074 A 
ATOM     36  C   UNL A   1      38.743  30.259  29.760  1.00  0.00     0.049 A 
ATOM     37  N   UNL A   1      39.396  31.030  32.592  1.00  0.00    -0.248 NA
ATOM     38  C   UNL A   1      37.603  32.525  32.555  1.00  0.00     0.031 C 
ATOM     39  C   UNL A   1      38.522  29.909  28.355  1.00  0.00     0.029 A 
ATOM     40  N   UNL A   1      39.819  29.490  30.127  1.00  0.00    -0.354 N 
ATOM     41  C   UNL A   1      39.342  31.714  33.801  1.00  0.00     0.074 A 
ATOM     42  C   UNL A   1      38.250  32.658  33.704  1.00  0.00     0.031 C 
ATOM     43  C   UNL A   1      39.444  29.010  27.975  1.00  0.00     0.029 A 
ATOM     44  C   UNL A   1      40.336  28.738  29.098  1.00  0.00     0.049 A 
ATOM     45  H   UNL A   1      40.187  29.478  31.041  1.00  0.00     0.167 HD
ATOM     46  C   UNL A   1      40.110  31.547  34.903  1.00  0.00     0.034 A 
ATOM     47  C   UNL A   1      41.418  27.936  29.056  1.00  0.00     0.034 A 
ATOM     48  C   UNL A   1      41.164  30.575  35.011  1.00  0.00     0.049 A 
ATOM     49  C   UNL A   1      42.235  27.743  30.304  1.00  0.00     0.074 A 
ATOM     50  C   UNL A   1      41.938  30.267  36.116  1.00  0.00     0.029 A 
ATOM     51  N   UNL A   1      41.595  29.757  33.979  1.00  0.00    -0.354 N 
ATOM     52  N   UNL A   1      42.064  28.276  31.489  1.00  0.00    -0.248 NA
ATOM     53  C   UNL A   1      43.374  26.817  30.221  1.00  0.00     0.031 C 
ATOM     54  C   UNL A   1      42.846  29.268  35.747  1.00  0.00     0.029 A 
ATOM     55  C   UNL A   1      42.631  28.949  34.416  1.00  0.00     0.049 A 
ATOM     56  H   UNL A   1      41.221  29.752  33.068  1.00  0.00     0.167 HD
ATOM     57  C   UNL A   1      43.057  27.734  32.298  1.00  0.00     0.074 A 
ATOM     58  C   UNL A   1      43.808  26.811  31.474  1.00  0.00     0.031 C 
ATOM     59  C   UNL A   1      43.335  27.996  33.598  1.00  0.00     0.034 A 
BRANCH  46  60
ATOM     60  C   UNL A   1      39.786  32.385  36.111  1.00  0.00     0.023 A 
ATOM     61  C   UNL A   1      40.462  33.607  36.298  1.00  0.00     0.012 A 
ATOM     62  C   UNL A   1      38.784  32.001  37.022  1.00  0.00     0.148 A 
ATOM     63  C   UNL A   1      40.167  34.424  37.389  1.00  0.00     0.002 A 
ATOM     64  C   UNL A   1      38.470  32.838  38.088  1.00  0.00     0.091 A 
ATOM     65  F   UNL A   1      38.169  30.824  36.842  1.00  0.00    -0.205 F 
ATOM     66  C   UNL A   1      39.166  34.044  38.277  1.00  0.00     0.022 A 
BRANCH  64  67
ATOM     67  S   UNL A   1      37.148  32.472  39.248  1.00  0.00     0.127 S 
ATOM     68  O   UNL A   1      37.470  31.100  39.640  1.00  0.00    -0.237 OA
ATOM     69  O   UNL A   1      37.368  33.472  40.294  1.00  0.00    -0.237 OA
ATOM     70  O   UNL A   1      35.907  32.636  38.505  1.00  0.00    -0.744 OA
ENDBRANCH  64  67
ENDBRANCH  46  60
BRANCH  47  71
ATOM     71  C   UNL A   1      41.756  27.213  27.797  1.00  0.00     0.023 A 
ATOM     72  C   UNL A   1      42.288  27.933  26.710  1.00  0.00     0.012 A 
ATOM     73  C   UNL A   1      41.592  25.819  27.683  1.00  0.00     0.148 A 
ATOM     74  C   UNL A   1      42.624  27.282  25.523  1.00  0.00     0.002 A 
ATOM     75  C   UNL A   1      41.979  25.169  26.516  1.00  0.00     0.091 A 
ATOM     76  F   UNL A   1      41.067  25.152  28.722  1.00  0.00    -0.205 F 
ATOM     77  C   UNL A   1      42.481  25.900  25.430  1.00  0.00     0.022 A 
BRANCH  75  78
ATOM     78  S   UNL A   1      41.953  23.378  26.369  1.00  0.00     0.127 S 
ATOM     79  O   UNL A   1      42.653  23.171  25.105  1.00  0.00    -0.237 OA
ATOM     80  O   UNL A   1      42.693  22.961  27.560  1.00  0.00    -0.237 OA
ATOM     81  O   UNL A   1      40.542  23.011  26.387  1.00  0.00    -0.744 OA
ENDBRANCH  75  78
ENDBRANCH  47  71
BRANCH  59  82
ATOM     82  C   UNL A   1      44.495  27.270  34.225  1.00  0.00     0.023 A 
ATOM     83  C   UNL A   1      45.775  27.859  34.197  1.00  0.00     0.012 A 
ATOM     84  C   UNL A   1      44.304  26.058  34.918  1.00  0.00     0.148 A 
ATOM     85  C   UNL A   1      46.851  27.244  34.832  1.00  0.00     0.002 A 
ATOM     86  C   UNL A   1      45.373  25.472  35.585  1.00  0.00     0.091 A 
ATOM     87  F   UNL A   1      43.081  25.508  34.917  1.00  0.00    -0.205 F 
ATOM     88  C   UNL A   1      46.648  26.058  35.535  1.00  0.00     0.022 A 
BRANCH  86  89
ATOM     89  S   UNL A   1      45.191  23.993  36.589  1.00  0.00     0.127 S 
ATOM     90  O   UNL A   1      44.448  24.505  37.739  1.00  0.00    -0.237 OA
ATOM     91  O   UNL A   1      44.423  23.113  35.708  1.00  0.00    -0.237 OA
ATOM     92  O   UNL A   1      46.543  23.534  36.875  1.00  0.00    -0.744 OA
ENDBRANCH  86  89
ENDBRANCH  59  82
ENDBRANCH  33  34
ENDBRANCH  25  28
ENDBRANCH  23  24
ENDBRANCH   1  23
TORSDOF 16
ENDMDL
MODEL 2
REMARK VINA RESULT:     -12.2      1.479      2.116
REMARK SMILES Cc1ccc(C(=O)[C@@H]2CCC[C@H]2C(=O)NCCCCNC(=O)c2ccc(-c3c4nc(c(-c5cccc(S(=O)(=O)[O-])c5F)c5ccc([nH]5)c(-c5cccc(S(=O)(=O)[O-])c5F)c5nc(c(-c6cccc(S(=O)(=O)[O-])c6F)c6ccc3[nH]6)C=C5)C=C4)cc2)c(C)c1
REMARK SMILES IDX 18 1 17 2 16 3 15 4 13 5 14 6 12 8 8 9 9 10 10 11 11 12 6 13
REMARK SMILES IDX 7 14 5 15 1 16 2 17 3 18 88 19 4 20 86 21 87 22 19 23 20 24
REMARK SMILES IDX 21 25 22 27 23 28 24 29 85 30 25 31 84 32 26 33 27 34 28 35
REMARK SMILES IDX 78 36 29 37 83 38 77 39 79 40 30 41 82 42 76 43 75 44 31 46
REMARK SMILES IDX 63 47 43 48 62 49 44 50 47 51 61 52 80 53 45 54 46 55 60 57
REMARK SMILES IDX 81 58 48 59 32 60 33 61 41 62 34 63 36 64 42 65 35 66 37 67
REMARK SMILES IDX 38 68 39 69 40 70 64 71 65 72 73 73 66 74 68 75 74 76 67 77
REMARK SMILES IDX 69 78 70 79 71 80 72 81 49 82 50 83 58 84 51 85 53 86 59 87
REMARK SMILES IDX 52 88 54 89 55 90 56 91 57 92
REMARK H PARENT 15 7 20 26 79 45 47 56
REMARK Flexibility Score: inf
ROOT
ATOM      1  C   UNL A   1      31.783  29.273  26.674  1.00  0.00     0.023 C 
ENDROOT
BRANCH   1   2
ATOM      2  C   UNL A   1      32.135  27.895  27.239  1.00  0.00     0.023 C 
BRANCH   2   3
ATOM      3  C   UNL A   1      32.152  26.762  26.213  1.00  0.00     0.116 C 
BRANCH   3   4
ATOM      4  N   UNL A   1      33.475  26.187  26.065  1.00  0.00    -0.356 N 
ATOM      5  C   UNL A   1      33.931  25.151  25.321  1.00  0.00     0.223 C 
ATOM      6  O   UNL A   1      35.129  24.867  25.418  1.00  0.00    -0.275 OA
ATOM      7  H   UNL A   1      34.168  26.631  26.606  1.00  0.00     0.163 HD
BRANCH   5   8
ATOM      8  C   UNL A   1      33.057  24.357  24.360  1.00  0.00     0.089 C 
ATOM      9  C   UNL A   1      33.489  24.402  22.894  1.00  0.00     0.073 C 
ATOM     10  C   UNL A   1      33.021  23.072  22.304  1.00  0.00     0.013 C 
ATOM     11  C   UNL A   1      33.125  22.073  23.443  1.00  0.00     0.002 C 
ATOM     12  C   UNL A   1      32.946  22.870  24.732  1.00  0.00     0.014 C 
BRANCH   9  13
ATOM     13  C   UNL A   1      33.047  25.572  22.017  1.00  0.00     0.167 C 
ATOM     14  O   UNL A   1      33.337  25.562  20.817  1.00  0.00    -0.294 OA
BRANCH  13  15
ATOM     15  C   UNL A   1      32.182  26.684  22.513  1.00  0.00     0.021 A 
ATOM     16  C   UNL A   1      29.541  29.957  23.498  1.00  0.00     0.044 C 
ATOM     17  C   UNL A   1      30.457  28.810  23.193  1.00  0.00    -0.051 A 
ATOM     18  C   UNL A   1      29.950  27.524  23.008  1.00  0.00     0.004 A 
ATOM     19  C   UNL A   1      31.832  29.026  23.041  1.00  0.00     0.007 A 
ATOM     20  C   UNL A   1      30.803  26.475  22.661  1.00  0.00     0.012 A 
ATOM     21  C   UNL A   1      32.710  27.974  22.721  1.00  0.00    -0.040 A 
ATOM     22  C   UNL A   1      34.170  28.306  22.553  1.00  0.00     0.045 C 
ENDBRANCH  13  15
ENDBRANCH   9  13
ENDBRANCH   5   8
ENDBRANCH   3   4
ENDBRANCH   2   3
ENDBRANCH   1   2
BRANCH   1  23
ATOM     23  C   UNL A   1      32.970  30.154  26.304  1.00  0.00     0.116 C 
BRANCH  23  24
ATOM     24  N   UNL A   1      32.860  31.515  26.816  1.00  0.00    -0.352 N 
ATOM     25  C   UNL A   1      33.719  32.189  27.650  1.00  0.00     0.251 C 
ATOM     26  H   UNL A   1      32.064  32.017  26.525  1.00  0.00     0.163 HD
ATOM     27  O   UNL A   1      33.435  33.308  28.066  1.00  0.00    -0.269 OA
BRANCH  25  28
ATOM     28  C   UNL A   1      34.973  31.531  28.073  1.00  0.00     0.039 A 
ATOM     29  C   UNL A   1      36.154  32.276  28.083  1.00  0.00     0.014 A 
ATOM     30  C   UNL A   1      34.962  30.207  28.519  1.00  0.00     0.014 A 
ATOM     31  C   UNL A   1      37.315  31.716  28.623  1.00  0.00     0.010 A 
ATOM     32  C   UNL A   1      36.103  29.674  29.111  1.00  0.00     0.010 A 
ATOM     33  C   UNL A   1      37.285  30.428  29.181  1.00  0.00    -0.014 A 
BRANCH  33  34
ATOM     34  C   UNL A   1      38.459  29.859  29.888  1.00  0.00     0.031 A 
ATOM     35  C   UNL A   1      38.851  30.380  31.241  1.00  0.00     0.074 A 
ATOM     36  C   UNL A   1      39.241  28.962  29.254  1.00  0.00     0.049 A 
ATOM     37  N   UNL A   1      39.906  30.095  31.959  1.00  0.00    -0.248 NA
ATOM     38  C   UNL A   1      37.953  31.371  31.857  1.00  0.00     0.031 C 
ATOM     39  C   UNL A   1      39.011  28.443  27.903  1.00  0.00     0.029 A 
ATOM     40  N   UNL A   1      40.411  28.359  29.644  1.00  0.00    -0.354 N 
ATOM     41  C   UNL A   1      39.819  30.893  33.093  1.00  0.00     0.074 A 
ATOM     42  C   UNL A   1      38.623  31.695  32.955  1.00  0.00     0.031 C 
ATOM     43  C   UNL A   1      40.014  27.616  27.572  1.00  0.00     0.029 A 
ATOM     44  C   UNL A   1      40.972  27.564  28.672  1.00  0.00     0.049 A 
ATOM     45  H   UNL A   1      40.811  28.485  30.535  1.00  0.00     0.167 HD
ATOM     46  C   UNL A   1      40.641  30.929  34.168  1.00  0.00     0.034 A 
ATOM     47  C   UNL A   1      42.137  26.886  28.658  1.00  0.00     0.034 A 
ATOM     48  C   UNL A   1      41.802  30.096  34.322  1.00  0.00     0.049 A 
ATOM     49  C   UNL A   1      43.016  26.917  29.878  1.00  0.00     0.074 A 
ATOM     50  C   UNL A   1      42.647  29.993  35.414  1.00  0.00     0.029 A 
ATOM     51  N   UNL A   1      42.286  29.226  33.358  1.00  0.00    -0.354 N 
ATOM     52  N   UNL A   1      42.829  27.551  31.011  1.00  0.00    -0.248 NA
ATOM     53  C   UNL A   1      44.250  26.119  29.833  1.00  0.00     0.031 C 
ATOM     54  C   UNL A   1      43.649  29.067  35.103  1.00  0.00     0.029 A 
ATOM     55  C   UNL A   1      43.423  28.588  33.823  1.00  0.00     0.049 A 
ATOM     56  H   UNL A   1      41.882  29.083  32.472  1.00  0.00     0.167 HD
ATOM     57  C   UNL A   1      43.907  27.210  31.820  1.00  0.00     0.074 A 
ATOM     58  C   UNL A   1      44.728  26.293  31.058  1.00  0.00     0.031 C 
ATOM     59  C   UNL A   1      44.201  27.637  33.072  1.00  0.00     0.034 A 
BRANCH  46  60
ATOM     60  C   UNL A   1      40.269  31.849  35.299  1.00  0.00     0.023 A 
ATOM     61  C   UNL A   1      40.952  33.073  35.440  1.00  0.00     0.012 A 
ATOM     62  C   UNL A   1      39.215  31.539  36.180  1.00  0.00     0.148 A 
ATOM     63  C   UNL A   1      40.614  33.964  36.458  1.00  0.00     0.002 A 
ATOM     64  C   UNL A   1      38.859  32.448  37.170  1.00  0.00     0.091 A 
ATOM     65  F   UNL A   1      38.592  30.360  36.045  1.00  0.00    -0.205 F 
ATOM     66  C   UNL A   1      39.563  33.656  37.316  1.00  0.00     0.022 A 
BRANCH  64  67
ATOM     67  S   UNL A   1      37.473  32.177  38.281  1.00  0.00     0.127 S 
ATOM     68  O   UNL A   1      37.260  30.737  38.141  1.00  0.00    -0.237 OA
ATOM     69  O   UNL A   1      38.025  32.588  39.572  1.00  0.00    -0.237 OA
ATOM     70  O   UNL A   1      36.394  33.020  37.788  1.00  0.00    -0.744 OA
ENDBRANCH  64  67
ENDBRANCH  46  60
BRANCH  47  71
ATOM     71  C   UNL A   1      42.509  26.075  27.464  1.00  0.00     0.023 A 
ATOM     72  C   UNL A   1      43.287  26.663  26.448  1.00  0.00     0.012 A 
ATOM     73  C   UNL A   1      42.132  24.724  27.346  1.00  0.00     0.148 A 
ATOM     74  C   UNL A   1      43.661  25.926  25.323  1.00  0.00     0.002 A 
ATOM     75  C   UNL A   1      42.552  23.981  26.248  1.00  0.00     0.091 A 
ATOM     76  F   UNL A   1      41.375  24.187  28.314  1.00  0.00    -0.205 F 
ATOM     77  C   UNL A   1      43.303  24.583  25.228  1.00  0.00     0.022 A 
BRANCH  75  78
ATOM     78  S   UNL A   1      42.249  22.214  26.121  1.00  0.00     0.127 S 
ATOM     79  O   UNL A   1      42.783  21.726  27.389  1.00  0.00    -0.237 OA
ATOM     80  O   UNL A   1      40.792  22.160  26.003  1.00  0.00    -0.237 OA
ATOM     81  O   UNL A   1      42.959  21.788  24.921  1.00  0.00    -0.744 OA
ENDBRANCH  75  78
ENDBRANCH  47  71
BRANCH  59  82
ATOM     82  C   UNL A   1      45.459  27.113  33.712  1.00  0.00     0.023 A 
ATOM     83  C   UNL A   1      46.623  27.906  33.697  1.00  0.00     0.012 A 
ATOM     84  C   UNL A   1      45.464  25.886  34.404  1.00  0.00     0.148 A 
ATOM     85  C   UNL A   1      47.780  27.478  34.344  1.00  0.00     0.002 A 
ATOM     86  C   UNL A   1      46.609  25.485  35.083  1.00  0.00     0.091 A 
ATOM     87  F   UNL A   1      44.350  25.140  34.391  1.00  0.00    -0.205 F 
ATOM     88  C   UNL A   1      47.769  26.275  35.047  1.00  0.00     0.022 A 
BRANCH  86  89
ATOM     89  S   UNL A   1      46.665  23.996  36.087  1.00  0.00     0.127 S 
ATOM     90  O   UNL A   1      46.487  22.951  35.080  1.00  0.00    -0.237 OA
ATOM     91  O   UNL A   1      48.007  24.062  36.665  1.00  0.00    -0.237 OA
ATOM     92  O   UNL A   1      45.583  24.122  37.053  1.00  0.00    -0.744 OA
ENDBRANCH  86  89
ENDBRANCH  59  82
ENDBRANCH  33  34
ENDBRANCH  25  28
ENDBRANCH  23  24
ENDBRANCH   1  23
TORSDOF 16
ENDMDL
MODEL 3
REMARK VINA RESULT:     -12.0      1.462      7.807
REMARK SMILES Cc1ccc(C(=O)[C@@H]2CCC[C@H]2C(=O)NCCCCNC(=O)c2ccc(-c3c4nc(c(-c5cccc(S(=O)(=O)[O-])c5F)c5ccc([nH]5)c(-c5cccc(S(=O)(=O)[O-])c5F)c5nc(c(-c6cccc(S(=O)(=O)[O-])c6F)c6ccc3[nH]6)C=C5)C=C4)cc2)c(C)c1
REMARK SMILES IDX 18 1 17 2 16 3 15 4 13 5 14 6 12 8 8 9 9 10 10 11 11 12 6 13
REMARK SMILES IDX 7 14 5 15 1 16 2 17 3 18 88 19 4 20 86 21 87 22 19 23 20 24
REMARK SMILES IDX 21 25 22 27 23 28 24 29 85 30 25 31 84 32 26 33 27 34 28 35
REMARK SMILES IDX 78 36 29 37 83 38 77 39 79 40 30 41 82 42 76 43 75 44 31 46
REMARK SMILES IDX 63 47 43 48 62 49 44 50 47 51 61 52 80 53 45 54 46 55 60 57
REMARK SMILES IDX 81 58 48 59 32 60 33 61 41 62 34 63 36 64 42 65 35 66 37 67
REMARK SMILES IDX 38 68 39 69 40 70 64 71 65 72 73 73 66 74 68 75 74 76 67 77
REMARK SMILES IDX 69 78 70 79 71 80 72 81 49 82 50 83 58 84 51 85 53 86 59 87
REMARK SMILES IDX 52 88 54 89 55 90 56 91 57 92
REMARK H PARENT 15 7 20 26 79 45 47 56
REMARK Flexibility Score: inf
ROOT
ATOM      1  C   UNL A   1      32.335  28.728  27.214  1.00  0.00     0.023 C 
ENDROOT
BRANCH   1   2
ATOM      2  C   UNL A   1      31.431  27.802  26.398  1.00  0.00     0.023 C 
BRANCH   2   3
ATOM      3  C   UNL A   1      31.749  26.313  26.523  1.00  0.00     0.116 C 
BRANCH   3   4
ATOM      4  N   UNL A   1      33.138  26.030  26.217  1.00  0.00    -0.356 N 
ATOM      5  C   UNL A   1      33.712  25.236  25.281  1.00  0.00     0.223 C 
ATOM      6  O   UNL A   1      34.946  25.171  25.272  1.00  0.00    -0.275 OA
ATOM      7  H   UNL A   1      33.781  26.502  26.794  1.00  0.00     0.163 HD
BRANCH   5   8
ATOM      8  C   UNL A   1      32.922  24.460  24.236  1.00  0.00     0.089 C 
ATOM      9  C   UNL A   1      33.437  24.584  22.802  1.00  0.00     0.073 C 
ATOM     10  C   UNL A   1      33.047  23.269  22.128  1.00  0.00     0.013 C 
ATOM     11  C   UNL A   1      33.117  22.223  23.227  1.00  0.00     0.002 C 
ATOM     12  C   UNL A   1      32.837  22.956  24.536  1.00  0.00     0.014 C 
BRANCH   9  13
ATOM     13  C   UNL A   1      33.009  25.779  21.952  1.00  0.00     0.167 C 
ATOM     14  O   UNL A   1      33.318  25.803  20.757  1.00  0.00    -0.294 OA
BRANCH  13  15
ATOM     15  C   UNL A   1      32.137  26.877  22.466  1.00  0.00     0.021 A 
ATOM     16  C   UNL A   1      29.502  30.141  23.499  1.00  0.00     0.044 C 
ATOM     17  C   UNL A   1      30.413  28.994  23.176  1.00  0.00    -0.051 A 
ATOM     18  C   UNL A   1      29.895  27.734  22.881  1.00  0.00     0.004 A 
ATOM     19  C   UNL A   1      31.798  29.189  23.119  1.00  0.00     0.007 A 
ATOM     20  C   UNL A   1      30.748  26.690  22.519  1.00  0.00     0.012 A 
ATOM     21  C   UNL A   1      32.675  28.140  22.784  1.00  0.00    -0.040 A 
ATOM     22  C   UNL A   1      34.148  28.450  22.724  1.00  0.00     0.045 C 
ENDBRANCH  13  15
ENDBRANCH   9  13
ENDBRANCH   5   8
ENDBRANCH   3   4
ENDBRANCH   2   3
ENDBRANCH   1   2
BRANCH   1  23
ATOM     23  C   UNL A   1      33.100  29.774  26.412  1.00  0.00     0.116 C 
BRANCH  23  24
ATOM     24  N   UNL A   1      32.848  31.139  26.855  1.00  0.00    -0.352 N 
ATOM     25  C   UNL A   1      33.650  31.955  27.617  1.00  0.00     0.251 C 
ATOM     26  H   UNL A   1      31.989  31.528  26.571  1.00  0.00     0.163 HD
ATOM     27  O   UNL A   1      33.250  33.056  27.984  1.00  0.00    -0.269 OA
BRANCH  25  28
ATOM     28  C   UNL A   1      34.987  31.473  28.021  1.00  0.00     0.039 A 
ATOM     29  C   UNL A   1      36.069  32.353  27.956  1.00  0.00     0.014 A 
ATOM     30  C   UNL A   1      35.150  30.179  28.525  1.00  0.00     0.014 A 
ATOM     31  C   UNL A   1      37.305  31.962  28.476  1.00  0.00     0.010 A 
ATOM     32  C   UNL A   1      36.365  29.815  29.096  1.00  0.00     0.010 A 
ATOM     33  C   UNL A   1      37.449  30.707  29.090  1.00  0.00    -0.014 A 
BRANCH  33  34
ATOM     34  C   UNL A   1      38.705  30.317  29.777  1.00  0.00     0.031 A 
ATOM     35  C   UNL A   1      39.599  29.270  29.179  1.00  0.00     0.074 A 
ATOM     36  C   UNL A   1      38.973  30.821  31.000  1.00  0.00     0.049 A 
ATOM     37  N   UNL A   1      40.669  28.714  29.685  1.00  0.00    -0.248 NA
ATOM     38  C   UNL A   1      39.226  28.758  27.849  1.00  0.00     0.031 C 
ATOM     39  C   UNL A   1      38.136  31.782  31.721  1.00  0.00     0.029 A 
ATOM     40  N   UNL A   1      40.003  30.561  31.869  1.00  0.00    -0.354 N 
ATOM     41  C   UNL A   1      41.080  27.768  28.754  1.00  0.00     0.074 A 
ATOM     42  C   UNL A   1      40.127  27.802  27.666  1.00  0.00     0.031 C 
ATOM     43  C   UNL A   1      38.676  32.017  32.927  1.00  0.00     0.029 A 
ATOM     44  C   UNL A   1      39.880  31.206  33.077  1.00  0.00     0.049 A 
ATOM     45  H   UNL A   1      40.758  29.968  31.649  1.00  0.00     0.167 HD
ATOM     46  C   UNL A   1      42.171  26.966  28.786  1.00  0.00     0.034 A 
ATOM     47  C   UNL A   1      40.639  31.139  34.189  1.00  0.00     0.034 A 
ATOM     48  C   UNL A   1      43.141  26.969  29.847  1.00  0.00     0.049 A 
ATOM     49  C   UNL A   1      41.863  30.265  34.187  1.00  0.00     0.074 A 
ATOM     50  C   UNL A   1      44.327  26.260  29.928  1.00  0.00     0.029 A 
ATOM     51  N   UNL A   1      43.037  27.712  31.013  1.00  0.00    -0.354 N 
ATOM     52  N   UNL A   1      42.327  29.501  33.227  1.00  0.00    -0.248 NA
ATOM     53  C   UNL A   1      42.687  30.266  35.404  1.00  0.00     0.031 C 
ATOM     54  C   UNL A   1      44.936  26.568  31.150  1.00  0.00     0.029 A 
ATOM     55  C   UNL A   1      44.133  27.474  31.825  1.00  0.00     0.049 A 
ATOM     56  H   UNL A   1      42.294  28.318  31.232  1.00  0.00     0.167 HD
ATOM     57  C   UNL A   1      43.506  28.949  33.716  1.00  0.00     0.074 A 
ATOM     58  C   UNL A   1      43.700  29.488  35.045  1.00  0.00     0.031 C 
ATOM     59  C   UNL A   1      44.339  28.058  33.125  1.00  0.00     0.034 A 
BRANCH  46  60
ATOM     60  C   UNL A   1      42.414  26.073  27.600  1.00  0.00     0.023 A 
ATOM     61  C   UNL A   1      43.113  26.584  26.489  1.00  0.00     0.012 A 
ATOM     62  C   UNL A   1      42.011  24.724  27.604  1.00  0.00     0.148 A 
ATOM     63  C   UNL A   1      43.383  25.777  25.385  1.00  0.00     0.002 A 
ATOM     64  C   UNL A   1      42.316  23.914  26.515  1.00  0.00     0.091 A 
ATOM     65  F   UNL A   1      41.327  24.261  28.660  1.00  0.00    -0.205 F 
ATOM     66  C   UNL A   1      42.993  24.441  25.402  1.00  0.00     0.022 A 
BRANCH  64  67
ATOM     67  S   UNL A   1      41.919  22.162  26.469  1.00  0.00     0.127 S 
ATOM     68  O   UNL A   1      42.505  21.694  27.725  1.00  0.00    -0.237 OA
ATOM     69  O   UNL A   1      40.456  22.176  26.448  1.00  0.00    -0.237 OA
ATOM     70  O   UNL A   1      42.538  21.644  25.258  1.00  0.00    -0.744 OA
ENDBRANCH  64  67
ENDBRANCH  46  60
BRANCH  47  71
ATOM     71  C   UNL A   1      40.288  31.966  35.379  1.00  0.00     0.023 A 
ATOM     72  C   UNL A   1      40.998  33.157  35.623  1.00  0.00     0.012 A 
ATOM     73  C   UNL A   1      39.238  31.601  36.243  1.00  0.00     0.148 A 
ATOM     74  C   UNL A   1      40.685  33.958  36.722  1.00  0.00     0.002 A 
ATOM     75  C   UNL A   1      38.896  32.432  37.306  1.00  0.00     0.091 A 
ATOM     76  F   UNL A   1      38.586  30.454  36.006  1.00  0.00    -0.205 F 
ATOM     77  C   UNL A   1      39.627  33.602  37.556  1.00  0.00     0.022 A 
BRANCH  75  78
ATOM     78  S   UNL A   1      37.463  32.112  38.342  1.00  0.00     0.127 S 
ATOM     79  O   UNL A   1      36.445  32.945  37.709  1.00  0.00    -0.237 OA
ATOM     80  O   UNL A   1      37.276  30.671  38.172  1.00  0.00    -0.237 OA
ATOM     81  O   UNL A   1      37.866  32.505  39.687  1.00  0.00    -0.744 OA
ENDBRANCH  75  78
ENDBRANCH  47  71
BRANCH  59  82
ATOM     82  C   UNL A   1      45.548  27.611  33.901  1.00  0.00     0.023 A 
ATOM     83  C   UNL A   1      46.730  28.376  33.840  1.00  0.00     0.012 A 
ATOM     84  C   UNL A   1      45.488  26.494  34.758  1.00  0.00     0.148 A 
ATOM     85  C   UNL A   1      47.840  28.026  34.605  1.00  0.00     0.002 A 
ATOM     86  C   UNL A   1      46.585  26.175  35.549  1.00  0.00     0.091 A 
ATOM     87  F   UNL A   1      44.359  25.771  34.786  1.00  0.00    -0.205 F 
ATOM     88  C   UNL A   1      47.764  26.934  35.468  1.00  0.00     0.022 A 
BRANCH  86  89
ATOM     89  S   UNL A   1      46.553  24.842  36.753  1.00  0.00     0.127 S 
ATOM     90  O   UNL A   1      47.897  24.923  37.322  1.00  0.00    -0.237 OA
ATOM     91  O   UNL A   1      45.482  25.264  37.655  1.00  0.00    -0.237 OA
ATOM     92  O   UNL A   1      46.268  23.628  36.000  1.00  0.00    -0.744 OA
ENDBRANCH  86  89
ENDBRANCH  59  82
ENDBRANCH  33  34
ENDBRANCH  25  28
ENDBRANCH  23  24
ENDBRANCH   1  23
TORSDOF 16
ENDMDL
