MODEL 1
REMARK VINA RESULT:     -11.7      0.000      0.000
REMARK SMILES O=C(NCCCCNC(=O)[C@H]1C[C@H]1c1ccc(C2CC2)cc1)c1ccc(-c2c3nc(c(-c4cccc(S(=O)(=O)[O-])c4F)c4ccc([nH]4)c(-c4cccc(S(=O)(=O)[O-])c4F)c4nc(c(-c5cccc(S(=O)(=O)[O-])c5F)c5ccc2[nH]5)C=C4)C=C3)cc1
REMARK SMILES IDX 5 1 4 2 3 3 1 4 2 5 23 7 24 8 85 9 25 10 84 11 26 12 27 13
REMARK SMILES IDX 28 14 78 15 29 16 83 17 77 18 79 19 30 20 82 21 76 22 75 23
REMARK SMILES IDX 31 25 63 26 43 27 62 28 44 29 47 30 61 31 80 32 45 33 46 34
REMARK SMILES IDX 60 36 81 37 48 38 32 39 33 40 41 41 34 42 36 43 42 44 35 45
REMARK SMILES IDX 37 46 38 47 39 48 40 49 64 50 65 51 73 52 66 53 68 54 74 55
REMARK SMILES IDX 67 56 69 57 70 58 71 59 72 60 49 61 50 62 58 63 51 64 53 65
REMARK SMILES IDX 59 66 52 67 54 68 55 69 56 70 57 71 6 72 7 73 8 74 9 75
REMARK SMILES IDX 10 77 11 78 12 79 13 80 14 81 15 82 22 83 16 84 21 85 17 86
REMARK SMILES IDX 18 87 19 88 20 89
REMARK H PARENT 3 6 79 24 47 35 8 76
REMARK Flexibility Score: inf
ROOT
ATOM      1  C   UNL A   1      31.474  28.858  26.050  1.00  0.00     0.023 C 
ENDROOT
BRANCH   1   2
ATOM      2  C   UNL A   1      32.573  29.875  25.770  1.00  0.00     0.116 C 
BRANCH   2   3
ATOM      3  N   UNL A   1      32.232  31.225  26.194  1.00  0.00    -0.352 N 
ATOM      4  O   UNL A   1      32.369  33.103  27.435  1.00  0.00    -0.269 OA
ATOM      5  C   UNL A   1      32.875  32.035  27.104  1.00  0.00     0.251 C 
ATOM      6  H   UNL A   1      31.430  31.613  25.773  1.00  0.00     0.163 HD
BRANCH   5   7
ATOM      7  C   UNL A   1      34.152  31.589  27.703  1.00  0.00     0.039 A 
ATOM      8  C   UNL A   1      34.358  30.242  28.005  1.00  0.00     0.014 A 
ATOM      9  C   UNL A   1      35.140  32.532  28.001  1.00  0.00     0.014 A 
ATOM     10  C   UNL A   1      35.458  29.866  28.764  1.00  0.00     0.010 A 
ATOM     11  C   UNL A   1      36.300  32.131  28.671  1.00  0.00     0.010 A 
ATOM     12  C   UNL A   1      36.450  30.803  29.098  1.00  0.00    -0.014 A 
BRANCH  12  13
ATOM     13  C   UNL A   1      37.659  30.343  29.832  1.00  0.00     0.031 A 
ATOM     14  C   UNL A   1      38.656  29.406  29.204  1.00  0.00     0.074 A 
ATOM     15  C   UNL A   1      37.862  30.802  31.083  1.00  0.00     0.049 A 
ATOM     16  N   UNL A   1      39.779  28.950  29.700  1.00  0.00    -0.248 NA
ATOM     17  C   UNL A   1      38.355  28.907  27.853  1.00  0.00     0.031 C 
ATOM     18  C   UNL A   1      36.948  31.685  31.813  1.00  0.00     0.029 A 
ATOM     19  N   UNL A   1      38.895  30.599  31.962  1.00  0.00    -0.354 N 
ATOM     20  C   UNL A   1      40.299  28.084  28.746  1.00  0.00     0.074 A 
ATOM     21  C   UNL A   1      39.362  28.068  27.643  1.00  0.00     0.031 C 
ATOM     22  C   UNL A   1      37.475  31.977  33.009  1.00  0.00     0.029 A 
ATOM     23  C   UNL A   1      38.731  31.252  33.160  1.00  0.00     0.049 A 
ATOM     24  H   UNL A   1      39.678  30.039  31.753  1.00  0.00     0.167 HD
ATOM     25  C   UNL A   1      41.456  27.376  28.780  1.00  0.00     0.034 A 
ATOM     26  C   UNL A   1      39.493  31.255  34.270  1.00  0.00     0.034 A 
ATOM     27  C   UNL A   1      42.394  27.414  29.874  1.00  0.00     0.049 A 
ATOM     28  C   UNL A   1      40.767  30.463  34.277  1.00  0.00     0.074 A 
ATOM     29  C   UNL A   1      43.621  26.783  29.975  1.00  0.00     0.029 A 
ATOM     30  N   UNL A   1      42.205  28.107  31.060  1.00  0.00    -0.354 N 
ATOM     31  N   UNL A   1      41.301  29.751  33.315  1.00  0.00    -0.248 NA
ATOM     32  C   UNL A   1      41.559  30.498  35.514  1.00  0.00     0.031 C 
ATOM     33  C   UNL A   1      44.156  27.062  31.238  1.00  0.00     0.029 A 
ATOM     34  C   UNL A   1      43.283  27.905  31.907  1.00  0.00     0.049 A 
ATOM     35  H   UNL A   1      41.419  28.661  31.270  1.00  0.00     0.167 HD
ATOM     36  C   UNL A   1      42.508  29.279  33.817  1.00  0.00     0.074 A 
ATOM     37  C   UNL A   1      42.636  29.810  35.160  1.00  0.00     0.031 C 
ATOM     38  C   UNL A   1      43.420  28.472  33.224  1.00  0.00     0.034 A 
BRANCH  25  39
ATOM     39  C   UNL A   1      41.788  26.508  27.591  1.00  0.00     0.023 A 
ATOM     40  C   UNL A   1      42.440  27.067  26.473  1.00  0.00     0.012 A 
ATOM     41  C   UNL A   1      41.515  25.124  27.608  1.00  0.00     0.148 A 
ATOM     42  C   UNL A   1      42.780  26.274  25.377  1.00  0.00     0.002 A 
ATOM     43  C   UNL A   1      41.898  24.332  26.532  1.00  0.00     0.091 A 
ATOM     44  F   UNL A   1      40.881  24.611  28.671  1.00  0.00    -0.205 F 
ATOM     45  C   UNL A   1      42.519  24.906  25.410  1.00  0.00     0.022 A 
BRANCH  43  46
ATOM     46  S   UNL A   1      41.681  22.548  26.513  1.00  0.00     0.127 S 
ATOM     47  O   UNL A   1      40.225  22.429  26.482  1.00  0.00    -0.237 OA
ATOM     48  O   UNL A   1      42.350  22.169  25.269  1.00  0.00    -0.237 OA
ATOM     49  O   UNL A   1      42.323  22.053  27.723  1.00  0.00    -0.744 OA
ENDBRANCH  43  46
ENDBRANCH  25  39
BRANCH  26  50
ATOM     50  C   UNL A   1      39.081  32.064  35.450  1.00  0.00     0.023 A 
ATOM     51  C   UNL A   1      38.186  31.518  36.390  1.00  0.00     0.012 A 
ATOM     52  C   UNL A   1      39.597  33.358  35.662  1.00  0.00     0.148 A 
ATOM     53  C   UNL A   1      37.787  32.257  37.503  1.00  0.00     0.002 A 
ATOM     54  C   UNL A   1      39.245  34.065  36.805  1.00  0.00     0.091 A 
ATOM     55  F   UNL A   1      40.441  33.862  34.752  1.00  0.00    -0.205 F 
ATOM     56  C   UNL A   1      38.324  33.524  37.716  1.00  0.00     0.022 A 
BRANCH  54  57
ATOM     57  S   UNL A   1      39.992  35.640  37.230  1.00  0.00     0.127 S 
ATOM     58  O   UNL A   1      39.653  36.455  36.067  1.00  0.00    -0.237 OA
ATOM     59  O   UNL A   1      39.278  35.991  38.458  1.00  0.00    -0.237 OA
ATOM     60  O   UNL A   1      41.410  35.365  37.418  1.00  0.00    -0.744 OA
ENDBRANCH  54  57
ENDBRANCH  26  50
BRANCH  38  61
ATOM     61  C   UNL A   1      44.666  28.144  34.007  1.00  0.00     0.023 A 
ATOM     62  C   UNL A   1      45.797  28.982  33.921  1.00  0.00     0.012 A 
ATOM     63  C   UNL A   1      44.698  27.028  34.866  1.00  0.00     0.148 A 
ATOM     64  C   UNL A   1      46.952  28.690  34.645  1.00  0.00     0.002 A 
ATOM     65  C   UNL A   1      45.833  26.774  35.626  1.00  0.00     0.091 A 
ATOM     66  F   UNL A   1      43.620  26.232  34.919  1.00  0.00    -0.205 F 
ATOM     67  C   UNL A   1      46.966  27.594  35.505  1.00  0.00     0.022 A 
BRANCH  65  68
ATOM     68  S   UNL A   1      45.906  25.446  36.832  1.00  0.00     0.127 S 
ATOM     69  O   UNL A   1      45.885  24.263  35.974  1.00  0.00    -0.237 OA
ATOM     70  O   UNL A   1      47.187  25.699  37.492  1.00  0.00    -0.237 OA
ATOM     71  O   UNL A   1      44.741  25.617  37.690  1.00  0.00    -0.744 OA
ENDBRANCH  65  68
ENDBRANCH  38  61
ENDBRANCH  12  13
ENDBRANCH   5   7
ENDBRANCH   2   3
ENDBRANCH   1   2
BRANCH   1  72
ATOM     72  C   UNL A   1      31.830  27.783  27.077  1.00  0.00     0.023 C 
BRANCH  72  73
ATOM     73  C   UNL A   1      32.302  26.462  26.473  1.00  0.00     0.116 C 
BRANCH  73  74
ATOM     74  N   UNL A   1      31.401  25.366  26.783  1.00  0.00    -0.356 N 
ATOM     75  C   UNL A   1      31.034  24.324  25.968  1.00  0.00     0.223 C 
ATOM     76  H   UNL A   1      31.005  25.371  27.684  1.00  0.00     0.163 HD
ATOM     77  O   UNL A   1      30.232  23.480  26.351  1.00  0.00    -0.275 OA
BRANCH  75  78
ATOM     78  C   UNL A   1      31.653  24.283  24.623  1.00  0.00     0.086 C 
ATOM     79  C   UNL A   1      30.783  23.752  23.502  1.00  0.00     0.023 C 
ATOM     80  C   UNL A   1      31.348  25.142  23.418  1.00  0.00     0.032 C 
BRANCH  80  81
ATOM     81  C   UNL A   1      30.454  26.353  23.410  1.00  0.00    -0.044 A 
ATOM     82  C   UNL A   1      29.136  26.295  23.878  1.00  0.00     0.004 A 
ATOM     83  C   UNL A   1      30.854  27.551  22.806  1.00  0.00     0.004 A 
ATOM     84  C   UNL A   1      28.258  27.380  23.736  1.00  0.00     0.004 A 
ATOM     85  C   UNL A   1      29.977  28.636  22.667  1.00  0.00     0.004 A 
ATOM     86  C   UNL A   1      28.651  28.579  23.120  1.00  0.00    -0.045 A 
BRANCH  86  87
ATOM     87  C   UNL A   1      27.653  29.711  22.976  1.00  0.00     0.019 C 
ATOM     88  C   UNL A   1      27.891  31.105  23.501  1.00  0.00     0.009 C 
ATOM     89  C   UNL A   1      27.958  30.846  22.025  1.00  0.00     0.009 C 
ENDBRANCH  86  87
ENDBRANCH  80  81
ENDBRANCH  75  78
ENDBRANCH  73  74
ENDBRANCH  72  73
ENDBRANCH   1  72
TORSDOF 16
ENDMDL
MODEL 2
REMARK VINA RESULT:     -11.6      0.532      7.946
REMARK SMILES O=C(NCCCCNC(=O)[C@H]1C[C@H]1c1ccc(C2CC2)cc1)c1ccc(-c2c3nc(c(-c4cccc(S(=O)(=O)[O-])c4F)c4ccc([nH]4)c(-c4cccc(S(=O)(=O)[O-])c4F)c4nc(c(-c5cccc(S(=O)(=O)[O-])c5F)c5ccc2[nH]5)C=C4)C=C3)cc1
REMARK SMILES IDX 5 1 4 2 3 3 1 4 2 5 23 7 24 8 85 9 25 10 84 11 26 12 27 13
REMARK SMILES IDX 28 14 78 15 29 16 83 17 77 18 79 19 30 20 82 21 76 22 75 23
REMARK SMILES IDX 31 25 63 26 43 27 62 28 44 29 47 30 61 31 80 32 45 33 46 34
REMARK SMILES IDX 60 36 81 37 48 38 32 39 33 40 41 41 34 42 36 43 42 44 35 45
REMARK SMILES IDX 37 46 38 47 39 48 40 49 64 50 65 51 73 52 66 53 68 54 74 55
REMARK SMILES IDX 67 56 69 57 70 58 71 59 72 60 49 61 50 62 58 63 51 64 53 65
REMARK SMILES IDX 59 66 52 67 54 68 55 69 56 70 57 71 6 72 7 73 8 74 9 75
REMARK SMILES IDX 10 77 11 78 12 79 13 80 14 81 15 82 22 83 16 84 21 85 17 86
REMARK SMILES IDX 18 87 19 88 20 89
REMARK H PARENT 3 6 79 24 47 35 8 76
REMARK Flexibility Score: inf
ROOT
ATOM      1  C   UNL A   1      31.669  28.991  25.983  1.00  0.00     0.023 C 
ENDROOT
BRANCH   1   2
ATOM      2  C   UNL A   1      32.858  29.942  25.915  1.00  0.00     0.116 C 
BRANCH   2   3
ATOM      3  N   UNL A   1      32.538  31.297  26.339  1.00  0.00    -0.352 N 
ATOM      4  O   UNL A   1      32.716  33.179  27.570  1.00  0.00    -0.269 OA
ATOM      5  C   UNL A   1      33.205  32.104  27.235  1.00  0.00     0.251 C 
ATOM      6  H   UNL A   1      31.733  31.691  25.931  1.00  0.00     0.163 HD
BRANCH   5   7
ATOM      7  C   UNL A   1      34.488  31.647  27.813  1.00  0.00     0.039 A 
ATOM      8  C   UNL A   1      34.630  30.336  28.268  1.00  0.00     0.014 A 
ATOM      9  C   UNL A   1      35.549  32.549  27.936  1.00  0.00     0.014 A 
ATOM     10  C   UNL A   1      35.751  29.980  29.006  1.00  0.00     0.010 A 
ATOM     11  C   UNL A   1      36.723  32.155  28.585  1.00  0.00     0.010 A 
ATOM     12  C   UNL A   1      36.818  30.880  29.165  1.00  0.00    -0.014 A 
BRANCH  12  13
ATOM     13  C   UNL A   1      38.041  30.431  29.883  1.00  0.00     0.031 A 
ATOM     14  C   UNL A   1      38.355  30.902  31.278  1.00  0.00     0.074 A 
ATOM     15  C   UNL A   1      38.868  29.568  29.261  1.00  0.00     0.049 A 
ATOM     16  N   UNL A   1      39.357  30.566  32.051  1.00  0.00    -0.248 NA
ATOM     17  C   UNL A   1      37.436  31.877  31.885  1.00  0.00     0.031 C 
ATOM     18  C   UNL A   1      38.691  29.070  27.894  1.00  0.00     0.029 A 
ATOM     19  N   UNL A   1      40.016  28.952  29.690  1.00  0.00    -0.354 N 
ATOM     20  C   UNL A   1      39.216  31.314  33.214  1.00  0.00     0.074 A 
ATOM     21  C   UNL A   1      38.034  32.131  33.042  1.00  0.00     0.031 C 
ATOM     22  C   UNL A   1      39.669  28.200  27.610  1.00  0.00     0.029 A 
ATOM     23  C   UNL A   1      40.579  28.127  28.746  1.00  0.00     0.049 A 
ATOM     24  H   UNL A   1      40.399  29.088  30.586  1.00  0.00     0.167 HD
ATOM     25  C   UNL A   1      39.993  31.312  34.326  1.00  0.00     0.034 A 
ATOM     26  C   UNL A   1      41.714  27.404  28.776  1.00  0.00     0.034 A 
ATOM     27  C   UNL A   1      41.156  30.479  34.497  1.00  0.00     0.049 A 
ATOM     28  C   UNL A   1      42.551  27.420  30.021  1.00  0.00     0.074 A 
ATOM     29  C   UNL A   1      41.971  30.359  35.609  1.00  0.00     0.029 A 
ATOM     30  N   UNL A   1      41.681  29.637  33.528  1.00  0.00    -0.354 N 
ATOM     31  N   UNL A   1      42.330  28.039  31.156  1.00  0.00    -0.248 NA
ATOM     32  C   UNL A   1      43.781  26.617  30.001  1.00  0.00     0.031 C 
ATOM     33  C   UNL A   1      43.010  29.474  35.300  1.00  0.00     0.029 A 
ATOM     34  C   UNL A   1      42.819  29.008  34.009  1.00  0.00     0.049 A 
ATOM     35  H   UNL A   1      41.302  29.506  32.629  1.00  0.00     0.167 HD
ATOM     36  C   UNL A   1      43.374  27.673  31.997  1.00  0.00     0.074 A 
ATOM     37  C   UNL A   1      44.212  26.759  31.247  1.00  0.00     0.031 C 
ATOM     38  C   UNL A   1      43.621  28.068  33.269  1.00  0.00     0.034 A 
BRANCH  25  39
ATOM     39  C   UNL A   1      39.602  32.227  35.461  1.00  0.00     0.023 A 
ATOM     40  C   UNL A   1      38.750  31.756  36.481  1.00  0.00     0.012 A 
ATOM     41  C   UNL A   1      40.134  33.529  35.554  1.00  0.00     0.148 A 
ATOM     42  C   UNL A   1      38.401  32.579  37.552  1.00  0.00     0.002 A 
ATOM     43  C   UNL A   1      39.818  34.327  36.649  1.00  0.00     0.091 A 
ATOM     44  F   UNL A   1      40.930  33.967  34.569  1.00  0.00    -0.205 F 
ATOM     45  C   UNL A   1      38.943  33.859  37.642  1.00  0.00     0.022 A 
BRANCH  43  46
ATOM     46  S   UNL A   1      40.529  35.959  36.898  1.00  0.00     0.127 S 
ATOM     47  O   UNL A   1      41.817  35.629  37.506  1.00  0.00    -0.237 OA
ATOM     48  O   UNL A   1      40.614  36.470  35.531  1.00  0.00    -0.237 OA
ATOM     49  O   UNL A   1      39.598  36.675  37.759  1.00  0.00    -0.744 OA
ENDBRANCH  43  46
ENDBRANCH  25  39
BRANCH  26  50
ATOM     50  C   UNL A   1      42.101  26.579  27.598  1.00  0.00     0.023 A 
ATOM     51  C   UNL A   1      42.848  27.161  26.556  1.00  0.00     0.012 A 
ATOM     52  C   UNL A   1      41.760  25.214  27.522  1.00  0.00     0.148 A 
ATOM     53  C   UNL A   1      43.221  26.407  25.444  1.00  0.00     0.002 A 
ATOM     54  C   UNL A   1      42.189  24.453  26.442  1.00  0.00     0.091 A 
ATOM     55  F   UNL A   1      41.042  24.682  28.520  1.00  0.00    -0.205 F 
ATOM     56  C   UNL A   1      42.902  25.052  25.392  1.00  0.00     0.022 A 
BRANCH  54  57
ATOM     57  S   UNL A   1      41.944  22.677  26.358  1.00  0.00     0.127 S 
ATOM     58  O   UNL A   1      42.595  22.229  27.587  1.00  0.00    -0.237 OA
ATOM     59  O   UNL A   1      40.485  22.573  26.360  1.00  0.00    -0.237 OA
ATOM     60  O   UNL A   1      42.575  22.250  25.117  1.00  0.00    -0.744 OA
ENDBRANCH  54  57
ENDBRANCH  26  50
BRANCH  38  61
ATOM     61  C   UNL A   1      44.828  27.479  33.954  1.00  0.00     0.023 A 
ATOM     62  C   UNL A   1      46.073  28.135  33.881  1.00  0.00     0.012 A 
ATOM     63  C   UNL A   1      44.714  26.296  34.710  1.00  0.00     0.148 A 
ATOM     64  C   UNL A   1      47.195  27.600  34.516  1.00  0.00     0.002 A 
ATOM     65  C   UNL A   1      45.823  25.799  35.385  1.00  0.00     0.091 A 
ATOM     66  F   UNL A   1      43.527  25.675  34.752  1.00  0.00    -0.205 F 
ATOM     67  C   UNL A   1      47.067  26.440  35.276  1.00  0.00     0.022 A 
BRANCH  65  68
ATOM     68  S   UNL A   1      45.729  24.367  36.466  1.00  0.00     0.127 S 
ATOM     69  O   UNL A   1      47.118  24.233  36.902  1.00  0.00    -0.237 OA
ATOM     70  O   UNL A   1      44.805  24.825  37.504  1.00  0.00    -0.237 OA
ATOM     71  O   UNL A   1      45.223  23.276  35.645  1.00  0.00    -0.744 OA
ENDBRANCH  65  68
ENDBRANCH  38  61
ENDBRANCH  12  13
ENDBRANCH   5   7
ENDBRANCH   2   3
ENDBRANCH   1   2
BRANCH   1  72
ATOM     72  C   UNL A   1      31.802  27.855  26.997  1.00  0.00     0.023 C 
BRANCH  72  73
ATOM     73  C   UNL A   1      32.278  26.530  26.406  1.00  0.00     0.116 C 
BRANCH  73  74
ATOM     74  N   UNL A   1      31.396  25.429  26.754  1.00  0.00    -0.356 N 
ATOM     75  C   UNL A   1      31.034  24.362  25.970  1.00  0.00     0.223 C 
ATOM     76  H   UNL A   1      31.013  25.450  27.660  1.00  0.00     0.163 HD
ATOM     77  O   UNL A   1      30.249  23.517  26.383  1.00  0.00    -0.275 OA
BRANCH  75  78
ATOM     78  C   UNL A   1      31.636  24.298  24.617  1.00  0.00     0.086 C 
ATOM     79  C   UNL A   1      30.755  23.737  23.519  1.00  0.00     0.023 C 
ATOM     80  C   UNL A   1      31.309  25.130  23.400  1.00  0.00     0.032 C 
BRANCH  80  81
ATOM     81  C   UNL A   1      30.407  26.334  23.378  1.00  0.00    -0.044 A 
ATOM     82  C   UNL A   1      29.090  26.273  23.852  1.00  0.00     0.004 A 
ATOM     83  C   UNL A   1      30.796  27.526  22.757  1.00  0.00     0.004 A 
ATOM     84  C   UNL A   1      28.204  27.349  23.698  1.00  0.00     0.004 A 
ATOM     85  C   UNL A   1      29.910  28.603  22.605  1.00  0.00     0.004 A 
ATOM     86  C   UNL A   1      28.586  28.542  23.064  1.00  0.00    -0.045 A 
BRANCH  86  87
ATOM     87  C   UNL A   1      27.580  29.665  22.909  1.00  0.00     0.019 C 
ATOM     88  C   UNL A   1      27.797  31.061  23.439  1.00  0.00     0.009 C 
ATOM     89  C   UNL A   1      27.887  30.805  21.963  1.00  0.00     0.009 C 
ENDBRANCH  86  87
ENDBRANCH  80  81
ENDBRANCH  75  78
ENDBRANCH  73  74
ENDBRANCH  72  73
ENDBRANCH   1  72
TORSDOF 16
ENDMDL
MODEL 3
REMARK VINA RESULT:     -11.6      1.896      8.710
REMARK SMILES O=C(NCCCCNC(=O)[C@H]1C[C@H]1c1ccc(C2CC2)cc1)c1ccc(-c2c3nc(c(-c4cccc(S(=O)(=O)[O-])c4F)c4ccc([nH]4)c(-c4cccc(S(=O)(=O)[O-])c4F)c4nc(c(-c5cccc(S(=O)(=O)[O-])c5F)c5ccc2[nH]5)C=C4)C=C3)cc1
REMARK SMILES IDX 5 1 4 2 3 3 1 4 2 5 23 7 24 8 85 9 25 10 84 11 26 12 27 13
REMARK SMILES IDX 28 14 78 15 29 16 83 17 77 18 79 19 30 20 82 21 76 22 75 23
REMARK SMILES IDX 31 25 63 26 43 27 62 28 44 29 47 30 61 31 80 32 45 33 46 34
REMARK SMILES IDX 60 36 81 37 48 38 32 39 33 40 41 41 34 42 36 43 42 44 35 45
REMARK SMILES IDX 37 46 38 47 39 48 40 49 64 50 65 51 73 52 66 53 68 54 74 55
REMARK SMILES IDX 67 56 69 57 70 58 71 59 72 60 49 61 50 62 58 63 51 64 53 65
REMARK SMILES IDX 59 66 52 67 54 68 55 69 56 70 57 71 6 72 7 73 8 74 9 75
REMARK SMILES IDX 10 77 11 78 12 79 13 80 14 81 15 82 22 83 16 84 21 85 17 86
REMARK SMILES IDX 18 87 19 88 20 89
REMARK H PARENT 3 6 79 24 47 35 8 76
REMARK Flexibility Score: inf
ROOT
ATOM      1  C   UNL A   1      32.891  28.027  26.303  1.00  0.00     0.023 C 
ENDROOT
BRANCH   1   2
ATOM      2  C   UNL A   1      33.226  29.211  25.406  1.00  0.00     0.116 C 
BRANCH   2   3
ATOM      3  N   UNL A   1      32.719  30.479  25.910  1.00  0.00    -0.352 N 
ATOM      4  O   UNL A   1      32.583  32.249  27.301  1.00  0.00    -0.269 OA
ATOM      5  C   UNL A   1      33.217  31.269  26.923  1.00  0.00     0.251 C 
ATOM      6  H   UNL A   1      31.907  30.818  25.468  1.00  0.00     0.163 HD
BRANCH   5   7
ATOM      7  C   UNL A   1      34.497  30.904  27.570  1.00  0.00     0.039 A 
ATOM      8  C   UNL A   1      34.711  29.605  28.030  1.00  0.00     0.014 A 
ATOM      9  C   UNL A   1      35.480  31.882  27.753  1.00  0.00     0.014 A 
ATOM     10  C   UNL A   1      35.813  29.328  28.828  1.00  0.00     0.010 A 
ATOM     11  C   UNL A   1      36.642  31.571  28.465  1.00  0.00     0.010 A 
ATOM     12  C   UNL A   1      36.800  30.303  29.047  1.00  0.00    -0.014 A 
BRANCH  12  13
ATOM     13  C   UNL A   1      38.011  29.942  29.830  1.00  0.00     0.031 A 
ATOM     14  C   UNL A   1      38.227  30.450  31.231  1.00  0.00     0.074 A 
ATOM     15  C   UNL A   1      38.920  29.123  29.264  1.00  0.00     0.049 A 
ATOM     16  N   UNL A   1      39.209  30.189  32.056  1.00  0.00    -0.248 NA
ATOM     17  C   UNL A   1      37.221  31.375  31.776  1.00  0.00     0.031 C 
ATOM     18  C   UNL A   1      38.841  28.596  27.898  1.00  0.00     0.029 A 
ATOM     19  N   UNL A   1      40.081  28.585  29.757  1.00  0.00    -0.354 N 
ATOM     20  C   UNL A   1      38.965  30.942  33.198  1.00  0.00     0.074 A 
ATOM     21  C   UNL A   1      37.745  31.681  32.956  1.00  0.00     0.031 C 
ATOM     22  C   UNL A   1      39.883  27.785  27.676  1.00  0.00     0.029 A 
ATOM     23  C   UNL A   1      40.739  27.784  28.856  1.00  0.00     0.049 A 
ATOM     24  H   UNL A   1      40.410  28.758  30.669  1.00  0.00     0.167 HD
ATOM     25  C   UNL A   1      39.685  31.004  34.346  1.00  0.00     0.034 A 
ATOM     26  C   UNL A   1      41.914  27.133  28.953  1.00  0.00     0.034 A 
ATOM     27  C   UNL A   1      40.888  30.248  34.587  1.00  0.00     0.049 A 
ATOM     28  C   UNL A   1      42.686  27.220  30.237  1.00  0.00     0.074 A 
ATOM     29  C   UNL A   1      41.653  30.194  35.739  1.00  0.00     0.029 A 
ATOM     30  N   UNL A   1      41.511  29.427  33.659  1.00  0.00    -0.354 N 
ATOM     31  N   UNL A   1      42.372  27.839  31.348  1.00  0.00    -0.248 NA
ATOM     32  C   UNL A   1      43.963  26.494  30.289  1.00  0.00     0.031 C 
ATOM     33  C   UNL A   1      42.758  29.372  35.495  1.00  0.00     0.029 A 
ATOM     34  C   UNL A   1      42.660  28.877  34.205  1.00  0.00     0.049 A 
ATOM     35  H   UNL A   1      41.185  29.260  32.745  1.00  0.00     0.167 HD
ATOM     36  C   UNL A   1      43.394  27.551  32.245  1.00  0.00     0.074 A 
ATOM     37  C   UNL A   1      44.323  26.680  31.552  1.00  0.00     0.031 C 
ATOM     38  C   UNL A   1      43.554  27.978  33.521  1.00  0.00     0.034 A 
BRANCH  25  39
ATOM     39  C   UNL A   1      39.184  31.909  35.446  1.00  0.00     0.023 A 
ATOM     40  C   UNL A   1      38.225  31.434  36.363  1.00  0.00     0.012 A 
ATOM     41  C   UNL A   1      39.712  33.206  35.611  1.00  0.00     0.148 A 
ATOM     42  C   UNL A   1      37.771  32.247  37.403  1.00  0.00     0.002 A 
ATOM     43  C   UNL A   1      39.289  33.992  36.677  1.00  0.00     0.091 A 
ATOM     44  F   UNL A   1      40.612  33.648  34.721  1.00  0.00    -0.205 F 
ATOM     45  C   UNL A   1      38.310  33.520  37.565  1.00  0.00     0.022 A 
BRANCH  43  46
ATOM     46  S   UNL A   1      39.982  35.615  37.021  1.00  0.00     0.127 S 
ATOM     47  O   UNL A   1      39.296  35.971  38.261  1.00  0.00    -0.237 OA
ATOM     48  O   UNL A   1      41.406  35.315  37.177  1.00  0.00    -0.237 OA
ATOM     49  O   UNL A   1      39.659  36.443  35.867  1.00  0.00    -0.744 OA
ENDBRANCH  43  46
ENDBRANCH  25  39
BRANCH  26  50
ATOM     50  C   UNL A   1      42.407  26.318  27.809  1.00  0.00     0.023 A 
ATOM     51  C   UNL A   1      43.370  26.857  26.934  1.00  0.00     0.012 A 
ATOM     52  C   UNL A   1      41.953  25.000  27.605  1.00  0.00     0.148 A 
ATOM     53  C   UNL A   1      43.846  26.111  25.857  1.00  0.00     0.002 A 
ATOM     54  C   UNL A   1      42.478  24.240  26.568  1.00  0.00     0.091 A 
ATOM     55  F   UNL A   1      41.032  24.508  28.444  1.00  0.00    -0.205 F 
ATOM     56  C   UNL A   1      43.410  24.800  25.680  1.00  0.00     0.022 A 
BRANCH  54  57
ATOM     57  S   UNL A   1      42.079  22.504  26.350  1.00  0.00     0.127 S 
ATOM     58  O   UNL A   1      42.792  22.187  25.115  1.00  0.00    -0.237 OA
ATOM     59  O   UNL A   1      42.648  21.909  27.560  1.00  0.00    -0.237 OA
ATOM     60  O   UNL A   1      40.626  22.439  26.275  1.00  0.00    -0.744 OA
ENDBRANCH  54  57
ENDBRANCH  26  50
BRANCH  38  61
ATOM     61  C   UNL A   1      44.760  27.475  34.273  1.00  0.00     0.023 A 
ATOM     62  C   UNL A   1      45.958  28.216  34.265  1.00  0.00     0.012 A 
ATOM     63  C   UNL A   1      44.687  26.287  35.026  1.00  0.00     0.148 A 
ATOM     64  C   UNL A   1      47.078  27.761  34.962  1.00  0.00     0.002 A 
ATOM     65  C   UNL A   1      45.789  25.868  35.762  1.00  0.00     0.091 A 
ATOM     66  F   UNL A   1      43.545  25.584  35.005  1.00  0.00    -0.205 F 
ATOM     67  C   UNL A   1      46.990  26.595  35.719  1.00  0.00     0.022 A 
BRANCH  65  68
ATOM     68  S   UNL A   1      45.737  24.434  36.843  1.00  0.00     0.127 S 
ATOM     69  O   UNL A   1      44.821  24.884  37.889  1.00  0.00    -0.237 OA
ATOM     70  O   UNL A   1      45.195  23.402  35.959  1.00  0.00    -0.237 OA
ATOM     71  O   UNL A   1      47.110  24.204  37.270  1.00  0.00    -0.744 OA
ENDBRANCH  65  68
ENDBRANCH  38  61
ENDBRANCH  12  13
ENDBRANCH   5   7
ENDBRANCH   2   3
ENDBRANCH   1   2
BRANCH   1  72
ATOM     72  C   UNL A   1      31.401  27.811  26.566  1.00  0.00     0.023 C 
BRANCH  72  73
ATOM     73  C   UNL A   1      30.795  26.614  25.837  1.00  0.00     0.116 C 
BRANCH  73  74
ATOM     74  N   UNL A   1      31.135  25.355  26.476  1.00  0.00    -0.356 N 
ATOM     75  C   UNL A   1      32.079  24.441  26.081  1.00  0.00     0.223 C 
ATOM     76  H   UNL A   1      30.627  25.130  27.289  1.00  0.00     0.163 HD
ATOM     77  O   UNL A   1      32.239  23.395  26.701  1.00  0.00    -0.275 OA
BRANCH  75  78
ATOM     78  C   UNL A   1      32.878  24.786  24.882  1.00  0.00     0.086 C 
ATOM     79  C   UNL A   1      34.383  24.731  25.041  1.00  0.00     0.023 C 
ATOM     80  C   UNL A   1      33.706  23.874  24.007  1.00  0.00     0.032 C 
BRANCH  80  81
ATOM     81  C   UNL A   1      33.738  22.372  24.089  1.00  0.00    -0.044 A 
ATOM     82  C   UNL A   1      32.692  21.588  23.586  1.00  0.00     0.004 A 
ATOM     83  C   UNL A   1      34.743  21.701  24.796  1.00  0.00     0.004 A 
ATOM     84  C   UNL A   1      32.650  20.201  23.792  1.00  0.00     0.004 A 
ATOM     85  C   UNL A   1      34.701  20.314  25.000  1.00  0.00     0.004 A 
ATOM     86  C   UNL A   1      33.649  19.525  24.511  1.00  0.00    -0.045 A 
BRANCH  86  87
ATOM     87  C   UNL A   1      33.541  18.028  24.720  1.00  0.00     0.019 C 
ATOM     88  C   UNL A   1      33.265  17.048  23.606  1.00  0.00     0.009 C 
ATOM     89  C   UNL A   1      34.641  17.129  24.199  1.00  0.00     0.009 C 
ENDBRANCH  86  87
ENDBRANCH  80  81
ENDBRANCH  75  78
ENDBRANCH  73  74
ENDBRANCH  72  73
ENDBRANCH   1  72
TORSDOF 16
ENDMDL
