MODEL 1
REMARK VINA RESULT:     -11.2      0.000      0.000
REMARK SMILES O=C(COc1ccccc1Br)Nc1cccc(C(=O)Nc2ccc(C(=O)NCCCCNC(=O)c3ccc(-c4c5nc(c(-c6cccc(S(=O)(=O)[O-])c6F)c6ccc([nH]6)c(-c6cccc(S(=O)(=O)[O-])c6F)c6nc(c(-c7cccc(S(=O)(=O)[O-])c7F)c7ccc4[nH]7)C=C6)C=C5)cc3)cc2)c1
REMARK SMILES IDX 28 1 27 2 25 3 26 4 24 6 21 7 22 8 99 9 23 10 98 11 20 12
REMARK SMILES IDX 18 13 19 14 17 16 13 17 14 18 100 19 15 20 16 21 12 22 1 23
REMARK SMILES IDX 2 24 3 26 4 27 5 28 6 29 10 30 7 31 9 32 11 33 8 34 29 35
REMARK SMILES IDX 30 36 31 37 32 38 33 39 34 41 35 42 36 43 97 44 37 45 96 46
REMARK SMILES IDX 38 47 39 48 40 49 90 50 41 51 95 52 89 53 91 54 42 55 94 56
REMARK SMILES IDX 88 57 87 58 43 60 75 61 55 62 74 63 56 64 59 65 73 66 92 67
REMARK SMILES IDX 57 68 58 69 72 71 93 72 60 73 44 74 45 75 53 76 46 77 48 78
REMARK SMILES IDX 54 79 47 80 49 81 50 82 51 83 52 84 76 85 77 86 85 87 78 88
REMARK SMILES IDX 80 89 86 90 79 91 81 92 82 93 83 94 84 95 61 96 62 97 70 98
REMARK SMILES IDX 63 99 65 100 71 101 64 102 66 103 67 104 68 105 69 106
REMARK H PARENT 27 5 20 15 12 25 32 40 91 59 59 70
REMARK Flexibility Score: inf
ROOT
ATOM      1  C   UNL A   1      34.190  29.921  27.199  1.00  0.00     0.116 C 
ENDROOT
BRANCH   1   2
ATOM      2  N   UNL A   1      33.096  29.121  27.719  1.00  0.00    -0.352 N 
ATOM      3  C   UNL A   1      32.300  28.137  27.189  1.00  0.00     0.251 C 
ATOM      4  O   UNL A   1      31.493  27.594  27.946  1.00  0.00    -0.269 OA
ATOM      5  H   UNL A   1      32.878  29.330  28.656  1.00  0.00     0.163 HD
BRANCH   3   6
ATOM      6  C   UNL A   1      32.408  27.640  25.790  1.00  0.00     0.039 A 
ATOM      7  C   UNL A   1      32.530  26.244  23.370  1.00  0.00     0.041 A 
ATOM      8  C   UNL A   1      31.301  26.402  24.005  1.00  0.00     0.027 A 
ATOM      9  C   UNL A   1      33.649  26.940  23.833  1.00  0.00     0.027 A 
ATOM     10  C   UNL A   1      31.253  27.065  25.234  1.00  0.00     0.016 A 
ATOM     11  C   UNL A   1      33.572  27.678  25.021  1.00  0.00     0.016 A 
BRANCH   7  12
ATOM     12  N   UNL A   1      32.611  25.298  22.341  1.00  0.00    -0.322 N 
ATOM     13  C   UNL A   1      33.198  24.045  22.347  1.00  0.00     0.255 C 
ATOM     14  O   UNL A   1      33.332  23.453  21.273  1.00  0.00    -0.269 OA
ATOM     15  H   UNL A   1      32.191  25.562  21.491  1.00  0.00     0.170 HD
BRANCH  13  16
ATOM     16  C   UNL A   1      33.567  23.325  23.611  1.00  0.00     0.042 A 
ATOM     17  C   UNL A   1      35.150  22.711  25.367  1.00  0.00     0.042 A 
ATOM     18  C   UNL A   1      34.148  21.979  26.006  1.00  0.00     0.026 A 
ATOM     19  C   UNL A   1      34.833  23.417  24.206  1.00  0.00     0.040 A 
ATOM     20  C   UNL A   1      32.851  21.962  25.490  1.00  0.00     0.003 A 
ATOM     21  C   UNL A   1      32.565  22.622  24.292  1.00  0.00     0.014 A 
BRANCH  17  22
ATOM     22  N   UNL A   1      36.422  22.739  25.968  1.00  0.00    -0.323 N 
ATOM     23  O   UNL A   1      37.647  21.214  24.692  1.00  0.00    -0.271 OA
ATOM     24  C   UNL A   1      37.568  22.071  25.564  1.00  0.00     0.262 C 
ATOM     25  H   UNL A   1      36.509  23.302  26.772  1.00  0.00     0.170 HD
BRANCH  24  26
ATOM     26  C   UNL A   1      38.808  22.512  26.336  1.00  0.00     0.329 C 
BRANCH  26  27
ATOM     27  O   UNL A   1      39.873  21.580  26.111  1.00  0.00    -0.483 OA
BRANCH  27  28
ATOM     28  C   UNL A   1      40.931  21.869  26.930  1.00  0.00     0.134 A 
ATOM     29  C   UNL A   1      40.870  23.063  27.650  1.00  0.00     0.047 A 
ATOM     30  C   UNL A   1      42.056  21.041  27.030  1.00  0.00     0.060 A 
ATOM     31  C   UNL A   1      41.913  23.409  28.507  1.00  0.00     0.004 A 
ATOM     32  C   UNL A   1      43.089  21.385  27.901  1.00  0.00     0.019 A 
ATOM     33  Br  UNL A   1      42.274  19.461  26.009  1.00  0.00    -0.047 Br
ATOM     34  C   UNL A   1      43.016  22.566  28.639  1.00  0.00     0.001 A 
ENDBRANCH  27  28
ENDBRANCH  26  27
ENDBRANCH  24  26
ENDBRANCH  17  22
ENDBRANCH  13  16
ENDBRANCH   7  12
ENDBRANCH   3   6
ENDBRANCH   1   2
BRANCH   1  35
ATOM     35  C   UNL A   1      34.379  31.193  28.025  1.00  0.00     0.023 C 
BRANCH  35  36
ATOM     36  C   UNL A   1      33.452  32.349  27.624  1.00  0.00     0.023 C 
BRANCH  36  37
ATOM     37  C   UNL A   1      33.984  33.753  27.910  1.00  0.00     0.116 C 
BRANCH  37  38
ATOM     38  N   UNL A   1      33.075  34.555  28.721  1.00  0.00    -0.352 N 
ATOM     39  C   UNL A   1      33.143  34.866  30.059  1.00  0.00     0.251 C 
ATOM     40  H   UNL A   1      32.300  34.927  28.242  1.00  0.00     0.163 HD
ATOM     41  O   UNL A   1      32.208  35.449  30.603  1.00  0.00    -0.269 OA
BRANCH  39  42
ATOM     42  C   UNL A   1      34.330  34.469  30.843  1.00  0.00     0.039 A 
ATOM     43  C   UNL A   1      34.208  33.444  31.783  1.00  0.00     0.014 A 
ATOM     44  C   UNL A   1      35.567  35.077  30.614  1.00  0.00     0.014 A 
ATOM     45  C   UNL A   1      35.351  32.955  32.422  1.00  0.00     0.010 A 
ATOM     46  C   UNL A   1      36.711  34.552  31.210  1.00  0.00     0.010 A 
ATOM     47  C   UNL A   1      36.618  33.469  32.100  1.00  0.00    -0.014 A 
BRANCH  47  48
ATOM     48  C   UNL A   1      37.865  32.835  32.601  1.00  0.00     0.031 A 
ATOM     49  C   UNL A   1      38.482  31.674  31.873  1.00  0.00     0.074 A 
ATOM     50  C   UNL A   1      38.359  33.219  33.797  1.00  0.00     0.049 A 
ATOM     51  N   UNL A   1      39.492  30.924  32.229  1.00  0.00    -0.248 NA
ATOM     52  C   UNL A   1      37.873  31.290  30.589  1.00  0.00     0.031 C 
ATOM     53  C   UNL A   1      37.801  34.278  34.643  1.00  0.00     0.029 A 
ATOM     54  N   UNL A   1      39.413  32.732  34.533  1.00  0.00    -0.354 N 
ATOM     55  C   UNL A   1      39.612  29.952  31.244  1.00  0.00     0.074 A 
ATOM     56  C   UNL A   1      38.567  30.204  30.274  1.00  0.00     0.031 C 
ATOM     57  C   UNL A   1      38.500  34.344  35.787  1.00  0.00     0.029 A 
ATOM     58  C   UNL A   1      39.532  33.313  35.776  1.00  0.00     0.049 A 
ATOM     59  H   UNL A   1      40.023  32.034  34.204  1.00  0.00     0.167 HD
ATOM     60  C   UNL A   1      40.520  28.952  31.149  1.00  0.00     0.034 A 
ATOM     61  C   UNL A   1      40.358  33.032  36.804  1.00  0.00     0.034 A 
ATOM     62  C   UNL A   1      41.590  28.738  32.085  1.00  0.00     0.049 A 
ATOM     63  C   UNL A   1      41.375  31.933  36.649  1.00  0.00     0.074 A 
ATOM     64  C   UNL A   1      42.637  27.838  31.996  1.00  0.00     0.029 A 
ATOM     65  N   UNL A   1      41.741  29.410  33.286  1.00  0.00    -0.354 N 
ATOM     66  N   UNL A   1      41.603  31.161  35.615  1.00  0.00    -0.248 NA
ATOM     67  C   UNL A   1      42.270  31.686  37.791  1.00  0.00     0.031 C 
ATOM     68  C   UNL A   1      43.404  27.943  33.160  1.00  0.00     0.029 A 
ATOM     69  C   UNL A   1      42.847  28.924  33.963  1.00  0.00     0.049 A 
ATOM     70  H   UNL A   1      41.149  30.127  33.611  1.00  0.00     0.167 HD
ATOM     71  C   UNL A   1      42.680  30.358  35.972  1.00  0.00     0.074 A 
ATOM     72  C   UNL A   1      43.080  30.756  37.304  1.00  0.00     0.031 C 
ATOM     73  C   UNL A   1      43.271  29.363  35.266  1.00  0.00     0.034 A 
BRANCH  60  74
ATOM     74  C   UNL A   1      40.438  28.025  29.966  1.00  0.00     0.023 A 
ATOM     75  C   UNL A   1      39.480  26.994  29.956  1.00  0.00     0.012 A 
ATOM     76  C   UNL A   1      41.229  28.252  28.822  1.00  0.00     0.148 A 
ATOM     77  C   UNL A   1      39.317  26.190  28.828  1.00  0.00     0.002 A 
ATOM     78  C   UNL A   1      41.034  27.472  27.689  1.00  0.00     0.091 A 
ATOM     79  F   UNL A   1      42.147  29.227  28.863  1.00  0.00    -0.205 F 
ATOM     80  C   UNL A   1      40.084  26.437  27.692  1.00  0.00     0.022 A 
BRANCH  78  81
ATOM     81  S   UNL A   1      41.916  27.757  26.150  1.00  0.00     0.127 S 
ATOM     82  O   UNL A   1      41.448  29.096  25.788  1.00  0.00    -0.237 OA
ATOM     83  O   UNL A   1      43.312  27.694  26.580  1.00  0.00    -0.237 OA
ATOM     84  O   UNL A   1      41.506  26.692  25.245  1.00  0.00    -0.744 OA
ENDBRANCH  78  81
ENDBRANCH  60  74
BRANCH  61  85
ATOM     85  C   UNL A   1      40.277  33.815  38.069  1.00  0.00     0.023 A 
ATOM     86  C   UNL A   1      41.156  34.896  38.274  1.00  0.00     0.012 A 
ATOM     87  C   UNL A   1      39.338  33.497  39.069  1.00  0.00     0.148 A 
ATOM     88  C   UNL A   1      41.129  35.620  39.466  1.00  0.00     0.002 A 
ATOM     89  C   UNL A   1      39.276  34.259  40.231  1.00  0.00     0.091 A 
ATOM     90  F   UNL A   1      38.521  32.452  38.868  1.00  0.00    -0.205 F 
ATOM     91  C   UNL A   1      40.184  35.309  40.441  1.00  0.00     0.022 A 
BRANCH  89  92
ATOM     92  S   UNL A   1      37.996  34.008  41.464  1.00  0.00     0.127 S 
ATOM     93  O   UNL A   1      37.779  35.365  41.954  1.00  0.00    -0.237 OA
ATOM     94  O   UNL A   1      36.901  33.458  40.663  1.00  0.00    -0.237 OA
ATOM     95  O   UNL A   1      38.565  33.063  42.418  1.00  0.00    -0.744 OA
ENDBRANCH  89  92
ENDBRANCH  61  85
BRANCH  73  96
ATOM     96  C   UNL A   1      44.431  28.643  35.902  1.00  0.00     0.023 A 
ATOM     97  C   UNL A   1      45.747  29.059  35.621  1.00  0.00     0.012 A 
ATOM     98  C   UNL A   1      44.215  27.613  36.840  1.00  0.00     0.148 A 
ATOM     99  C   UNL A   1      46.833  28.446  36.245  1.00  0.00     0.002 A 
ATOM    100  C   UNL A   1      45.300  27.039  37.494  1.00  0.00     0.091 A 
ATOM    101  F   UNL A   1      42.956  27.221  37.080  1.00  0.00    -0.205 F 
ATOM    102  C   UNL A   1      46.609  27.446  37.189  1.00  0.00     0.022 A 
BRANCH 100 103
ATOM    103  S   UNL A   1      45.105  25.814  38.792  1.00  0.00     0.127 S 
ATOM    104  O   UNL A   1      44.591  24.667  38.044  1.00  0.00    -0.237 OA
ATOM    105  O   UNL A   1      46.475  25.659  39.279  1.00  0.00    -0.237 OA
ATOM    106  O   UNL A   1      44.181  26.393  39.759  1.00  0.00    -0.744 OA
ENDBRANCH 100 103
ENDBRANCH  73  96
ENDBRANCH  47  48
ENDBRANCH  39  42
ENDBRANCH  37  38
ENDBRANCH  36  37
ENDBRANCH  35  36
ENDBRANCH   1  35
TORSDOF 20
ENDMDL
MODEL 2
REMARK VINA RESULT:     -11.1      5.449     11.918
REMARK SMILES O=C(COc1ccccc1Br)Nc1cccc(C(=O)Nc2ccc(C(=O)NCCCCNC(=O)c3ccc(-c4c5nc(c(-c6cccc(S(=O)(=O)[O-])c6F)c6ccc([nH]6)c(-c6cccc(S(=O)(=O)[O-])c6F)c6nc(c(-c7cccc(S(=O)(=O)[O-])c7F)c7ccc4[nH]7)C=C6)C=C5)cc3)cc2)c1
REMARK SMILES IDX 28 1 27 2 25 3 26 4 24 6 21 7 22 8 99 9 23 10 98 11 20 12
REMARK SMILES IDX 18 13 19 14 17 16 13 17 14 18 100 19 15 20 16 21 12 22 1 23
REMARK SMILES IDX 2 24 3 26 4 27 5 28 6 29 10 30 7 31 9 32 11 33 8 34 29 35
REMARK SMILES IDX 30 36 31 37 32 38 33 39 34 41 35 42 36 43 97 44 37 45 96 46
REMARK SMILES IDX 38 47 39 48 40 49 90 50 41 51 95 52 89 53 91 54 42 55 94 56
REMARK SMILES IDX 88 57 87 58 43 60 75 61 55 62 74 63 56 64 59 65 73 66 92 67
REMARK SMILES IDX 57 68 58 69 72 71 93 72 60 73 44 74 45 75 53 76 46 77 48 78
REMARK SMILES IDX 54 79 47 80 49 81 50 82 51 83 52 84 76 85 77 86 85 87 78 88
REMARK SMILES IDX 80 89 86 90 79 91 81 92 82 93 83 94 84 95 61 96 62 97 70 98
REMARK SMILES IDX 63 99 65 100 71 101 64 102 66 103 67 104 68 105 69 106
REMARK H PARENT 27 5 20 15 12 25 32 40 91 59 59 70
REMARK Flexibility Score: inf
ROOT
ATOM      1  C   UNL A   1      35.540  23.051  24.701  1.00  0.00     0.116 C 
ENDROOT
BRANCH   1   2
ATOM      2  N   UNL A   1      34.473  22.067  24.720  1.00  0.00    -0.352 N 
ATOM      3  C   UNL A   1      33.204  22.026  24.198  1.00  0.00     0.251 C 
ATOM      4  O   UNL A   1      32.570  20.979  24.336  1.00  0.00    -0.269 OA
ATOM      5  H   UNL A   1      34.712  21.251  25.216  1.00  0.00     0.163 HD
BRANCH   3   6
ATOM      6  C   UNL A   1      32.588  23.134  23.417  1.00  0.00     0.039 A 
ATOM      7  C   UNL A   1      31.712  25.522  22.254  1.00  0.00     0.041 A 
ATOM      8  C   UNL A   1      33.013  25.082  22.014  1.00  0.00     0.027 A 
ATOM      9  C   UNL A   1      30.801  24.684  22.901  1.00  0.00     0.027 A 
ATOM     10  C   UNL A   1      33.456  23.910  22.631  1.00  0.00     0.016 A 
ATOM     11  C   UNL A   1      31.233  23.466  23.442  1.00  0.00     0.016 A 
BRANCH   7  12
ATOM     12  N   UNL A   1      31.403  26.845  21.918  1.00  0.00    -0.322 N 
ATOM     13  C   UNL A   1      31.264  27.948  22.743  1.00  0.00     0.255 C 
ATOM     14  O   UNL A   1      30.792  28.983  22.266  1.00  0.00    -0.269 OA
ATOM     15  H   UNL A   1      31.266  27.017  20.959  1.00  0.00     0.170 HD
BRANCH  13  16
ATOM     16  C   UNL A   1      31.771  27.978  24.155  1.00  0.00     0.042 A 
ATOM     17  C   UNL A   1      33.138  28.929  25.942  1.00  0.00     0.042 A 
ATOM     18  C   UNL A   1      32.625  27.983  26.830  1.00  0.00     0.026 A 
ATOM     19  C   UNL A   1      32.666  28.948  24.629  1.00  0.00     0.040 A 
ATOM     20  C   UNL A   1      31.651  27.077  26.408  1.00  0.00     0.003 A 
ATOM     21  C   UNL A   1      31.234  27.067  25.074  1.00  0.00     0.014 A 
BRANCH  17  22
ATOM     22  N   UNL A   1      34.073  29.855  26.442  1.00  0.00    -0.323 N 
ATOM     23  O   UNL A   1      32.732  31.429  27.530  1.00  0.00    -0.271 OA
ATOM     24  C   UNL A   1      33.828  30.965  27.238  1.00  0.00     0.262 C 
ATOM     25  H   UNL A   1      35.014  29.695  26.199  1.00  0.00     0.170 HD
BRANCH  24  26
ATOM     26  C   UNL A   1      35.110  31.608  27.758  1.00  0.00     0.329 C 
BRANCH  26  27
ATOM     27  O   UNL A   1      34.963  31.918  29.149  1.00  0.00    -0.483 OA
BRANCH  27  28
ATOM     28  C   UNL A   1      34.626  33.236  29.303  1.00  0.00     0.134 A 
ATOM     29  C   UNL A   1      34.609  34.027  28.154  1.00  0.00     0.047 A 
ATOM     30  C   UNL A   1      34.344  33.801  30.553  1.00  0.00     0.060 A 
ATOM     31  C   UNL A   1      34.266  35.374  28.245  1.00  0.00     0.004 A 
ATOM     32  C   UNL A   1      33.986  35.146  30.636  1.00  0.00     0.019 A 
ATOM     33  Br  UNL A   1      34.450  32.832  32.177  1.00  0.00    -0.047 Br
ATOM     34  C   UNL A   1      33.945  35.930  29.484  1.00  0.00     0.001 A 
ENDBRANCH  27  28
ENDBRANCH  26  27
ENDBRANCH  24  26
ENDBRANCH  17  22
ENDBRANCH  13  16
ENDBRANCH   7  12
ENDBRANCH   3   6
ENDBRANCH   1   2
BRANCH   1  35
ATOM     35  C   UNL A   1      36.753  22.530  23.933  1.00  0.00     0.023 C 
BRANCH  35  36
ATOM     36  C   UNL A   1      37.452  21.334  24.595  1.00  0.00     0.023 C 
BRANCH  36  37
ATOM     37  C   UNL A   1      38.347  21.667  25.788  1.00  0.00     0.116 C 
BRANCH  37  38
ATOM     38  N   UNL A   1      39.423  20.702  25.983  1.00  0.00    -0.352 N 
ATOM     39  C   UNL A   1      40.707  20.905  26.430  1.00  0.00     0.251 C 
ATOM     40  H   UNL A   1      39.197  19.770  25.762  1.00  0.00     0.163 HD
ATOM     41  O   UNL A   1      41.521  19.984  26.404  1.00  0.00    -0.269 OA
BRANCH  39  42
ATOM     42  C   UNL A   1      41.112  22.241  26.912  1.00  0.00     0.039 A 
ATOM     43  C   UNL A   1      41.725  22.352  28.162  1.00  0.00     0.014 A 
ATOM     44  C   UNL A   1      40.927  23.370  26.111  1.00  0.00     0.014 A 
ATOM     45  C   UNL A   1      42.250  23.584  28.566  1.00  0.00     0.010 A 
ATOM     46  C   UNL A   1      41.499  24.582  26.490  1.00  0.00     0.010 A 
ATOM     47  C   UNL A   1      42.189  24.695  27.709  1.00  0.00    -0.014 A 
BRANCH  47  48
ATOM     48  C   UNL A   1      42.915  25.954  28.016  1.00  0.00     0.031 A 
ATOM     49  C   UNL A   1      42.210  27.103  28.682  1.00  0.00     0.074 A 
ATOM     50  C   UNL A   1      44.176  26.111  27.562  1.00  0.00     0.049 A 
ATOM     51  N   UNL A   1      42.649  28.313  28.914  1.00  0.00    -0.248 NA
ATOM     52  C   UNL A   1      40.825  26.872  29.125  1.00  0.00     0.031 C 
ATOM     53  C   UNL A   1      44.942  25.101  26.826  1.00  0.00     0.029 A 
ATOM     54  N   UNL A   1      45.020  27.194  27.607  1.00  0.00    -0.354 N 
ATOM     55  C   UNL A   1      41.585  29.002  29.484  1.00  0.00     0.074 A 
ATOM     56  C   UNL A   1      40.476  28.076  29.560  1.00  0.00     0.031 C 
ATOM     57  C   UNL A   1      46.128  25.617  26.471  1.00  0.00     0.029 A 
ATOM     58  C   UNL A   1      46.198  27.004  26.919  1.00  0.00     0.049 A 
ATOM     59  H   UNL A   1      44.804  28.026  28.085  1.00  0.00     0.167 HD
ATOM     60  C   UNL A   1      41.545  30.283  29.918  1.00  0.00     0.034 A 
ATOM     61  C   UNL A   1      47.208  27.856  26.651  1.00  0.00     0.034 A 
ATOM     62  C   UNL A   1      42.665  31.184  29.892  1.00  0.00     0.049 A 
ATOM     63  C   UNL A   1      47.141  29.264  27.178  1.00  0.00     0.074 A 
ATOM     64  C   UNL A   1      42.756  32.453  30.436  1.00  0.00     0.029 A 
ATOM     65  N   UNL A   1      43.877  30.925  29.275  1.00  0.00    -0.354 N 
ATOM     66  N   UNL A   1      46.204  29.830  27.899  1.00  0.00    -0.248 NA
ATOM     67  C   UNL A   1      48.283  30.143  26.880  1.00  0.00     0.031 C 
ATOM     68  C   UNL A   1      44.013  32.976  30.118  1.00  0.00     0.029 A 
ATOM     69  C   UNL A   1      44.712  32.023  29.397  1.00  0.00     0.049 A 
ATOM     70  H   UNL A   1      44.110  30.086  28.816  1.00  0.00     0.167 HD
ATOM     71  C   UNL A   1      46.655  31.119  28.162  1.00  0.00     0.074 A 
ATOM     72  C   UNL A   1      47.961  31.241  27.550  1.00  0.00     0.031 C 
ATOM     73  C   UNL A   1      46.032  32.118  28.832  1.00  0.00     0.034 A 
BRANCH  60  74
ATOM     74  C   UNL A   1      40.259  30.795  30.510  1.00  0.00     0.023 A 
ATOM     75  C   UNL A   1      39.392  31.574  29.719  1.00  0.00     0.012 A 
ATOM     76  C   UNL A   1      39.859  30.404  31.803  1.00  0.00     0.148 A 
ATOM     77  C   UNL A   1      38.149  31.970  30.213  1.00  0.00     0.002 A 
ATOM     78  C   UNL A   1      38.603  30.770  32.273  1.00  0.00     0.091 A 
ATOM     79  F   UNL A   1      40.709  29.679  32.542  1.00  0.00    -0.205 F 
ATOM     80  C   UNL A   1      37.751  31.558  31.482  1.00  0.00     0.022 A 
BRANCH  78  81
ATOM     81  S   UNL A   1      37.965  30.228  33.862  1.00  0.00     0.127 S 
ATOM     82  O   UNL A   1      37.102  31.351  34.230  1.00  0.00    -0.237 OA
ATOM     83  O   UNL A   1      37.251  29.002  33.503  1.00  0.00    -0.237 OA
ATOM     84  O   UNL A   1      39.126  30.032  34.718  1.00  0.00    -0.744 OA
ENDBRANCH  78  81
ENDBRANCH  60  74
BRANCH  61  85
ATOM     85  C   UNL A   1      48.386  27.399  25.861  1.00  0.00     0.023 A 
ATOM     86  C   UNL A   1      49.468  26.783  26.521  1.00  0.00     0.012 A 
ATOM     87  C   UNL A   1      48.444  27.570  24.465  1.00  0.00     0.148 A 
ATOM     88  C   UNL A   1      50.601  26.384  25.811  1.00  0.00     0.002 A 
ATOM     89  C   UNL A   1      49.551  27.116  23.755  1.00  0.00     0.091 A 
ATOM     90  F   UNL A   1      47.416  28.176  23.853  1.00  0.00    -0.205 F 
ATOM     91  C   UNL A   1      50.639  26.541  24.428  1.00  0.00     0.022 A 
BRANCH  89  92
ATOM     92  S   UNL A   1      49.609  27.156  21.961  1.00  0.00     0.127 S 
ATOM     93  O   UNL A   1      50.998  26.794  21.697  1.00  0.00    -0.237 OA
ATOM     94  O   UNL A   1      48.625  26.135  21.599  1.00  0.00    -0.237 OA
ATOM     95  O   UNL A   1      49.218  28.512  21.596  1.00  0.00    -0.744 OA
ENDBRANCH  89  92
ENDBRANCH  61  85
BRANCH  73  96
ATOM     96  C   UNL A   1      46.756  33.433  28.966  1.00  0.00     0.023 A 
ATOM     97  C   UNL A   1      47.600  33.653  30.072  1.00  0.00     0.012 A 
ATOM     98  C   UNL A   1      46.667  34.412  27.957  1.00  0.00     0.148 A 
ATOM     99  C   UNL A   1      48.325  34.838  30.186  1.00  0.00     0.002 A 
ATOM    100  C   UNL A   1      47.430  35.570  28.052  1.00  0.00     0.091 A 
ATOM    101  F   UNL A   1      45.845  34.190  26.921  1.00  0.00    -0.205 F 
ATOM    102  C   UNL A   1      48.251  35.789  29.171  1.00  0.00     0.022 A 
BRANCH 100 103
ATOM    103  S   UNL A   1      47.473  36.808  26.751  1.00  0.00     0.127 S 
ATOM    104  O   UNL A   1      47.899  36.014  25.600  1.00  0.00    -0.237 OA
ATOM    105  O   UNL A   1      46.080  37.254  26.703  1.00  0.00    -0.237 OA
ATOM    106  O   UNL A   1      48.418  37.825  27.193  1.00  0.00    -0.744 OA
ENDBRANCH 100 103
ENDBRANCH  73  96
ENDBRANCH  47  48
ENDBRANCH  39  42
ENDBRANCH  37  38
ENDBRANCH  36  37
ENDBRANCH  35  36
ENDBRANCH   1  35
TORSDOF 20
ENDMDL
MODEL 3
REMARK VINA RESULT:     -11.0      5.092      9.832
REMARK SMILES O=C(COc1ccccc1Br)Nc1cccc(C(=O)Nc2ccc(C(=O)NCCCCNC(=O)c3ccc(-c4c5nc(c(-c6cccc(S(=O)(=O)[O-])c6F)c6ccc([nH]6)c(-c6cccc(S(=O)(=O)[O-])c6F)c6nc(c(-c7cccc(S(=O)(=O)[O-])c7F)c7ccc4[nH]7)C=C6)C=C5)cc3)cc2)c1
REMARK SMILES IDX 28 1 27 2 25 3 26 4 24 6 21 7 22 8 99 9 23 10 98 11 20 12
REMARK SMILES IDX 18 13 19 14 17 16 13 17 14 18 100 19 15 20 16 21 12 22 1 23
REMARK SMILES IDX 2 24 3 26 4 27 5 28 6 29 10 30 7 31 9 32 11 33 8 34 29 35
REMARK SMILES IDX 30 36 31 37 32 38 33 39 34 41 35 42 36 43 97 44 37 45 96 46
REMARK SMILES IDX 38 47 39 48 40 49 90 50 41 51 95 52 89 53 91 54 42 55 94 56
REMARK SMILES IDX 88 57 87 58 43 60 75 61 55 62 74 63 56 64 59 65 73 66 92 67
REMARK SMILES IDX 57 68 58 69 72 71 93 72 60 73 44 74 45 75 53 76 46 77 48 78
REMARK SMILES IDX 54 79 47 80 49 81 50 82 51 83 52 84 76 85 77 86 85 87 78 88
REMARK SMILES IDX 80 89 86 90 79 91 81 92 82 93 83 94 84 95 61 96 62 97 70 98
REMARK SMILES IDX 63 99 65 100 71 101 64 102 66 103 67 104 68 105 69 106
REMARK H PARENT 27 5 20 15 12 25 32 40 91 59 59 70
REMARK Flexibility Score: inf
ROOT
ATOM      1  C   UNL A   1      35.809  22.758  24.804  1.00  0.00     0.116 C 
ENDROOT
BRANCH   1   2
ATOM      2  N   UNL A   1      34.512  22.253  25.217  1.00  0.00    -0.352 N 
ATOM      3  C   UNL A   1      33.217  22.584  24.905  1.00  0.00     0.251 C 
ATOM      4  O   UNL A   1      32.324  21.885  25.386  1.00  0.00    -0.269 OA
ATOM      5  H   UNL A   1      34.576  21.511  25.861  1.00  0.00     0.163 HD
BRANCH   3   6
ATOM      6  C   UNL A   1      32.839  23.678  23.969  1.00  0.00     0.039 A 
ATOM      7  C   UNL A   1      32.185  26.039  22.619  1.00  0.00     0.041 A 
ATOM      8  C   UNL A   1      33.508  25.808  22.992  1.00  0.00     0.027 A 
ATOM      9  C   UNL A   1      31.239  25.019  22.743  1.00  0.00     0.027 A 
ATOM     10  C   UNL A   1      33.820  24.647  23.701  1.00  0.00     0.016 A 
ATOM     11  C   UNL A   1      31.582  23.818  23.377  1.00  0.00     0.016 A 
BRANCH   7  12
ATOM     12  N   UNL A   1      31.839  27.337  22.227  1.00  0.00    -0.322 N 
ATOM     13  C   UNL A   1      31.580  28.448  23.010  1.00  0.00     0.255 C 
ATOM     14  O   UNL A   1      31.096  29.448  22.472  1.00  0.00    -0.269 OA
ATOM     15  H   UNL A   1      31.769  27.480  21.256  1.00  0.00     0.170 HD
BRANCH  13  16
ATOM     16  C   UNL A   1      31.972  28.535  24.456  1.00  0.00     0.042 A 
ATOM     17  C   UNL A   1      33.300  29.460  26.285  1.00  0.00     0.042 A 
ATOM     18  C   UNL A   1      32.601  28.660  27.190  1.00  0.00     0.026 A 
ATOM     19  C   UNL A   1      32.941  29.426  24.937  1.00  0.00     0.040 A 
ATOM     20  C   UNL A   1      31.557  27.846  26.749  1.00  0.00     0.003 A 
ATOM     21  C   UNL A   1      31.251  27.775  25.387  1.00  0.00     0.014 A 
BRANCH  17  22
ATOM     22  N   UNL A   1      34.302  30.305  26.799  1.00  0.00    -0.323 N 
ATOM     23  O   UNL A   1      33.097  32.155  27.562  1.00  0.00    -0.271 OA
ATOM     24  C   UNL A   1      34.139  31.521  27.448  1.00  0.00     0.262 C 
ATOM     25  H   UNL A   1      35.230  29.996  26.685  1.00  0.00     0.170 HD
BRANCH  24  26
ATOM     26  C   UNL A   1      35.439  32.044  28.050  1.00  0.00     0.329 C 
BRANCH  26  27
ATOM     27  O   UNL A   1      35.188  32.560  29.363  1.00  0.00    -0.483 OA
BRANCH  27  28
ATOM     28  C   UNL A   1      36.309  33.183  29.844  1.00  0.00     0.134 A 
ATOM     29  C   UNL A   1      37.430  33.208  29.012  1.00  0.00     0.047 A 
ATOM     30  C   UNL A   1      36.369  33.743  31.126  1.00  0.00     0.060 A 
ATOM     31  C   UNL A   1      38.597  33.833  29.442  1.00  0.00     0.004 A 
ATOM     32  C   UNL A   1      37.535  34.382  31.544  1.00  0.00     0.019 A 
ATOM     33  Br  UNL A   1      34.936  33.659  32.362  1.00  0.00    -0.047 Br
ATOM     34  C   UNL A   1      38.646  34.429  30.703  1.00  0.00     0.001 A 
ENDBRANCH  27  28
ENDBRANCH  26  27
ENDBRANCH  24  26
ENDBRANCH  17  22
ENDBRANCH  13  16
ENDBRANCH   7  12
ENDBRANCH   3   6
ENDBRANCH   1   2
BRANCH   1  35
ATOM     35  C   UNL A   1      36.483  21.801  23.822  1.00  0.00     0.023 C 
BRANCH  35  36
ATOM     36  C   UNL A   1      37.294  20.681  24.490  1.00  0.00     0.023 C 
BRANCH  36  37
ATOM     37  C   UNL A   1      37.953  21.044  25.820  1.00  0.00     0.116 C 
BRANCH  37  38
ATOM     38  N   UNL A   1      39.094  20.195  26.142  1.00  0.00    -0.352 N 
ATOM     39  C   UNL A   1      40.326  20.541  26.645  1.00  0.00     0.251 C 
ATOM     40  H   UNL A   1      38.964  19.233  25.976  1.00  0.00     0.163 HD
ATOM     41  O   UNL A   1      41.216  19.698  26.729  1.00  0.00    -0.269 OA
BRANCH  39  42
ATOM     42  C   UNL A   1      40.583  21.937  27.053  1.00  0.00     0.039 A 
ATOM     43  C   UNL A   1      41.667  22.209  27.892  1.00  0.00     0.014 A 
ATOM     44  C   UNL A   1      39.785  22.976  26.569  1.00  0.00     0.014 A 
ATOM     45  C   UNL A   1      42.014  23.535  28.163  1.00  0.00     0.010 A 
ATOM     46  C   UNL A   1      40.165  24.297  26.795  1.00  0.00     0.010 A 
ATOM     47  C   UNL A   1      41.298  24.590  27.572  1.00  0.00    -0.014 A 
BRANCH  47  48
ATOM     48  C   UNL A   1      41.764  25.997  27.671  1.00  0.00     0.031 A 
ATOM     49  C   UNL A   1      43.034  26.434  26.994  1.00  0.00     0.074 A 
ATOM     50  C   UNL A   1      41.113  26.847  28.493  1.00  0.00     0.049 A 
ATOM     51  N   UNL A   1      43.653  27.583  27.074  1.00  0.00    -0.248 NA
ATOM     52  C   UNL A   1      43.708  25.446  26.136  1.00  0.00     0.031 C 
ATOM     53  C   UNL A   1      39.916  26.519  29.273  1.00  0.00     0.029 A 
ATOM     54  N   UNL A   1      41.392  28.144  28.850  1.00  0.00    -0.354 N 
ATOM     55  C   UNL A   1      44.811  27.444  26.318  1.00  0.00     0.074 A 
ATOM     56  C   UNL A   1      44.811  26.097  25.791  1.00  0.00     0.031 C 
ATOM     57  C   UNL A   1      39.579  27.575  30.030  1.00  0.00     0.029 A 
ATOM     58  C   UNL A   1      40.551  28.642  29.821  1.00  0.00     0.049 A 
ATOM     59  H   UNL A   1      42.123  28.668  28.451  1.00  0.00     0.167 HD
ATOM     60  C   UNL A   1      45.776  28.363  26.075  1.00  0.00     0.034 A 
ATOM     61  C   UNL A   1      40.574  29.812  30.489  1.00  0.00     0.034 A 
ATOM     62  C   UNL A   1      45.744  29.718  26.555  1.00  0.00     0.049 A 
ATOM     63  C   UNL A   1      41.644  30.821  30.168  1.00  0.00     0.074 A 
ATOM     64  C   UNL A   1      46.605  30.755  26.245  1.00  0.00     0.029 A 
ATOM     65  N   UNL A   1      44.823  30.219  27.459  1.00  0.00    -0.354 N 
ATOM     66  N   UNL A   1      42.614  30.742  29.291  1.00  0.00    -0.248 NA
ATOM     67  C   UNL A   1      41.606  32.092  30.908  1.00  0.00     0.031 C 
ATOM     68  C   UNL A   1      46.224  31.877  26.987  1.00  0.00     0.029 A 
ATOM     69  C   UNL A   1      45.112  31.543  27.742  1.00  0.00     0.049 A 
ATOM     70  H   UNL A   1      44.073  29.709  27.844  1.00  0.00     0.167 HD
ATOM     71  C   UNL A   1      43.283  31.959  29.354  1.00  0.00     0.074 A 
ATOM     72  C   UNL A   1      42.591  32.769  30.334  1.00  0.00     0.031 C 
ATOM     73  C   UNL A   1      44.386  32.360  28.677  1.00  0.00     0.034 A 
BRANCH  60  74
ATOM     74  C   UNL A   1      46.939  27.961  25.209  1.00  0.00     0.023 A 
ATOM     75  C   UNL A   1      46.843  28.092  23.811  1.00  0.00     0.012 A 
ATOM     76  C   UNL A   1      48.162  27.570  25.789  1.00  0.00     0.148 A 
ATOM     77  C   UNL A   1      47.944  27.825  22.997  1.00  0.00     0.002 A 
ATOM     78  C   UNL A   1      49.266  27.343  24.975  1.00  0.00     0.091 A 
ATOM     79  F   UNL A   1      48.224  27.435  27.121  1.00  0.00    -0.205 F 
ATOM     80  C   UNL A   1      49.156  27.464  23.580  1.00  0.00     0.022 A 
BRANCH  78  81
ATOM     81  S   UNL A   1      50.892  26.949  25.630  1.00  0.00     0.127 S 
ATOM     82  O   UNL A   1      51.199  28.156  26.398  1.00  0.00    -0.237 OA
ATOM     83  O   UNL A   1      50.616  25.763  26.440  1.00  0.00    -0.237 OA
ATOM     84  O   UNL A   1      51.747  26.715  24.474  1.00  0.00    -0.744 OA
ENDBRANCH  78  81
ENDBRANCH  60  74
BRANCH  61  85
ATOM     85  C   UNL A   1      39.538  30.110  31.519  1.00  0.00     0.023 A 
ATOM     86  C   UNL A   1      38.190  30.236  31.131  1.00  0.00     0.012 A 
ATOM     87  C   UNL A   1      39.878  30.270  32.876  1.00  0.00     0.148 A 
ATOM     88  C   UNL A   1      37.206  30.554  32.067  1.00  0.00     0.002 A 
ATOM     89  C   UNL A   1      38.884  30.529  33.814  1.00  0.00     0.091 A 
ATOM     90  F   UNL A   1      41.168  30.167  33.227  1.00  0.00    -0.205 F 
ATOM     91  C   UNL A   1      37.551  30.692  33.409  1.00  0.00     0.022 A 
BRANCH  89  92
ATOM     92  S   UNL A   1      39.231  30.578  35.575  1.00  0.00     0.127 S 
ATOM     93  O   UNL A   1      39.936  31.849  35.707  1.00  0.00    -0.237 OA
ATOM     94  O   UNL A   1      37.887  30.554  36.153  1.00  0.00    -0.237 OA
ATOM     95  O   UNL A   1      40.014  29.377  35.844  1.00  0.00    -0.744 OA
ENDBRANCH  89  92
ENDBRANCH  61  85
BRANCH  73  96
ATOM     96  C   UNL A   1      44.911  33.746  28.947  1.00  0.00     0.023 A 
ATOM     97  C   UNL A   1      45.964  33.925  29.867  1.00  0.00     0.012 A 
ATOM     98  C   UNL A   1      44.421  34.856  28.230  1.00  0.00     0.148 A 
ATOM     99  C   UNL A   1      46.504  35.191  30.087  1.00  0.00     0.002 A 
ATOM    100  C   UNL A   1      44.998  36.107  28.420  1.00  0.00     0.091 A 
ATOM    101  F   UNL A   1      43.408  34.666  27.372  1.00  0.00    -0.205 F 
ATOM    102  C   UNL A   1      46.031  36.278  29.356  1.00  0.00     0.022 A 
BRANCH 100 103
ATOM    103  S   UNL A   1      44.520  37.546  27.456  1.00  0.00     0.127 S 
ATOM    104  O   UNL A   1      44.433  38.579  28.487  1.00  0.00    -0.237 OA
ATOM    105  O   UNL A   1      45.651  37.693  26.539  1.00  0.00    -0.237 OA
ATOM    106  O   UNL A   1      43.260  37.200  26.812  1.00  0.00    -0.744 OA
ENDBRANCH 100 103
ENDBRANCH  73  96
ENDBRANCH  47  48
ENDBRANCH  39  42
ENDBRANCH  37  38
ENDBRANCH  36  37
ENDBRANCH  35  36
ENDBRANCH   1  35
TORSDOF 20
ENDMDL
