MODEL 1
REMARK VINA RESULT:     -11.6      0.000      0.000
REMARK SMILES O=C(NCCCCNC(=O)[C@@H](NC(=O)[C@H]1CC[C@@H]2CCCC[C@H]2[NH2+]1)C1CC1)c1ccc(-c2c3nc(c(-c4cccc(S(=O)(=O)[O-])c4F)c4ccc([nH]4)c(-c4cccc(S(=O)(=O)[O-])c4F)c4nc(c(-c5cccc(S(=O)(=O)[O-])c5F)c5ccc2[nH]5)C=C4)C=C3)cc1
REMARK SMILES IDX 5 1 4 2 3 3 1 4 2 5 28 7 29 8 90 9 30 10 89 11 31 12 32 13
REMARK SMILES IDX 33 14 83 15 34 16 88 17 82 18 84 19 35 20 87 21 81 22 80 23
REMARK SMILES IDX 36 25 68 26 48 27 67 28 49 29 52 30 66 31 85 32 50 33 51 34
REMARK SMILES IDX 65 36 86 37 53 38 37 39 38 40 46 41 39 42 41 43 47 44 40 45
REMARK SMILES IDX 42 46 43 47 44 48 45 49 69 50 70 51 78 52 71 53 73 54 79 55
REMARK SMILES IDX 72 56 74 57 75 58 76 59 77 60 54 61 55 62 63 63 56 64 58 65
REMARK SMILES IDX 64 66 57 67 59 68 60 69 61 70 62 71 6 72 7 73 8 74 9 75
REMARK SMILES IDX 10 77 11 78 12 79 13 80 14 82 15 83 16 84 24 85 17 86 23 87
REMARK SMILES IDX 18 90 22 91 19 92 21 93 20 94 25 95 26 96 27 97
REMARK H PARENT 3 6 84 24 52 35 8 76 12 81 24 88 24 89
REMARK Flexibility Score: inf
ROOT
ATOM      1  C   UNL A   1      38.153  19.784  24.910  1.00  0.00     0.023 C 
ENDROOT
BRANCH   1   2
ATOM      2  C   UNL A   1      39.067  19.926  26.120  1.00  0.00     0.116 C 
BRANCH   2   3
ATOM      3  N   UNL A   1      40.284  19.135  26.021  1.00  0.00    -0.352 N 
ATOM      4  O   UNL A   1      42.517  18.805  25.902  1.00  0.00    -0.269 OA
ATOM      5  C   UNL A   1      41.584  19.570  26.122  1.00  0.00     0.251 C 
ATOM      6  H   UNL A   1      40.161  18.172  25.861  1.00  0.00     0.163 HD
BRANCH   5   7
ATOM      7  C   UNL A   1      41.829  20.986  26.463  1.00  0.00     0.039 A 
ATOM      8  C   UNL A   1      41.739  21.967  25.472  1.00  0.00     0.014 A 
ATOM      9  C   UNL A   1      42.219  21.315  27.762  1.00  0.00     0.014 A 
ATOM     10  C   UNL A   1      42.176  23.256  25.746  1.00  0.00     0.010 A 
ATOM     11  C   UNL A   1      42.584  22.630  28.053  1.00  0.00     0.010 A 
ATOM     12  C   UNL A   1      42.600  23.602  27.041  1.00  0.00    -0.014 A 
BRANCH  12  13
ATOM     13  C   UNL A   1      42.999  25.000  27.329  1.00  0.00     0.031 A 
ATOM     14  C   UNL A   1      42.063  25.954  28.015  1.00  0.00     0.074 A 
ATOM     15  C   UNL A   1      44.227  25.406  26.949  1.00  0.00     0.049 A 
ATOM     16  N   UNL A   1      42.258  27.208  28.334  1.00  0.00    -0.248 NA
ATOM     17  C   UNL A   1      40.733  25.443  28.385  1.00  0.00     0.031 C 
ATOM     18  C   UNL A   1      45.202  24.576  26.239  1.00  0.00     0.029 A 
ATOM     19  N   UNL A   1      44.860  26.612  27.098  1.00  0.00    -0.354 N 
ATOM     20  C   UNL A   1      41.069  27.650  28.902  1.00  0.00     0.074 A 
ATOM     21  C   UNL A   1      40.152  26.529  28.882  1.00  0.00     0.031 C 
ATOM     22  C   UNL A   1      46.317  25.290  26.029  1.00  0.00     0.029 A 
ATOM     23  C   UNL A   1      46.117  26.640  26.543  1.00  0.00     0.049 A 
ATOM     24  H   UNL A   1      44.455  27.383  27.557  1.00  0.00     0.167 HD
ATOM     25  C   UNL A   1      40.775  28.872  29.407  1.00  0.00     0.034 A 
ATOM     26  C   UNL A   1      47.007  27.645  26.442  1.00  0.00     0.034 A 
ATOM     27  C   UNL A   1      41.706  29.968  29.460  1.00  0.00     0.049 A 
ATOM     28  C   UNL A   1      46.665  28.978  27.039  1.00  0.00     0.074 A 
ATOM     29  C   UNL A   1      41.525  31.224  30.012  1.00  0.00     0.029 A 
ATOM     30  N   UNL A   1      42.991  29.942  28.939  1.00  0.00    -0.354 N 
ATOM     31  N   UNL A   1      45.583  29.337  27.685  1.00  0.00    -0.248 NA
ATOM     32  C   UNL A   1      47.676  30.038  26.917  1.00  0.00     0.031 C 
ATOM     33  C   UNL A   1      42.698  31.961  29.815  1.00  0.00     0.029 A 
ATOM     34  C   UNL A   1      43.614  31.161  29.151  1.00  0.00     0.049 A 
ATOM     35  H   UNL A   1      43.401  29.170  28.486  1.00  0.00     0.167 HD
ATOM     36  C   UNL A   1      45.788  30.656  28.068  1.00  0.00     0.074 A 
ATOM     37  C   UNL A   1      47.111  31.024  27.603  1.00  0.00     0.031 C 
ATOM     38  C   UNL A   1      44.950  31.493  28.725  1.00  0.00     0.034 A 
BRANCH  25  39
ATOM     39  C   UNL A   1      39.400  29.081  29.986  1.00  0.00     0.023 A 
ATOM     40  C   UNL A   1      39.105  28.578  31.270  1.00  0.00     0.012 A 
ATOM     41  C   UNL A   1      38.426  29.831  29.298  1.00  0.00     0.148 A 
ATOM     42  C   UNL A   1      37.855  28.795  31.849  1.00  0.00     0.002 A 
ATOM     43  C   UNL A   1      37.194  30.074  29.896  1.00  0.00     0.091 A 
ATOM     44  F   UNL A   1      38.714  30.281  28.069  1.00  0.00    -0.205 F 
ATOM     45  C   UNL A   1      36.904  29.551  31.167  1.00  0.00     0.022 A 
BRANCH  43  46
ATOM     46  S   UNL A   1      35.934  31.098  29.124  1.00  0.00     0.127 S 
ATOM     47  O   UNL A   1      35.245  30.127  28.276  1.00  0.00    -0.237 OA
ATOM     48  O   UNL A   1      35.157  31.560  30.275  1.00  0.00    -0.237 OA
ATOM     49  O   UNL A   1      36.656  32.150  28.423  1.00  0.00    -0.744 OA
ENDBRANCH  43  46
ENDBRANCH  25  39
BRANCH  26  50
ATOM     50  C   UNL A   1      48.324  27.391  25.796  1.00  0.00     0.023 A 
ATOM     51  C   UNL A   1      49.383  26.873  26.566  1.00  0.00     0.012 A 
ATOM     52  C   UNL A   1      48.508  27.583  24.413  1.00  0.00     0.148 A 
ATOM     53  C   UNL A   1      50.607  26.566  25.972  1.00  0.00     0.002 A 
ATOM     54  C   UNL A   1      49.710  27.219  23.818  1.00  0.00     0.091 A 
ATOM     55  F   UNL A   1      47.493  28.092  23.701  1.00  0.00    -0.205 F 
ATOM     56  C   UNL A   1      50.765  26.724  24.598  1.00  0.00     0.022 A 
BRANCH  54  57
ATOM     57  S   UNL A   1      49.940  27.250  22.037  1.00  0.00     0.127 S 
ATOM     58  O   UNL A   1      51.296  26.726  21.901  1.00  0.00    -0.237 OA
ATOM     59  O   UNL A   1      48.882  26.349  21.576  1.00  0.00    -0.237 OA
ATOM     60  O   UNL A   1      49.751  28.640  21.644  1.00  0.00    -0.744 OA
ENDBRANCH  54  57
ENDBRANCH  26  50
BRANCH  38  61
ATOM     61  C   UNL A   1      45.442  32.888  28.999  1.00  0.00     0.023 A 
ATOM     62  C   UNL A   1      46.155  33.152  30.186  1.00  0.00     0.012 A 
ATOM     63  C   UNL A   1      45.261  33.918  28.057  1.00  0.00     0.148 A 
ATOM     64  C   UNL A   1      46.655  34.427  30.442  1.00  0.00     0.002 A 
ATOM     65  C   UNL A   1      45.798  35.176  28.300  1.00  0.00     0.091 A 
ATOM     66  F   UNL A   1      44.559  33.653  26.944  1.00  0.00    -0.205 F 
ATOM     67  C   UNL A   1      46.488  35.435  29.496  1.00  0.00     0.022 A 
BRANCH  65  68
ATOM     68  S   UNL A   1      45.704  36.505  27.094  1.00  0.00     0.127 S 
ATOM     69  O   UNL A   1      46.327  35.890  25.923  1.00  0.00    -0.237 OA
ATOM     70  O   UNL A   1      44.261  36.718  26.973  1.00  0.00    -0.237 OA
ATOM     71  O   UNL A   1      46.429  37.624  27.680  1.00  0.00    -0.744 OA
ENDBRANCH  65  68
ENDBRANCH  38  61
ENDBRANCH  12  13
ENDBRANCH   5   7
ENDBRANCH   2   3
ENDBRANCH   1   2
BRANCH   1  72
ATOM     72  C   UNL A   1      37.261  20.992  24.635  1.00  0.00     0.023 C 
BRANCH  72  73
ATOM     73  C   UNL A   1      35.857  20.861  25.215  1.00  0.00     0.116 C 
BRANCH  73  74
ATOM     74  N   UNL A   1      35.531  21.962  26.105  1.00  0.00    -0.354 N 
ATOM     75  C   UNL A   1      34.305  22.489  26.421  1.00  0.00     0.242 C 
ATOM     76  H   UNL A   1      36.300  22.391  26.546  1.00  0.00     0.163 HD
ATOM     77  O   UNL A   1      34.244  23.333  27.319  1.00  0.00    -0.273 OA
BRANCH  75  78
ATOM     78  C   UNL A   1      33.018  21.925  25.753  1.00  0.00     0.174 C 
BRANCH  78  79
ATOM     79  N   UNL A   1      31.892  22.285  26.631  1.00  0.00    -0.339 N 
ATOM     80  C   UNL A   1      30.971  23.282  26.700  1.00  0.00     0.278 C 
ATOM     81  H   UNL A   1      31.776  21.633  27.361  1.00  0.00     0.164 HD
ATOM     82  O   UNL A   1      30.020  23.103  27.465  1.00  0.00    -0.268 OA
BRANCH  80  83
ATOM     83  C   UNL A   1      31.162  24.584  25.915  1.00  0.00     0.272 C 
ATOM     84  C   UNL A   1      29.853  25.376  25.800  1.00  0.00     0.076 C 
ATOM     85  N   UNL A   1      32.133  25.454  26.615  1.00  0.00    -0.333 N 
ATOM     86  C   UNL A   1      30.070  26.668  25.007  1.00  0.00     0.016 C 
ATOM     87  C   UNL A   1      32.489  26.580  25.755  1.00  0.00     0.186 C 
ATOM     88  H   UNL A   1      32.973  24.917  26.836  1.00  0.00     0.347 HD
ATOM     89  H   UNL A   1      31.716  25.803  27.478  1.00  0.00     0.347 HD
ATOM     90  C   UNL A   1      31.255  27.478  25.559  1.00  0.00     0.048 C 
ATOM     91  C   UNL A   1      33.659  27.376  26.341  1.00  0.00     0.065 C 
ATOM     92  C   UNL A   1      31.603  28.655  24.639  1.00  0.00     0.010 C 
ATOM     93  C   UNL A   1      34.016  28.544  25.423  1.00  0.00     0.006 C 
ATOM     94  C   UNL A   1      32.809  29.441  25.156  1.00  0.00     0.001 C 
ENDBRANCH  80  83
ENDBRANCH  78  79
BRANCH  78  95
ATOM     95  C   UNL A   1      32.949  22.379  24.315  1.00  0.00     0.021 C 
ATOM     96  C   UNL A   1      32.860  21.356  23.202  1.00  0.00     0.006 C 
ATOM     97  C   UNL A   1      31.680  22.228  23.505  1.00  0.00     0.006 C 
ENDBRANCH  78  95
ENDBRANCH  75  78
ENDBRANCH  73  74
ENDBRANCH  72  73
ENDBRANCH   1  72
TORSDOF 17
ENDMDL
MODEL 2
REMARK VINA RESULT:     -11.6      5.784     11.321
REMARK SMILES O=C(NCCCCNC(=O)[C@@H](NC(=O)[C@H]1CC[C@@H]2CCCC[C@H]2[NH2+]1)C1CC1)c1ccc(-c2c3nc(c(-c4cccc(S(=O)(=O)[O-])c4F)c4ccc([nH]4)c(-c4cccc(S(=O)(=O)[O-])c4F)c4nc(c(-c5cccc(S(=O)(=O)[O-])c5F)c5ccc2[nH]5)C=C4)C=C3)cc1
REMARK SMILES IDX 5 1 4 2 3 3 1 4 2 5 28 7 29 8 90 9 30 10 89 11 31 12 32 13
REMARK SMILES IDX 33 14 83 15 34 16 88 17 82 18 84 19 35 20 87 21 81 22 80 23
REMARK SMILES IDX 36 25 68 26 48 27 67 28 49 29 52 30 66 31 85 32 50 33 51 34
REMARK SMILES IDX 65 36 86 37 53 38 37 39 38 40 46 41 39 42 41 43 47 44 40 45
REMARK SMILES IDX 42 46 43 47 44 48 45 49 69 50 70 51 78 52 71 53 73 54 79 55
REMARK SMILES IDX 72 56 74 57 75 58 76 59 77 60 54 61 55 62 63 63 56 64 58 65
REMARK SMILES IDX 64 66 57 67 59 68 60 69 61 70 62 71 6 72 7 73 8 74 9 75
REMARK SMILES IDX 10 77 11 78 12 79 13 80 14 82 15 83 16 84 24 85 17 86 23 87
REMARK SMILES IDX 18 90 22 91 19 92 21 93 20 94 25 95 26 96 27 97
REMARK H PARENT 3 6 84 24 52 35 8 76 12 81 24 88 24 89
REMARK Flexibility Score: inf
ROOT
ATOM      1  C   UNL A   1      31.462  31.997  26.888  1.00  0.00     0.023 C 
ENDROOT
BRANCH   1   2
ATOM      2  C   UNL A   1      32.657  32.941  26.835  1.00  0.00     0.116 C 
BRANCH   2   3
ATOM      3  N   UNL A   1      32.448  34.179  27.571  1.00  0.00    -0.352 N 
ATOM      4  O   UNL A   1      32.777  35.649  29.256  1.00  0.00    -0.269 OA
ATOM      5  C   UNL A   1      33.141  34.637  28.666  1.00  0.00     0.251 C 
ATOM      6  H   UNL A   1      31.721  34.757  27.246  1.00  0.00     0.163 HD
BRANCH   5   7
ATOM      7  C   UNL A   1      34.307  33.862  29.137  1.00  0.00     0.039 A 
ATOM      8  C   UNL A   1      34.114  32.684  29.863  1.00  0.00     0.014 A 
ATOM      9  C   UNL A   1      35.591  34.360  28.909  1.00  0.00     0.014 A 
ATOM     10  C   UNL A   1      35.199  32.079  30.483  1.00  0.00     0.010 A 
ATOM     11  C   UNL A   1      36.687  33.704  29.470  1.00  0.00     0.010 A 
ATOM     12  C   UNL A   1      36.498  32.580  30.290  1.00  0.00    -0.014 A 
BRANCH  12  13
ATOM     13  C   UNL A   1      37.650  31.880  30.906  1.00  0.00     0.031 A 
ATOM     14  C   UNL A   1      38.427  30.840  30.150  1.00  0.00     0.074 A 
ATOM     15  C   UNL A   1      37.982  32.189  32.175  1.00  0.00     0.049 A 
ATOM     16  N   UNL A   1      39.455  30.134  30.547  1.00  0.00    -0.248 NA
ATOM     17  C   UNL A   1      37.995  30.545  28.774  1.00  0.00     0.031 C 
ATOM     18  C   UNL A   1      37.271  33.153  33.017  1.00  0.00     0.029 A 
ATOM     19  N   UNL A   1      38.990  31.724  32.978  1.00  0.00    -0.354 N 
ATOM     20  C   UNL A   1      39.768  29.284  29.493  1.00  0.00     0.074 A 
ATOM     21  C   UNL A   1      38.817  29.559  28.436  1.00  0.00     0.031 C 
ATOM     22  C   UNL A   1      37.874  33.222  34.213  1.00  0.00     0.029 A 
ATOM     23  C   UNL A   1      38.981  32.273  34.238  1.00  0.00     0.049 A 
ATOM     24  H   UNL A   1      39.656  31.063  32.682  1.00  0.00     0.167 HD
ATOM     25  C   UNL A   1      40.764  28.371  29.410  1.00  0.00     0.034 A 
ATOM     26  C   UNL A   1      39.765  32.030  35.305  1.00  0.00     0.034 A 
ATOM     27  C   UNL A   1      41.730  28.134  30.450  1.00  0.00     0.049 A 
ATOM     28  C   UNL A   1      40.881  31.035  35.172  1.00  0.00     0.074 A 
ATOM     29  C   UNL A   1      42.818  27.278  30.436  1.00  0.00     0.029 A 
ATOM     30  N   UNL A   1      41.724  28.750  31.693  1.00  0.00    -0.354 N 
ATOM     31  N   UNL A   1      41.237  30.335  34.123  1.00  0.00    -0.248 NA
ATOM     32  C   UNL A   1      41.719  30.816  36.359  1.00  0.00     0.031 C 
ATOM     33  C   UNL A   1      43.463  27.369  31.675  1.00  0.00     0.029 A 
ATOM     34  C   UNL A   1      42.785  28.291  32.456  1.00  0.00     0.049 A 
ATOM     35  H   UNL A   1      41.063  29.417  31.989  1.00  0.00     0.167 HD
ATOM     36  C   UNL A   1      42.354  29.608  34.514  1.00  0.00     0.074 A 
ATOM     37  C   UNL A   1      42.630  29.974  35.890  1.00  0.00     0.031 C 
ATOM     38  C   UNL A   1      43.073  28.703  33.807  1.00  0.00     0.034 A 
BRANCH  25  39
ATOM     39  C   UNL A   1      40.894  27.585  28.131  1.00  0.00     0.023 A 
ATOM     40  C   UNL A   1      41.533  28.171  27.019  1.00  0.00     0.012 A 
ATOM     41  C   UNL A   1      40.450  26.250  28.049  1.00  0.00     0.148 A 
ATOM     42  C   UNL A   1      41.704  27.451  25.837  1.00  0.00     0.002 A 
ATOM     43  C   UNL A   1      40.657  25.527  26.879  1.00  0.00     0.091 A 
ATOM     44  F   UNL A   1      39.823  25.717  29.107  1.00  0.00    -0.205 F 
ATOM     45  C   UNL A   1      41.276  26.126  25.771  1.00  0.00     0.022 A 
BRANCH  43  46
ATOM     46  S   UNL A   1      40.204  23.794  26.726  1.00  0.00     0.127 S 
ATOM     47  O   UNL A   1      40.294  23.343  28.114  1.00  0.00    -0.237 OA
ATOM     48  O   UNL A   1      38.842  23.871  26.199  1.00  0.00    -0.237 OA
ATOM     49  O   UNL A   1      41.173  23.212  25.809  1.00  0.00    -0.744 OA
ENDBRANCH  43  46
ENDBRANCH  25  39
BRANCH  26  50
ATOM     50  C   UNL A   1      39.542  32.793  36.564  1.00  0.00     0.023 A 
ATOM     51  C   UNL A   1      40.161  34.046  36.731  1.00  0.00     0.012 A 
ATOM     52  C   UNL A   1      38.661  32.322  37.556  1.00  0.00     0.148 A 
ATOM     53  C   UNL A   1      39.918  34.810  37.872  1.00  0.00     0.002 A 
ATOM     54  C   UNL A   1      38.378  33.115  38.662  1.00  0.00     0.091 A 
ATOM     55  F   UNL A   1      38.094  31.119  37.386  1.00  0.00    -0.205 F 
ATOM     56  C   UNL A   1      39.016  34.352  38.829  1.00  0.00     0.022 A 
BRANCH  54  57
ATOM     57  S   UNL A   1      37.117  32.666  39.860  1.00  0.00     0.127 S 
ATOM     58  O   UNL A   1      37.209  33.763  40.817  1.00  0.00    -0.237 OA
ATOM     59  O   UNL A   1      35.903  32.663  39.040  1.00  0.00    -0.237 OA
ATOM     60  O   UNL A   1      37.502  31.352  40.356  1.00  0.00    -0.744 OA
ENDBRANCH  54  57
ENDBRANCH  26  50
BRANCH  38  61
ATOM     61  C   UNL A   1      44.242  28.056  34.499  1.00  0.00     0.023 A 
ATOM     62  C   UNL A   1      45.487  28.715  34.522  1.00  0.00     0.012 A 
ATOM     63  C   UNL A   1      44.092  26.834  35.182  1.00  0.00     0.148 A 
ATOM     64  C   UNL A   1      46.572  28.154  35.191  1.00  0.00     0.002 A 
ATOM     65  C   UNL A   1      45.167  26.301  35.882  1.00  0.00     0.091 A 
ATOM     66  F   UNL A   1      42.905  26.210  35.128  1.00  0.00    -0.205 F 
ATOM     67  C   UNL A   1      46.410  26.954  35.881  1.00  0.00     0.022 A 
BRANCH  65  68
ATOM     68  S   UNL A   1      45.019  24.806  36.868  1.00  0.00     0.127 S 
ATOM     69  O   UNL A   1      44.232  23.944  35.986  1.00  0.00    -0.237 OA
ATOM     70  O   UNL A   1      46.415  24.397  37.030  1.00  0.00    -0.237 OA
ATOM     71  O   UNL A   1      44.363  25.209  38.103  1.00  0.00    -0.744 OA
ENDBRANCH  65  68
ENDBRANCH  38  61
ENDBRANCH  12  13
ENDBRANCH   5   7
ENDBRANCH   2   3
ENDBRANCH   1   2
BRANCH   1  72
ATOM     72  C   UNL A   1      31.819  30.513  26.917  1.00  0.00     0.023 C 
BRANCH  72  73
ATOM     73  C   UNL A   1      32.235  29.957  25.560  1.00  0.00     0.116 C 
BRANCH  73  74
ATOM     74  N   UNL A   1      31.126  29.920  24.623  1.00  0.00    -0.354 N 
ATOM     75  C   UNL A   1      30.709  28.898  23.810  1.00  0.00     0.242 C 
ATOM     76  H   UNL A   1      30.596  30.749  24.563  1.00  0.00     0.163 HD
ATOM     77  O   UNL A   1      29.647  29.032  23.197  1.00  0.00    -0.273 OA
BRANCH  75  78
ATOM     78  C   UNL A   1      31.493  27.554  23.783  1.00  0.00     0.174 C 
BRANCH  78  79
ATOM     79  N   UNL A   1      30.958  26.729  24.880  1.00  0.00    -0.339 N 
ATOM     80  C   UNL A   1      31.387  25.678  25.627  1.00  0.00     0.278 C 
ATOM     81  H   UNL A   1      30.052  27.013  25.140  1.00  0.00     0.164 HD
ATOM     82  O   UNL A   1      30.726  25.410  26.633  1.00  0.00    -0.268 OA
BRANCH  80  83
ATOM     83  C   UNL A   1      32.587  24.836  25.181  1.00  0.00     0.272 C 
ATOM     84  C   UNL A   1      33.911  25.421  25.692  1.00  0.00     0.076 C 
ATOM     85  N   UNL A   1      32.476  23.469  25.738  1.00  0.00    -0.333 N 
ATOM     86  C   UNL A   1      35.095  24.566  25.229  1.00  0.00     0.016 C 
ATOM     87  C   UNL A   1      33.488  22.610  25.127  1.00  0.00     0.186 C 
ATOM     88  H   UNL A   1      31.548  23.095  25.538  1.00  0.00     0.347 HD
ATOM     89  H   UNL A   1      32.620  23.501  26.747  1.00  0.00     0.347 HD
ATOM     90  C   UNL A   1      34.886  23.080  25.567  1.00  0.00     0.048 C 
ATOM     91  C   UNL A   1      33.262  21.140  25.498  1.00  0.00     0.065 C 
ATOM     92  C   UNL A   1      35.964  22.203  24.917  1.00  0.00     0.010 C 
ATOM     93  C   UNL A   1      34.328  20.262  24.845  1.00  0.00     0.006 C 
ATOM     94  C   UNL A   1      35.739  20.719  25.211  1.00  0.00     0.001 C 
ENDBRANCH  80  83
ENDBRANCH  78  79
BRANCH  78  95
ATOM     95  C   UNL A   1      31.453  26.968  22.393  1.00  0.00     0.021 C 
ATOM     96  C   UNL A   1      32.716  26.411  21.769  1.00  0.00     0.006 C 
ATOM     97  C   UNL A   1      31.609  25.481  22.162  1.00  0.00     0.006 C 
ENDBRANCH  78  95
ENDBRANCH  75  78
ENDBRANCH  73  74
ENDBRANCH  72  73
ENDBRANCH   1  72
TORSDOF 17
ENDMDL
MODEL 3
REMARK VINA RESULT:     -11.5      1.710      7.707
REMARK SMILES O=C(NCCCCNC(=O)[C@@H](NC(=O)[C@H]1CC[C@@H]2CCCC[C@H]2[NH2+]1)C1CC1)c1ccc(-c2c3nc(c(-c4cccc(S(=O)(=O)[O-])c4F)c4ccc([nH]4)c(-c4cccc(S(=O)(=O)[O-])c4F)c4nc(c(-c5cccc(S(=O)(=O)[O-])c5F)c5ccc2[nH]5)C=C4)C=C3)cc1
REMARK SMILES IDX 5 1 4 2 3 3 1 4 2 5 28 7 29 8 90 9 30 10 89 11 31 12 32 13
REMARK SMILES IDX 33 14 83 15 34 16 88 17 82 18 84 19 35 20 87 21 81 22 80 23
REMARK SMILES IDX 36 25 68 26 48 27 67 28 49 29 52 30 66 31 85 32 50 33 51 34
REMARK SMILES IDX 65 36 86 37 53 38 37 39 38 40 46 41 39 42 41 43 47 44 40 45
REMARK SMILES IDX 42 46 43 47 44 48 45 49 69 50 70 51 78 52 71 53 73 54 79 55
REMARK SMILES IDX 72 56 74 57 75 58 76 59 77 60 54 61 55 62 63 63 56 64 58 65
REMARK SMILES IDX 64 66 57 67 59 68 60 69 61 70 62 71 6 72 7 73 8 74 9 75
REMARK SMILES IDX 10 77 11 78 12 79 13 80 14 82 15 83 16 84 24 85 17 86 23 87
REMARK SMILES IDX 18 90 22 91 19 92 21 93 20 94 25 95 26 96 27 97
REMARK H PARENT 3 6 84 24 52 35 8 76 12 81 24 88 24 89
REMARK Flexibility Score: inf
ROOT
ATOM      1  C   UNL A   1      39.240  21.480  25.786  1.00  0.00     0.023 C 
ENDROOT
BRANCH   1   2
ATOM      2  C   UNL A   1      39.773  20.387  26.705  1.00  0.00     0.116 C 
BRANCH   2   3
ATOM      3  N   UNL A   1      40.831  19.592  26.101  1.00  0.00    -0.352 N 
ATOM      4  O   UNL A   1      42.871  19.232  25.197  1.00  0.00    -0.269 OA
ATOM      5  C   UNL A   1      42.119  19.978  25.814  1.00  0.00     0.251 C 
ATOM      6  H   UNL A   1      40.596  18.665  25.868  1.00  0.00     0.163 HD
BRANCH   5   7
ATOM      7  C   UNL A   1      42.560  21.323  26.234  1.00  0.00     0.039 A 
ATOM      8  C   UNL A   1      42.757  21.602  27.589  1.00  0.00     0.014 A 
ATOM      9  C   UNL A   1      42.703  22.323  25.270  1.00  0.00     0.014 A 
ATOM     10  C   UNL A   1      42.961  22.915  27.993  1.00  0.00     0.010 A 
ATOM     11  C   UNL A   1      42.984  23.628  25.676  1.00  0.00     0.010 A 
ATOM     12  C   UNL A   1      43.080  23.941  27.040  1.00  0.00    -0.014 A 
BRANCH  12  13
ATOM     13  C   UNL A   1      43.363  25.325  27.490  1.00  0.00     0.031 A 
ATOM     14  C   UNL A   1      44.753  25.894  27.437  1.00  0.00     0.074 A 
ATOM     15  C   UNL A   1      42.342  26.066  27.964  1.00  0.00     0.049 A 
ATOM     16  N   UNL A   1      45.166  27.083  27.796  1.00  0.00    -0.248 NA
ATOM     17  C   UNL A   1      45.819  25.020  26.922  1.00  0.00     0.031 C 
ATOM     18  C   UNL A   1      40.960  25.599  28.100  1.00  0.00     0.029 A 
ATOM     19  N   UNL A   1      42.306  27.356  28.423  1.00  0.00    -0.354 N 
ATOM     20  C   UNL A   1      46.541  27.088  27.594  1.00  0.00     0.074 A 
ATOM     21  C   UNL A   1      46.896  25.781  27.081  1.00  0.00     0.031 C 
ATOM     22  C   UNL A   1      40.207  26.593  28.591  1.00  0.00     0.029 A 
ATOM     23  C   UNL A   1      41.060  27.748  28.852  1.00  0.00     0.049 A 
ATOM     24  H   UNL A   1      43.093  27.945  28.444  1.00  0.00     0.167 HD
ATOM     25  C   UNL A   1      47.424  28.095  27.801  1.00  0.00     0.034 A 
ATOM     26  C   UNL A   1      40.649  28.902  29.409  1.00  0.00     0.034 A 
ATOM     27  C   UNL A   1      47.056  29.405  28.271  1.00  0.00     0.049 A 
ATOM     28  C   UNL A   1      41.642  30.010  29.598  1.00  0.00     0.074 A 
ATOM     29  C   UNL A   1      47.866  30.513  28.450  1.00  0.00     0.029 A 
ATOM     30  N   UNL A   1      45.775  29.783  28.642  1.00  0.00    -0.354 N 
ATOM     31  N   UNL A   1      42.914  30.037  29.280  1.00  0.00    -0.248 NA
ATOM     32  C   UNL A   1      41.141  31.255  30.195  1.00  0.00     0.031 C 
ATOM     33  C   UNL A   1      47.075  31.559  28.939  1.00  0.00     0.029 A 
ATOM     34  C   UNL A   1      45.770  31.106  29.054  1.00  0.00     0.049 A 
ATOM     35  H   UNL A   1      44.983  29.198  28.615  1.00  0.00     0.167 HD
ATOM     36  C   UNL A   1      43.362  31.307  29.618  1.00  0.00     0.074 A 
ATOM     37  C   UNL A   1      42.219  32.029  30.141  1.00  0.00     0.031 C 
ATOM     38  C   UNL A   1      44.612  31.822  29.524  1.00  0.00     0.034 A 
BRANCH  25  39
ATOM     39  C   UNL A   1      48.873  27.838  27.478  1.00  0.00     0.023 A 
ATOM     40  C   UNL A   1      49.750  27.431  28.504  1.00  0.00     0.012 A 
ATOM     41  C   UNL A   1      49.351  27.930  26.156  1.00  0.00     0.148 A 
ATOM     42  C   UNL A   1      51.086  27.145  28.225  1.00  0.00     0.002 A 
ATOM     43  C   UNL A   1      50.676  27.608  25.879  1.00  0.00     0.091 A 
ATOM     44  F   UNL A   1      48.510  28.342  25.197  1.00  0.00    -0.205 F 
ATOM     45  C   UNL A   1      51.546  27.223  26.912  1.00  0.00     0.022 A 
BRANCH  43  46
ATOM     46  S   UNL A   1      51.337  27.610  24.208  1.00  0.00     0.127 S 
ATOM     47  O   UNL A   1      51.332  29.037  23.891  1.00  0.00    -0.237 OA
ATOM     48  O   UNL A   1      52.670  27.035  24.398  1.00  0.00    -0.237 OA
ATOM     49  O   UNL A   1      50.431  26.784  23.423  1.00  0.00    -0.744 OA
ENDBRANCH  43  46
ENDBRANCH  25  39
BRANCH  26  50
ATOM     50  C   UNL A   1      39.213  29.067  29.769  1.00  0.00     0.023 A 
ATOM     51  C   UNL A   1      38.771  28.668  31.044  1.00  0.00     0.012 A 
ATOM     52  C   UNL A   1      38.307  29.689  28.889  1.00  0.00     0.148 A 
ATOM     53  C   UNL A   1      37.446  28.871  31.430  1.00  0.00     0.002 A 
ATOM     54  C   UNL A   1      37.005  29.942  29.302  1.00  0.00     0.091 A 
ATOM     55  F   UNL A   1      38.745  30.047  27.674  1.00  0.00    -0.205 F 
ATOM     56  C   UNL A   1      36.568  29.521  30.566  1.00  0.00     0.022 A 
BRANCH  54  57
ATOM     57  S   UNL A   1      35.859  30.905  28.310  1.00  0.00     0.127 S 
ATOM     58  O   UNL A   1      34.745  31.091  29.234  1.00  0.00    -0.237 OA
ATOM     59  O   UNL A   1      36.637  32.114  28.031  1.00  0.00    -0.237 OA
ATOM     60  O   UNL A   1      35.583  30.092  27.133  1.00  0.00    -0.744 OA
ENDBRANCH  54  57
ENDBRANCH  26  50
BRANCH  38  61
ATOM     61  C   UNL A   1      44.809  33.243  29.980  1.00  0.00     0.023 A 
ATOM     62  C   UNL A   1      45.293  33.495  31.279  1.00  0.00     0.012 A 
ATOM     63  C   UNL A   1      44.583  34.322  29.104  1.00  0.00     0.148 A 
ATOM     64  C   UNL A   1      45.521  34.800  31.708  1.00  0.00     0.002 A 
ATOM     65  C   UNL A   1      44.852  35.618  29.524  1.00  0.00     0.091 A 
ATOM     66  F   UNL A   1      44.100  34.062  27.879  1.00  0.00    -0.205 F 
ATOM     67  C   UNL A   1      45.313  35.861  30.829  1.00  0.00     0.022 A 
BRANCH  65  68
ATOM     68  S   UNL A   1      44.695  37.031  28.426  1.00  0.00     0.127 S 
ATOM     69  O   UNL A   1      43.246  37.107  28.244  1.00  0.00    -0.237 OA
ATOM     70  O   UNL A   1      45.264  38.116  29.226  1.00  0.00    -0.237 OA
ATOM     71  O   UNL A   1      45.462  36.696  27.236  1.00  0.00    -0.744 OA
ENDBRANCH  65  68
ENDBRANCH  38  61
ENDBRANCH  12  13
ENDBRANCH   5   7
ENDBRANCH   2   3
ENDBRANCH   1   2
BRANCH   1  72
ATOM     72  C   UNL A   1      38.957  22.813  26.474  1.00  0.00     0.023 C 
BRANCH  72  73
ATOM     73  C   UNL A   1      37.771  23.567  25.885  1.00  0.00     0.116 C 
BRANCH  73  74
ATOM     74  N   UNL A   1      37.614  23.310  24.463  1.00  0.00    -0.354 N 
ATOM     75  C   UNL A   1      36.477  23.015  23.755  1.00  0.00     0.242 C 
ATOM     76  H   UNL A   1      38.442  23.355  23.932  1.00  0.00     0.163 HD
ATOM     77  O   UNL A   1      36.547  22.979  22.524  1.00  0.00    -0.273 OA
BRANCH  75  78
ATOM     78  C   UNL A   1      35.114  22.873  24.492  1.00  0.00     0.174 C 
BRANCH  78  79
ATOM     79  N   UNL A   1      34.064  23.157  23.499  1.00  0.00    -0.339 N 
ATOM     80  C   UNL A   1      33.450  24.260  22.995  1.00  0.00     0.278 C 
ATOM     81  H   UNL A   1      33.714  22.330  23.093  1.00  0.00     0.164 HD
ATOM     82  O   UNL A   1      32.767  24.098  21.981  1.00  0.00    -0.268 OA
BRANCH  80  83
ATOM     83  C   UNL A   1      33.555  25.612  23.710  1.00  0.00     0.272 C 
ATOM     84  C   UNL A   1      33.508  26.783  22.720  1.00  0.00     0.076 C 
ATOM     85  N   UNL A   1      32.412  25.781  24.634  1.00  0.00    -0.333 N 
ATOM     86  C   UNL A   1      33.621  28.121  23.458  1.00  0.00     0.016 C 
ATOM     87  C   UNL A   1      32.635  26.952  25.478  1.00  0.00     0.186 C 
ATOM     88  H   UNL A   1      32.323  24.951  25.221  1.00  0.00     0.347 HD
ATOM     89  H   UNL A   1      31.555  25.908  24.095  1.00  0.00     0.347 HD
ATOM     90  C   UNL A   1      32.603  28.220  24.607  1.00  0.00     0.048 C 
ATOM     91  C   UNL A   1      31.595  27.032  26.601  1.00  0.00     0.065 C 
ATOM     92  C   UNL A   1      32.859  29.460  25.473  1.00  0.00     0.010 C 
ATOM     93  C   UNL A   1      31.852  28.260  27.472  1.00  0.00     0.006 C 
ATOM     94  C   UNL A   1      31.880  29.544  26.645  1.00  0.00     0.001 C 
ENDBRANCH  80  83
ENDBRANCH  78  79
BRANCH  78  95
ATOM     95  C   UNL A   1      35.054  21.543  25.202  1.00  0.00     0.021 C 
ATOM     96  C   UNL A   1      34.427  21.447  26.577  1.00  0.00     0.006 C 
ATOM     97  C   UNL A   1      33.742  20.818  25.403  1.00  0.00     0.006 C 
ENDBRANCH  78  95
ENDBRANCH  75  78
ENDBRANCH  73  74
ENDBRANCH  72  73
ENDBRANCH   1  72
TORSDOF 17
ENDMDL
