MODEL 1
REMARK VINA RESULT:     -10.1      0.000      0.000
REMARK SMILES O=C(NCCCCNC(=O)[C@H]1[C@@H]2C[C@H]3C[C@@H](C2)C[C@]1(n1ncc(N2CCN(c4ccc(F)cc4)CC2)c(Cl)c1=O)C3)c1ccc(-c2c3nc(c(-c4cccc(S(=O)(=O)[O-])c4F)c4ccc([nH]4)c(-c4cccc(S(=O)(=O)[O-])c4F)c4nc(c(-c5cccc(S(=O)(=O)[O-])c5F)c5ccc2[nH]5)C=C4)C=C3)cc1
REMARK SMILES IDX 5 1 4 2 3 3 1 4 2 5 42 7 43 8 104 9 44 10 103 11 45 12 46 13
REMARK SMILES IDX 47 14 97 15 48 16 102 17 96 18 98 19 49 20 101 21 95 22
REMARK SMILES IDX 94 23 50 25 82 26 62 27 81 28 63 29 66 30 80 31 99 32 64 33
REMARK SMILES IDX 65 34 79 36 100 37 67 38 51 39 52 40 60 41 53 42 55 43 61 44
REMARK SMILES IDX 54 45 56 46 57 47 58 48 59 49 83 50 84 51 92 52 85 53 87 54
REMARK SMILES IDX 93 55 86 56 88 57 89 58 90 59 91 60 68 61 69 62 77 63 70 64
REMARK SMILES IDX 72 65 78 66 71 67 73 68 74 69 75 70 76 71 6 72 7 73 8 74
REMARK SMILES IDX 9 75 10 77 11 78 12 79 19 80 17 81 13 82 41 83 18 84 16 85
REMARK SMILES IDX 14 86 15 87 20 88 21 89 39 90 22 91 37 92 40 93 23 94 38 95
REMARK SMILES IDX 24 96 25 97 36 98 26 99 35 100 27 101 28 102 29 103 34 104
REMARK SMILES IDX 30 105 33 106 31 107 32 108
REMARK H PARENT 3 6 98 24 66 35 8 76
REMARK Flexibility Score: inf
ROOT
ATOM      1  C   UNL A   1      46.061  42.021  30.787  1.00  0.00     0.023 C 
ENDROOT
BRANCH   1   2
ATOM      2  C   UNL A   1      46.381  41.029  31.910  1.00  0.00     0.116 C 
BRANCH   2   3
ATOM      3  N   UNL A   1      45.459  41.070  33.033  1.00  0.00    -0.352 N 
ATOM      4  O   UNL A   1      43.789  40.450  34.401  1.00  0.00    -0.269 OA
ATOM      5  C   UNL A   1      44.517  40.159  33.453  1.00  0.00     0.251 C 
ATOM      6  H   UNL A   1      45.519  41.883  33.584  1.00  0.00     0.163 HD
BRANCH   5   7
ATOM      7  C   UNL A   1      44.343  38.849  32.779  1.00  0.00     0.039 A 
ATOM      8  C   UNL A   1      44.667  37.685  33.485  1.00  0.00     0.014 A 
ATOM      9  C   UNL A   1      43.931  38.752  31.447  1.00  0.00     0.014 A 
ATOM     10  C   UNL A   1      44.531  36.431  32.879  1.00  0.00     0.010 A 
ATOM     11  C   UNL A   1      43.734  37.497  30.864  1.00  0.00     0.010 A 
ATOM     12  C   UNL A   1      44.042  36.320  31.567  1.00  0.00    -0.014 A 
BRANCH  12  13
ATOM     13  C   UNL A   1      43.887  34.992  30.909  1.00  0.00     0.031 A 
ATOM     14  C   UNL A   1      44.985  34.451  30.027  1.00  0.00     0.074 A 
ATOM     15  C   UNL A   1      42.750  34.283  31.066  1.00  0.00     0.049 A 
ATOM     16  N   UNL A   1      45.008  33.347  29.325  1.00  0.00    -0.248 NA
ATOM     17  C   UNL A   1      46.213  35.257  29.907  1.00  0.00     0.031 C 
ATOM     18  C   UNL A   1      41.594  34.699  31.861  1.00  0.00     0.029 A 
ATOM     19  N   UNL A   1      42.375  33.063  30.553  1.00  0.00    -0.354 N 
ATOM     20  C   UNL A   1      46.227  33.343  28.659  1.00  0.00     0.074 A 
ATOM     21  C   UNL A   1      46.914  34.563  29.021  1.00  0.00     0.031 C 
ATOM     22  C   UNL A   1      40.647  33.748  31.797  1.00  0.00     0.029 A 
ATOM     23  C   UNL A   1      41.112  32.667  30.930  1.00  0.00     0.049 A 
ATOM     24  H   UNL A   1      42.955  32.524  29.969  1.00  0.00     0.167 HD
ATOM     25  C   UNL A   1      46.745  32.396  27.843  1.00  0.00     0.034 A 
ATOM     26  C   UNL A   1      40.402  31.564  30.614  1.00  0.00     0.034 A 
ATOM     27  C   UNL A   1      46.100  31.152  27.530  1.00  0.00     0.049 A 
ATOM     28  C   UNL A   1      41.010  30.522  29.713  1.00  0.00     0.074 A 
ATOM     29  C   UNL A   1      46.588  30.107  26.762  1.00  0.00     0.029 A 
ATOM     30  N   UNL A   1      44.843  30.777  27.967  1.00  0.00    -0.354 N 
ATOM     31  N   UNL A   1      42.201  30.501  29.169  1.00  0.00    -0.248 NA
ATOM     32  C   UNL A   1      40.187  29.342  29.402  1.00  0.00     0.031 C 
ATOM     33  C   UNL A   1      45.620  29.103  26.727  1.00  0.00     0.029 A 
ATOM     34  C   UNL A   1      44.537  29.516  27.487  1.00  0.00     0.049 A 
ATOM     35  H   UNL A   1      44.254  31.325  28.534  1.00  0.00     0.167 HD
ATOM     36  C   UNL A   1      42.284  29.297  28.480  1.00  0.00     0.074 A 
ATOM     37  C   UNL A   1      41.025  28.609  28.679  1.00  0.00     0.031 C 
ATOM     38  C   UNL A   1      43.309  28.814  27.741  1.00  0.00     0.034 A 
BRANCH  25  39
ATOM     39  C   UNL A   1      48.120  32.612  27.274  1.00  0.00     0.023 A 
ATOM     40  C   UNL A   1      48.286  33.533  26.221  1.00  0.00     0.012 A 
ATOM     41  C   UNL A   1      49.251  32.030  27.877  1.00  0.00     0.148 A 
ATOM     42  C   UNL A   1      49.562  33.876  25.777  1.00  0.00     0.002 A 
ATOM     43  C   UNL A   1      50.521  32.398  27.449  1.00  0.00     0.091 A 
ATOM     44  F   UNL A   1      49.062  31.154  28.873  1.00  0.00    -0.205 F 
ATOM     45  C   UNL A   1      50.677  33.319  26.399  1.00  0.00     0.022 A 
BRANCH  43  46
ATOM     46  S   UNL A   1      52.025  31.787  28.217  1.00  0.00     0.127 S 
ATOM     47  O   UNL A   1      53.054  32.454  27.420  1.00  0.00    -0.237 OA
ATOM     48  O   UNL A   1      51.893  32.286  29.586  1.00  0.00    -0.237 OA
ATOM     49  O   UNL A   1      51.989  30.337  28.082  1.00  0.00    -0.744 OA
ENDBRANCH  43  46
ENDBRANCH  25  39
BRANCH  26  50
ATOM     50  C   UNL A   1      39.053  31.355  31.208  1.00  0.00     0.023 A 
ATOM     51  C   UNL A   1      38.930  30.572  32.373  1.00  0.00     0.012 A 
ATOM     52  C   UNL A   1      37.903  31.943  30.649  1.00  0.00     0.148 A 
ATOM     53  C   UNL A   1      37.683  30.366  32.963  1.00  0.00     0.002 A 
ATOM     54  C   UNL A   1      36.669  31.766  31.264  1.00  0.00     0.091 A 
ATOM     55  F   UNL A   1      38.045  32.675  29.535  1.00  0.00    -0.205 F 
ATOM     56  C   UNL A   1      36.555  30.969  32.415  1.00  0.00     0.022 A 
BRANCH  54  57
ATOM     57  S   UNL A   1      35.172  32.572  30.684  1.00  0.00     0.127 S 
ATOM     58  O   UNL A   1      34.876  31.818  29.469  1.00  0.00    -0.237 OA
ATOM     59  O   UNL A   1      34.253  32.332  31.798  1.00  0.00    -0.237 OA
ATOM     60  O   UNL A   1      35.527  33.970  30.483  1.00  0.00    -0.744 OA
ENDBRANCH  54  57
ENDBRANCH  26  50
BRANCH  38  61
ATOM     61  C   UNL A   1      43.160  27.458  27.106  1.00  0.00     0.023 A 
ATOM     62  C   UNL A   1      42.704  27.361  25.778  1.00  0.00     0.012 A 
ATOM     63  C   UNL A   1      43.618  26.306  27.774  1.00  0.00     0.148 A 
ATOM     64  C   UNL A   1      42.701  26.130  25.123  1.00  0.00     0.002 A 
ATOM     65  C   UNL A   1      43.645  25.089  27.103  1.00  0.00     0.091 A 
ATOM     66  F   UNL A   1      44.046  26.429  29.039  1.00  0.00    -0.205 F 
ATOM     67  C   UNL A   1      43.184  24.999  25.780  1.00  0.00     0.022 A 
BRANCH  65  68
ATOM     68  S   UNL A   1      44.318  23.592  27.835  1.00  0.00     0.127 S 
ATOM     69  O   UNL A   1      43.428  23.396  28.979  1.00  0.00    -0.237 OA
ATOM     70  O   UNL A   1      44.150  22.619  26.758  1.00  0.00    -0.237 OA
ATOM     71  O   UNL A   1      45.702  23.894  28.176  1.00  0.00    -0.744 OA
ENDBRANCH  65  68
ENDBRANCH  38  61
ENDBRANCH  12  13
ENDBRANCH   5   7
ENDBRANCH   2   3
ENDBRANCH   1   2
BRANCH   1  72
ATOM     72  C   UNL A   1      44.634  42.043  30.223  1.00  0.00     0.023 C 
BRANCH  72  73
ATOM     73  C   UNL A   1      44.463  42.383  28.744  1.00  0.00     0.116 C 
BRANCH  73  74
ATOM     74  N   UNL A   1      43.669  41.471  27.921  1.00  0.00    -0.356 N 
ATOM     75  C   UNL A   1      44.173  40.543  26.995  1.00  0.00     0.225 C 
ATOM     76  H   UNL A   1      42.691  41.512  28.024  1.00  0.00     0.163 HD
ATOM     77  O   UNL A   1      43.421  39.995  26.207  1.00  0.00    -0.275 OA
BRANCH  75  78
ATOM     78  C   UNL A   1      45.646  40.174  27.192  1.00  0.00     0.109 C 
ATOM     79  C   UNL A   1      45.596  38.849  28.040  1.00  0.00     0.004 C 
ATOM     80  C   UNL A   1      46.768  40.039  26.105  1.00  0.00     0.079 C 
ATOM     81  C   UNL A   1      45.481  37.590  27.158  1.00  0.00     0.008 C 
ATOM     82  C   UNL A   1      46.874  38.763  28.875  1.00  0.00     0.008 C 
ATOM     83  C   UNL A   1      48.084  39.914  27.004  1.00  0.00     0.035 C 
ATOM     84  C   UNL A   1      46.674  38.706  25.313  1.00  0.00     0.035 C 
ATOM     85  C   UNL A   1      46.691  37.483  26.232  1.00  0.00    -0.008 C 
ATOM     86  C   UNL A   1      48.076  38.699  27.934  1.00  0.00    -0.008 C 
ATOM     87  C   UNL A   1      47.983  37.447  27.062  1.00  0.00     0.007 C 
BRANCH  80  88
ATOM     88  N   UNL A   1      47.015  41.184  25.135  1.00  0.00    -0.222 N 
ATOM     89  N   UNL A   1      47.061  40.822  23.797  1.00  0.00    -0.175 NA
ATOM     90  C   UNL A   1      46.885  42.532  25.504  1.00  0.00     0.288 A 
ATOM     91  C   UNL A   1      46.608  41.661  22.928  1.00  0.00     0.161 A 
ATOM     92  C   UNL A   1      46.346  43.445  24.430  1.00  0.00     0.132 A 
ATOM     93  O   UNL A   1      47.042  42.958  26.644  1.00  0.00    -0.266 OA
ATOM     94  C   UNL A   1      46.060  43.008  23.192  1.00  0.00     0.082 A 
ATOM     95  Cl  UNL A   1      45.876  45.041  24.932  1.00  0.00    -0.076 Cl
BRANCH  94  96
ATOM     96  N   UNL A   1      45.392  43.664  22.152  1.00  0.00    -0.365 N 
ATOM     97  C   UNL A   1      46.022  44.760  21.367  1.00  0.00     0.138 C 
ATOM     98  C   UNL A   1      43.924  43.586  21.980  1.00  0.00     0.138 C 
ATOM     99  C   UNL A   1      45.617  44.700  19.866  1.00  0.00     0.138 C 
ATOM    100  C   UNL A   1      43.528  43.527  20.490  1.00  0.00     0.138 C 
ATOM    101  N   UNL A   1      44.154  44.640  19.753  1.00  0.00    -0.368 N 
BRANCH 101 102
ATOM    102  C   UNL A   1      43.454  45.271  18.747  1.00  0.00     0.037 A 
ATOM    103  C   UNL A   1      44.115  46.199  17.924  1.00  0.00     0.029 A 
ATOM    104  C   UNL A   1      42.100  45.019  18.488  1.00  0.00     0.029 A 
ATOM    105  C   UNL A   1      43.458  46.848  16.878  1.00  0.00     0.041 A 
ATOM    106  C   UNL A   1      41.429  45.680  17.451  1.00  0.00     0.041 A 
ATOM    107  C   UNL A   1      42.115  46.586  16.654  1.00  0.00     0.123 A 
ATOM    108  F   UNL A   1      41.477  47.212  15.656  1.00  0.00    -0.207 F 
ENDBRANCH 101 102
ENDBRANCH  94  96
ENDBRANCH  80  88
ENDBRANCH  75  78
ENDBRANCH  73  74
ENDBRANCH  72  73
ENDBRANCH   1  72
TORSDOF 17
ENDMDL
MODEL 2
REMARK VINA RESULT:      -9.8      1.307      7.082
REMARK SMILES O=C(NCCCCNC(=O)[C@H]1[C@@H]2C[C@H]3C[C@@H](C2)C[C@]1(n1ncc(N2CCN(c4ccc(F)cc4)CC2)c(Cl)c1=O)C3)c1ccc(-c2c3nc(c(-c4cccc(S(=O)(=O)[O-])c4F)c4ccc([nH]4)c(-c4cccc(S(=O)(=O)[O-])c4F)c4nc(c(-c5cccc(S(=O)(=O)[O-])c5F)c5ccc2[nH]5)C=C4)C=C3)cc1
REMARK SMILES IDX 5 1 4 2 3 3 1 4 2 5 42 7 43 8 104 9 44 10 103 11 45 12 46 13
REMARK SMILES IDX 47 14 97 15 48 16 102 17 96 18 98 19 49 20 101 21 95 22
REMARK SMILES IDX 94 23 50 25 82 26 62 27 81 28 63 29 66 30 80 31 99 32 64 33
REMARK SMILES IDX 65 34 79 36 100 37 67 38 51 39 52 40 60 41 53 42 55 43 61 44
REMARK SMILES IDX 54 45 56 46 57 47 58 48 59 49 83 50 84 51 92 52 85 53 87 54
REMARK SMILES IDX 93 55 86 56 88 57 89 58 90 59 91 60 68 61 69 62 77 63 70 64
REMARK SMILES IDX 72 65 78 66 71 67 73 68 74 69 75 70 76 71 6 72 7 73 8 74
REMARK SMILES IDX 9 75 10 77 11 78 12 79 19 80 17 81 13 82 41 83 18 84 16 85
REMARK SMILES IDX 14 86 15 87 20 88 21 89 39 90 22 91 37 92 40 93 23 94 38 95
REMARK SMILES IDX 24 96 25 97 36 98 26 99 35 100 27 101 28 102 29 103 34 104
REMARK SMILES IDX 30 105 33 106 31 107 32 108
REMARK H PARENT 3 6 98 24 66 35 8 76
REMARK Flexibility Score: inf
ROOT
ATOM      1  C   UNL A   1      43.378  42.569  32.035  1.00  0.00     0.023 C 
ENDROOT
BRANCH   1   2
ATOM      2  C   UNL A   1      42.720  41.597  33.020  1.00  0.00     0.116 C 
BRANCH   2   3
ATOM      3  N   UNL A   1      43.515  41.303  34.201  1.00  0.00    -0.352 N 
ATOM      4  O   UNL A   1      44.651  40.101  35.720  1.00  0.00    -0.269 OA
ATOM      5  C   UNL A   1      44.076  40.123  34.633  1.00  0.00     0.251 C 
ATOM      6  H   UNL A   1      43.680  42.076  34.788  1.00  0.00     0.163 HD
BRANCH   5   7
ATOM      7  C   UNL A   1      43.985  38.877  33.833  1.00  0.00     0.039 A 
ATOM      8  C   UNL A   1      44.103  37.649  34.494  1.00  0.00     0.014 A 
ATOM      9  C   UNL A   1      43.852  38.900  32.443  1.00  0.00     0.014 A 
ATOM     10  C   UNL A   1      44.037  36.451  33.773  1.00  0.00     0.010 A 
ATOM     11  C   UNL A   1      43.722  37.702  31.731  1.00  0.00     0.010 A 
ATOM     12  C   UNL A   1      43.824  36.463  32.384  1.00  0.00    -0.014 A 
BRANCH  12  13
ATOM     13  C   UNL A   1      43.747  35.197  31.603  1.00  0.00     0.031 A 
ATOM     14  C   UNL A   1      42.501  34.347  31.659  1.00  0.00     0.074 A 
ATOM     15  C   UNL A   1      44.802  34.782  30.871  1.00  0.00     0.049 A 
ATOM     16  N   UNL A   1      42.269  33.188  31.098  1.00  0.00    -0.248 NA
ATOM     17  C   UNL A   1      41.372  34.858  32.456  1.00  0.00     0.031 C 
ATOM     18  C   UNL A   1      46.080  35.484  30.752  1.00  0.00     0.029 A 
ATOM     19  N   UNL A   1      44.970  33.658  30.096  1.00  0.00    -0.354 N 
ATOM     20  C   UNL A   1      40.991  32.818  31.500  1.00  0.00     0.074 A 
ATOM     21  C   UNL A   1      40.499  33.864  32.369  1.00  0.00     0.031 C 
ATOM     22  C   UNL A   1      46.894  34.787  29.942  1.00  0.00     0.029 A 
ATOM     23  C   UNL A   1      46.211  33.571  29.507  1.00  0.00     0.049 A 
ATOM     24  H   UNL A   1      44.268  32.979  29.973  1.00  0.00     0.167 HD
ATOM     25  C   UNL A   1      40.277  31.722  31.153  1.00  0.00     0.034 A 
ATOM     26  C   UNL A   1      46.745  32.621  28.711  1.00  0.00     0.034 A 
ATOM     27  C   UNL A   1      40.730  30.712  30.239  1.00  0.00     0.049 A 
ATOM     28  C   UNL A   1      45.922  31.419  28.333  1.00  0.00     0.074 A 
ATOM     29  C   UNL A   1      40.040  29.601  29.783  1.00  0.00     0.029 A 
ATOM     30  N   UNL A   1      41.975  30.687  29.637  1.00  0.00    -0.354 N 
ATOM     31  N   UNL A   1      44.683  31.138  28.654  1.00  0.00    -0.248 NA
ATOM     32  C   UNL A   1      46.558  30.416  27.465  1.00  0.00     0.031 C 
ATOM     33  C   UNL A   1      40.872  28.898  28.911  1.00  0.00     0.029 A 
ATOM     34  C   UNL A   1      42.074  29.581  28.812  1.00  0.00     0.049 A 
ATOM     35  H   UNL A   1      42.685  31.355  29.775  1.00  0.00     0.167 HD
ATOM     36  C   UNL A   1      44.382  29.947  28.005  1.00  0.00     0.074 A 
ATOM     37  C   UNL A   1      45.564  29.560  27.264  1.00  0.00     0.031 C 
ATOM     38  C   UNL A   1      43.231  29.237  28.031  1.00  0.00     0.034 A 
BRANCH  25  39
ATOM     39  C   UNL A   1      38.883  31.573  31.696  1.00  0.00     0.023 A 
ATOM     40  C   UNL A   1      38.705  30.998  32.970  1.00  0.00     0.012 A 
ATOM     41  C   UNL A   1      37.782  32.135  31.023  1.00  0.00     0.148 A 
ATOM     42  C   UNL A   1      37.447  30.988  33.570  1.00  0.00     0.002 A 
ATOM     43  C   UNL A   1      36.536  32.148  31.640  1.00  0.00     0.091 A 
ATOM     44  F   UNL A   1      37.981  32.670  29.811  1.00  0.00    -0.205 F 
ATOM     45  C   UNL A   1      36.368  31.574  32.912  1.00  0.00     0.022 A 
BRANCH  43  46
ATOM     46  S   UNL A   1      35.093  32.925  30.908  1.00  0.00     0.127 S 
ATOM     47  O   UNL A   1      35.019  32.249  29.613  1.00  0.00    -0.237 OA
ATOM     48  O   UNL A   1      34.036  32.557  31.850  1.00  0.00    -0.237 OA
ATOM     49  O   UNL A   1      35.390  34.349  30.839  1.00  0.00    -0.744 OA
ENDBRANCH  43  46
ENDBRANCH  25  39
BRANCH  26  50
ATOM     50  C   UNL A   1      48.117  32.800  28.162  1.00  0.00     0.023 A 
ATOM     51  C   UNL A   1      49.170  32.017  28.674  1.00  0.00     0.012 A 
ATOM     52  C   UNL A   1      48.381  33.714  27.123  1.00  0.00     0.148 A 
ATOM     53  C   UNL A   1      50.464  32.150  28.174  1.00  0.00     0.002 A 
ATOM     54  C   UNL A   1      49.666  33.815  26.603  1.00  0.00     0.091 A 
ATOM     55  F   UNL A   1      47.365  34.454  26.659  1.00  0.00    -0.205 F 
ATOM     56  C   UNL A   1      50.711  33.042  27.133  1.00  0.00     0.022 A 
BRANCH  54  57
ATOM     57  S   UNL A   1      50.065  34.869  25.205  1.00  0.00     0.127 S 
ATOM     58  O   UNL A   1      50.989  34.027  24.449  1.00  0.00    -0.237 OA
ATOM     59  O   UNL A   1      48.752  35.054  24.585  1.00  0.00    -0.237 OA
ATOM     60  O   UNL A   1      50.642  36.079  25.773  1.00  0.00    -0.744 OA
ENDBRANCH  54  57
ENDBRANCH  26  50
BRANCH  38  61
ATOM     61  C   UNL A   1      43.146  27.977  27.214  1.00  0.00     0.023 A 
ATOM     62  C   UNL A   1      42.753  28.051  25.865  1.00  0.00     0.012 A 
ATOM     63  C   UNL A   1      43.602  26.754  27.742  1.00  0.00     0.148 A 
ATOM     64  C   UNL A   1      42.811  26.919  25.051  1.00  0.00     0.002 A 
ATOM     65  C   UNL A   1      43.690  25.639  26.918  1.00  0.00     0.091 A 
ATOM     66  F   UNL A   1      43.968  26.713  29.033  1.00  0.00    -0.205 F 
ATOM     67  C   UNL A   1      43.292  25.720  25.573  1.00  0.00     0.022 A 
BRANCH  65  68
ATOM     68  S   UNL A   1      44.367  24.070  27.474  1.00  0.00     0.127 S 
ATOM     69  O   UNL A   1      43.452  23.722  28.560  1.00  0.00    -0.237 OA
ATOM     70  O   UNL A   1      44.240  23.238  26.279  1.00  0.00    -0.237 OA
ATOM     71  O   UNL A   1      45.738  24.343  27.886  1.00  0.00    -0.744 OA
ENDBRANCH  65  68
ENDBRANCH  38  61
ENDBRANCH  12  13
ENDBRANCH   5   7
ENDBRANCH   2   3
ENDBRANCH   1   2
BRANCH   1  72
ATOM     72  C   UNL A   1      44.364  42.002  31.006  1.00  0.00     0.023 C 
BRANCH  72  73
ATOM     73  C   UNL A   1      44.225  42.471  29.559  1.00  0.00     0.116 C 
BRANCH  73  74
ATOM     74  N   UNL A   1      43.443  41.640  28.644  1.00  0.00    -0.356 N 
ATOM     75  C   UNL A   1      43.960  40.799  27.646  1.00  0.00     0.225 C 
ATOM     76  H   UNL A   1      42.463  41.675  28.735  1.00  0.00     0.163 HD
ATOM     77  O   UNL A   1      43.219  40.327  26.799  1.00  0.00    -0.275 OA
BRANCH  75  78
ATOM     78  C   UNL A   1      45.428  40.409  27.830  1.00  0.00     0.109 C 
ATOM     79  C   UNL A   1      45.369  39.120  28.732  1.00  0.00     0.004 C 
ATOM     80  C   UNL A   1      46.527  40.208  26.729  1.00  0.00     0.079 C 
ATOM     81  C   UNL A   1      45.214  37.829  27.904  1.00  0.00     0.008 C 
ATOM     82  C   UNL A   1      46.661  39.043  29.546  1.00  0.00     0.008 C 
ATOM     83  C   UNL A   1      47.857  40.094  27.608  1.00  0.00     0.035 C 
ATOM     84  C   UNL A   1      46.392  38.846  25.993  1.00  0.00     0.035 C 
ATOM     85  C   UNL A   1      46.403  37.661  26.961  1.00  0.00    -0.008 C 
ATOM     86  C   UNL A   1      47.843  38.917  28.587  1.00  0.00    -0.008 C 
ATOM     87  C   UNL A   1      47.710  37.633  27.769  1.00  0.00     0.007 C 
BRANCH  80  88
ATOM     88  N   UNL A   1      46.777  41.308  25.709  1.00  0.00    -0.222 N 
ATOM     89  N   UNL A   1      46.920  40.875  24.399  1.00  0.00    -0.175 NA
ATOM     90  C   UNL A   1      46.562  42.666  25.991  1.00  0.00     0.288 A 
ATOM     91  C   UNL A   1      46.479  41.641  23.459  1.00  0.00     0.161 A 
ATOM     92  C   UNL A   1      46.046  43.490  24.836  1.00  0.00     0.132 A 
ATOM     93  O   UNL A   1      46.631  43.163  27.110  1.00  0.00    -0.266 OA
ATOM     94  C   UNL A   1      45.855  42.971  23.612  1.00  0.00     0.082 A 
ATOM     95  Cl  UNL A   1      45.473  45.085  25.216  1.00  0.00    -0.076 Cl
BRANCH  94  96
ATOM     96  N   UNL A   1      45.219  43.534  22.499  1.00  0.00    -0.365 N 
ATOM     97  C   UNL A   1      45.947  44.364  21.502  1.00  0.00     0.138 C 
ATOM     98  C   UNL A   1      43.748  43.657  22.406  1.00  0.00     0.138 C 
ATOM     99  C   UNL A   1      45.435  44.109  20.055  1.00  0.00     0.138 C 
ATOM    100  C   UNL A   1      43.245  43.405  20.969  1.00  0.00     0.138 C 
ATOM    101  N   UNL A   1      43.975  44.261  20.016  1.00  0.00    -0.368 N 
BRANCH 101 102
ATOM    102  C   UNL A   1      43.307  44.810  18.943  1.00  0.00     0.037 A 
ATOM    103  C   UNL A   1      43.850  45.932  18.294  1.00  0.00     0.029 A 
ATOM    104  C   UNL A   1      42.105  44.289  18.447  1.00  0.00     0.029 A 
ATOM    105  C   UNL A   1      43.225  46.513  17.189  1.00  0.00     0.041 A 
ATOM    106  C   UNL A   1      41.462  44.878  17.350  1.00  0.00     0.041 A 
ATOM    107  C   UNL A   1      42.030  45.981  16.729  1.00  0.00     0.123 A 
ATOM    108  F   UNL A   1      41.423  46.539  15.674  1.00  0.00    -0.207 F 
ENDBRANCH 101 102
ENDBRANCH  94  96
ENDBRANCH  80  88
ENDBRANCH  75  78
ENDBRANCH  73  74
ENDBRANCH  72  73
ENDBRANCH   1  72
TORSDOF 17
ENDMDL
MODEL 3
REMARK VINA RESULT:      -9.5      9.782     15.070
REMARK SMILES O=C(NCCCCNC(=O)[C@H]1[C@@H]2C[C@H]3C[C@@H](C2)C[C@]1(n1ncc(N2CCN(c4ccc(F)cc4)CC2)c(Cl)c1=O)C3)c1ccc(-c2c3nc(c(-c4cccc(S(=O)(=O)[O-])c4F)c4ccc([nH]4)c(-c4cccc(S(=O)(=O)[O-])c4F)c4nc(c(-c5cccc(S(=O)(=O)[O-])c5F)c5ccc2[nH]5)C=C4)C=C3)cc1
REMARK SMILES IDX 5 1 4 2 3 3 1 4 2 5 42 7 43 8 104 9 44 10 103 11 45 12 46 13
REMARK SMILES IDX 47 14 97 15 48 16 102 17 96 18 98 19 49 20 101 21 95 22
REMARK SMILES IDX 94 23 50 25 82 26 62 27 81 28 63 29 66 30 80 31 99 32 64 33
REMARK SMILES IDX 65 34 79 36 100 37 67 38 51 39 52 40 60 41 53 42 55 43 61 44
REMARK SMILES IDX 54 45 56 46 57 47 58 48 59 49 83 50 84 51 92 52 85 53 87 54
REMARK SMILES IDX 93 55 86 56 88 57 89 58 90 59 91 60 68 61 69 62 77 63 70 64
REMARK SMILES IDX 72 65 78 66 71 67 73 68 74 69 75 70 76 71 6 72 7 73 8 74
REMARK SMILES IDX 9 75 10 77 11 78 12 79 19 80 17 81 13 82 41 83 18 84 16 85
REMARK SMILES IDX 14 86 15 87 20 88 21 89 39 90 22 91 37 92 40 93 23 94 38 95
REMARK SMILES IDX 24 96 25 97 36 98 26 99 35 100 27 101 28 102 29 103 34 104
REMARK SMILES IDX 30 105 33 106 31 107 32 108
REMARK H PARENT 3 6 98 24 66 35 8 76
REMARK Flexibility Score: inf
ROOT
ATOM      1  C   UNL A   1      34.044  27.118  26.471  1.00  0.00     0.023 C 
ENDROOT
BRANCH   1   2
ATOM      2  C   UNL A   1      34.199  28.440  25.714  1.00  0.00     0.116 C 
BRANCH   2   3
ATOM      3  N   UNL A   1      33.821  29.620  26.476  1.00  0.00    -0.352 N 
ATOM      4  O   UNL A   1      33.933  31.245  28.022  1.00  0.00    -0.269 OA
ATOM      5  C   UNL A   1      34.495  30.306  27.460  1.00  0.00     0.251 C 
ATOM      6  H   UNL A   1      32.937  29.989  26.248  1.00  0.00     0.163 HD
BRANCH   5   7
ATOM      7  C   UNL A   1      35.868  29.927  27.875  1.00  0.00     0.039 A 
ATOM      8  C   UNL A   1      36.052  29.362  29.142  1.00  0.00     0.014 A 
ATOM      9  C   UNL A   1      36.980  30.179  27.067  1.00  0.00     0.014 A 
ATOM     10  C   UNL A   1      37.334  29.005  29.575  1.00  0.00     0.010 A 
ATOM     11  C   UNL A   1      38.251  29.763  27.474  1.00  0.00     0.010 A 
ATOM     12  C   UNL A   1      38.447  29.182  28.738  1.00  0.00    -0.014 A 
BRANCH  12  13
ATOM     13  C   UNL A   1      39.818  28.802  29.182  1.00  0.00     0.031 A 
ATOM     14  C   UNL A   1      40.531  27.641  28.533  1.00  0.00     0.074 A 
ATOM     15  C   UNL A   1      40.416  29.469  30.192  1.00  0.00     0.049 A 
ATOM     16  N   UNL A   1      41.698  27.126  28.824  1.00  0.00    -0.248 NA
ATOM     17  C   UNL A   1      39.841  26.963  27.421  1.00  0.00     0.031 C 
ATOM     18  C   UNL A   1      39.832  30.588  30.933  1.00  0.00     0.029 A 
ATOM     19  N   UNL A   1      41.647  29.292  30.779  1.00  0.00    -0.354 N 
ATOM     20  C   UNL A   1      41.865  26.050  27.960  1.00  0.00     0.074 A 
ATOM     21  C   UNL A   1      40.674  25.969  27.145  1.00  0.00     0.031 C 
ATOM     22  C   UNL A   1      40.706  31.007  31.862  1.00  0.00     0.029 A 
ATOM     23  C   UNL A   1      41.902  30.169  31.809  1.00  0.00     0.049 A 
ATOM     24  H   UNL A   1      42.287  28.602  30.490  1.00  0.00     0.167 HD
ATOM     25  C   UNL A   1      42.928  25.221  27.833  1.00  0.00     0.034 A 
ATOM     26  C   UNL A   1      42.971  30.286  32.624  1.00  0.00     0.034 A 
ATOM     27  C   UNL A   1      44.142  25.334  28.592  1.00  0.00     0.049 A 
ATOM     28  C   UNL A   1      44.143  29.358  32.451  1.00  0.00     0.074 A 
ATOM     29  C   UNL A   1      45.293  24.573  28.478  1.00  0.00     0.029 A 
ATOM     30  N   UNL A   1      44.370  26.262  29.592  1.00  0.00    -0.354 N 
ATOM     31  N   UNL A   1      44.313  28.407  31.566  1.00  0.00    -0.248 NA
ATOM     32  C   UNL A   1      45.279  29.533  33.369  1.00  0.00     0.031 C 
ATOM     33  C   UNL A   1      46.215  25.035  29.418  1.00  0.00     0.029 A 
ATOM     34  C   UNL A   1      45.644  26.094  30.104  1.00  0.00     0.049 A 
ATOM     35  H   UNL A   1      43.723  26.939  29.895  1.00  0.00     0.167 HD
ATOM     36  C   UNL A   1      45.582  27.892  31.800  1.00  0.00     0.074 A 
ATOM     37  C   UNL A   1      46.144  28.640  32.904  1.00  0.00     0.031 C 
ATOM     38  C   UNL A   1      46.217  26.883  31.160  1.00  0.00     0.034 A 
BRANCH  25  39
ATOM     39  C   UNL A   1      42.879  24.148  26.782  1.00  0.00     0.023 A 
ATOM     40  C   UNL A   1      43.606  24.327  25.589  1.00  0.00     0.012 A 
ATOM     41  C   UNL A   1      42.251  22.914  27.039  1.00  0.00     0.148 A 
ATOM     42  C   UNL A   1      43.713  23.289  24.664  1.00  0.00     0.002 A 
ATOM     43  C   UNL A   1      42.386  21.874  26.125  1.00  0.00     0.091 A 
ATOM     44  F   UNL A   1      41.563  22.774  28.179  1.00  0.00    -0.205 F 
ATOM     45  C   UNL A   1      43.115  22.062  24.938  1.00  0.00     0.022 A 
BRANCH  43  46
ATOM     46  S   UNL A   1      41.705  20.236  26.405  1.00  0.00     0.127 S 
ATOM     47  O   UNL A   1      42.341  19.467  25.336  1.00  0.00    -0.237 OA
ATOM     48  O   UNL A   1      42.191  19.930  27.750  1.00  0.00    -0.237 OA
ATOM     49  O   UNL A   1      40.260  20.371  26.286  1.00  0.00    -0.744 OA
ENDBRANCH  43  46
ENDBRANCH  25  39
BRANCH  26  50
ATOM     50  C   UNL A   1      43.012  31.373  33.641  1.00  0.00     0.023 A 
ATOM     51  C   UNL A   1      43.609  32.604  33.308  1.00  0.00     0.012 A 
ATOM     52  C   UNL A   1      42.443  31.206  34.919  1.00  0.00     0.148 A 
ATOM     53  C   UNL A   1      43.653  33.647  34.232  1.00  0.00     0.002 A 
ATOM     54  C   UNL A   1      42.457  32.262  35.822  1.00  0.00     0.091 A 
ATOM     55  F   UNL A   1      41.890  30.023  35.215  1.00  0.00    -0.205 F 
ATOM     56  C   UNL A   1      43.070  33.480  35.486  1.00  0.00     0.022 A 
BRANCH  54  57
ATOM     57  S   UNL A   1      41.655  32.175  37.428  1.00  0.00     0.127 S 
ATOM     58  O   UNL A   1      42.479  31.187  38.120  1.00  0.00    -0.237 OA
ATOM     59  O   UNL A   1      41.802  33.549  37.910  1.00  0.00    -0.237 OA
ATOM     60  O   UNL A   1      40.281  31.771  37.163  1.00  0.00    -0.744 OA
ENDBRANCH  54  57
ENDBRANCH  26  50
BRANCH  38  61
ATOM     61  C   UNL A   1      47.613  26.525  31.591  1.00  0.00     0.023 A 
ATOM     62  C   UNL A   1      48.708  27.211  31.032  1.00  0.00     0.012 A 
ATOM     63  C   UNL A   1      47.822  25.624  32.653  1.00  0.00     0.148 A 
ATOM     64  C   UNL A   1      49.996  27.001  31.524  1.00  0.00     0.002 A 
ATOM     65  C   UNL A   1      49.104  25.446  33.161  1.00  0.00     0.091 A 
ATOM     66  F   UNL A   1      46.760  24.983  33.164  1.00  0.00    -0.205 F 
ATOM     67  C   UNL A   1      50.191  26.131  32.595  1.00  0.00     0.022 A 
BRANCH  65  68
ATOM     68  S   UNL A   1      49.447  24.406  34.585  1.00  0.00     0.127 S 
ATOM     69  O   UNL A   1      50.896  24.555  34.718  1.00  0.00    -0.237 OA
ATOM     70  O   UNL A   1      48.668  25.057  35.637  1.00  0.00    -0.237 OA
ATOM     71  O   UNL A   1      48.994  23.068  34.229  1.00  0.00    -0.744 OA
ENDBRANCH  65  68
ENDBRANCH  38  61
ENDBRANCH  12  13
ENDBRANCH   5   7
ENDBRANCH   2   3
ENDBRANCH   1   2
BRANCH   1  72
ATOM     72  C   UNL A   1      33.385  25.938  25.744  1.00  0.00     0.023 C 
BRANCH  72  73
ATOM     73  C   UNL A   1      34.171  24.632  25.655  1.00  0.00     0.116 C 
BRANCH  73  74
ATOM     74  N   UNL A   1      35.248  24.548  24.670  1.00  0.00    -0.356 N 
ATOM     75  C   UNL A   1      35.762  23.370  24.106  1.00  0.00     0.225 C 
ATOM     76  H   UNL A   1      35.650  25.397  24.374  1.00  0.00     0.163 HD
ATOM     77  O   UNL A   1      36.801  23.400  23.469  1.00  0.00    -0.275 OA
BRANCH  75  78
ATOM     78  C   UNL A   1      34.842  22.151  24.212  1.00  0.00     0.109 C 
ATOM     79  C   UNL A   1      35.585  21.199  25.222  1.00  0.00     0.004 C 
ATOM     80  C   UNL A   1      33.305  22.117  24.519  1.00  0.00     0.079 C 
ATOM     81  C   UNL A   1      35.221  21.500  26.689  1.00  0.00     0.008 C 
ATOM     82  C   UNL A   1      35.202  19.756  24.894  1.00  0.00     0.008 C 
ATOM     83  C   UNL A   1      32.940  20.592  24.204  1.00  0.00     0.035 C 
ATOM     84  C   UNL A   1      32.994  22.320  26.027  1.00  0.00     0.035 C 
ATOM     85  C   UNL A   1      33.723  21.306  26.911  1.00  0.00    -0.008 C 
ATOM     86  C   UNL A   1      33.694  19.590  25.081  1.00  0.00    -0.008 C 
ATOM     87  C   UNL A   1      33.321  19.872  26.536  1.00  0.00     0.007 C 
BRANCH  80  88
ATOM     88  N   UNL A   1      32.355  22.968  23.690  1.00  0.00    -0.222 N 
ATOM     89  N   UNL A   1      31.229  23.418  24.364  1.00  0.00    -0.175 NA
ATOM     90  C   UNL A   1      32.720  23.530  22.457  1.00  0.00     0.288 A 
ATOM     91  C   UNL A   1      30.762  24.579  24.049  1.00  0.00     0.161 A 
ATOM     92  C   UNL A   1      32.131  24.889  22.170  1.00  0.00     0.132 A 
ATOM     93  O   UNL A   1      33.566  23.060  21.703  1.00  0.00    -0.266 OA
ATOM     94  C   UNL A   1      31.277  25.495  23.010  1.00  0.00     0.082 A 
ATOM     95  Cl  UNL A   1      32.796  25.752  20.816  1.00  0.00    -0.076 Cl
BRANCH  94  96
ATOM     96  N   UNL A   1      30.792  26.808  22.989  1.00  0.00    -0.365 N 
ATOM     97  C   UNL A   1      31.693  27.987  22.882  1.00  0.00     0.138 C 
ATOM     98  C   UNL A   1      29.420  27.153  23.424  1.00  0.00     0.138 C 
ATOM     99  C   UNL A   1      31.071  29.109  22.001  1.00  0.00     0.138 C 
ATOM    100  C   UNL A   1      28.808  28.266  22.548  1.00  0.00     0.138 C 
ATOM    101  N   UNL A   1      29.720  29.423  22.484  1.00  0.00    -0.368 N 
BRANCH 101 102
ATOM    102  C   UNL A   1      29.202  30.700  22.484  1.00  0.00     0.037 A 
ATOM    103  C   UNL A   1      29.297  31.483  23.648  1.00  0.00     0.029 A 
ATOM    104  C   UNL A   1      28.591  31.274  21.362  1.00  0.00     0.029 A 
ATOM    105  C   UNL A   1      28.809  32.790  23.693  1.00  0.00     0.041 A 
ATOM    106  C   UNL A   1      28.082  32.579  21.405  1.00  0.00     0.041 A 
ATOM    107  C   UNL A   1      28.200  33.325  22.570  1.00  0.00     0.123 A 
ATOM    108  F   UNL A   1      27.723  34.576  22.610  1.00  0.00    -0.207 F 
ENDBRANCH 101 102
ENDBRANCH  94  96
ENDBRANCH  80  88
ENDBRANCH  75  78
ENDBRANCH  73  74
ENDBRANCH  72  73
ENDBRANCH   1  72
TORSDOF 17
ENDMDL
