MODEL 1
REMARK VINA RESULT:     -10.9      0.000      0.000
REMARK SMILES C[NH+](C)CC(C)(C)CNc1cccc(F)c1C(=O)NCCCCNC(=O)c1ccc(-c2c3nc(c(-c4cccc(S(=O)(=O)[O-])c4F)c4ccc([nH]4)c(-c4cccc(S(=O)(=O)[O-])c4F)c4nc(c(-c5cccc(S(=O)(=O)[O-])c5F)c5ccc2[nH]5)C=C4)C=C3)cc1
REMARK SMILES IDX 20 1 19 2 17 3 18 4 16 6 10 7 11 8 12 9 14 10 13 11 15 12
REMARK SMILES IDX 9 13 8 15 5 16 6 17 7 18 4 19 2 20 1 21 3 22 21 24 22 25
REMARK SMILES IDX 23 26 24 27 25 28 26 30 27 31 28 32 89 33 29 34 88 35 30 36
REMARK SMILES IDX 31 37 32 38 82 39 33 40 87 41 81 42 83 43 34 44 86 45 80 46
REMARK SMILES IDX 79 47 35 49 67 50 47 51 66 52 48 53 51 54 65 55 84 56 49 57
REMARK SMILES IDX 50 58 64 60 85 61 52 62 36 63 37 64 45 65 38 66 40 67 46 68
REMARK SMILES IDX 39 69 41 70 42 71 43 72 44 73 68 74 69 75 77 76 70 77 72 78
REMARK SMILES IDX 78 79 71 80 73 81 74 82 75 83 76 84 53 85 54 86 62 87 55 88
REMARK SMILES IDX 57 89 63 90 56 91 58 92 59 93 60 94 61 95
REMARK H PARENT 19 5 9 14 2 23 24 29 83 48 51 59
REMARK Flexibility Score: inf
ROOT
ATOM      1  C   UNL A   1      33.204  29.605  25.681  1.00  0.00     0.116 C 
ENDROOT
BRANCH   1   2
ATOM      2  N   UNL A   1      33.571  29.343  24.304  1.00  0.00    -0.352 N 
ATOM      3  C   UNL A   1      32.938  28.723  23.257  1.00  0.00     0.256 C 
ATOM      4  O   UNL A   1      33.634  28.573  22.249  1.00  0.00    -0.269 OA
ATOM      5  H   UNL A   1      34.465  29.683  24.070  1.00  0.00     0.163 HD
BRANCH   3   6
ATOM      6  C   UNL A   1      31.542  28.168  23.285  1.00  0.00     0.098 A 
ATOM      7  C   UNL A   1      31.337  26.803  23.635  1.00  0.00     0.050 A 
ATOM      8  C   UNL A   1      30.022  26.326  23.811  1.00  0.00     0.027 A 
ATOM      9  C   UNL A   1      28.918  27.133  23.560  1.00  0.00     0.005 A 
ATOM     10  C   UNL A   1      30.418  28.900  22.894  1.00  0.00     0.138 A 
ATOM     11  C   UNL A   1      29.119  28.408  23.057  1.00  0.00     0.040 A 
ATOM     12  F   UNL A   1      30.527  30.057  22.224  1.00  0.00    -0.206 F 
BRANCH   7  13
ATOM     13  N   UNL A   1      32.394  25.882  23.684  1.00  0.00    -0.384 N 
ATOM     14  H   UNL A   1      33.143  26.026  24.307  1.00  0.00     0.160 HD
BRANCH  13  15
ATOM     15  C   UNL A   1      32.386  24.705  22.811  1.00  0.00     0.125 C 
BRANCH  15  16
ATOM     16  C   UNL A   1      32.872  23.391  23.490  1.00  0.00     0.031 C 
ATOM     17  C   UNL A   1      34.393  23.521  23.720  1.00  0.00     0.019 C 
ATOM     18  C   UNL A   1      32.692  22.208  22.502  1.00  0.00     0.019 C 
BRANCH  16  19
ATOM     19  C   UNL A   1      32.133  23.010  24.820  1.00  0.00     0.269 C 
BRANCH  19  20
ATOM     20  N   UNL A   1      32.489  23.506  26.155  1.00  0.00    -0.339 N 
ATOM     21  C   UNL A   1      31.675  24.573  26.699  1.00  0.00     0.332 C 
ATOM     22  C   UNL A   1      32.859  22.514  27.140  1.00  0.00     0.332 C 
ATOM     23  H   UNL A   1      33.369  23.966  25.919  1.00  0.00     0.347 HD
ENDBRANCH  19  20
ENDBRANCH  16  19
ENDBRANCH  15  16
ENDBRANCH  13  15
ENDBRANCH   7  13
ENDBRANCH   3   6
ENDBRANCH   1   2
BRANCH   1  24
ATOM     24  C   UNL A   1      31.944  30.453  25.816  1.00  0.00     0.023 C 
BRANCH  24  25
ATOM     25  C   UNL A   1      31.858  31.365  27.036  1.00  0.00     0.023 C 
BRANCH  25  26
ATOM     26  C   UNL A   1      33.042  32.299  27.269  1.00  0.00     0.116 C 
BRANCH  26  27
ATOM     27  N   UNL A   1      32.659  33.665  27.599  1.00  0.00    -0.352 N 
ATOM     28  C   UNL A   1      33.183  34.516  28.543  1.00  0.00     0.251 C 
ATOM     29  H   UNL A   1      31.917  34.033  27.067  1.00  0.00     0.163 HD
ATOM     30  O   UNL A   1      32.673  35.620  28.724  1.00  0.00    -0.269 OA
BRANCH  28  31
ATOM     31  C   UNL A   1      34.334  34.089  29.367  1.00  0.00     0.039 A 
ATOM     32  C   UNL A   1      34.096  33.334  30.519  1.00  0.00     0.014 A 
ATOM     33  C   UNL A   1      35.642  34.402  28.992  1.00  0.00     0.014 A 
ATOM     34  C   UNL A   1      35.172  32.826  31.250  1.00  0.00     0.010 A 
ATOM     35  C   UNL A   1      36.712  33.831  29.675  1.00  0.00     0.010 A 
ATOM     36  C   UNL A   1      36.490  33.035  30.809  1.00  0.00    -0.014 A 
BRANCH  36  37
ATOM     37  C   UNL A   1      37.647  32.418  31.509  1.00  0.00     0.031 A 
ATOM     38  C   UNL A   1      38.390  31.272  30.877  1.00  0.00     0.074 A 
ATOM     39  C   UNL A   1      37.970  32.826  32.752  1.00  0.00     0.049 A 
ATOM     40  N   UNL A   1      39.378  30.566  31.360  1.00  0.00    -0.248 NA
ATOM     41  C   UNL A   1      37.947  30.843  29.539  1.00  0.00     0.031 C 
ATOM     42  C   UNL A   1      37.273  33.870  33.507  1.00  0.00     0.029 A 
ATOM     43  N   UNL A   1      38.952  32.397  33.611  1.00  0.00    -0.354 N 
ATOM     44  C   UNL A   1      39.649  29.590  30.409  1.00  0.00     0.074 A 
ATOM     45  C   UNL A   1      38.699  29.772  29.334  1.00  0.00     0.031 C 
ATOM     46  C   UNL A   1      37.855  34.008  34.709  1.00  0.00     0.029 A 
ATOM     47  C   UNL A   1      38.949  33.048  34.823  1.00  0.00     0.049 A 
ATOM     48  H   UNL A   1      39.598  31.691  33.381  1.00  0.00     0.167 HD
ATOM     49  C   UNL A   1      40.625  28.653  30.411  1.00  0.00     0.034 A 
ATOM     50  C   UNL A   1      39.737  32.891  35.907  1.00  0.00     0.034 A 
ATOM     51  C   UNL A   1      41.609  28.521  31.450  1.00  0.00     0.049 A 
ATOM     52  C   UNL A   1      40.850  31.878  35.861  1.00  0.00     0.074 A 
ATOM     53  C   UNL A   1      42.699  27.669  31.494  1.00  0.00     0.029 A 
ATOM     54  N   UNL A   1      41.627  29.256  32.624  1.00  0.00    -0.354 N 
ATOM     55  N   UNL A   1      41.190  31.072  34.885  1.00  0.00    -0.248 NA
ATOM     56  C   UNL A   1      41.709  31.773  37.052  1.00  0.00     0.031 C 
ATOM     57  C   UNL A   1      43.368  27.881  32.702  1.00  0.00     0.029 A 
ATOM     58  C   UNL A   1      42.704  28.874  33.403  1.00  0.00     0.049 A 
ATOM     59  H   UNL A   1      40.969  29.947  32.869  1.00  0.00     0.167 HD
ATOM     60  C   UNL A   1      42.315  30.386  35.328  1.00  0.00     0.074 A 
ATOM     61  C   UNL A   1      42.613  30.885  36.655  1.00  0.00     0.031 C 
ATOM     62  C   UNL A   1      43.024  29.418  34.698  1.00  0.00     0.034 A 
BRANCH  49  63
ATOM     63  C   UNL A   1      40.733  27.743  29.217  1.00  0.00     0.023 A 
ATOM     64  C   UNL A   1      39.887  26.620  29.127  1.00  0.00     0.012 A 
ATOM     65  C   UNL A   1      41.601  28.042  28.149  1.00  0.00     0.148 A 
ATOM     66  C   UNL A   1      39.918  25.793  28.006  1.00  0.00     0.002 A 
ATOM     67  C   UNL A   1      41.595  27.238  27.014  1.00  0.00     0.091 A 
ATOM     68  F   UNL A   1      42.411  29.104  28.261  1.00  0.00    -0.205 F 
ATOM     69  C   UNL A   1      40.762  26.109  26.946  1.00  0.00     0.022 A 
BRANCH  67  70
ATOM     70  S   UNL A   1      42.583  27.604  25.559  1.00  0.00     0.127 S 
ATOM     71  O   UNL A   1      42.022  28.887  25.136  1.00  0.00    -0.237 OA
ATOM     72  O   UNL A   1      43.934  27.684  26.116  1.00  0.00    -0.237 OA
ATOM     73  O   UNL A   1      42.370  26.496  24.638  1.00  0.00    -0.744 OA
ENDBRANCH  67  70
ENDBRANCH  49  63
BRANCH  50  74
ATOM     74  C   UNL A   1      39.553  33.782  37.088  1.00  0.00     0.023 A 
ATOM     75  C   UNL A   1      39.957  35.128  36.999  1.00  0.00     0.012 A 
ATOM     76  C   UNL A   1      38.923  33.330  38.263  1.00  0.00     0.148 A 
ATOM     77  C   UNL A   1      39.756  36.004  38.066  1.00  0.00     0.002 A 
ATOM     78  C   UNL A   1      38.675  34.221  39.303  1.00  0.00     0.091 A 
ATOM     79  F   UNL A   1      38.556  32.043  38.333  1.00  0.00    -0.205 F 
ATOM     80  C   UNL A   1      39.104  35.555  39.212  1.00  0.00     0.022 A 
BRANCH  78  81
ATOM     81  S   UNL A   1      37.722  33.770  40.757  1.00  0.00     0.127 S 
ATOM     82  O   UNL A   1      38.634  32.855  41.440  1.00  0.00    -0.237 OA
ATOM     83  O   UNL A   1      37.543  35.065  41.414  1.00  0.00    -0.237 OA
ATOM     84  O   UNL A   1      36.492  33.177  40.253  1.00  0.00    -0.744 OA
ENDBRANCH  78  81
ENDBRANCH  50  74
BRANCH  62  85
ATOM     85  C   UNL A   1      44.209  28.824  35.413  1.00  0.00     0.023 A 
ATOM     86  C   UNL A   1      45.473  29.427  35.276  1.00  0.00     0.012 A 
ATOM     87  C   UNL A   1      44.042  27.760  36.323  1.00  0.00     0.148 A 
ATOM     88  C   UNL A   1      46.558  28.975  36.024  1.00  0.00     0.002 A 
ATOM     89  C   UNL A   1      45.118  27.345  37.100  1.00  0.00     0.091 A 
ATOM     90  F   UNL A   1      42.833  27.191  36.427  1.00  0.00    -0.205 F 
ATOM     91  C   UNL A   1      46.378  27.946  36.946  1.00  0.00     0.022 A 
BRANCH  89  92
ATOM     92  S   UNL A   1      44.957  26.100  38.386  1.00  0.00     0.127 S 
ATOM     93  O   UNL A   1      46.310  26.068  38.938  1.00  0.00    -0.237 OA
ATOM     94  O   UNL A   1      43.952  26.692  39.268  1.00  0.00    -0.237 OA
ATOM     95  O   UNL A   1      44.530  24.880  37.714  1.00  0.00    -0.744 OA
ENDBRANCH  89  92
ENDBRANCH  62  85
ENDBRANCH  36  37
ENDBRANCH  28  31
ENDBRANCH  26  27
ENDBRANCH  25  26
ENDBRANCH  24  25
ENDBRANCH   1  24
TORSDOF 19
ENDMDL
MODEL 2
REMARK VINA RESULT:     -10.9      1.802      7.886
REMARK SMILES C[NH+](C)CC(C)(C)CNc1cccc(F)c1C(=O)NCCCCNC(=O)c1ccc(-c2c3nc(c(-c4cccc(S(=O)(=O)[O-])c4F)c4ccc([nH]4)c(-c4cccc(S(=O)(=O)[O-])c4F)c4nc(c(-c5cccc(S(=O)(=O)[O-])c5F)c5ccc2[nH]5)C=C4)C=C3)cc1
REMARK SMILES IDX 20 1 19 2 17 3 18 4 16 6 10 7 11 8 12 9 14 10 13 11 15 12
REMARK SMILES IDX 9 13 8 15 5 16 6 17 7 18 4 19 2 20 1 21 3 22 21 24 22 25
REMARK SMILES IDX 23 26 24 27 25 28 26 30 27 31 28 32 89 33 29 34 88 35 30 36
REMARK SMILES IDX 31 37 32 38 82 39 33 40 87 41 81 42 83 43 34 44 86 45 80 46
REMARK SMILES IDX 79 47 35 49 67 50 47 51 66 52 48 53 51 54 65 55 84 56 49 57
REMARK SMILES IDX 50 58 64 60 85 61 52 62 36 63 37 64 45 65 38 66 40 67 46 68
REMARK SMILES IDX 39 69 41 70 42 71 43 72 44 73 68 74 69 75 77 76 70 77 72 78
REMARK SMILES IDX 78 79 71 80 73 81 74 82 75 83 76 84 53 85 54 86 62 87 55 88
REMARK SMILES IDX 57 89 63 90 56 91 58 92 59 93 60 94 61 95
REMARK H PARENT 19 5 9 14 2 23 24 29 83 48 51 59
REMARK Flexibility Score: inf
ROOT
ATOM      1  C   UNL A   1      32.180  30.008  25.727  1.00  0.00     0.116 C 
ENDROOT
BRANCH   1   2
ATOM      2  N   UNL A   1      32.686  29.596  24.434  1.00  0.00    -0.352 N 
ATOM      3  C   UNL A   1      32.124  28.958  23.357  1.00  0.00     0.256 C 
ATOM      4  O   UNL A   1      32.921  28.655  22.464  1.00  0.00    -0.269 OA
ATOM      5  H   UNL A   1      33.634  29.822  24.298  1.00  0.00     0.163 HD
BRANCH   3   6
ATOM      6  C   UNL A   1      30.683  28.553  23.235  1.00  0.00     0.098 A 
ATOM      7  C   UNL A   1      30.268  27.282  23.729  1.00  0.00     0.050 A 
ATOM      8  C   UNL A   1      28.894  26.968  23.755  1.00  0.00     0.027 A 
ATOM      9  C   UNL A   1      27.942  27.830  23.223  1.00  0.00     0.005 A 
ATOM     10  C   UNL A   1      29.722  29.322  22.574  1.00  0.00     0.138 A 
ATOM     11  C   UNL A   1      28.365  28.989  22.592  1.00  0.00     0.040 A 
ATOM     12  F   UNL A   1      30.064  30.348  21.780  1.00  0.00    -0.206 F 
BRANCH   7  13
ATOM     13  N   UNL A   1      31.189  26.281  24.070  1.00  0.00    -0.384 N 
ATOM     14  H   UNL A   1      31.765  26.392  24.861  1.00  0.00     0.160 HD
BRANCH  13  15
ATOM     15  C   UNL A   1      31.296  25.069  23.253  1.00  0.00     0.125 C 
BRANCH  15  16
ATOM     16  C   UNL A   1      32.697  24.841  22.613  1.00  0.00     0.031 C 
ATOM     17  C   UNL A   1      32.698  25.537  21.235  1.00  0.00     0.019 C 
ATOM     18  C   UNL A   1      32.886  23.328  22.325  1.00  0.00     0.019 C 
BRANCH  16  19
ATOM     19  C   UNL A   1      33.916  25.311  23.482  1.00  0.00     0.269 C 
BRANCH  19  20
ATOM     20  N   UNL A   1      33.994  25.215  24.945  1.00  0.00    -0.339 N 
ATOM     21  C   UNL A   1      34.868  24.198  25.491  1.00  0.00     0.332 C 
ATOM     22  C   UNL A   1      34.047  26.462  25.676  1.00  0.00     0.332 C 
ATOM     23  H   UNL A   1      33.057  24.856  25.127  1.00  0.00     0.347 HD
ENDBRANCH  19  20
ENDBRANCH  16  19
ENDBRANCH  15  16
ENDBRANCH  13  15
ENDBRANCH   7  13
ENDBRANCH   3   6
ENDBRANCH   1   2
BRANCH   1  24
ATOM     24  C   UNL A   1      31.022  30.996  25.632  1.00  0.00     0.023 C 
BRANCH  24  25
ATOM     25  C   UNL A   1      31.159  32.292  26.426  1.00  0.00     0.023 C 
BRANCH  25  26
ATOM     26  C   UNL A   1      32.523  32.564  27.051  1.00  0.00     0.116 C 
BRANCH  26  27
ATOM     27  N   UNL A   1      32.669  33.910  27.585  1.00  0.00    -0.352 N 
ATOM     28  C   UNL A   1      33.639  34.421  28.415  1.00  0.00     0.251 C 
ATOM     29  H   UNL A   1      31.972  34.549  27.311  1.00  0.00     0.163 HD
ATOM     30  O   UNL A   1      33.552  35.578  28.821  1.00  0.00    -0.269 OA
BRANCH  28  31
ATOM     31  C   UNL A   1      34.765  33.567  28.852  1.00  0.00     0.039 A 
ATOM     32  C   UNL A   1      36.072  33.984  28.584  1.00  0.00     0.014 A 
ATOM     33  C   UNL A   1      34.536  32.377  29.547  1.00  0.00     0.014 A 
ATOM     34  C   UNL A   1      37.150  33.250  29.084  1.00  0.00     0.010 A 
ATOM     35  C   UNL A   1      35.607  31.691  30.110  1.00  0.00     0.010 A 
ATOM     36  C   UNL A   1      36.925  32.119  29.888  1.00  0.00    -0.014 A 
BRANCH  36  37
ATOM     37  C   UNL A   1      38.051  31.382  30.519  1.00  0.00     0.031 A 
ATOM     38  C   UNL A   1      38.464  31.695  31.931  1.00  0.00     0.074 A 
ATOM     39  C   UNL A   1      38.761  30.497  29.790  1.00  0.00     0.049 A 
ATOM     40  N   UNL A   1      39.458  31.206  32.625  1.00  0.00    -0.248 NA
ATOM     41  C   UNL A   1      37.676  32.712  32.649  1.00  0.00     0.031 C 
ATOM     42  C   UNL A   1      38.513  30.169  28.384  1.00  0.00     0.029 A 
ATOM     43  N   UNL A   1      39.851  29.730  30.122  1.00  0.00    -0.354 N 
ATOM     44  C   UNL A   1      39.439  31.879  33.841  1.00  0.00     0.074 A 
ATOM     45  C   UNL A   1      38.357  32.836  33.779  1.00  0.00     0.031 C 
ATOM     46  C   UNL A   1      39.415  29.260  27.979  1.00  0.00     0.029 A 
ATOM     47  C   UNL A   1      40.321  28.960  29.084  1.00  0.00     0.049 A 
ATOM     48  H   UNL A   1      40.256  29.731  31.019  1.00  0.00     0.167 HD
ATOM     49  C   UNL A   1      40.227  31.690  34.926  1.00  0.00     0.034 A 
ATOM     50  C   UNL A   1      41.365  28.107  29.025  1.00  0.00     0.034 A 
ATOM     51  C   UNL A   1      41.257  30.691  35.006  1.00  0.00     0.049 A 
ATOM     52  C   UNL A   1      42.190  27.875  30.262  1.00  0.00     0.074 A 
ATOM     53  C   UNL A   1      42.039  30.354  36.096  1.00  0.00     0.029 A 
ATOM     54  N   UNL A   1      41.648  29.869  33.962  1.00  0.00    -0.354 N 
ATOM     55  N   UNL A   1      42.055  28.406  31.453  1.00  0.00    -0.248 NA
ATOM     56  C   UNL A   1      43.291  26.904  30.160  1.00  0.00     0.031 C 
ATOM     57  C   UNL A   1      42.913  29.336  35.707  1.00  0.00     0.029 A 
ATOM     58  C   UNL A   1      42.665  29.029  34.379  1.00  0.00     0.049 A 
ATOM     59  H   UNL A   1      41.260  29.881  33.057  1.00  0.00     0.167 HD
ATOM     60  C   UNL A   1      43.031  27.817  32.249  1.00  0.00     0.074 A 
ATOM     61  C   UNL A   1      43.739  26.872  31.410  1.00  0.00     0.031 C 
ATOM     62  C   UNL A   1      43.324  28.052  33.550  1.00  0.00     0.034 A 
BRANCH  49  63
ATOM     63  C   UNL A   1      39.957  32.526  36.148  1.00  0.00     0.023 A 
ATOM     64  C   UNL A   1      40.659  33.735  36.325  1.00  0.00     0.012 A 
ATOM     65  C   UNL A   1      38.956  32.165  37.071  1.00  0.00     0.148 A 
ATOM     66  C   UNL A   1      40.388  34.562  37.413  1.00  0.00     0.002 A 
ATOM     67  C   UNL A   1      38.660  33.017  38.130  1.00  0.00     0.091 A 
ATOM     68  F   UNL A   1      38.312  31.003  36.895  1.00  0.00    -0.205 F 
ATOM     69  C   UNL A   1      39.382  34.209  38.307  1.00  0.00     0.022 A 
BRANCH  67  70
ATOM     70  S   UNL A   1      37.327  32.698  39.290  1.00  0.00     0.127 S 
ATOM     71  O   UNL A   1      36.150  32.827  38.431  1.00  0.00    -0.237 OA
ATOM     72  O   UNL A   1      37.617  31.330  39.724  1.00  0.00    -0.237 OA
ATOM     73  O   UNL A   1      37.450  33.706  40.334  1.00  0.00    -0.744 OA
ENDBRANCH  67  70
ENDBRANCH  49  63
BRANCH  50  74
ATOM     74  C   UNL A   1      41.623  27.344  27.771  1.00  0.00     0.023 A 
ATOM     75  C   UNL A   1      42.114  28.028  26.642  1.00  0.00     0.012 A 
ATOM     76  C   UNL A   1      41.452  25.947  27.707  1.00  0.00     0.148 A 
ATOM     77  C   UNL A   1      42.414  27.340  25.466  1.00  0.00     0.002 A 
ATOM     78  C   UNL A   1      41.804  25.259  26.550  1.00  0.00     0.091 A 
ATOM     79  F   UNL A   1      40.972  25.316  28.787  1.00  0.00    -0.205 F 
ATOM     80  C   UNL A   1      42.271  25.955  25.423  1.00  0.00     0.022 A 
BRANCH  78  81
ATOM     81  S   UNL A   1      41.785  23.465  26.448  1.00  0.00     0.127 S 
ATOM     82  O   UNL A   1      40.353  23.184  26.392  1.00  0.00    -0.237 OA
ATOM     83  O   UNL A   1      42.510  23.226  25.200  1.00  0.00    -0.237 OA
ATOM     84  O   UNL A   1      42.475  22.996  27.642  1.00  0.00    -0.744 OA
ENDBRANCH  78  81
ENDBRANCH  50  74
BRANCH  62  85
ATOM     85  C   UNL A   1      44.452  27.276  34.178  1.00  0.00     0.023 A 
ATOM     86  C   UNL A   1      45.698  27.901  34.374  1.00  0.00     0.012 A 
ATOM     87  C   UNL A   1      44.235  25.982  34.694  1.00  0.00     0.148 A 
ATOM     88  C   UNL A   1      46.716  27.248  35.065  1.00  0.00     0.002 A 
ATOM     89  C   UNL A   1      45.240  25.356  35.423  1.00  0.00     0.091 A 
ATOM     90  F   UNL A   1      43.047  25.400  34.483  1.00  0.00    -0.205 F 
ATOM     91  C   UNL A   1      46.484  25.984  35.602  1.00  0.00     0.022 A 
BRANCH  89  92
ATOM     92  S   UNL A   1      44.998  23.773  36.241  1.00  0.00     0.127 S 
ATOM     93  O   UNL A   1      46.218  23.058  35.870  1.00  0.00    -0.237 OA
ATOM     94  O   UNL A   1      44.920  24.161  37.649  1.00  0.00    -0.237 OA
ATOM     95  O   UNL A   1      43.764  23.223  35.695  1.00  0.00    -0.744 OA
ENDBRANCH  89  92
ENDBRANCH  62  85
ENDBRANCH  36  37
ENDBRANCH  28  31
ENDBRANCH  26  27
ENDBRANCH  25  26
ENDBRANCH  24  25
ENDBRANCH   1  24
TORSDOF 19
ENDMDL
MODEL 3
REMARK VINA RESULT:     -10.4      6.270      9.707
REMARK SMILES C[NH+](C)CC(C)(C)CNc1cccc(F)c1C(=O)NCCCCNC(=O)c1ccc(-c2c3nc(c(-c4cccc(S(=O)(=O)[O-])c4F)c4ccc([nH]4)c(-c4cccc(S(=O)(=O)[O-])c4F)c4nc(c(-c5cccc(S(=O)(=O)[O-])c5F)c5ccc2[nH]5)C=C4)C=C3)cc1
REMARK SMILES IDX 20 1 19 2 17 3 18 4 16 6 10 7 11 8 12 9 14 10 13 11 15 12
REMARK SMILES IDX 9 13 8 15 5 16 6 17 7 18 4 19 2 20 1 21 3 22 21 24 22 25
REMARK SMILES IDX 23 26 24 27 25 28 26 30 27 31 28 32 89 33 29 34 88 35 30 36
REMARK SMILES IDX 31 37 32 38 82 39 33 40 87 41 81 42 83 43 34 44 86 45 80 46
REMARK SMILES IDX 79 47 35 49 67 50 47 51 66 52 48 53 51 54 65 55 84 56 49 57
REMARK SMILES IDX 50 58 64 60 85 61 52 62 36 63 37 64 45 65 38 66 40 67 46 68
REMARK SMILES IDX 39 69 41 70 42 71 43 72 44 73 68 74 69 75 77 76 70 77 72 78
REMARK SMILES IDX 78 79 71 80 73 81 74 82 75 83 76 84 53 85 54 86 62 87 55 88
REMARK SMILES IDX 57 89 63 90 56 91 58 92 59 93 60 94 61 95
REMARK H PARENT 19 5 9 14 2 23 24 29 83 48 51 59
REMARK Flexibility Score: inf
ROOT
ATOM      1  C   UNL A   1      37.249  22.149  24.851  1.00  0.00     0.116 C 
ENDROOT
BRANCH   1   2
ATOM      2  N   UNL A   1      36.510  22.696  23.731  1.00  0.00    -0.352 N 
ATOM      3  C   UNL A   1      35.182  22.959  23.512  1.00  0.00     0.256 C 
ATOM      4  O   UNL A   1      34.909  23.311  22.360  1.00  0.00    -0.269 OA
ATOM      5  H   UNL A   1      37.082  22.930  22.966  1.00  0.00     0.163 HD
BRANCH   3   6
ATOM      6  C   UNL A   1      34.077  22.778  24.513  1.00  0.00     0.098 A 
ATOM      7  C   UNL A   1      33.662  23.886  25.307  1.00  0.00     0.050 A 
ATOM      8  C   UNL A   1      32.527  23.756  26.133  1.00  0.00     0.027 A 
ATOM      9  C   UNL A   1      31.858  22.544  26.261  1.00  0.00     0.005 A 
ATOM     10  C   UNL A   1      33.480  21.544  24.783  1.00  0.00     0.138 A 
ATOM     11  C   UNL A   1      32.365  21.426  25.618  1.00  0.00     0.040 A 
ATOM     12  F   UNL A   1      34.020  20.392  24.359  1.00  0.00    -0.206 F 
BRANCH   7  13
ATOM     13  N   UNL A   1      34.421  25.062  25.396  1.00  0.00    -0.384 N 
ATOM     14  H   UNL A   1      35.376  25.051  25.153  1.00  0.00     0.160 HD
BRANCH  13  15
ATOM     15  C   UNL A   1      33.797  26.309  25.847  1.00  0.00     0.125 C 
BRANCH  15  16
ATOM     16  C   UNL A   1      33.170  27.168  24.710  1.00  0.00     0.031 C 
ATOM     17  C   UNL A   1      33.689  26.614  23.367  1.00  0.00     0.019 C 
ATOM     18  C   UNL A   1      33.710  28.619  24.809  1.00  0.00     0.019 C 
BRANCH  16  19
ATOM     19  C   UNL A   1      31.603  27.247  24.717  1.00  0.00     0.269 C 
BRANCH  19  20
ATOM     20  N   UNL A   1      30.771  27.601  23.559  1.00  0.00    -0.339 N 
ATOM     21  C   UNL A   1      29.404  27.124  23.562  1.00  0.00     0.332 C 
ATOM     22  C   UNL A   1      30.903  28.948  23.052  1.00  0.00     0.332 C 
ATOM     23  H   UNL A   1      31.231  27.021  22.857  1.00  0.00     0.347 HD
ENDBRANCH  19  20
ENDBRANCH  16  19
ENDBRANCH  15  16
ENDBRANCH  13  15
ENDBRANCH   7  13
ENDBRANCH   3   6
ENDBRANCH   1   2
BRANCH   1  24
ATOM     24  C   UNL A   1      37.191  20.627  24.922  1.00  0.00     0.023 C 
BRANCH  24  25
ATOM     25  C   UNL A   1      38.526  19.889  24.927  1.00  0.00     0.023 C 
BRANCH  25  26
ATOM     26  C   UNL A   1      39.353  19.992  26.205  1.00  0.00     0.116 C 
BRANCH  26  27
ATOM     27  N   UNL A   1      40.682  19.406  26.096  1.00  0.00    -0.352 N 
ATOM     28  C   UNL A   1      41.914  19.996  26.260  1.00  0.00     0.251 C 
ATOM     29  H   UNL A   1      40.701  18.447  25.875  1.00  0.00     0.163 HD
ATOM     30  O   UNL A   1      42.936  19.345  26.054  1.00  0.00    -0.269 OA
BRANCH  28  31
ATOM     31  C   UNL A   1      42.007  21.421  26.643  1.00  0.00     0.039 A 
ATOM     32  C   UNL A   1      42.205  21.746  27.988  1.00  0.00     0.014 A 
ATOM     33  C   UNL A   1      41.931  22.430  25.681  1.00  0.00     0.014 A 
ATOM     34  C   UNL A   1      42.407  23.078  28.356  1.00  0.00     0.010 A 
ATOM     35  C   UNL A   1      42.211  23.746  26.038  1.00  0.00     0.010 A 
ATOM     36  C   UNL A   1      42.454  24.085  27.377  1.00  0.00    -0.014 A 
BRANCH  36  37
ATOM     37  C   UNL A   1      42.772  25.493  27.730  1.00  0.00     0.031 A 
ATOM     38  C   UNL A   1      44.186  25.997  27.632  1.00  0.00     0.074 A 
ATOM     39  C   UNL A   1      41.805  26.291  28.227  1.00  0.00     0.049 A 
ATOM     40  N   UNL A   1      44.665  27.170  27.956  1.00  0.00    -0.248 NA
ATOM     41  C   UNL A   1      45.200  25.053  27.131  1.00  0.00     0.031 C 
ATOM     42  C   UNL A   1      40.413  25.893  28.451  1.00  0.00     0.029 A 
ATOM     43  N   UNL A   1      41.850  27.594  28.658  1.00  0.00    -0.354 N 
ATOM     44  C   UNL A   1      46.036  27.093  27.737  1.00  0.00     0.074 A 
ATOM     45  C   UNL A   1      46.318  25.749  27.284  1.00  0.00     0.031 C 
ATOM     46  C   UNL A   1      39.736  26.932  28.964  1.00  0.00     0.029 A 
ATOM     47  C   UNL A   1      40.646  28.062  29.133  1.00  0.00     0.049 A 
ATOM     48  H   UNL A   1      42.667  28.143  28.629  1.00  0.00     0.167 HD
ATOM     49  C   UNL A   1      46.969  28.065  27.863  1.00  0.00     0.034 A 
ATOM     50  C   UNL A   1      40.311  29.263  29.646  1.00  0.00     0.034 A 
ATOM     51  C   UNL A   1      46.674  29.417  28.248  1.00  0.00     0.049 A 
ATOM     52  C   UNL A   1      41.356  30.343  29.724  1.00  0.00     0.074 A 
ATOM     53  C   UNL A   1      47.535  30.499  28.305  1.00  0.00     0.029 A 
ATOM     54  N   UNL A   1      45.426  29.876  28.639  1.00  0.00    -0.354 N 
ATOM     55  N   UNL A   1      42.615  30.297  29.360  1.00  0.00    -0.248 NA
ATOM     56  C   UNL A   1      40.932  31.649  30.252  1.00  0.00     0.031 C 
ATOM     57  C   UNL A   1      46.810  31.610  28.744  1.00  0.00     0.029 A 
ATOM     58  C   UNL A   1      45.495  31.223  28.945  1.00  0.00     0.049 A 
ATOM     59  H   UNL A   1      44.612  29.325  28.691  1.00  0.00     0.167 HD
ATOM     60  C   UNL A   1      43.126  31.570  29.587  1.00  0.00     0.074 A 
ATOM     61  C   UNL A   1      42.035  32.373  30.102  1.00  0.00     0.031 C 
ATOM     62  C   UNL A   1      44.389  32.026  29.403  1.00  0.00     0.034 A 
BRANCH  49  63
ATOM     63  C   UNL A   1      48.392  27.728  27.505  1.00  0.00     0.023 A 
ATOM     64  C   UNL A   1      49.248  27.209  28.498  1.00  0.00     0.012 A 
ATOM     65  C   UNL A   1      48.856  27.839  26.180  1.00  0.00     0.148 A 
ATOM     66  C   UNL A   1      50.551  26.828  28.184  1.00  0.00     0.002 A 
ATOM     67  C   UNL A   1      50.143  27.416  25.867  1.00  0.00     0.091 A 
ATOM     68  F   UNL A   1      48.033  28.351  25.255  1.00  0.00    -0.205 F 
ATOM     69  C   UNL A   1      50.994  26.920  26.869  1.00  0.00     0.022 A 
BRANCH  67  70
ATOM     70  S   UNL A   1      50.783  27.414  24.188  1.00  0.00     0.127 S 
ATOM     71  O   UNL A   1      51.883  26.455  24.292  1.00  0.00    -0.237 OA
ATOM     72  O   UNL A   1      49.631  26.939  23.420  1.00  0.00    -0.237 OA
ATOM     73  O   UNL A   1      51.179  28.787  23.905  1.00  0.00    -0.744 OA
ENDBRANCH  67  70
ENDBRANCH  49  63
BRANCH  50  74
ATOM     74  C   UNL A   1      38.897  29.528  30.037  1.00  0.00     0.023 A 
ATOM     75  C   UNL A   1      38.473  29.195  31.338  1.00  0.00     0.012 A 
ATOM     76  C   UNL A   1      37.995  30.164  29.163  1.00  0.00     0.148 A 
ATOM     77  C   UNL A   1      37.171  29.472  31.757  1.00  0.00     0.002 A 
ATOM     78  C   UNL A   1      36.715  30.488  29.604  1.00  0.00     0.091 A 
ATOM     79  F   UNL A   1      38.413  30.463  27.925  1.00  0.00    -0.205 F 
ATOM     80  C   UNL A   1      36.297  30.130  30.895  1.00  0.00     0.022 A 
BRANCH  78  81
ATOM     81  S   UNL A   1      35.568  31.454  28.615  1.00  0.00     0.127 S 
ATOM     82  O   UNL A   1      34.588  31.870  29.616  1.00  0.00    -0.237 OA
ATOM     83  O   UNL A   1      36.429  32.525  28.113  1.00  0.00    -0.237 OA
ATOM     84  O   UNL A   1      35.075  30.549  27.587  1.00  0.00    -0.744 OA
ENDBRANCH  78  81
ENDBRANCH  50  74
BRANCH  62  85
ATOM     85  C   UNL A   1      44.684  33.463  29.741  1.00  0.00     0.023 A 
ATOM     86  C   UNL A   1      45.197  33.783  31.013  1.00  0.00     0.012 A 
ATOM     87  C   UNL A   1      44.583  34.470  28.760  1.00  0.00     0.148 A 
ATOM     88  C   UNL A   1      45.597  35.085  31.307  1.00  0.00     0.002 A 
ATOM     89  C   UNL A   1      45.027  35.755  29.046  1.00  0.00     0.091 A 
ATOM     90  F   UNL A   1      44.078  34.146  27.561  1.00  0.00    -0.205 F 
ATOM     91  C   UNL A   1      45.526  36.067  30.321  1.00  0.00     0.022 A 
BRANCH  89  92
ATOM     92  S   UNL A   1      45.072  37.059  27.809  1.00  0.00     0.127 S 
ATOM     93  O   UNL A   1      45.952  36.477  26.797  1.00  0.00    -0.237 OA
ATOM     94  O   UNL A   1      43.668  37.161  27.413  1.00  0.00    -0.237 OA
ATOM     95  O   UNL A   1      45.597  38.238  28.486  1.00  0.00    -0.744 OA
ENDBRANCH  89  92
ENDBRANCH  62  85
ENDBRANCH  36  37
ENDBRANCH  28  31
ENDBRANCH  26  27
ENDBRANCH  25  26
ENDBRANCH  24  25
ENDBRANCH   1  24
TORSDOF 19
ENDMDL
