MODEL 1
REMARK VINA RESULT:     -13.1      0.000      0.000
REMARK SMILES Nn1c(S[C@@H](C(=O)NCCCCNC(=O)c2ccc(-c3c4nc(c(-c5cccc(S(=O)(=O)[O-])c5F)c5ccc([nH]5)c(-c5cccc(S(=O)(=O)[O-])c5F)c5nc(c(-c6cccc(S(=O)(=O)[O-])c6F)c6ccc3[nH]6)C=C5)C=C4)cc2)c2ccccc2)nc2ccc(Br)cc2c1=O
REMARK SMILES IDX 10 1 9 2 8 3 6 4 7 5 5 7 4 8 3 9 2 10 93 11 85 12 92 13
REMARK SMILES IDX 94 14 86 15 91 16 87 17 89 18 88 19 90 20 1 21 79 24 80 25
REMARK SMILES IDX 84 26 81 27 83 28 82 29 11 30 12 31 13 32 14 33 15 35 16 36
REMARK SMILES IDX 17 37 78 38 18 39 77 40 19 41 20 42 21 43 71 44 22 45 76 46
REMARK SMILES IDX 70 47 72 48 23 49 75 50 69 51 68 52 24 54 56 55 36 56 55 57
REMARK SMILES IDX 37 58 40 59 54 60 73 61 38 62 39 63 53 65 74 66 41 67 25 68
REMARK SMILES IDX 26 69 34 70 27 71 29 72 35 73 28 74 30 75 31 76 32 77 33 78
REMARK SMILES IDX 57 79 58 80 66 81 59 82 61 83 67 84 60 85 62 86 63 87 64 88
REMARK SMILES IDX 65 89 42 90 43 91 51 92 44 93 46 94 52 95 45 96 47 97 48 98
REMARK SMILES IDX 49 99 50 100
REMARK H PARENT 8 6 1 22 1 23 13 34 72 53 40 64
REMARK Flexibility Score: inf
ROOT
ATOM      1  C   UNL A   1      32.399  27.845  27.253  1.00  0.00     0.023 C 
ENDROOT
BRANCH   1   2
ATOM      2  C   UNL A   1      32.398  26.567  26.408  1.00  0.00     0.116 C 
BRANCH   2   3
ATOM      3  N   UNL A   1      31.464  25.553  26.876  1.00  0.00    -0.355 N 
ATOM      4  C   UNL A   1      31.152  24.319  26.372  1.00  0.00     0.238 C 
ATOM      5  O   UNL A   1      30.405  23.624  27.068  1.00  0.00    -0.273 OA
ATOM      6  H   UNL A   1      30.973  25.797  27.694  1.00  0.00     0.163 HD
BRANCH   4   7
ATOM      7  C   UNL A   1      31.694  23.824  25.020  1.00  0.00     0.174 C 
BRANCH   7   8
ATOM      8  S   UNL A   1      30.668  24.288  23.628  1.00  0.00    -0.068 SA
BRANCH   8   9
ATOM      9  C   UNL A   1      30.647  25.985  23.251  1.00  0.00     0.191 A 
ATOM     10  N   UNL A   1      31.722  26.747  22.793  1.00  0.00    -0.202 N 
ATOM     11  C   UNL A   1      31.643  28.148  22.754  1.00  0.00     0.280 A 
ATOM     12  N   UNL A   1      29.465  26.491  23.424  1.00  0.00    -0.222 NA
ATOM     13  C   UNL A   1      30.291  28.716  22.865  1.00  0.00     0.069 A 
ATOM     14  O   UNL A   1      32.600  28.914  22.650  1.00  0.00    -0.267 OA
ATOM     15  C   UNL A   1      29.248  27.838  23.134  1.00  0.00     0.079 A 
ATOM     16  C   UNL A   1      30.056  30.077  22.646  1.00  0.00     0.031 A 
ATOM     17  C   UNL A   1      27.938  28.322  23.130  1.00  0.00     0.030 A 
ATOM     18  C   UNL A   1      28.746  30.548  22.665  1.00  0.00     0.018 A 
ATOM     19  C   UNL A   1      27.683  29.673  22.889  1.00  0.00     0.018 A 
ATOM     20  Br  UNL A   1      28.402  32.383  22.378  1.00  0.00    -0.051 Br
BRANCH  10  21
ATOM     21  N   UNL A   1      32.921  26.217  22.304  1.00  0.00    -0.334 N 
ATOM     22  H   UNL A   1      33.032  26.057  21.339  1.00  0.00     0.178 HD
ATOM     23  H   UNL A   1      33.654  26.003  22.925  1.00  0.00     0.178 HD
ENDBRANCH  10  21
ENDBRANCH   8   9
ENDBRANCH   7   8
BRANCH   7  24
ATOM     24  C   UNL A   1      32.289  22.415  25.056  1.00  0.00    -0.025 A 
ATOM     25  C   UNL A   1      32.035  21.414  24.107  1.00  0.00     0.005 A 
ATOM     26  C   UNL A   1      33.114  22.072  26.149  1.00  0.00     0.005 A 
ATOM     27  C   UNL A   1      32.565  20.127  24.247  1.00  0.00     0.000 A 
ATOM     28  C   UNL A   1      33.653  20.789  26.283  1.00  0.00     0.000 A 
ATOM     29  C   UNL A   1      33.373  19.813  25.334  1.00  0.00     0.000 A 
ENDBRANCH   7  24
ENDBRANCH   4   7
ENDBRANCH   2   3
ENDBRANCH   1   2
BRANCH   1  30
ATOM     30  C   UNL A   1      31.712  29.057  26.629  1.00  0.00     0.023 C 
BRANCH  30  31
ATOM     31  C   UNL A   1      32.642  30.102  26.030  1.00  0.00     0.116 C 
BRANCH  31  32
ATOM     32  N   UNL A   1      32.421  31.443  26.550  1.00  0.00    -0.352 N 
ATOM     33  C   UNL A   1      33.244  32.216  27.341  1.00  0.00     0.251 C 
ATOM     34  H   UNL A   1      31.563  31.856  26.302  1.00  0.00     0.163 HD
ATOM     35  O   UNL A   1      32.853  33.302  27.755  1.00  0.00    -0.269 OA
BRANCH  33  36
ATOM     36  C   UNL A   1      34.575  31.698  27.726  1.00  0.00     0.039 A 
ATOM     37  C   UNL A   1      34.773  30.330  27.925  1.00  0.00     0.014 A 
ATOM     38  C   UNL A   1      35.610  32.603  27.971  1.00  0.00     0.014 A 
ATOM     39  C   UNL A   1      35.930  29.891  28.559  1.00  0.00     0.010 A 
ATOM     40  C   UNL A   1      36.807  32.147  28.531  1.00  0.00     0.010 A 
ATOM     41  C   UNL A   1      36.949  30.799  28.893  1.00  0.00    -0.014 A 
BRANCH  41  42
ATOM     42  C   UNL A   1      38.133  30.325  29.658  1.00  0.00     0.031 A 
ATOM     43  C   UNL A   1      38.347  30.756  31.086  1.00  0.00     0.074 A 
ATOM     44  C   UNL A   1      38.992  29.462  29.082  1.00  0.00     0.049 A 
ATOM     45  N   UNL A   1      39.318  30.435  31.903  1.00  0.00    -0.248 NA
ATOM     46  C   UNL A   1      37.348  31.661  31.679  1.00  0.00     0.031 C 
ATOM     47  C   UNL A   1      38.896  28.971  27.706  1.00  0.00     0.029 A 
ATOM     48  N   UNL A   1      40.103  28.834  29.583  1.00  0.00    -0.354 N 
ATOM     49  C   UNL A   1      39.073  31.129  33.082  1.00  0.00     0.074 A 
ATOM     50  C   UNL A   1      37.862  31.891  32.881  1.00  0.00     0.031 C 
ATOM     51  C   UNL A   1      39.881  28.088  27.486  1.00  0.00     0.029 A 
ATOM     52  C   UNL A   1      40.706  27.985  28.686  1.00  0.00     0.049 A 
ATOM     53  H   UNL A   1      40.436  28.977  30.498  1.00  0.00     0.167 HD
ATOM     54  C   UNL A   1      39.782  31.118  34.235  1.00  0.00     0.034 A 
ATOM     55  C   UNL A   1      41.802  27.212  28.808  1.00  0.00     0.034 A 
ATOM     56  C   UNL A   1      40.951  30.313  34.462  1.00  0.00     0.049 A 
ATOM     57  C   UNL A   1      42.555  27.201  30.106  1.00  0.00     0.074 A 
ATOM     58  C   UNL A   1      41.714  30.218  35.614  1.00  0.00     0.029 A 
ATOM     59  N   UNL A   1      41.515  29.454  33.534  1.00  0.00    -0.354 N 
ATOM     60  N   UNL A   1      42.276  27.828  31.222  1.00  0.00    -0.248 NA
ATOM     61  C   UNL A   1      43.764  26.366  30.169  1.00  0.00     0.031 C 
ATOM     62  C   UNL A   1      42.738  29.293  35.382  1.00  0.00     0.029 A 
ATOM     63  C   UNL A   1      42.610  28.817  34.088  1.00  0.00     0.049 A 
ATOM     64  H   UNL A   1      41.184  29.318  32.617  1.00  0.00     0.167 HD
ATOM     65  C   UNL A   1      43.264  27.454  32.124  1.00  0.00     0.074 A 
ATOM     66  C   UNL A   1      44.139  26.531  31.432  1.00  0.00     0.031 C 
ATOM     67  C   UNL A   1      43.440  27.859  33.404  1.00  0.00     0.034 A 
BRANCH  54  68
ATOM     68  C   UNL A   1      39.288  31.960  35.379  1.00  0.00     0.023 A 
ATOM     69  C   UNL A   1      38.425  31.384  36.330  1.00  0.00     0.012 A 
ATOM     70  C   UNL A   1      39.760  33.273  35.571  1.00  0.00     0.148 A 
ATOM     71  C   UNL A   1      38.031  32.106  37.457  1.00  0.00     0.002 A 
ATOM     72  C   UNL A   1      39.384  33.977  36.710  1.00  0.00     0.091 A 
ATOM     73  F   UNL A   1      40.569  33.802  34.643  1.00  0.00    -0.205 F 
ATOM     74  C   UNL A   1      38.519  33.396  37.651  1.00  0.00     0.022 A 
BRANCH  72  75
ATOM     75  S   UNL A   1      39.998  35.623  37.084  1.00  0.00     0.127 S 
ATOM     76  O   UNL A   1      39.274  35.933  38.316  1.00  0.00    -0.237 OA
ATOM     77  O   UNL A   1      41.430  35.385  37.261  1.00  0.00    -0.237 OA
ATOM     78  O   UNL A   1      39.653  36.453  35.938  1.00  0.00    -0.744 OA
ENDBRANCH  72  75
ENDBRANCH  54  68
BRANCH  55  79
ATOM     79  C   UNL A   1      42.204  26.342  27.672  1.00  0.00     0.023 A 
ATOM     80  C   UNL A   1      43.103  26.840  26.710  1.00  0.00     0.012 A 
ATOM     81  C   UNL A   1      41.772  25.004  27.589  1.00  0.00     0.148 A 
ATOM     82  C   UNL A   1      43.565  26.020  25.682  1.00  0.00     0.002 A 
ATOM     83  C   UNL A   1      42.272  24.180  26.589  1.00  0.00     0.091 A 
ATOM     84  F   UNL A   1      40.908  24.560  28.512  1.00  0.00    -0.205 F 
ATOM     85  C   UNL A   1      43.161  24.688  25.629  1.00  0.00     0.022 A 
BRANCH  83  86
ATOM     86  S   UNL A   1      41.907  22.423  26.513  1.00  0.00     0.127 S 
ATOM     87  O   UNL A   1      42.440  21.952  27.790  1.00  0.00    -0.237 OA
ATOM     88  O   UNL A   1      40.446  22.425  26.417  1.00  0.00    -0.237 OA
ATOM     89  O   UNL A   1      42.589  21.928  25.325  1.00  0.00    -0.744 OA
ENDBRANCH  83  86
ENDBRANCH  55  79
BRANCH  67  90
ATOM     90  C   UNL A   1      44.612  27.308  34.163  1.00  0.00     0.023 A 
ATOM     91  C   UNL A   1      45.823  28.026  34.170  1.00  0.00     0.012 A 
ATOM     92  C   UNL A   1      44.481  26.153  34.958  1.00  0.00     0.148 A 
ATOM     93  C   UNL A   1      46.893  27.599  34.955  1.00  0.00     0.002 A 
ATOM     94  C   UNL A   1      45.540  25.750  35.761  1.00  0.00     0.091 A 
ATOM     95  F   UNL A   1      43.321  25.483  34.922  1.00  0.00    -0.205 F 
ATOM     96  C   UNL A   1      46.749  26.469  35.758  1.00  0.00     0.022 A 
BRANCH  94  97
ATOM     97  S   UNL A   1      45.426  24.352  36.882  1.00  0.00     0.127 S 
ATOM     98  O   UNL A   1      46.782  24.297  37.429  1.00  0.00    -0.237 OA
ATOM     99  O   UNL A   1      44.403  24.795  37.828  1.00  0.00    -0.237 OA
ATOM    100  O   UNL A   1      45.040  23.210  36.063  1.00  0.00    -0.744 OA
ENDBRANCH  94  97
ENDBRANCH  67  90
ENDBRANCH  41  42
ENDBRANCH  33  36
ENDBRANCH  31  32
ENDBRANCH  30  31
ENDBRANCH   1  30
TORSDOF 18
ENDMDL
MODEL 2
REMARK VINA RESULT:     -13.0      5.399     10.382
REMARK SMILES Nn1c(S[C@@H](C(=O)NCCCCNC(=O)c2ccc(-c3c4nc(c(-c5cccc(S(=O)(=O)[O-])c5F)c5ccc([nH]5)c(-c5cccc(S(=O)(=O)[O-])c5F)c5nc(c(-c6cccc(S(=O)(=O)[O-])c6F)c6ccc3[nH]6)C=C5)C=C4)cc2)c2ccccc2)nc2ccc(Br)cc2c1=O
REMARK SMILES IDX 10 1 9 2 8 3 6 4 7 5 5 7 4 8 3 9 2 10 93 11 85 12 92 13
REMARK SMILES IDX 94 14 86 15 91 16 87 17 89 18 88 19 90 20 1 21 79 24 80 25
REMARK SMILES IDX 84 26 81 27 83 28 82 29 11 30 12 31 13 32 14 33 15 35 16 36
REMARK SMILES IDX 17 37 78 38 18 39 77 40 19 41 20 42 21 43 71 44 22 45 76 46
REMARK SMILES IDX 70 47 72 48 23 49 75 50 69 51 68 52 24 54 56 55 36 56 55 57
REMARK SMILES IDX 37 58 40 59 54 60 73 61 38 62 39 63 53 65 74 66 41 67 25 68
REMARK SMILES IDX 26 69 34 70 27 71 29 72 35 73 28 74 30 75 31 76 32 77 33 78
REMARK SMILES IDX 57 79 58 80 66 81 59 82 61 83 67 84 60 85 62 86 63 87 64 88
REMARK SMILES IDX 65 89 42 90 43 91 51 92 44 93 46 94 52 95 45 96 47 97 48 98
REMARK SMILES IDX 49 99 50 100
REMARK H PARENT 8 6 1 22 1 23 13 34 72 53 40 64
REMARK Flexibility Score: inf
ROOT
ATOM      1  C   UNL A   1      35.682  22.644  23.734  1.00  0.00     0.023 C 
ENDROOT
BRANCH   1   2
ATOM      2  C   UNL A   1      35.460  23.960  24.486  1.00  0.00     0.116 C 
BRANCH   2   3
ATOM      3  N   UNL A   1      34.734  24.961  23.718  1.00  0.00    -0.355 N 
ATOM      4  C   UNL A   1      33.675  25.759  24.058  1.00  0.00     0.238 C 
ATOM      5  O   UNL A   1      33.353  26.613  23.226  1.00  0.00    -0.273 OA
ATOM      6  H   UNL A   1      35.061  25.085  22.797  1.00  0.00     0.163 HD
BRANCH   4   7
ATOM      7  C   UNL A   1      32.926  25.604  25.393  1.00  0.00     0.174 C 
BRANCH   7   8
ATOM      8  S   UNL A   1      31.558  24.453  25.313  1.00  0.00    -0.068 SA
BRANCH   8   9
ATOM      9  C   UNL A   1      31.912  22.926  24.560  1.00  0.00     0.191 A 
ATOM     10  N   UNL A   1      31.988  22.673  23.191  1.00  0.00    -0.202 N 
ATOM     11  C   UNL A   1      32.043  21.357  22.706  1.00  0.00     0.280 A 
ATOM     12  N   UNL A   1      32.133  22.004  25.446  1.00  0.00    -0.222 NA
ATOM     13  C   UNL A   1      32.378  20.324  23.697  1.00  0.00     0.069 A 
ATOM     14  O   UNL A   1      31.824  21.014  21.545  1.00  0.00    -0.267 OA
ATOM     15  C   UNL A   1      32.470  20.718  25.027  1.00  0.00     0.079 A 
ATOM     16  C   UNL A   1      32.655  19.009  23.309  1.00  0.00     0.031 A 
ATOM     17  C   UNL A   1      32.901  19.792  25.979  1.00  0.00     0.030 A 
ATOM     18  C   UNL A   1      33.063  18.092  24.274  1.00  0.00     0.018 A 
ATOM     19  C   UNL A   1      33.204  18.481  25.606  1.00  0.00     0.018 A 
ATOM     20  Br  UNL A   1      33.436  16.308  23.776  1.00  0.00    -0.051 Br
BRANCH  10  21
ATOM     21  N   UNL A   1      32.061  23.662  22.202  1.00  0.00    -0.334 N 
ATOM     22  H   UNL A   1      32.684  24.417  22.306  1.00  0.00     0.178 HD
ATOM     23  H   UNL A   1      31.488  23.603  21.405  1.00  0.00     0.178 HD
ENDBRANCH  10  21
ENDBRANCH   8   9
ENDBRANCH   7   8
BRANCH   7  24
ATOM     24  C   UNL A   1      32.743  26.910  26.169  1.00  0.00    -0.025 A 
ATOM     25  C   UNL A   1      31.520  27.376  26.674  1.00  0.00     0.005 A 
ATOM     26  C   UNL A   1      33.871  27.739  26.349  1.00  0.00     0.005 A 
ATOM     27  C   UNL A   1      31.422  28.615  27.315  1.00  0.00     0.000 A 
ATOM     28  C   UNL A   1      33.775  28.972  27.000  1.00  0.00     0.000 A 
ATOM     29  C   UNL A   1      32.548  29.414  27.479  1.00  0.00     0.000 A 
ENDBRANCH   7  24
ENDBRANCH   4   7
ENDBRANCH   2   3
ENDBRANCH   1   2
BRANCH   1  30
ATOM     30  C   UNL A   1      37.010  21.941  23.998  1.00  0.00     0.023 C 
BRANCH  30  31
ATOM     31  C   UNL A   1      37.202  21.409  25.410  1.00  0.00     0.116 C 
BRANCH  31  32
ATOM     32  N   UNL A   1      38.311  20.474  25.534  1.00  0.00    -0.352 N 
ATOM     33  C   UNL A   1      39.553  20.668  26.099  1.00  0.00     0.251 C 
ATOM     34  H   UNL A   1      38.151  19.577  25.162  1.00  0.00     0.163 HD
ATOM     35  O   UNL A   1      40.399  19.782  26.039  1.00  0.00    -0.269 OA
BRANCH  33  36
ATOM     36  C   UNL A   1      39.869  21.969  26.727  1.00  0.00     0.039 A 
ATOM     37  C   UNL A   1      39.284  23.146  26.253  1.00  0.00     0.014 A 
ATOM     38  C   UNL A   1      40.824  22.017  27.745  1.00  0.00     0.014 A 
ATOM     39  C   UNL A   1      39.800  24.375  26.650  1.00  0.00     0.010 A 
ATOM     40  C   UNL A   1      41.282  23.256  28.204  1.00  0.00     0.010 A 
ATOM     41  C   UNL A   1      40.823  24.442  27.611  1.00  0.00    -0.014 A 
BRANCH  41  42
ATOM     42  C   UNL A   1      41.427  25.758  27.949  1.00  0.00     0.031 A 
ATOM     43  C   UNL A   1      42.808  26.116  27.462  1.00  0.00     0.074 A 
ATOM     44  C   UNL A   1      40.711  26.655  28.653  1.00  0.00     0.049 A 
ATOM     45  N   UNL A   1      43.486  27.219  27.656  1.00  0.00    -0.248 NA
ATOM     46  C   UNL A   1      43.525  25.114  26.654  1.00  0.00     0.031 C 
ATOM     47  C   UNL A   1      39.365  26.428  29.182  1.00  0.00     0.029 A 
ATOM     48  N   UNL A   1      41.005  27.941  29.030  1.00  0.00    -0.354 N 
ATOM     49  C   UNL A   1      44.716  27.028  27.038  1.00  0.00     0.074 A 
ATOM     50  C   UNL A   1      44.697  25.703  26.460  1.00  0.00     0.031 C 
ATOM     51  C   UNL A   1      38.934  27.549  29.780  1.00  0.00     0.029 A 
ATOM     52  C   UNL A   1      39.989  28.557  29.719  1.00  0.00     0.049 A 
ATOM     53  H   UNL A   1      41.862  28.379  28.827  1.00  0.00     0.167 HD
ATOM     54  C   UNL A   1      45.760  27.885  26.943  1.00  0.00     0.034 A 
ATOM     55  C   UNL A   1      39.910  29.793  30.248  1.00  0.00     0.034 A 
ATOM     56  C   UNL A   1      45.759  29.226  27.460  1.00  0.00     0.049 A 
ATOM     57  C   UNL A   1      41.072  30.731  30.108  1.00  0.00     0.074 A 
ATOM     58  C   UNL A   1      46.764  30.174  27.381  1.00  0.00     0.029 A 
ATOM     59  N   UNL A   1      44.702  29.816  28.132  1.00  0.00    -0.354 N 
ATOM     60  N   UNL A   1      42.205  30.544  29.476  1.00  0.00    -0.248 NA
ATOM     61  C   UNL A   1      40.943  32.054  30.736  1.00  0.00     0.031 C 
ATOM     62  C   UNL A   1      46.311  31.343  28.002  1.00  0.00     0.029 A 
ATOM     63  C   UNL A   1      45.025  31.118  28.466  1.00  0.00     0.049 A 
ATOM     64  H   UNL A   1      43.848  29.373  28.341  1.00  0.00     0.167 HD
ATOM     65  C   UNL A   1      42.918  31.728  29.619  1.00  0.00     0.074 A 
ATOM     66  C   UNL A   1      42.083  32.633  30.380  1.00  0.00     0.031 C 
ATOM     67  C   UNL A   1      44.163  32.026  29.176  1.00  0.00     0.034 A 
BRANCH  54  68
ATOM     68  C   UNL A   1      46.985  27.430  26.199  1.00  0.00     0.023 A 
ATOM     69  C   UNL A   1      47.892  26.563  26.837  1.00  0.00     0.012 A 
ATOM     70  C   UNL A   1      47.179  27.770  24.846  1.00  0.00     0.148 A 
ATOM     71  C   UNL A   1      48.982  26.043  26.140  1.00  0.00     0.002 A 
ATOM     72  C   UNL A   1      48.254  27.226  24.150  1.00  0.00     0.091 A 
ATOM     73  F   UNL A   1      46.309  28.608  24.267  1.00  0.00    -0.205 F 
ATOM     74  C   UNL A   1      49.156  26.365  24.797  1.00  0.00     0.022 A 
BRANCH  72  75
ATOM     75  S   UNL A   1      48.539  27.533  22.404  1.00  0.00     0.127 S 
ATOM     76  O   UNL A   1      47.342  28.291  22.040  1.00  0.00    -0.237 OA
ATOM     77  O   UNL A   1      49.773  28.317  22.426  1.00  0.00    -0.237 OA
ATOM     78  O   UNL A   1      48.657  26.224  21.777  1.00  0.00    -0.744 OA
ENDBRANCH  72  75
ENDBRANCH  54  68
BRANCH  55  79
ATOM     79  C   UNL A   1      38.647  30.218  30.908  1.00  0.00     0.023 A 
ATOM     80  C   UNL A   1      38.470  29.963  32.281  1.00  0.00     0.012 A 
ATOM     81  C   UNL A   1      37.667  30.948  30.206  1.00  0.00     0.148 A 
ATOM     82  C   UNL A   1      37.335  30.427  32.945  1.00  0.00     0.002 A 
ATOM     83  C   UNL A   1      36.562  31.445  30.884  1.00  0.00     0.091 A 
ATOM     84  F   UNL A   1      37.858  31.167  28.898  1.00  0.00    -0.205 F 
ATOM     85  C   UNL A   1      36.389  31.177  32.251  1.00  0.00     0.022 A 
BRANCH  83  86
ATOM     86  S   UNL A   1      35.356  32.524  30.106  1.00  0.00     0.127 S 
ATOM     87  O   UNL A   1      36.184  33.664  29.714  1.00  0.00    -0.237 OA
ATOM     88  O   UNL A   1      34.884  31.695  28.996  1.00  0.00    -0.237 OA
ATOM     89  O   UNL A   1      34.353  32.797  31.125  1.00  0.00    -0.744 OA
ENDBRANCH  83  86
ENDBRANCH  55  79
BRANCH  67  90
ATOM     90  C   UNL A   1      44.712  33.389  29.484  1.00  0.00     0.023 A 
ATOM     91  C   UNL A   1      45.532  33.559  30.617  1.00  0.00     0.012 A 
ATOM     92  C   UNL A   1      44.518  34.464  28.596  1.00  0.00     0.148 A 
ATOM     93  C   UNL A   1      46.147  34.785  30.865  1.00  0.00     0.002 A 
ATOM     94  C   UNL A   1      45.158  35.674  28.834  1.00  0.00     0.091 A 
ATOM     95  F   UNL A   1      43.723  34.277  27.533  1.00  0.00    -0.205 F 
ATOM     96  C   UNL A   1      45.970  35.837  29.970  1.00  0.00     0.022 A 
BRANCH  94  97
ATOM     97  S   UNL A   1      45.050  37.064  27.702  1.00  0.00     0.127 S 
ATOM     98  O   UNL A   1      46.018  37.995  28.280  1.00  0.00    -0.237 OA
ATOM     99  O   UNL A   1      45.461  36.465  26.433  1.00  0.00    -0.237 OA
ATOM    100  O   UNL A   1      43.662  37.507  27.741  1.00  0.00    -0.744 OA
ENDBRANCH  94  97
ENDBRANCH  67  90
ENDBRANCH  41  42
ENDBRANCH  33  36
ENDBRANCH  31  32
ENDBRANCH  30  31
ENDBRANCH   1  30
TORSDOF 18
ENDMDL
MODEL 3
REMARK VINA RESULT:     -12.9      5.339     10.426
REMARK SMILES Nn1c(S[C@@H](C(=O)NCCCCNC(=O)c2ccc(-c3c4nc(c(-c5cccc(S(=O)(=O)[O-])c5F)c5ccc([nH]5)c(-c5cccc(S(=O)(=O)[O-])c5F)c5nc(c(-c6cccc(S(=O)(=O)[O-])c6F)c6ccc3[nH]6)C=C5)C=C4)cc2)c2ccccc2)nc2ccc(Br)cc2c1=O
REMARK SMILES IDX 10 1 9 2 8 3 6 4 7 5 5 7 4 8 3 9 2 10 93 11 85 12 92 13
REMARK SMILES IDX 94 14 86 15 91 16 87 17 89 18 88 19 90 20 1 21 79 24 80 25
REMARK SMILES IDX 84 26 81 27 83 28 82 29 11 30 12 31 13 32 14 33 15 35 16 36
REMARK SMILES IDX 17 37 78 38 18 39 77 40 19 41 20 42 21 43 71 44 22 45 76 46
REMARK SMILES IDX 70 47 72 48 23 49 75 50 69 51 68 52 24 54 56 55 36 56 55 57
REMARK SMILES IDX 37 58 40 59 54 60 73 61 38 62 39 63 53 65 74 66 41 67 25 68
REMARK SMILES IDX 26 69 34 70 27 71 29 72 35 73 28 74 30 75 31 76 32 77 33 78
REMARK SMILES IDX 57 79 58 80 66 81 59 82 61 83 67 84 60 85 62 86 63 87 64 88
REMARK SMILES IDX 65 89 42 90 43 91 51 92 44 93 46 94 52 95 45 96 47 97 48 98
REMARK SMILES IDX 49 99 50 100
REMARK H PARENT 8 6 1 22 1 23 13 34 72 53 40 64
REMARK Flexibility Score: inf
ROOT
ATOM      1  C   UNL A   1      36.317  23.438  23.913  1.00  0.00     0.023 C 
ENDROOT
BRANCH   1   2
ATOM      2  C   UNL A   1      34.881  23.967  23.969  1.00  0.00     0.116 C 
BRANCH   2   3
ATOM      3  N   UNL A   1      34.448  24.625  22.745  1.00  0.00    -0.355 N 
ATOM      4  C   UNL A   1      33.332  25.370  22.472  1.00  0.00     0.238 C 
ATOM      5  O   UNL A   1      33.302  25.911  21.363  1.00  0.00    -0.273 OA
ATOM      6  H   UNL A   1      35.062  24.514  21.983  1.00  0.00     0.163 HD
BRANCH   4   7
ATOM      7  C   UNL A   1      32.182  25.524  23.482  1.00  0.00     0.174 C 
BRANCH   7   8
ATOM      8  S   UNL A   1      31.067  24.124  23.511  1.00  0.00    -0.068 SA
BRANCH   8   9
ATOM      9  C   UNL A   1      31.752  22.639  24.102  1.00  0.00     0.191 A 
ATOM     10  N   UNL A   1      32.163  22.376  25.408  1.00  0.00    -0.202 N 
ATOM     11  C   UNL A   1      32.917  21.230  25.706  1.00  0.00     0.280 A 
ATOM     12  N   UNL A   1      31.823  21.747  23.161  1.00  0.00    -0.222 NA
ATOM     13  C   UNL A   1      32.926  20.184  24.673  1.00  0.00     0.069 A 
ATOM     14  O   UNL A   1      33.564  21.050  26.736  1.00  0.00    -0.267 OA
ATOM     15  C   UNL A   1      32.314  20.477  23.460  1.00  0.00     0.079 A 
ATOM     16  C   UNL A   1      33.473  18.921  24.923  1.00  0.00     0.031 A 
ATOM     17  C   UNL A   1      32.199  19.470  22.499  1.00  0.00     0.030 A 
ATOM     18  C   UNL A   1      33.369  17.934  23.947  1.00  0.00     0.018 A 
ATOM     19  C   UNL A   1      32.719  18.197  22.741  1.00  0.00     0.018 A 
ATOM     20  Br  UNL A   1      34.106  16.223  24.259  1.00  0.00    -0.051 Br
BRANCH  10  21
ATOM     21  N   UNL A   1      31.842  23.167  26.517  1.00  0.00    -0.334 N 
ATOM     22  H   UNL A   1      32.163  24.097  26.568  1.00  0.00     0.178 HD
ATOM     23  H   UNL A   1      31.297  22.794  27.246  1.00  0.00     0.178 HD
ENDBRANCH  10  21
ENDBRANCH   8   9
ENDBRANCH   7   8
BRANCH   7  24
ATOM     24  C   UNL A   1      31.593  26.934  23.556  1.00  0.00    -0.025 A 
ATOM     25  C   UNL A   1      32.075  27.961  24.381  1.00  0.00     0.005 A 
ATOM     26  C   UNL A   1      30.446  27.215  22.782  1.00  0.00     0.005 A 
ATOM     27  C   UNL A   1      31.438  29.205  24.442  1.00  0.00     0.000 A 
ATOM     28  C   UNL A   1      29.817  28.462  22.835  1.00  0.00     0.000 A 
ATOM     29  C   UNL A   1      30.310  29.457  23.671  1.00  0.00     0.000 A 
ENDBRANCH   7  24
ENDBRANCH   4   7
ENDBRANCH   2   3
ENDBRANCH   1   2
BRANCH   1  30
ATOM     30  C   UNL A   1      36.490  21.947  24.193  1.00  0.00     0.023 C 
BRANCH  30  31
ATOM     31  C   UNL A   1      36.980  21.594  25.590  1.00  0.00     0.116 C 
BRANCH  31  32
ATOM     32  N   UNL A   1      38.111  20.678  25.595  1.00  0.00    -0.352 N 
ATOM     33  C   UNL A   1      39.392  20.879  26.065  1.00  0.00     0.251 C 
ATOM     34  H   UNL A   1      37.938  19.790  25.207  1.00  0.00     0.163 HD
ATOM     35  O   UNL A   1      40.245  20.013  25.908  1.00  0.00    -0.269 OA
BRANCH  33  36
ATOM     36  C   UNL A   1      39.734  22.167  26.707  1.00  0.00     0.039 A 
ATOM     37  C   UNL A   1      39.125  23.352  26.289  1.00  0.00     0.014 A 
ATOM     38  C   UNL A   1      40.737  22.194  27.679  1.00  0.00     0.014 A 
ATOM     39  C   UNL A   1      39.656  24.573  26.690  1.00  0.00     0.010 A 
ATOM     40  C   UNL A   1      41.213  23.423  28.144  1.00  0.00     0.010 A 
ATOM     41  C   UNL A   1      40.724  24.622  27.602  1.00  0.00    -0.014 A 
BRANCH  41  42
ATOM     42  C   UNL A   1      41.340  25.931  27.941  1.00  0.00     0.031 A 
ATOM     43  C   UNL A   1      42.732  26.269  27.472  1.00  0.00     0.074 A 
ATOM     44  C   UNL A   1      40.626  26.841  28.630  1.00  0.00     0.049 A 
ATOM     45  N   UNL A   1      43.422  27.364  27.670  1.00  0.00    -0.248 NA
ATOM     46  C   UNL A   1      43.447  25.253  26.679  1.00  0.00     0.031 C 
ATOM     47  C   UNL A   1      39.270  26.635  29.142  1.00  0.00     0.029 A 
ATOM     48  N   UNL A   1      40.932  28.125  29.006  1.00  0.00    -0.354 N 
ATOM     49  C   UNL A   1      44.658  27.153  27.069  1.00  0.00     0.074 A 
ATOM     50  C   UNL A   1      44.630  25.826  26.498  1.00  0.00     0.031 C 
ATOM     51  C   UNL A   1      38.846  27.764  29.728  1.00  0.00     0.029 A 
ATOM     52  C   UNL A   1      39.914  28.758  29.677  1.00  0.00     0.049 A 
ATOM     53  H   UNL A   1      41.798  28.551  28.811  1.00  0.00     0.167 HD
ATOM     54  C   UNL A   1      45.714  27.996  26.984  1.00  0.00     0.034 A 
ATOM     55  C   UNL A   1      39.844  29.998  30.199  1.00  0.00     0.034 A 
ATOM     56  C   UNL A   1      45.723  29.340  27.494  1.00  0.00     0.049 A 
ATOM     57  C   UNL A   1      41.021  30.920  30.069  1.00  0.00     0.074 A 
ATOM     58  C   UNL A   1      46.742  30.275  27.424  1.00  0.00     0.029 A 
ATOM     59  N   UNL A   1      44.665  29.947  28.149  1.00  0.00    -0.354 N 
ATOM     60  N   UNL A   1      42.160  30.715  29.455  1.00  0.00    -0.248 NA
ATOM     61  C   UNL A   1      40.900  32.248  30.689  1.00  0.00     0.031 C 
ATOM     62  C   UNL A   1      46.295  31.452  28.033  1.00  0.00     0.029 A 
ATOM     63  C   UNL A   1      45.001  31.247  28.481  1.00  0.00     0.049 A 
ATOM     64  H   UNL A   1      43.802  29.516  28.348  1.00  0.00     0.167 HD
ATOM     65  C   UNL A   1      42.886  31.890  29.601  1.00  0.00     0.074 A 
ATOM     66  C   UNL A   1      42.053  32.811  30.346  1.00  0.00     0.031 C 
ATOM     67  C   UNL A   1      44.141  32.170  29.174  1.00  0.00     0.034 A 
BRANCH  54  68
ATOM     68  C   UNL A   1      46.943  27.522  26.260  1.00  0.00     0.023 A 
ATOM     69  C   UNL A   1      47.843  26.668  26.924  1.00  0.00     0.012 A 
ATOM     70  C   UNL A   1      47.148  27.829  24.901  1.00  0.00     0.148 A 
ATOM     71  C   UNL A   1      48.937  26.129  26.247  1.00  0.00     0.002 A 
ATOM     72  C   UNL A   1      48.226  27.268  24.226  1.00  0.00     0.091 A 
ATOM     73  F   UNL A   1      46.283  28.656  24.296  1.00  0.00    -0.205 F 
ATOM     74  C   UNL A   1      49.121  26.420  24.898  1.00  0.00     0.022 A 
BRANCH  72  75
ATOM     75  S   UNL A   1      48.524  27.534  22.474  1.00  0.00     0.127 S 
ATOM     76  O   UNL A   1      47.339  28.299  22.088  1.00  0.00    -0.237 OA
ATOM     77  O   UNL A   1      49.769  28.301  22.487  1.00  0.00    -0.237 OA
ATOM     78  O   UNL A   1      48.628  26.210  21.876  1.00  0.00    -0.744 OA
ENDBRANCH  72  75
ENDBRANCH  54  68
BRANCH  55  79
ATOM     79  C   UNL A   1      38.578  30.443  30.838  1.00  0.00     0.023 A 
ATOM     80  C   UNL A   1      38.419  30.286  32.228  1.00  0.00     0.012 A 
ATOM     81  C   UNL A   1      37.576  31.097  30.096  1.00  0.00     0.148 A 
ATOM     82  C   UNL A   1      37.280  30.773  32.868  1.00  0.00     0.002 A 
ATOM     83  C   UNL A   1      36.466  31.619  30.746  1.00  0.00     0.091 A 
ATOM     84  F   UNL A   1      37.750  31.223  28.773  1.00  0.00    -0.205 F 
ATOM     85  C   UNL A   1      36.311  31.449  32.132  1.00  0.00     0.022 A 
BRANCH  83  86
ATOM     86  S   UNL A   1      35.229  32.611  29.903  1.00  0.00     0.127 S 
ATOM     87  O   UNL A   1      34.712  31.667  28.915  1.00  0.00    -0.237 OA
ATOM     88  O   UNL A   1      34.307  32.930  30.994  1.00  0.00    -0.237 OA
ATOM     89  O   UNL A   1      35.945  33.759  29.363  1.00  0.00    -0.744 OA
ENDBRANCH  83  86
ENDBRANCH  55  79
BRANCH  67  90
ATOM     90  C   UNL A   1      44.703  33.527  29.482  1.00  0.00     0.023 A 
ATOM     91  C   UNL A   1      45.443  33.710  30.666  1.00  0.00     0.012 A 
ATOM     92  C   UNL A   1      44.602  34.580  28.552  1.00  0.00     0.148 A 
ATOM     93  C   UNL A   1      46.073  34.927  30.924  1.00  0.00     0.002 A 
ATOM     94  C   UNL A   1      45.257  35.779  28.802  1.00  0.00     0.091 A 
ATOM     95  F   UNL A   1      43.881  34.381  27.440  1.00  0.00    -0.205 F 
ATOM     96  C   UNL A   1      45.989  35.956  29.989  1.00  0.00     0.022 A 
BRANCH  94  97
ATOM     97  S   UNL A   1      45.267  37.137  27.627  1.00  0.00     0.127 S 
ATOM     98  O   UNL A   1      45.932  36.529  26.474  1.00  0.00    -0.237 OA
ATOM     99  O   UNL A   1      43.841  37.399  27.441  1.00  0.00    -0.237 OA
ATOM    100  O   UNL A   1      46.003  38.219  28.268  1.00  0.00    -0.744 OA
ENDBRANCH  94  97
ENDBRANCH  67  90
ENDBRANCH  41  42
ENDBRANCH  33  36
ENDBRANCH  31  32
ENDBRANCH  30  31
ENDBRANCH   1  30
TORSDOF 18
ENDMDL
