MODEL 1
REMARK VINA RESULT:     -11.9      0.000      0.000
REMARK SMILES O=C(NCCCCNC(=O)[C@@H]1[C@H](C(=O)NCc2ccccc2Cl)[C@@H]2C=C[C@H]1C2)c1ccc(-c2c3nc(c(-c4cccc(S(=O)(=O)[O-])c4F)c4ccc([nH]4)c(-c4cccc(S(=O)(=O)[O-])c4F)c4nc(c(-c5cccc(S(=O)(=O)[O-])c5F)c5ccc2[nH]5)C=C4)C=C3)cc1
REMARK SMILES IDX 5 1 4 2 3 3 1 4 2 5 29 7 30 8 91 9 31 10 90 11 32 12 33 13
REMARK SMILES IDX 34 14 84 15 35 16 89 17 83 18 85 19 36 20 88 21 82 22 81 23
REMARK SMILES IDX 37 25 69 26 49 27 68 28 50 29 53 30 67 31 86 32 51 33 52 34
REMARK SMILES IDX 66 36 87 37 54 38 38 39 39 40 47 41 40 42 42 43 48 44 41 45
REMARK SMILES IDX 43 46 44 47 45 48 46 49 70 50 71 51 79 52 72 53 74 54 80 55
REMARK SMILES IDX 73 56 75 57 76 58 77 59 78 60 55 61 56 62 64 63 57 64 59 65
REMARK SMILES IDX 65 66 58 67 60 68 61 69 62 70 63 71 6 72 7 73 8 74 9 75
REMARK SMILES IDX 10 77 11 78 12 79 27 80 24 81 26 82 28 83 25 84 13 85 14 86
REMARK SMILES IDX 15 87 16 89 17 90 18 91 22 92 19 93 21 94 23 95 20 96
REMARK H PARENT 3 6 85 24 53 35 8 76 15 88
REMARK Flexibility Score: inf
ROOT
ATOM      1  C   UNL A   1      33.461  27.952  27.096  1.00  0.00     0.023 C 
ENDROOT
BRANCH   1   2
ATOM      2  C   UNL A   1      34.027  29.038  26.196  1.00  0.00     0.116 C 
BRANCH   2   3
ATOM      3  N   UNL A   1      33.825  30.375  26.730  1.00  0.00    -0.352 N 
ATOM      4  O   UNL A   1      34.129  32.113  28.123  1.00  0.00    -0.269 OA
ATOM      5  C   UNL A   1      34.551  31.053  27.682  1.00  0.00     0.251 C 
ATOM      6  H   UNL A   1      33.057  30.865  26.356  1.00  0.00     0.163 HD
BRANCH   5   7
ATOM      7  C   UNL A   1      35.824  30.481  28.176  1.00  0.00     0.039 A 
ATOM      8  C   UNL A   1      37.018  30.709  27.488  1.00  0.00     0.014 A 
ATOM      9  C   UNL A   1      35.825  29.725  29.351  1.00  0.00     0.014 A 
ATOM     10  C   UNL A   1      38.185  30.076  27.895  1.00  0.00     0.010 A 
ATOM     11  C   UNL A   1      37.020  29.166  29.814  1.00  0.00     0.010 A 
ATOM     12  C   UNL A   1      38.206  29.326  29.082  1.00  0.00    -0.014 A 
BRANCH  12  13
ATOM     13  C   UNL A   1      39.509  28.854  29.610  1.00  0.00     0.031 A 
ATOM     14  C   UNL A   1      40.211  29.557  30.735  1.00  0.00     0.074 A 
ATOM     15  C   UNL A   1      40.069  27.776  29.023  1.00  0.00     0.049 A 
ATOM     16  N   UNL A   1      41.356  29.261  31.294  1.00  0.00    -0.248 NA
ATOM     17  C   UNL A   1      39.557  30.745  31.307  1.00  0.00     0.031 C 
ATOM     18  C   UNL A   1      39.498  27.049  27.883  1.00  0.00     0.029 A 
ATOM     19  N   UNL A   1      41.241  27.114  29.281  1.00  0.00    -0.354 N 
ATOM     20  C   UNL A   1      41.585  30.244  32.248  1.00  0.00     0.074 A 
ATOM     21  C   UNL A   1      40.452  31.145  32.203  1.00  0.00     0.031 C 
ATOM     22  C   UNL A   1      40.315  26.044  27.546  1.00  0.00     0.029 A 
ATOM     23  C   UNL A   1      41.495  26.091  28.397  1.00  0.00     0.049 A 
ATOM     24  H   UNL A   1      41.841  27.348  30.025  1.00  0.00     0.167 HD
ATOM     25  C   UNL A   1      42.643  30.376  33.083  1.00  0.00     0.034 A 
ATOM     26  C   UNL A   1      42.577  25.303  28.255  1.00  0.00     0.034 A 
ATOM     27  C   UNL A   1      43.747  29.452  33.140  1.00  0.00     0.049 A 
ATOM     28  C   UNL A   1      43.726  25.476  29.204  1.00  0.00     0.074 A 
ATOM     29  C   UNL A   1      44.808  29.440  34.030  1.00  0.00     0.029 A 
ATOM     30  N   UNL A   1      43.950  28.401  32.261  1.00  0.00    -0.354 N 
ATOM     31  N   UNL A   1      43.838  26.298  30.219  1.00  0.00    -0.248 NA
ATOM     32  C   UNL A   1      44.888  24.600  29.005  1.00  0.00     0.031 C 
ATOM     33  C   UNL A   1      45.675  28.406  33.663  1.00  0.00     0.029 A 
ATOM     34  C   UNL A   1      45.139  27.755  32.563  1.00  0.00     0.049 A 
ATOM     35  H   UNL A   1      43.341  28.149  31.530  1.00  0.00     0.167 HD
ATOM     36  C   UNL A   1      45.076  26.031  30.787  1.00  0.00     0.074 A 
ATOM     37  C   UNL A   1      45.658  24.942  30.028  1.00  0.00     0.031 C 
ATOM     38  C   UNL A   1      45.689  26.650  31.825  1.00  0.00     0.034 A 
BRANCH  25  39
ATOM     39  C   UNL A   1      42.672  31.543  34.034  1.00  0.00     0.023 A 
ATOM     40  C   UNL A   1      43.134  32.797  33.589  1.00  0.00     0.012 A 
ATOM     41  C   UNL A   1      42.112  31.428  35.323  1.00  0.00     0.148 A 
ATOM     42  C   UNL A   1      43.047  33.918  34.416  1.00  0.00     0.002 A 
ATOM     43  C   UNL A   1      41.994  32.555  36.126  1.00  0.00     0.091 A 
ATOM     44  F   UNL A   1      41.693  30.221  35.729  1.00  0.00    -0.205 F 
ATOM     45  C   UNL A   1      42.466  33.799  35.676  1.00  0.00     0.022 A 
BRANCH  43  46
ATOM     46  S   UNL A   1      41.189  32.527  37.732  1.00  0.00     0.127 S 
ATOM     47  O   UNL A   1      41.231  33.939  38.107  1.00  0.00    -0.237 OA
ATOM     48  O   UNL A   1      39.856  32.025  37.397  1.00  0.00    -0.237 OA
ATOM     49  O   UNL A   1      41.985  31.639  38.568  1.00  0.00    -0.744 OA
ENDBRANCH  43  46
ENDBRANCH  25  39
BRANCH  26  50
ATOM     50  C   UNL A   1      42.622  24.290  27.165  1.00  0.00     0.023 A 
ATOM     51  C   UNL A   1      43.342  24.562  25.986  1.00  0.00     0.012 A 
ATOM     52  C   UNL A   1      41.970  23.048  27.300  1.00  0.00     0.148 A 
ATOM     53  C   UNL A   1      43.381  23.630  24.948  1.00  0.00     0.002 A 
ATOM     54  C   UNL A   1      42.067  22.100  26.290  1.00  0.00     0.091 A 
ATOM     55  F   UNL A   1      41.274  22.813  28.422  1.00  0.00    -0.205 F 
ATOM     56  C   UNL A   1      42.754  22.396  25.105  1.00  0.00     0.022 A 
BRANCH  54  57
ATOM     57  S   UNL A   1      41.415  20.438  26.484  1.00  0.00     0.127 S 
ATOM     58  O   UNL A   1      41.838  20.107  27.840  1.00  0.00    -0.237 OA
ATOM     59  O   UNL A   1      39.976  20.653  26.321  1.00  0.00    -0.237 OA
ATOM     60  O   UNL A   1      42.023  19.658  25.413  1.00  0.00    -0.744 OA
ENDBRANCH  54  57
ENDBRANCH  26  50
BRANCH  38  61
ATOM     61  C   UNL A   1      47.060  26.160  32.208  1.00  0.00     0.023 A 
ATOM     62  C   UNL A   1      48.193  26.707  31.575  1.00  0.00     0.012 A 
ATOM     63  C   UNL A   1      47.227  25.211  33.234  1.00  0.00     0.148 A 
ATOM     64  C   UNL A   1      49.474  26.291  31.935  1.00  0.00     0.002 A 
ATOM     65  C   UNL A   1      48.508  24.839  33.622  1.00  0.00     0.091 A 
ATOM     66  F   UNL A   1      46.134  24.692  33.810  1.00  0.00    -0.205 F 
ATOM     67  C   UNL A   1      49.632  25.369  32.965  1.00  0.00     0.022 A 
BRANCH  65  68
ATOM     68  S   UNL A   1      48.817  23.726  34.998  1.00  0.00     0.127 S 
ATOM     69  O   UNL A   1      48.243  24.472  36.118  1.00  0.00    -0.237 OA
ATOM     70  O   UNL A   1      48.063  22.535  34.607  1.00  0.00    -0.237 OA
ATOM     71  O   UNL A   1      50.261  23.541  35.050  1.00  0.00    -0.744 OA
ENDBRANCH  65  68
ENDBRANCH  38  61
ENDBRANCH  12  13
ENDBRANCH   5   7
ENDBRANCH   2   3
ENDBRANCH   1   2
BRANCH   1  72
ATOM     72  C   UNL A   1      31.940  27.912  27.168  1.00  0.00     0.023 C 
BRANCH  72  73
ATOM     73  C   UNL A   1      31.252  26.987  26.167  1.00  0.00     0.116 C 
BRANCH  73  74
ATOM     74  N   UNL A   1      30.999  25.640  26.664  1.00  0.00    -0.356 N 
ATOM     75  C   UNL A   1      31.848  24.564  26.723  1.00  0.00     0.224 C 
ATOM     76  H   UNL A   1      30.090  25.480  27.005  1.00  0.00     0.163 HD
ATOM     77  O   UNL A   1      31.555  23.607  27.436  1.00  0.00    -0.275 OA
BRANCH  75  78
ATOM     78  C   UNL A   1      33.141  24.631  25.951  1.00  0.00     0.098 C 
ATOM     79  C   UNL A   1      33.092  24.433  24.412  1.00  0.00     0.098 C 
ATOM     80  C   UNL A   1      34.313  23.702  26.376  1.00  0.00     0.025 C 
ATOM     81  C   UNL A   1      34.344  23.557  24.134  1.00  0.00     0.025 C 
ATOM     82  C   UNL A   1      34.109  22.254  26.002  1.00  0.00    -0.027 C 
ATOM     83  C   UNL A   1      35.299  24.046  25.244  1.00  0.00     0.017 C 
ATOM     84  C   UNL A   1      34.148  22.165  24.662  1.00  0.00    -0.027 C 
BRANCH  79  85
ATOM     85  C   UNL A   1      31.806  24.083  23.650  1.00  0.00     0.224 C 
ATOM     86  O   UNL A   1      31.016  23.293  24.187  1.00  0.00    -0.275 OA
ATOM     87  N   UNL A   1      31.442  24.538  22.423  1.00  0.00    -0.352 N 
ATOM     88  H   UNL A   1      30.953  23.896  21.858  1.00  0.00     0.163 HD
BRANCH  87  89
ATOM     89  C   UNL A   1      31.675  25.839  21.839  1.00  0.00     0.153 C 
BRANCH  89  90
ATOM     90  C   UNL A   1      31.231  27.050  22.621  1.00  0.00    -0.010 A 
ATOM     91  C   UNL A   1      29.870  27.273  22.884  1.00  0.00     0.007 A 
ATOM     92  C   UNL A   1      32.131  28.105  22.867  1.00  0.00     0.046 A 
ATOM     93  C   UNL A   1      29.414  28.524  23.312  1.00  0.00     0.000 A 
ATOM     94  C   UNL A   1      31.676  29.349  23.315  1.00  0.00     0.021 A 
ATOM     95  Cl  UNL A   1      33.831  27.950  22.575  1.00  0.00    -0.084 Cl
ATOM     96  C   UNL A   1      30.315  29.565  23.513  1.00  0.00     0.002 A 
ENDBRANCH  89  90
ENDBRANCH  87  89
ENDBRANCH  79  85
ENDBRANCH  75  78
ENDBRANCH  73  74
ENDBRANCH  72  73
ENDBRANCH   1  72
TORSDOF 17
ENDMDL
MODEL 2
REMARK VINA RESULT:     -11.8      5.168      8.531
REMARK SMILES O=C(NCCCCNC(=O)[C@@H]1[C@H](C(=O)NCc2ccccc2Cl)[C@@H]2C=C[C@H]1C2)c1ccc(-c2c3nc(c(-c4cccc(S(=O)(=O)[O-])c4F)c4ccc([nH]4)c(-c4cccc(S(=O)(=O)[O-])c4F)c4nc(c(-c5cccc(S(=O)(=O)[O-])c5F)c5ccc2[nH]5)C=C4)C=C3)cc1
REMARK SMILES IDX 5 1 4 2 3 3 1 4 2 5 29 7 30 8 91 9 31 10 90 11 32 12 33 13
REMARK SMILES IDX 34 14 84 15 35 16 89 17 83 18 85 19 36 20 88 21 82 22 81 23
REMARK SMILES IDX 37 25 69 26 49 27 68 28 50 29 53 30 67 31 86 32 51 33 52 34
REMARK SMILES IDX 66 36 87 37 54 38 38 39 39 40 47 41 40 42 42 43 48 44 41 45
REMARK SMILES IDX 43 46 44 47 45 48 46 49 70 50 71 51 79 52 72 53 74 54 80 55
REMARK SMILES IDX 73 56 75 57 76 58 77 59 78 60 55 61 56 62 64 63 57 64 59 65
REMARK SMILES IDX 65 66 58 67 60 68 61 69 62 70 63 71 6 72 7 73 8 74 9 75
REMARK SMILES IDX 10 77 11 78 12 79 27 80 24 81 26 82 28 83 25 84 13 85 14 86
REMARK SMILES IDX 15 87 16 89 17 90 18 91 22 92 19 93 21 94 23 95 20 96
REMARK H PARENT 3 6 85 24 53 35 8 76 15 88
REMARK Flexibility Score: inf
ROOT
ATOM      1  C   UNL A   1      37.709  19.798  24.837  1.00  0.00     0.023 C 
ENDROOT
BRANCH   1   2
ATOM      2  C   UNL A   1      38.745  20.485  25.710  1.00  0.00     0.116 C 
BRANCH   2   3
ATOM      3  N   UNL A   1      39.861  19.616  26.049  1.00  0.00    -0.352 N 
ATOM      4  O   UNL A   1      41.985  19.079  26.553  1.00  0.00    -0.269 OA
ATOM      5  C   UNL A   1      41.128  19.948  26.472  1.00  0.00     0.251 C 
ATOM      6  H   UNL A   1      39.683  18.651  25.964  1.00  0.00     0.163 HD
BRANCH   5   7
ATOM      7  C   UNL A   1      41.442  21.356  26.804  1.00  0.00     0.039 A 
ATOM      8  C   UNL A   1      41.776  21.718  28.112  1.00  0.00     0.014 A 
ATOM      9  C   UNL A   1      41.423  22.319  25.793  1.00  0.00     0.014 A 
ATOM     10  C   UNL A   1      41.959  23.056  28.435  1.00  0.00     0.010 A 
ATOM     11  C   UNL A   1      41.701  23.654  26.102  1.00  0.00     0.010 A 
ATOM     12  C   UNL A   1      41.959  24.034  27.427  1.00  0.00    -0.014 A 
BRANCH  12  13
ATOM     13  C   UNL A   1      42.380  25.415  27.767  1.00  0.00     0.031 A 
ATOM     14  C   UNL A   1      41.433  26.404  28.383  1.00  0.00     0.074 A 
ATOM     15  C   UNL A   1      43.647  25.773  27.474  1.00  0.00     0.049 A 
ATOM     16  N   UNL A   1      41.661  27.646  28.726  1.00  0.00    -0.248 NA
ATOM     17  C   UNL A   1      40.057  25.954  28.646  1.00  0.00     0.031 C 
ATOM     18  C   UNL A   1      44.636  24.907  26.823  1.00  0.00     0.029 A 
ATOM     19  N   UNL A   1      44.319  26.953  27.664  1.00  0.00    -0.354 N 
ATOM     20  C   UNL A   1      40.453  28.141  29.201  1.00  0.00     0.074 A 
ATOM     21  C   UNL A   1      39.493  27.062  29.114  1.00  0.00     0.031 C 
ATOM     22  C   UNL A   1      45.783  25.580  26.672  1.00  0.00     0.029 A 
ATOM     23  C   UNL A   1      45.597  26.940  27.154  1.00  0.00     0.049 A 
ATOM     24  H   UNL A   1      43.926  27.731  28.121  1.00  0.00     0.167 HD
ATOM     25  C   UNL A   1      40.179  29.383  29.668  1.00  0.00     0.034 A 
ATOM     26  C   UNL A   1      46.508  27.926  27.045  1.00  0.00     0.034 A 
ATOM     27  C   UNL A   1      41.154  30.437  29.782  1.00  0.00     0.049 A 
ATOM     28  C   UNL A   1      46.168  29.285  27.581  1.00  0.00     0.074 A 
ATOM     29  C   UNL A   1      40.998  31.691  30.348  1.00  0.00     0.029 A 
ATOM     30  N   UNL A   1      42.451  30.376  29.298  1.00  0.00    -0.354 N 
ATOM     31  N   UNL A   1      45.078  29.679  28.194  1.00  0.00    -0.248 NA
ATOM     32  C   UNL A   1      47.188  30.331  27.431  1.00  0.00     0.031 C 
ATOM     33  C   UNL A   1      42.187  32.403  30.169  1.00  0.00     0.029 A 
ATOM     34  C   UNL A   1      43.095  31.583  29.519  1.00  0.00     0.049 A 
ATOM     35  H   UNL A   1      42.856  29.592  28.863  1.00  0.00     0.167 HD
ATOM     36  C   UNL A   1      45.286  31.014  28.514  1.00  0.00     0.074 A 
ATOM     37  C   UNL A   1      46.622  31.348  28.064  1.00  0.00     0.031 C 
ATOM     38  C   UNL A   1      44.437  31.892  29.101  1.00  0.00     0.034 A 
BRANCH  25  39
ATOM     39  C   UNL A   1      38.777  29.690  30.124  1.00  0.00     0.023 A 
ATOM     40  C   UNL A   1      38.412  29.466  31.466  1.00  0.00     0.012 A 
ATOM     41  C   UNL A   1      37.867  30.326  29.255  1.00  0.00     0.148 A 
ATOM     42  C   UNL A   1      37.160  29.864  31.935  1.00  0.00     0.002 A 
ATOM     43  C   UNL A   1      36.637  30.754  29.739  1.00  0.00     0.091 A 
ATOM     44  F   UNL A   1      38.231  30.515  27.979  1.00  0.00    -0.205 F 
ATOM     45  C   UNL A   1      36.280  30.519  31.076  1.00  0.00     0.022 A 
BRANCH  43  46
ATOM     46  S   UNL A   1      35.464  31.677  28.738  1.00  0.00     0.127 S 
ATOM     47  O   UNL A   1      34.885  30.618  27.912  1.00  0.00    -0.237 OA
ATOM     48  O   UNL A   1      34.561  32.222  29.752  1.00  0.00    -0.237 OA
ATOM     49  O   UNL A   1      36.243  32.671  28.014  1.00  0.00    -0.744 OA
ENDBRANCH  43  46
ENDBRANCH  25  39
BRANCH  26  50
ATOM     50  C   UNL A   1      47.819  27.658  26.393  1.00  0.00     0.023 A 
ATOM     51  C   UNL A   1      48.940  27.336  27.181  1.00  0.00     0.012 A 
ATOM     52  C   UNL A   1      47.955  27.702  24.991  1.00  0.00     0.148 A 
ATOM     53  C   UNL A   1      50.179  27.098  26.587  1.00  0.00     0.002 A 
ATOM     54  C   UNL A   1      49.176  27.401  24.403  1.00  0.00     0.091 A 
ATOM     55  F   UNL A   1      46.881  28.029  24.257  1.00  0.00    -0.205 F 
ATOM     56  C   UNL A   1      50.295  27.119  25.199  1.00  0.00     0.022 A 
BRANCH  54  57
ATOM     57  S   UNL A   1      49.362  27.260  22.622  1.00  0.00     0.127 S 
ATOM     58  O   UNL A   1      50.792  27.000  22.490  1.00  0.00    -0.237 OA
ATOM     59  O   UNL A   1      48.496  26.121  22.312  1.00  0.00    -0.237 OA
ATOM     60  O   UNL A   1      48.888  28.530  22.084  1.00  0.00    -0.744 OA
ENDBRANCH  54  57
ENDBRANCH  26  50
BRANCH  38  61
ATOM     61  C   UNL A   1      44.929  33.300  29.299  1.00  0.00     0.023 A 
ATOM     62  C   UNL A   1      45.586  33.643  30.497  1.00  0.00     0.012 A 
ATOM     63  C   UNL A   1      44.800  34.260  28.278  1.00  0.00     0.148 A 
ATOM     64  C   UNL A   1      46.078  34.933  30.690  1.00  0.00     0.002 A 
ATOM     65  C   UNL A   1      45.337  35.529  28.457  1.00  0.00     0.091 A 
ATOM     66  F   UNL A   1      44.156  33.916  27.154  1.00  0.00    -0.205 F 
ATOM     67  C   UNL A   1      45.966  35.871  29.667  1.00  0.00     0.022 A 
BRANCH  65  68
ATOM     68  S   UNL A   1      45.322  36.776  27.165  1.00  0.00     0.127 S 
ATOM     69  O   UNL A   1      46.048  36.101  26.091  1.00  0.00    -0.237 OA
ATOM     70  O   UNL A   1      43.890  36.950  26.920  1.00  0.00    -0.237 OA
ATOM     71  O   UNL A   1      45.988  37.945  27.725  1.00  0.00    -0.744 OA
ENDBRANCH  65  68
ENDBRANCH  38  61
ENDBRANCH  12  13
ENDBRANCH   5   7
ENDBRANCH   2   3
ENDBRANCH   1   2
BRANCH   1  72
ATOM     72  C   UNL A   1      36.285  20.314  25.011  1.00  0.00     0.023 C 
BRANCH  72  73
ATOM     73  C   UNL A   1      36.095  21.816  24.816  1.00  0.00     0.116 C 
BRANCH  73  74
ATOM     74  N   UNL A   1      35.228  22.176  23.701  1.00  0.00    -0.356 N 
ATOM     75  C   UNL A   1      34.423  23.277  23.548  1.00  0.00     0.224 C 
ATOM     76  H   UNL A   1      35.218  21.539  22.951  1.00  0.00     0.163 HD
ATOM     77  O   UNL A   1      33.997  23.558  22.431  1.00  0.00    -0.275 OA
BRANCH  75  78
ATOM     78  C   UNL A   1      34.146  24.132  24.758  1.00  0.00     0.098 C 
ATOM     79  C   UNL A   1      32.828  23.895  25.543  1.00  0.00     0.098 C 
ATOM     80  C   UNL A   1      34.175  25.679  24.601  1.00  0.00     0.025 C 
ATOM     81  C   UNL A   1      32.362  25.337  25.883  1.00  0.00     0.025 C 
ATOM     82  C   UNL A   1      32.978  26.239  23.871  1.00  0.00    -0.027 C 
ATOM     83  C   UNL A   1      33.717  26.061  26.021  1.00  0.00     0.017 C 
ATOM     84  C   UNL A   1      31.898  26.053  24.646  1.00  0.00    -0.027 C 
BRANCH  79  85
ATOM     85  C   UNL A   1      31.752  22.896  25.095  1.00  0.00     0.224 C 
ATOM     86  O   UNL A   1      30.857  23.311  24.344  1.00  0.00    -0.275 OA
ATOM     87  N   UNL A   1      31.660  21.589  25.453  1.00  0.00    -0.352 N 
ATOM     88  H   UNL A   1      30.746  21.239  25.563  1.00  0.00     0.163 HD
BRANCH  87  89
ATOM     89  C   UNL A   1      32.728  20.644  25.691  1.00  0.00     0.153 C 
BRANCH  89  90
ATOM     90  C   UNL A   1      32.622  19.287  25.041  1.00  0.00    -0.010 A 
ATOM     91  C   UNL A   1      32.865  18.118  25.780  1.00  0.00     0.007 A 
ATOM     92  C   UNL A   1      32.546  19.175  23.639  1.00  0.00     0.046 A 
ATOM     93  C   UNL A   1      33.090  16.895  25.141  1.00  0.00     0.000 A 
ATOM     94  C   UNL A   1      32.751  17.948  23.003  1.00  0.00     0.021 A 
ATOM     95  Cl  UNL A   1      32.258  20.548  22.623  1.00  0.00    -0.084 Cl
ATOM     96  C   UNL A   1      33.047  16.813  23.752  1.00  0.00     0.002 A 
ENDBRANCH  89  90
ENDBRANCH  87  89
ENDBRANCH  79  85
ENDBRANCH  75  78
ENDBRANCH  73  74
ENDBRANCH  72  73
ENDBRANCH   1  72
TORSDOF 17
ENDMDL
MODEL 3
REMARK VINA RESULT:     -11.7      4.883      9.557
REMARK SMILES O=C(NCCCCNC(=O)[C@@H]1[C@H](C(=O)NCc2ccccc2Cl)[C@@H]2C=C[C@H]1C2)c1ccc(-c2c3nc(c(-c4cccc(S(=O)(=O)[O-])c4F)c4ccc([nH]4)c(-c4cccc(S(=O)(=O)[O-])c4F)c4nc(c(-c5cccc(S(=O)(=O)[O-])c5F)c5ccc2[nH]5)C=C4)C=C3)cc1
REMARK SMILES IDX 5 1 4 2 3 3 1 4 2 5 29 7 30 8 91 9 31 10 90 11 32 12 33 13
REMARK SMILES IDX 34 14 84 15 35 16 89 17 83 18 85 19 36 20 88 21 82 22 81 23
REMARK SMILES IDX 37 25 69 26 49 27 68 28 50 29 53 30 67 31 86 32 51 33 52 34
REMARK SMILES IDX 66 36 87 37 54 38 38 39 39 40 47 41 40 42 42 43 48 44 41 45
REMARK SMILES IDX 43 46 44 47 45 48 46 49 70 50 71 51 79 52 72 53 74 54 80 55
REMARK SMILES IDX 73 56 75 57 76 58 77 59 78 60 55 61 56 62 64 63 57 64 59 65
REMARK SMILES IDX 65 66 58 67 60 68 61 69 62 70 63 71 6 72 7 73 8 74 9 75
REMARK SMILES IDX 10 77 11 78 12 79 27 80 24 81 26 82 28 83 25 84 13 85 14 86
REMARK SMILES IDX 15 87 16 89 17 90 18 91 22 92 19 93 21 94 23 95 20 96
REMARK H PARENT 3 6 85 24 53 35 8 76 15 88
REMARK Flexibility Score: inf
ROOT
ATOM      1  C   UNL A   1      36.838  22.568  23.874  1.00  0.00     0.023 C 
ENDROOT
BRANCH   1   2
ATOM      2  C   UNL A   1      37.110  22.542  25.369  1.00  0.00     0.116 C 
BRANCH   2   3
ATOM      3  N   UNL A   1      38.031  21.486  25.756  1.00  0.00    -0.352 N 
ATOM      4  O   UNL A   1      39.988  20.579  26.393  1.00  0.00    -0.269 OA
ATOM      5  C   UNL A   1      39.299  21.585  26.282  1.00  0.00     0.251 C 
ATOM      6  H   UNL A   1      37.700  20.569  25.622  1.00  0.00     0.163 HD
BRANCH   5   7
ATOM      7  C   UNL A   1      39.821  22.909  26.689  1.00  0.00     0.039 A 
ATOM      8  C   UNL A   1      40.758  23.015  27.719  1.00  0.00     0.014 A 
ATOM      9  C   UNL A   1      39.383  24.053  26.018  1.00  0.00     0.014 A 
ATOM     10  C   UNL A   1      41.156  24.268  28.168  1.00  0.00     0.010 A 
ATOM     11  C   UNL A   1      39.858  25.309  26.408  1.00  0.00     0.010 A 
ATOM     12  C   UNL A   1      40.738  25.427  27.494  1.00  0.00    -0.014 A 
BRANCH  12  13
ATOM     13  C   UNL A   1      41.355  26.727  27.851  1.00  0.00     0.031 A 
ATOM     14  C   UNL A   1      42.795  27.030  27.555  1.00  0.00     0.074 A 
ATOM     15  C   UNL A   1      40.582  27.634  28.485  1.00  0.00     0.049 A 
ATOM     16  N   UNL A   1      43.469  28.120  27.816  1.00  0.00    -0.248 NA
ATOM     17  C   UNL A   1      43.586  25.982  26.890  1.00  0.00     0.031 C 
ATOM     18  C   UNL A   1      39.183  27.422  28.871  1.00  0.00     0.029 A 
ATOM     19  N   UNL A   1      40.858  28.899  28.933  1.00  0.00    -0.354 N 
ATOM     20  C   UNL A   1      44.770  27.879  27.392  1.00  0.00     0.074 A 
ATOM     21  C   UNL A   1      44.791  26.539  26.844  1.00  0.00     0.031 C 
ATOM     22  C   UNL A   1      38.724  28.516  29.491  1.00  0.00     0.029 A 
ATOM     23  C   UNL A   1      39.808  29.481  29.605  1.00  0.00     0.049 A 
ATOM     24  H   UNL A   1      41.722  29.348  28.788  1.00  0.00     0.167 HD
ATOM     25  C   UNL A   1      45.841  28.705  27.454  1.00  0.00     0.034 A 
ATOM     26  C   UNL A   1      39.734  30.644  30.279  1.00  0.00     0.034 A 
ATOM     27  C   UNL A   1      45.797  30.049  27.970  1.00  0.00     0.049 A 
ATOM     28  C   UNL A   1      40.941  31.533  30.319  1.00  0.00     0.074 A 
ATOM     29  C   UNL A   1      46.804  31.000  27.970  1.00  0.00     0.029 A 
ATOM     30  N   UNL A   1      44.706  30.622  28.602  1.00  0.00    -0.354 N 
ATOM     31  N   UNL A   1      42.109  31.361  29.750  1.00  0.00    -0.248 NA
ATOM     32  C   UNL A   1      40.816  32.787  31.073  1.00  0.00     0.031 C 
ATOM     33  C   UNL A   1      46.334  32.133  28.640  1.00  0.00     0.029 A 
ATOM     34  C   UNL A   1      45.025  31.901  29.030  1.00  0.00     0.049 A 
ATOM     35  H   UNL A   1      43.832  30.186  28.728  1.00  0.00     0.167 HD
ATOM     36  C   UNL A   1      42.854  32.489  30.067  1.00  0.00     0.074 A 
ATOM     37  C   UNL A   1      41.991  33.356  30.842  1.00  0.00     0.031 C 
ATOM     38  C   UNL A   1      44.146  32.768  29.767  1.00  0.00     0.034 A 
BRANCH  25  39
ATOM     39  C   UNL A   1      47.166  28.210  26.933  1.00  0.00     0.023 A 
ATOM     40  C   UNL A   1      48.143  27.745  27.835  1.00  0.00     0.012 A 
ATOM     41  C   UNL A   1      47.383  28.079  25.546  1.00  0.00     0.148 A 
ATOM     42  C   UNL A   1      49.321  27.166  27.364  1.00  0.00     0.002 A 
ATOM     43  C   UNL A   1      48.542  27.466  25.086  1.00  0.00     0.091 A 
ATOM     44  F   UNL A   1      46.445  28.542  24.708  1.00  0.00    -0.205 F 
ATOM     45  C   UNL A   1      49.513  27.014  25.993  1.00  0.00     0.022 A 
BRANCH  43  46
ATOM     46  S   UNL A   1      48.850  27.150  23.344  1.00  0.00     0.127 S 
ATOM     47  O   UNL A   1      50.308  27.041  23.319  1.00  0.00    -0.237 OA
ATOM     48  O   UNL A   1      48.141  25.887  23.133  1.00  0.00    -0.237 OA
ATOM     49  O   UNL A   1      48.301  28.289  22.622  1.00  0.00    -0.744 OA
ENDBRANCH  43  46
ENDBRANCH  25  39
BRANCH  26  50
ATOM     50  C   UNL A   1      38.473  31.021  30.976  1.00  0.00     0.023 A 
ATOM     51  C   UNL A   1      38.332  30.768  32.353  1.00  0.00     0.012 A 
ATOM     52  C   UNL A   1      37.420  31.649  30.281  1.00  0.00     0.148 A 
ATOM     53  C   UNL A   1      37.151  31.101  33.018  1.00  0.00     0.002 A 
ATOM     54  C   UNL A   1      36.274  32.036  30.963  1.00  0.00     0.091 A 
ATOM     55  F   UNL A   1      37.564  31.865  28.966  1.00  0.00    -0.205 F 
ATOM     56  C   UNL A   1      36.128  31.744  32.326  1.00  0.00     0.022 A 
BRANCH  54  57
ATOM     57  S   UNL A   1      34.981  33.001  30.172  1.00  0.00     0.127 S 
ATOM     58  O   UNL A   1      34.462  32.058  29.188  1.00  0.00    -0.237 OA
ATOM     59  O   UNL A   1      34.081  33.282  31.292  1.00  0.00    -0.237 OA
ATOM     60  O   UNL A   1      35.652  34.180  29.640  1.00  0.00    -0.744 OA
ENDBRANCH  54  57
ENDBRANCH  26  50
BRANCH  38  61
ATOM     61  C   UNL A   1      44.704  34.071  30.274  1.00  0.00     0.023 A 
ATOM     62  C   UNL A   1      45.380  34.101  31.510  1.00  0.00     0.012 A 
ATOM     63  C   UNL A   1      44.617  35.244  29.501  1.00  0.00     0.148 A 
ATOM     64  C   UNL A   1      45.933  35.289  31.985  1.00  0.00     0.002 A 
ATOM     65  C   UNL A   1      45.214  36.413  29.957  1.00  0.00     0.091 A 
ATOM     66  F   UNL A   1      43.955  35.195  28.336  1.00  0.00    -0.205 F 
ATOM     67  C   UNL A   1      45.861  36.440  31.205  1.00  0.00     0.022 A 
BRANCH  65  68
ATOM     68  S   UNL A   1      45.254  37.922  28.984  1.00  0.00     0.127 S 
ATOM     69  O   UNL A   1      45.991  38.825  29.865  1.00  0.00    -0.237 OA
ATOM     70  O   UNL A   1      45.986  37.500  27.790  1.00  0.00    -0.237 OA
ATOM     71  O   UNL A   1      43.863  38.284  28.746  1.00  0.00    -0.744 OA
ENDBRANCH  65  68
ENDBRANCH  38  61
ENDBRANCH  12  13
ENDBRANCH   5   7
ENDBRANCH   2   3
ENDBRANCH   1   2
BRANCH   1  72
ATOM     72  C   UNL A   1      35.470  23.112  23.483  1.00  0.00     0.023 C 
BRANCH  72  73
ATOM     73  C   UNL A   1      35.049  24.408  24.171  1.00  0.00     0.116 C 
BRANCH  73  74
ATOM     74  N   UNL A   1      34.015  25.157  23.470  1.00  0.00    -0.356 N 
ATOM     75  C   UNL A   1      33.448  26.365  23.792  1.00  0.00     0.224 C 
ATOM     76  H   UNL A   1      33.674  24.738  22.648  1.00  0.00     0.163 HD
ATOM     77  O   UNL A   1      32.811  26.976  22.939  1.00  0.00    -0.275 OA
BRANCH  75  78
ATOM     78  C   UNL A   1      33.687  26.919  25.174  1.00  0.00     0.098 C 
ATOM     79  C   UNL A   1      32.655  26.593  26.288  1.00  0.00     0.098 C 
ATOM     80  C   UNL A   1      33.892  28.451  25.338  1.00  0.00     0.025 C 
ATOM     81  C   UNL A   1      32.533  27.939  27.053  1.00  0.00     0.025 C 
ATOM     82  C   UNL A   1      32.624  29.255  25.182  1.00  0.00    -0.027 C 
ATOM     83  C   UNL A   1      33.956  28.509  26.876  1.00  0.00     0.017 C 
ATOM     84  C   UNL A   1      31.821  28.964  26.218  1.00  0.00    -0.027 C 
BRANCH  79  85
ATOM     85  C   UNL A   1      31.359  25.812  26.030  1.00  0.00     0.224 C 
ATOM     86  O   UNL A   1      30.543  26.297  25.233  1.00  0.00    -0.275 OA
ATOM     87  N   UNL A   1      30.994  24.636  26.603  1.00  0.00    -0.352 N 
ATOM     88  H   UNL A   1      30.031  24.529  26.783  1.00  0.00     0.163 HD
BRANCH  87  89
ATOM     89  C   UNL A   1      31.831  23.520  26.981  1.00  0.00     0.153 C 
BRANCH  89  90
ATOM     90  C   UNL A   1      32.362  22.636  25.880  1.00  0.00    -0.010 A 
ATOM     91  C   UNL A   1      31.734  22.600  24.625  1.00  0.00     0.007 A 
ATOM     92  C   UNL A   1      33.318  21.643  26.166  1.00  0.00     0.046 A 
ATOM     93  C   UNL A   1      32.000  21.572  23.715  1.00  0.00     0.000 A 
ATOM     94  C   UNL A   1      33.598  20.627  25.247  1.00  0.00     0.021 A 
ATOM     95  Cl  UNL A   1      34.153  21.580  27.683  1.00  0.00    -0.084 Cl
ATOM     96  C   UNL A   1      32.921  20.579  24.032  1.00  0.00     0.002 A 
ENDBRANCH  89  90
ENDBRANCH  87  89
ENDBRANCH  79  85
ENDBRANCH  75  78
ENDBRANCH  73  74
ENDBRANCH  72  73
ENDBRANCH   1  72
TORSDOF 17
ENDMDL
