MODEL 1
REMARK VINA RESULT:     -12.4      0.000      0.000
REMARK SMILES C[N@@H+]1CCN(C(=O)c2cc(-n3cccn3)ccc2Cl)C[C@H]1C(=O)NCCCCNC(=O)c1ccc(-c2c3nc(c(-c4cccc(S(=O)(=O)[O-])c4F)c4ccc([nH]4)c(-c4cccc(S(=O)(=O)[O-])c4F)c4nc(c(-c5cccc(S(=O)(=O)[O-])c5F)c5ccc2[nH]5)C=C4)C=C3)cc1
REMARK SMILES IDX 26 1 25 2 24 3 22 4 23 5 21 7 1 8 2 9 3 10 4 12 20 13 5 14
REMARK SMILES IDX 6 15 7 16 8 17 9 18 18 19 10 20 17 21 19 22 16 23 11 24
REMARK SMILES IDX 12 25 15 26 13 27 14 28 27 29 28 30 29 31 30 32 31 34 32 35
REMARK SMILES IDX 33 36 94 37 34 38 93 39 35 40 36 41 37 42 87 43 38 44 92 45
REMARK SMILES IDX 86 46 88 47 39 48 91 49 85 50 84 51 40 53 72 54 52 55 71 56
REMARK SMILES IDX 53 57 56 58 70 59 89 60 54 61 55 62 69 64 90 65 57 66 41 67
REMARK SMILES IDX 42 68 50 69 43 70 45 71 51 72 44 73 46 74 47 75 48 76 49 77
REMARK SMILES IDX 73 78 74 79 82 80 75 81 77 82 83 83 76 84 78 85 79 86 80 87
REMARK SMILES IDX 81 88 58 89 59 90 67 91 60 92 62 93 68 94 61 95 63 96 64 97
REMARK SMILES IDX 65 98 66 99
REMARK H PARENT 24 6 2 11 29 33 88 52 56 63
REMARK Flexibility Score: inf
ROOT
ATOM      1  C   UNL A   1      31.958  30.481  26.516  1.00  0.00     0.023 C 
ENDROOT
BRANCH   1   2
ATOM      2  C   UNL A   1      31.594  29.657  25.280  1.00  0.00     0.116 C 
BRANCH   2   3
ATOM      3  N   UNL A   1      32.718  29.486  24.379  1.00  0.00    -0.351 N 
ATOM      4  C   UNL A   1      33.217  28.338  23.832  1.00  0.00     0.280 C 
ATOM      5  O   UNL A   1      34.290  28.399  23.225  1.00  0.00    -0.268 OA
ATOM      6  H   UNL A   1      33.188  30.313  24.128  1.00  0.00     0.163 HD
BRANCH   4   7
ATOM      7  C   UNL A   1      32.476  27.002  23.977  1.00  0.00     0.293 C 
ATOM      8  C   UNL A   1      30.822  27.570  22.272  1.00  0.00     0.333 C 
ATOM      9  N   UNL A   1      31.826  26.587  22.689  1.00  0.00    -0.324 N 
ATOM     10  C   UNL A   1      31.200  25.260  22.871  1.00  0.00     0.284 C 
ATOM     11  H   UNL A   1      32.535  26.536  21.959  1.00  0.00     0.348 HD
ATOM     12  C   UNL A   1      32.198  24.197  23.367  1.00  0.00     0.181 C 
ATOM     13  C   UNL A   1      33.454  25.953  24.560  1.00  0.00     0.195 C 
ATOM     14  N   UNL A   1      32.869  24.606  24.599  1.00  0.00    -0.326 N 
BRANCH  14  15
ATOM     15  C   UNL A   1      33.106  23.661  25.591  1.00  0.00     0.255 C 
ATOM     16  O   UNL A   1      32.587  23.707  26.706  1.00  0.00    -0.269 OA
BRANCH  15  17
ATOM     17  C   UNL A   1      34.005  22.525  25.300  1.00  0.00     0.060 A 
ATOM     18  C   UNL A   1      33.418  21.263  25.106  1.00  0.00     0.043 A 
ATOM     19  C   UNL A   1      35.400  22.667  25.287  1.00  0.00     0.053 A 
ATOM     20  C   UNL A   1      34.242  20.148  24.904  1.00  0.00     0.065 A 
ATOM     21  C   UNL A   1      36.204  21.570  24.977  1.00  0.00     0.023 A 
ATOM     22  Cl  UNL A   1      36.191  24.156  25.678  1.00  0.00    -0.083 Cl
ATOM     23  C   UNL A   1      35.630  20.311  24.796  1.00  0.00     0.030 A 
BRANCH  20  24
ATOM     24  N   UNL A   1      33.684  18.849  24.851  1.00  0.00    -0.241 N 
ATOM     25  C   UNL A   1      34.238  17.746  24.233  1.00  0.00     0.115 A 
ATOM     26  N   UNL A   1      32.556  18.514  25.532  1.00  0.00    -0.177 NA
ATOM     27  C   UNL A   1      33.361  16.705  24.401  1.00  0.00     0.042 A 
ATOM     28  C   UNL A   1      32.312  17.256  25.153  1.00  0.00     0.135 A 
ENDBRANCH  20  24
ENDBRANCH  15  17
ENDBRANCH  14  15
ENDBRANCH   4   7
ENDBRANCH   2   3
ENDBRANCH   1   2
BRANCH   1  29
ATOM     29  C   UNL A   1      33.096  29.916  27.374  1.00  0.00     0.023 C 
BRANCH  29  30
ATOM     30  C   UNL A   1      34.278  30.859  27.534  1.00  0.00     0.116 C 
BRANCH  30  31
ATOM     31  N   UNL A   1      34.191  31.676  28.745  1.00  0.00    -0.352 N 
ATOM     32  C   UNL A   1      35.067  31.687  29.817  1.00  0.00     0.251 C 
ATOM     33  H   UNL A   1      33.423  32.288  28.804  1.00  0.00     0.163 HD
ATOM     34  O   UNL A   1      34.725  32.116  30.907  1.00  0.00    -0.269 OA
BRANCH  32  35
ATOM     35  C   UNL A   1      36.435  31.181  29.601  1.00  0.00     0.039 A 
ATOM     36  C   UNL A   1      37.517  32.048  29.414  1.00  0.00     0.014 A 
ATOM     37  C   UNL A   1      36.615  29.801  29.616  1.00  0.00     0.014 A 
ATOM     38  C   UNL A   1      38.797  31.508  29.316  1.00  0.00     0.010 A 
ATOM     39  C   UNL A   1      37.880  29.284  29.679  1.00  0.00     0.010 A 
ATOM     40  C   UNL A   1      38.968  30.123  29.463  1.00  0.00    -0.014 A 
BRANCH  40  41
ATOM     41  C   UNL A   1      40.295  29.523  29.545  1.00  0.00     0.031 A 
ATOM     42  C   UNL A   1      40.774  29.334  30.944  1.00  0.00     0.074 A 
ATOM     43  C   UNL A   1      40.868  28.944  28.465  1.00  0.00     0.049 A 
ATOM     44  N   UNL A   1      41.779  29.907  31.523  1.00  0.00    -0.248 NA
ATOM     45  C   UNL A   1      39.928  28.560  31.869  1.00  0.00     0.031 C 
ATOM     46  C   UNL A   1      40.287  28.797  27.121  1.00  0.00     0.029 A 
ATOM     47  N   UNL A   1      42.006  28.203  28.371  1.00  0.00    -0.354 N 
ATOM     48  C   UNL A   1      41.843  29.342  32.798  1.00  0.00     0.074 A 
ATOM     49  C   UNL A   1      40.555  28.755  33.030  1.00  0.00     0.031 C 
ATOM     50  C   UNL A   1      40.920  27.803  26.461  1.00  0.00     0.029 A 
ATOM     51  C   UNL A   1      42.045  27.359  27.260  1.00  0.00     0.049 A 
ATOM     52  H   UNL A   1      42.736  28.259  29.029  1.00  0.00     0.167 HD
ATOM     53  C   UNL A   1      43.046  29.125  33.404  1.00  0.00     0.034 A 
ATOM     54  C   UNL A   1      42.899  26.324  27.046  1.00  0.00     0.034 A 
ATOM     55  C   UNL A   1      44.088  29.871  32.733  1.00  0.00     0.049 A 
ATOM     56  C   UNL A   1      44.052  26.526  27.951  1.00  0.00     0.074 A 
ATOM     57  C   UNL A   1      44.320  31.199  32.441  1.00  0.00     0.029 A 
ATOM     58  N   UNL A   1      44.902  29.150  31.893  1.00  0.00    -0.354 N 
ATOM     59  N   UNL A   1      44.881  27.528  27.848  1.00  0.00    -0.248 NA
ATOM     60  C   UNL A   1      44.010  25.876  29.249  1.00  0.00     0.031 C 
ATOM     61  C   UNL A   1      44.906  31.192  31.139  1.00  0.00     0.029 A 
ATOM     62  C   UNL A   1      45.078  29.864  30.744  1.00  0.00     0.049 A 
ATOM     63  H   UNL A   1      45.294  28.268  32.089  1.00  0.00     0.167 HD
ATOM     64  C   UNL A   1      45.082  27.935  29.160  1.00  0.00     0.074 A 
ATOM     65  C   UNL A   1      44.617  26.814  29.979  1.00  0.00     0.031 C 
ATOM     66  C   UNL A   1      45.312  29.248  29.456  1.00  0.00     0.034 A 
BRANCH  53  67
ATOM     67  C   UNL A   1      43.403  27.913  34.264  1.00  0.00     0.023 A 
ATOM     68  C   UNL A   1      43.939  28.192  35.545  1.00  0.00     0.012 A 
ATOM     69  C   UNL A   1      43.548  26.584  33.802  1.00  0.00     0.148 A 
ATOM     70  C   UNL A   1      44.699  27.255  36.254  1.00  0.00     0.002 A 
ATOM     71  C   UNL A   1      44.261  25.637  34.533  1.00  0.00     0.091 A 
ATOM     72  F   UNL A   1      43.084  26.223  32.608  1.00  0.00    -0.205 F 
ATOM     73  C   UNL A   1      44.873  25.980  35.739  1.00  0.00     0.022 A 
BRANCH  71  74
ATOM     74  S   UNL A   1      44.496  23.956  33.934  1.00  0.00     0.127 S 
ATOM     75  O   UNL A   1      45.086  24.199  32.621  1.00  0.00    -0.237 OA
ATOM     76  O   UNL A   1      45.412  23.411  34.936  1.00  0.00    -0.237 OA
ATOM     77  O   UNL A   1      43.174  23.343  33.932  1.00  0.00    -0.744 OA
ENDBRANCH  71  74
ENDBRANCH  53  67
BRANCH  54  78
ATOM     78  C   UNL A   1      42.691  25.042  26.325  1.00  0.00     0.023 A 
ATOM     79  C   UNL A   1      43.639  24.614  25.372  1.00  0.00     0.012 A 
ATOM     80  C   UNL A   1      41.728  24.106  26.766  1.00  0.00     0.148 A 
ATOM     81  C   UNL A   1      43.652  23.292  24.905  1.00  0.00     0.002 A 
ATOM     82  C   UNL A   1      41.735  22.796  26.289  1.00  0.00     0.091 A 
ATOM     83  F   UNL A   1      40.863  24.473  27.720  1.00  0.00    -0.205 F 
ATOM     84  C   UNL A   1      42.708  22.381  25.370  1.00  0.00     0.022 A 
BRANCH  82  85
ATOM     85  S   UNL A   1      40.562  21.555  26.862  1.00  0.00     0.127 S 
ATOM     86  O   UNL A   1      40.942  20.382  26.073  1.00  0.00    -0.237 OA
ATOM     87  O   UNL A   1      40.883  21.465  28.284  1.00  0.00    -0.237 OA
ATOM     88  O   UNL A   1      39.238  22.075  26.546  1.00  0.00    -0.744 OA
ENDBRANCH  82  85
ENDBRANCH  54  78
BRANCH  66  89
ATOM     89  C   UNL A   1      45.624  30.189  28.322  1.00  0.00     0.023 A 
ATOM     90  C   UNL A   1      44.628  30.876  27.596  1.00  0.00     0.012 A 
ATOM     91  C   UNL A   1      46.971  30.522  28.113  1.00  0.00     0.148 A 
ATOM     92  C   UNL A   1      44.976  31.862  26.667  1.00  0.00     0.002 A 
ATOM     93  C   UNL A   1      47.309  31.535  27.226  1.00  0.00     0.091 A 
ATOM     94  F   UNL A   1      47.902  29.860  28.815  1.00  0.00    -0.205 F 
ATOM     95  C   UNL A   1      46.316  32.203  26.494  1.00  0.00     0.022 A 
BRANCH  93  96
ATOM     96  S   UNL A   1      49.003  32.098  27.061  1.00  0.00     0.127 S 
ATOM     97  O   UNL A   1      49.333  32.476  28.433  1.00  0.00    -0.237 OA
ATOM     98  O   UNL A   1      49.686  30.898  26.573  1.00  0.00    -0.237 OA
ATOM     99  O   UNL A   1      48.971  33.194  26.099  1.00  0.00    -0.744 OA
ENDBRANCH  93  96
ENDBRANCH  66  89
ENDBRANCH  40  41
ENDBRANCH  32  35
ENDBRANCH  30  31
ENDBRANCH  29  30
ENDBRANCH   1  29
TORSDOF 17
ENDMDL
MODEL 2
REMARK VINA RESULT:     -11.8      3.680      8.168
REMARK SMILES C[N@@H+]1CCN(C(=O)c2cc(-n3cccn3)ccc2Cl)C[C@H]1C(=O)NCCCCNC(=O)c1ccc(-c2c3nc(c(-c4cccc(S(=O)(=O)[O-])c4F)c4ccc([nH]4)c(-c4cccc(S(=O)(=O)[O-])c4F)c4nc(c(-c5cccc(S(=O)(=O)[O-])c5F)c5ccc2[nH]5)C=C4)C=C3)cc1
REMARK SMILES IDX 26 1 25 2 24 3 22 4 23 5 21 7 1 8 2 9 3 10 4 12 20 13 5 14
REMARK SMILES IDX 6 15 7 16 8 17 9 18 18 19 10 20 17 21 19 22 16 23 11 24
REMARK SMILES IDX 12 25 15 26 13 27 14 28 27 29 28 30 29 31 30 32 31 34 32 35
REMARK SMILES IDX 33 36 94 37 34 38 93 39 35 40 36 41 37 42 87 43 38 44 92 45
REMARK SMILES IDX 86 46 88 47 39 48 91 49 85 50 84 51 40 53 72 54 52 55 71 56
REMARK SMILES IDX 53 57 56 58 70 59 89 60 54 61 55 62 69 64 90 65 57 66 41 67
REMARK SMILES IDX 42 68 50 69 43 70 45 71 51 72 44 73 46 74 47 75 48 76 49 77
REMARK SMILES IDX 73 78 74 79 82 80 75 81 77 82 83 83 76 84 78 85 79 86 80 87
REMARK SMILES IDX 81 88 58 89 59 90 67 91 60 92 62 93 68 94 61 95 63 96 64 97
REMARK SMILES IDX 65 98 66 99
REMARK H PARENT 24 6 2 11 29 33 88 52 56 63
REMARK Flexibility Score: inf
ROOT
ATOM      1  C   UNL A   1      36.833  23.774  24.961  1.00  0.00     0.023 C 
ENDROOT
BRANCH   1   2
ATOM      2  C   UNL A   1      35.703  22.824  24.564  1.00  0.00     0.116 C 
BRANCH   2   3
ATOM      3  N   UNL A   1      35.203  23.090  23.227  1.00  0.00    -0.351 N 
ATOM      4  C   UNL A   1      33.911  23.194  22.795  1.00  0.00     0.280 C 
ATOM      5  O   UNL A   1      33.705  23.254  21.580  1.00  0.00    -0.268 OA
ATOM      6  H   UNL A   1      35.891  23.211  22.535  1.00  0.00     0.163 HD
BRANCH   4   7
ATOM      7  C   UNL A   1      32.741  23.219  23.788  1.00  0.00     0.293 C 
ATOM      8  C   UNL A   1      32.584  20.784  23.885  1.00  0.00     0.333 C 
ATOM      9  N   UNL A   1      32.743  22.007  24.675  1.00  0.00    -0.324 N 
ATOM     10  C   UNL A   1      31.646  22.129  25.658  1.00  0.00     0.284 C 
ATOM     11  H   UNL A   1      33.637  21.951  25.161  1.00  0.00     0.348 HD
ATOM     12  C   UNL A   1      31.727  23.429  26.480  1.00  0.00     0.181 C 
ATOM     13  C   UNL A   1      32.769  24.564  24.553  1.00  0.00     0.195 C 
ATOM     14  N   UNL A   1      31.768  24.616  25.627  1.00  0.00    -0.326 N 
BRANCH  14  15
ATOM     15  C   UNL A   1      31.064  25.752  26.009  1.00  0.00     0.255 C 
ATOM     16  O   UNL A   1      30.059  25.718  26.720  1.00  0.00    -0.269 OA
BRANCH  15  17
ATOM     17  C   UNL A   1      31.546  27.078  25.569  1.00  0.00     0.060 A 
ATOM     18  C   UNL A   1      32.564  27.684  26.323  1.00  0.00     0.043 A 
ATOM     19  C   UNL A   1      30.970  27.753  24.483  1.00  0.00     0.053 A 
ATOM     20  C   UNL A   1      32.994  28.973  25.982  1.00  0.00     0.065 A 
ATOM     21  C   UNL A   1      31.482  28.990  24.088  1.00  0.00     0.023 A 
ATOM     22  Cl  UNL A   1      29.608  27.135  23.613  1.00  0.00    -0.083 Cl
ATOM     23  C   UNL A   1      32.484  29.604  24.841  1.00  0.00     0.030 A 
BRANCH  20  24
ATOM     24  N   UNL A   1      33.912  29.661  26.812  1.00  0.00    -0.241 N 
ATOM     25  C   UNL A   1      33.712  30.891  27.406  1.00  0.00     0.115 A 
ATOM     26  N   UNL A   1      35.084  29.105  27.219  1.00  0.00    -0.177 NA
ATOM     27  C   UNL A   1      34.856  31.196  28.099  1.00  0.00     0.042 A 
ATOM     28  C   UNL A   1      35.690  30.087  27.891  1.00  0.00     0.135 A 
ENDBRANCH  20  24
ENDBRANCH  15  17
ENDBRANCH  14  15
ENDBRANCH   4   7
ENDBRANCH   2   3
ENDBRANCH   1   2
BRANCH   1  29
ATOM     29  C   UNL A   1      37.663  23.341  26.175  1.00  0.00     0.023 C 
BRANCH  29  30
ATOM     30  C   UNL A   1      38.577  24.428  26.719  1.00  0.00     0.116 C 
BRANCH  30  31
ATOM     31  N   UNL A   1      39.876  24.466  26.046  1.00  0.00    -0.352 N 
ATOM     32  C   UNL A   1      40.770  25.522  25.999  1.00  0.00     0.251 C 
ATOM     33  H   UNL A   1      40.145  23.646  25.572  1.00  0.00     0.163 HD
ATOM     34  O   UNL A   1      41.628  25.585  25.135  1.00  0.00    -0.269 OA
BRANCH  32  35
ATOM     35  C   UNL A   1      40.666  26.564  27.037  1.00  0.00     0.039 A 
ATOM     36  C   UNL A   1      40.836  26.268  28.394  1.00  0.00     0.014 A 
ATOM     37  C   UNL A   1      40.419  27.866  26.613  1.00  0.00     0.014 A 
ATOM     38  C   UNL A   1      40.827  27.314  29.314  1.00  0.00     0.010 A 
ATOM     39  C   UNL A   1      40.567  28.904  27.491  1.00  0.00     0.010 A 
ATOM     40  C   UNL A   1      40.703  28.632  28.848  1.00  0.00    -0.014 A 
BRANCH  40  41
ATOM     41  C   UNL A   1      40.862  29.774  29.741  1.00  0.00     0.031 A 
ATOM     42  C   UNL A   1      39.567  30.343  30.212  1.00  0.00     0.074 A 
ATOM     43  C   UNL A   1      42.062  30.068  30.293  1.00  0.00     0.049 A 
ATOM     44  N   UNL A   1      39.077  31.514  29.963  1.00  0.00    -0.248 NA
ATOM     45  C   UNL A   1      38.616  29.440  30.883  1.00  0.00     0.031 C 
ATOM     46  C   UNL A   1      43.322  29.326  30.131  1.00  0.00     0.029 A 
ATOM     47  N   UNL A   1      42.381  30.975  31.257  1.00  0.00    -0.354 N 
ATOM     48  C   UNL A   1      37.884  31.577  30.685  1.00  0.00     0.074 A 
ATOM     49  C   UNL A   1      37.538  30.218  30.986  1.00  0.00     0.031 C 
ATOM     50  C   UNL A   1      44.156  29.623  31.151  1.00  0.00     0.029 A 
ATOM     51  C   UNL A   1      43.565  30.687  31.939  1.00  0.00     0.049 A 
ATOM     52  H   UNL A   1      41.827  31.764  31.454  1.00  0.00     0.167 HD
ATOM     53  C   UNL A   1      37.472  32.750  31.247  1.00  0.00     0.034 A 
ATOM     54  C   UNL A   1      43.994  31.235  33.105  1.00  0.00     0.034 A 
ATOM     55  C   UNL A   1      38.202  33.862  30.680  1.00  0.00     0.049 A 
ATOM     56  C   UNL A   1      43.239  32.494  33.289  1.00  0.00     0.074 A 
ATOM     57  C   UNL A   1      38.391  34.376  29.413  1.00  0.00     0.029 A 
ATOM     58  N   UNL A   1      39.211  34.381  31.454  1.00  0.00    -0.354 N 
ATOM     59  N   UNL A   1      43.355  33.525  32.499  1.00  0.00    -0.248 NA
ATOM     60  C   UNL A   1      42.017  32.437  34.073  1.00  0.00     0.031 C 
ATOM     61  C   UNL A   1      39.755  34.798  29.388  1.00  0.00     0.029 A 
ATOM     62  C   UNL A   1      40.299  34.598  30.659  1.00  0.00     0.049 A 
ATOM     63  H   UNL A   1      39.158  34.565  32.420  1.00  0.00     0.167 HD
ATOM     64  C   UNL A   1      42.049  33.961  32.320  1.00  0.00     0.074 A 
ATOM     65  C   UNL A   1      41.288  33.330  33.399  1.00  0.00     0.031 C 
ATOM     66  C   UNL A   1      41.660  34.533  31.143  1.00  0.00     0.034 A 
BRANCH  53  67
ATOM     67  C   UNL A   1      36.791  32.893  32.608  1.00  0.00     0.023 A 
ATOM     68  C   UNL A   1      35.640  33.718  32.646  1.00  0.00     0.012 A 
ATOM     69  C   UNL A   1      37.360  32.557  33.858  1.00  0.00     0.148 A 
ATOM     70  C   UNL A   1      35.175  34.291  33.836  1.00  0.00     0.002 A 
ATOM     71  C   UNL A   1      36.865  33.087  35.046  1.00  0.00     0.091 A 
ATOM     72  F   UNL A   1      38.448  31.792  33.927  1.00  0.00    -0.205 F 
ATOM     73  C   UNL A   1      35.799  33.987  35.036  1.00  0.00     0.022 A 
BRANCH  71  74
ATOM     74  S   UNL A   1      37.612  32.707  36.639  1.00  0.00     0.127 S 
ATOM     75  O   UNL A   1      36.641  33.294  37.559  1.00  0.00    -0.237 OA
ATOM     76  O   UNL A   1      37.638  31.245  36.611  1.00  0.00    -0.237 OA
ATOM     77  O   UNL A   1      38.928  33.332  36.623  1.00  0.00    -0.744 OA
ENDBRANCH  71  74
ENDBRANCH  53  67
BRANCH  54  78
ATOM     78  C   UNL A   1      44.802  30.645  34.203  1.00  0.00     0.023 A 
ATOM     79  C   UNL A   1      45.915  31.349  34.709  1.00  0.00     0.012 A 
ATOM     80  C   UNL A   1      44.326  29.539  34.946  1.00  0.00     0.148 A 
ATOM     81  C   UNL A   1      46.507  30.990  35.928  1.00  0.00     0.002 A 
ATOM     82  C   UNL A   1      44.927  29.177  36.151  1.00  0.00     0.091 A 
ATOM     83  F   UNL A   1      43.230  28.901  34.518  1.00  0.00    -0.205 F 
ATOM     84  C   UNL A   1      46.008  29.912  36.654  1.00  0.00     0.022 A 
BRANCH  82  85
ATOM     85  S   UNL A   1      44.321  27.811  37.156  1.00  0.00     0.127 S 
ATOM     86  O   UNL A   1      44.920  26.650  36.493  1.00  0.00    -0.237 OA
ATOM     87  O   UNL A   1      44.884  28.123  38.466  1.00  0.00    -0.237 OA
ATOM     88  O   UNL A   1      42.868  27.857  37.066  1.00  0.00    -0.744 OA
ENDBRANCH  82  85
ENDBRANCH  54  78
BRANCH  66  89
ATOM     89  C   UNL A   1      42.728  34.939  30.161  1.00  0.00     0.023 A 
ATOM     90  C   UNL A   1      43.466  36.136  30.278  1.00  0.00     0.012 A 
ATOM     91  C   UNL A   1      43.116  33.992  29.201  1.00  0.00     0.148 A 
ATOM     92  C   UNL A   1      44.557  36.386  29.439  1.00  0.00     0.002 A 
ATOM     93  C   UNL A   1      44.228  34.222  28.404  1.00  0.00     0.091 A 
ATOM     94  F   UNL A   1      42.403  32.859  29.109  1.00  0.00    -0.205 F 
ATOM     95  C   UNL A   1      44.947  35.421  28.512  1.00  0.00     0.022 A 
BRANCH  93  96
ATOM     96  S   UNL A   1      44.847  32.962  27.288  1.00  0.00     0.127 S 
ATOM     97  O   UNL A   1      46.288  33.197  27.334  1.00  0.00    -0.237 OA
ATOM     98  O   UNL A   1      44.405  31.725  27.935  1.00  0.00    -0.237 OA
ATOM     99  O   UNL A   1      44.211  33.218  26.001  1.00  0.00    -0.744 OA
ENDBRANCH  93  96
ENDBRANCH  66  89
ENDBRANCH  40  41
ENDBRANCH  32  35
ENDBRANCH  30  31
ENDBRANCH  29  30
ENDBRANCH   1  29
TORSDOF 17
ENDMDL
MODEL 3
REMARK VINA RESULT:     -11.5      2.116      2.534
REMARK SMILES C[N@@H+]1CCN(C(=O)c2cc(-n3cccn3)ccc2Cl)C[C@H]1C(=O)NCCCCNC(=O)c1ccc(-c2c3nc(c(-c4cccc(S(=O)(=O)[O-])c4F)c4ccc([nH]4)c(-c4cccc(S(=O)(=O)[O-])c4F)c4nc(c(-c5cccc(S(=O)(=O)[O-])c5F)c5ccc2[nH]5)C=C4)C=C3)cc1
REMARK SMILES IDX 26 1 25 2 24 3 22 4 23 5 21 7 1 8 2 9 3 10 4 12 20 13 5 14
REMARK SMILES IDX 6 15 7 16 8 17 9 18 18 19 10 20 17 21 19 22 16 23 11 24
REMARK SMILES IDX 12 25 15 26 13 27 14 28 27 29 28 30 29 31 30 32 31 34 32 35
REMARK SMILES IDX 33 36 94 37 34 38 93 39 35 40 36 41 37 42 87 43 38 44 92 45
REMARK SMILES IDX 86 46 88 47 39 48 91 49 85 50 84 51 40 53 72 54 52 55 71 56
REMARK SMILES IDX 53 57 56 58 70 59 89 60 54 61 55 62 69 64 90 65 57 66 41 67
REMARK SMILES IDX 42 68 50 69 43 70 45 71 51 72 44 73 46 74 47 75 48 76 49 77
REMARK SMILES IDX 73 78 74 79 82 80 75 81 77 82 83 83 76 84 78 85 79 86 80 87
REMARK SMILES IDX 81 88 58 89 59 90 67 91 60 92 62 93 68 94 61 95 63 96 64 97
REMARK SMILES IDX 65 98 66 99
REMARK H PARENT 24 6 2 11 29 33 88 52 56 63
REMARK Flexibility Score: inf
ROOT
ATOM      1  C   UNL A   1      33.316  30.636  27.200  1.00  0.00     0.023 C 
ENDROOT
BRANCH   1   2
ATOM      2  C   UNL A   1      33.651  29.607  26.119  1.00  0.00     0.116 C 
BRANCH   2   3
ATOM      3  N   UNL A   1      32.753  29.689  24.982  1.00  0.00    -0.351 N 
ATOM      4  C   UNL A   1      32.184  28.681  24.257  1.00  0.00     0.280 C 
ATOM      5  O   UNL A   1      31.586  28.973  23.219  1.00  0.00    -0.268 OA
ATOM      6  H   UNL A   1      32.522  30.600  24.691  1.00  0.00     0.163 HD
BRANCH   4   7
ATOM      7  C   UNL A   1      32.298  27.218  24.709  1.00  0.00     0.293 C 
ATOM      8  C   UNL A   1      31.055  27.611  26.775  1.00  0.00     0.333 C 
ATOM      9  N   UNL A   1      31.125  26.807  25.551  1.00  0.00    -0.324 N 
ATOM     10  C   UNL A   1      31.251  25.373  25.885  1.00  0.00     0.284 C 
ATOM     11  H   UNL A   1      30.265  26.964  25.025  1.00  0.00     0.348 HD
ATOM     12  C   UNL A   1      31.387  24.482  24.637  1.00  0.00     0.181 C 
ATOM     13  C   UNL A   1      32.525  26.330  23.462  1.00  0.00     0.195 C 
ATOM     14  N   UNL A   1      32.501  24.897  23.786  1.00  0.00    -0.326 N 
BRANCH  14  15
ATOM     15  C   UNL A   1      33.289  23.928  23.175  1.00  0.00     0.255 C 
ATOM     16  O   UNL A   1      33.542  23.923  21.970  1.00  0.00    -0.269 OA
BRANCH  15  17
ATOM     17  C   UNL A   1      33.881  22.856  24.003  1.00  0.00     0.060 A 
ATOM     18  C   UNL A   1      33.394  21.551  23.823  1.00  0.00     0.043 A 
ATOM     19  C   UNL A   1      34.843  23.125  24.987  1.00  0.00     0.053 A 
ATOM     20  C   UNL A   1      33.877  20.521  24.642  1.00  0.00     0.065 A 
ATOM     21  C   UNL A   1      35.394  22.074  25.721  1.00  0.00     0.023 A 
ATOM     22  Cl  UNL A   1      35.366  24.730  25.369  1.00  0.00    -0.083 Cl
ATOM     23  C   UNL A   1      34.906  20.777  25.558  1.00  0.00     0.030 A 
BRANCH  20  24
ATOM     24  N   UNL A   1      33.299  19.230  24.581  1.00  0.00    -0.241 N 
ATOM     25  C   UNL A   1      32.884  18.470  25.655  1.00  0.00     0.115 A 
ATOM     26  N   UNL A   1      32.974  18.635  23.403  1.00  0.00    -0.177 NA
ATOM     27  C   UNL A   1      32.410  17.285  25.152  1.00  0.00     0.042 A 
ATOM     28  C   UNL A   1      32.553  17.419  23.763  1.00  0.00     0.135 A 
ENDBRANCH  20  24
ENDBRANCH  15  17
ENDBRANCH  14  15
ENDBRANCH   4   7
ENDBRANCH   2   3
ENDBRANCH   1   2
BRANCH   1  29
ATOM     29  C   UNL A   1      34.463  31.570  27.599  1.00  0.00     0.023 C 
BRANCH  29  30
ATOM     30  C   UNL A   1      35.435  30.964  28.600  1.00  0.00     0.116 C 
BRANCH  30  31
ATOM     31  N   UNL A   1      35.324  31.561  29.931  1.00  0.00    -0.352 N 
ATOM     32  C   UNL A   1      36.105  31.294  31.042  1.00  0.00     0.251 C 
ATOM     33  H   UNL A   1      34.611  32.230  30.051  1.00  0.00     0.163 HD
ATOM     34  O   UNL A   1      35.715  31.558  32.168  1.00  0.00    -0.269 OA
BRANCH  32  35
ATOM     35  C   UNL A   1      37.435  30.695  30.826  1.00  0.00     0.039 A 
ATOM     36  C   UNL A   1      38.571  31.484  30.614  1.00  0.00     0.014 A 
ATOM     37  C   UNL A   1      37.524  29.307  30.869  1.00  0.00     0.014 A 
ATOM     38  C   UNL A   1      39.812  30.859  30.518  1.00  0.00     0.010 A 
ATOM     39  C   UNL A   1      38.753  28.708  30.933  1.00  0.00     0.010 A 
ATOM     40  C   UNL A   1      39.892  29.469  30.692  1.00  0.00    -0.014 A 
BRANCH  40  41
ATOM     41  C   UNL A   1      41.177  28.784  30.776  1.00  0.00     0.031 A 
ATOM     42  C   UNL A   1      41.676  28.632  32.173  1.00  0.00     0.074 A 
ATOM     43  C   UNL A   1      41.683  28.115  29.715  1.00  0.00     0.049 A 
ATOM     44  N   UNL A   1      42.731  29.162  32.701  1.00  0.00    -0.248 NA
ATOM     45  C   UNL A   1      40.802  27.965  33.153  1.00  0.00     0.031 C 
ATOM     46  C   UNL A   1      41.062  27.942  28.393  1.00  0.00     0.029 A 
ATOM     47  N   UNL A   1      42.766  27.294  29.636  1.00  0.00    -0.354 N 
ATOM     48  C   UNL A   1      42.788  28.658  34.001  1.00  0.00     0.074 A 
ATOM     49  C   UNL A   1      41.469  28.173  34.289  1.00  0.00     0.031 C 
ATOM     50  C   UNL A   1      41.610  26.876  27.771  1.00  0.00     0.029 A 
ATOM     51  C   UNL A   1      42.721  26.396  28.568  1.00  0.00     0.049 A 
ATOM     52  H   UNL A   1      43.514  27.332  30.274  1.00  0.00     0.167 HD
ATOM     53  C   UNL A   1      43.988  28.390  34.592  1.00  0.00     0.034 A 
ATOM     54  C   UNL A   1      43.498  25.296  28.389  1.00  0.00     0.034 A 
ATOM     55  C   UNL A   1      45.061  29.028  33.863  1.00  0.00     0.049 A 
ATOM     56  C   UNL A   1      44.684  25.462  29.258  1.00  0.00     0.074 A 
ATOM     57  C   UNL A   1      45.374  30.322  33.499  1.00  0.00     0.029 A 
ATOM     58  N   UNL A   1      45.804  28.213  33.044  1.00  0.00    -0.354 N 
ATOM     59  N   UNL A   1      45.575  26.399  29.087  1.00  0.00    -0.248 NA
ATOM     60  C   UNL A   1      44.629  24.881  30.589  1.00  0.00     0.031 C 
ATOM     61  C   UNL A   1      45.927  30.210  32.187  1.00  0.00     0.029 A 
ATOM     62  C   UNL A   1      45.999  28.855  31.856  1.00  0.00     0.049 A 
ATOM     63  H   UNL A   1      46.140  27.317  33.276  1.00  0.00     0.167 HD
ATOM     64  C   UNL A   1      45.836  26.855  30.373  1.00  0.00     0.074 A 
ATOM     65  C   UNL A   1      45.316  25.811  31.257  1.00  0.00     0.031 C 
ATOM     66  C   UNL A   1      46.160  28.162  30.597  1.00  0.00     0.034 A 
BRANCH  53  67
ATOM     67  C   UNL A   1      44.283  27.200  35.505  1.00  0.00     0.023 A 
ATOM     68  C   UNL A   1      44.986  27.489  36.700  1.00  0.00     0.012 A 
ATOM     69  C   UNL A   1      44.210  25.836  35.137  1.00  0.00     0.148 A 
ATOM     70  C   UNL A   1      45.697  26.508  37.401  1.00  0.00     0.002 A 
ATOM     71  C   UNL A   1      44.876  24.853  35.866  1.00  0.00     0.091 A 
ATOM     72  F   UNL A   1      43.577  25.462  34.027  1.00  0.00    -0.205 F 
ATOM     73  C   UNL A   1      45.653  25.190  36.974  1.00  0.00     0.022 A 
BRANCH  71  74
ATOM     74  S   UNL A   1      44.833  23.120  35.380  1.00  0.00     0.127 S 
ATOM     75  O   UNL A   1      45.778  23.111  34.267  1.00  0.00    -0.237 OA
ATOM     76  O   UNL A   1      45.300  22.461  36.599  1.00  0.00    -0.237 OA
ATOM     77  O   UNL A   1      43.446  22.834  35.037  1.00  0.00    -0.744 OA
ENDBRANCH  71  74
ENDBRANCH  53  67
BRANCH  54  78
ATOM     78  C   UNL A   1      43.187  23.997  27.739  1.00  0.00     0.023 A 
ATOM     79  C   UNL A   1      41.872  23.489  27.783  1.00  0.00     0.012 A 
ATOM     80  C   UNL A   1      44.097  23.395  26.840  1.00  0.00     0.148 A 
ATOM     81  C   UNL A   1      41.466  22.448  26.937  1.00  0.00     0.002 A 
ATOM     82  C   UNL A   1      43.695  22.350  26.009  1.00  0.00     0.091 A 
ATOM     83  F   UNL A   1      45.330  23.906  26.734  1.00  0.00    -0.205 F 
ATOM     84  C   UNL A   1      42.374  21.886  26.042  1.00  0.00     0.022 A 
BRANCH  82  85
ATOM     85  S   UNL A   1      44.804  21.590  24.810  1.00  0.00     0.127 S 
ATOM     86  O   UNL A   1      44.070  20.381  24.433  1.00  0.00    -0.237 OA
ATOM     87  O   UNL A   1      44.875  22.612  23.769  1.00  0.00    -0.237 OA
ATOM     88  O   UNL A   1      46.048  21.328  25.522  1.00  0.00    -0.744 OA
ENDBRANCH  82  85
ENDBRANCH  54  78
BRANCH  66  89
ATOM     89  C   UNL A   1      46.507  29.023  29.410  1.00  0.00     0.023 A 
ATOM     90  C   UNL A   1      47.749  28.951  28.745  1.00  0.00     0.012 A 
ATOM     91  C   UNL A   1      45.477  29.792  28.848  1.00  0.00     0.148 A 
ATOM     92  C   UNL A   1      47.960  29.649  27.551  1.00  0.00     0.002 A 
ATOM     93  C   UNL A   1      45.674  30.443  27.638  1.00  0.00     0.091 A 
ATOM     94  F   UNL A   1      44.303  29.844  29.494  1.00  0.00    -0.205 F 
ATOM     95  C   UNL A   1      46.917  30.383  26.990  1.00  0.00     0.022 A 
BRANCH  93  96
ATOM     96  S   UNL A   1      44.330  31.293  26.811  1.00  0.00     0.127 S 
ATOM     97  O   UNL A   1      43.411  30.196  26.518  1.00  0.00    -0.237 OA
ATOM     98  O   UNL A   1      43.866  32.224  27.843  1.00  0.00    -0.237 OA
ATOM     99  O   UNL A   1      44.921  31.945  25.648  1.00  0.00    -0.744 OA
ENDBRANCH  93  96
ENDBRANCH  66  89
ENDBRANCH  40  41
ENDBRANCH  32  35
ENDBRANCH  30  31
ENDBRANCH  29  30
ENDBRANCH   1  29
TORSDOF 17
ENDMDL
