MODEL 1
REMARK VINA RESULT:     -12.4      0.000      0.000
REMARK SMILES CCCSc1nc2n(n1)[C@@H](c1ccccc1C(=O)NCCCCNC(=O)c1ccc(-c3c4nc(c(-c5cccc(S(=O)(=O)[O-])c5F)c5ccc([nH]5)c(-c5cccc(S(=O)(=O)[O-])c5F)c5nc(c(-c6cccc(S(=O)(=O)[O-])c6F)c6ccc3[nH]6)C=C5)C=C4)cc1)C(C(=O)Nc1cccc(C)c1C)=C(C)N2
REMARK SMILES IDX 21 1 20 2 19 3 17 4 18 5 16 7 11 8 12 9 13 10 15 11 14 12
REMARK SMILES IDX 10 13 5 14 6 15 9 16 7 17 8 18 104 19 102 20 90 22 103 23
REMARK SMILES IDX 4 24 3 25 2 26 1 27 91 28 92 29 93 30 94 32 95 33 100 34
REMARK SMILES IDX 96 35 98 36 101 37 97 38 99 39 22 40 23 41 24 42 25 43 26 45
REMARK SMILES IDX 27 46 28 47 89 48 29 49 88 50 30 51 31 52 32 53 82 54 33 55
REMARK SMILES IDX 87 56 81 57 83 58 34 59 86 60 80 61 79 62 35 64 67 65 47 66
REMARK SMILES IDX 66 67 48 68 51 69 65 70 84 71 49 72 50 73 64 75 85 76 52 77
REMARK SMILES IDX 36 78 37 79 45 80 38 81 40 82 46 83 39 84 41 85 42 86 43 87
REMARK SMILES IDX 44 88 68 89 69 90 77 91 70 92 72 93 78 94 71 95 73 96 74 97
REMARK SMILES IDX 75 98 76 99 53 100 54 101 62 102 55 103 57 104 63 105 56 106
REMARK SMILES IDX 58 107 59 108 60 109 61 110
REMARK H PARENT 19 6 104 21 93 31 24 44 83 63 51 74
REMARK Flexibility Score: inf
ROOT
ATOM      1  C   UNL A   1      32.572  30.864  26.887  1.00  0.00     0.023 C 
ENDROOT
BRANCH   1   2
ATOM      2  C   UNL A   1      31.703  29.606  27.024  1.00  0.00     0.116 C 
BRANCH   2   3
ATOM      3  N   UNL A   1      32.447  28.363  26.910  1.00  0.00    -0.352 N 
ATOM      4  C   UNL A   1      33.178  27.579  26.068  1.00  0.00     0.251 C 
ATOM      5  O   UNL A   1      33.676  26.629  26.700  1.00  0.00    -0.269 OA
ATOM      6  H   UNL A   1      32.409  27.910  27.783  1.00  0.00     0.163 HD
BRANCH   4   7
ATOM      7  C   UNL A   1      33.427  27.597  24.571  1.00  0.00     0.045 A 
ATOM      8  C   UNL A   1      33.313  26.611  23.561  1.00  0.00    -0.006 A 
ATOM      9  C   UNL A   1      33.755  26.934  22.238  1.00  0.00     0.007 A 
ATOM     10  C   UNL A   1      34.214  28.194  21.877  1.00  0.00     0.000 A 
ATOM     11  C   UNL A   1      33.834  28.894  24.133  1.00  0.00     0.014 A 
ATOM     12  C   UNL A   1      34.209  29.195  22.822  1.00  0.00     0.001 A 
BRANCH   8  13
ATOM     13  C   UNL A   1      32.473  25.342  23.692  1.00  0.00     0.180 C 
ATOM     14  C   UNL A   1      29.141  26.382  24.092  1.00  0.00     0.210 A 
ATOM     15  N   UNL A   1      29.308  25.826  25.335  1.00  0.00    -0.185 NA
ATOM     16  N   UNL A   1      30.155  26.196  23.237  1.00  0.00    -0.141 NA
ATOM     17  C   UNL A   1      30.525  25.357  25.283  1.00  0.00     0.227 A 
ATOM     18  N   UNL A   1      31.067  25.622  24.054  1.00  0.00    -0.218 N 
ATOM     19  N   UNL A   1      31.272  24.741  26.213  1.00  0.00    -0.328 N 
ATOM     20  C   UNL A   1      32.558  24.273  25.972  1.00  0.00     0.026 C 
ATOM     21  H   UNL A   1      30.889  24.614  27.111  1.00  0.00     0.169 HD
ATOM     22  C   UNL A   1      33.110  24.426  24.742  1.00  0.00     0.065 C 
ATOM     23  C   UNL A   1      33.222  23.614  27.150  1.00  0.00     0.065 C 
BRANCH  14  24
ATOM     24  S   UNL A   1      27.725  27.336  23.750  1.00  0.00    -0.084 SA
BRANCH  24  25
ATOM     25  C   UNL A   1      28.372  28.883  23.068  1.00  0.00     0.078 C 
BRANCH  25  26
ATOM     26  C   UNL A   1      27.404  30.069  23.067  1.00  0.00     0.008 C 
ATOM     27  C   UNL A   1      28.050  31.416  23.346  1.00  0.00     0.005 C 
ENDBRANCH  25  26
ENDBRANCH  24  25
ENDBRANCH  14  24
BRANCH  22  28
ATOM     28  C   UNL A   1      34.396  23.816  24.320  1.00  0.00     0.255 C 
ATOM     29  O   UNL A   1      35.463  24.270  24.707  1.00  0.00    -0.269 OA
ATOM     30  N   UNL A   1      34.379  22.835  23.355  1.00  0.00    -0.322 N 
ATOM     31  H   UNL A   1      34.984  22.904  22.582  1.00  0.00     0.170 HD
BRANCH  30  32
ATOM     32  C   UNL A   1      33.513  21.735  23.458  1.00  0.00     0.044 A 
ATOM     33  C   UNL A   1      32.554  21.713  22.448  1.00  0.00     0.026 A 
ATOM     34  C   UNL A   1      33.676  20.648  24.349  1.00  0.00    -0.025 A 
ATOM     35  C   UNL A   1      31.920  20.527  22.153  1.00  0.00     0.002 A 
ATOM     36  C   UNL A   1      32.877  19.503  24.142  1.00  0.00    -0.046 A 
ATOM     37  C   UNL A   1      34.688  20.646  25.461  1.00  0.00     0.047 C 
ATOM     38  C   UNL A   1      32.080  19.429  22.991  1.00  0.00     0.004 A 
ATOM     39  C   UNL A   1      32.788  18.357  25.111  1.00  0.00     0.044 C 
ENDBRANCH  30  32
ENDBRANCH  22  28
ENDBRANCH   8  13
ENDBRANCH   4   7
ENDBRANCH   2   3
ENDBRANCH   1   2
BRANCH   1  40
ATOM     40  C   UNL A   1      31.848  32.170  27.274  1.00  0.00     0.023 C 
BRANCH  40  41
ATOM     41  C   UNL A   1      32.573  33.465  26.896  1.00  0.00     0.116 C 
BRANCH  41  42
ATOM     42  N   UNL A   1      32.493  34.503  27.916  1.00  0.00    -0.352 N 
ATOM     43  C   UNL A   1      33.078  34.542  29.171  1.00  0.00     0.251 C 
ATOM     44  H   UNL A   1      31.946  35.287  27.680  1.00  0.00     0.163 HD
ATOM     45  O   UNL A   1      32.542  35.222  30.041  1.00  0.00    -0.269 OA
BRANCH  43  46
ATOM     46  C   UNL A   1      34.375  33.867  29.473  1.00  0.00     0.039 A 
ATOM     47  C   UNL A   1      34.550  33.171  30.681  1.00  0.00     0.014 A 
ATOM     48  C   UNL A   1      35.487  34.075  28.666  1.00  0.00     0.014 A 
ATOM     49  C   UNL A   1      35.818  32.687  31.045  1.00  0.00     0.010 A 
ATOM     50  C   UNL A   1      36.743  33.649  29.041  1.00  0.00     0.010 A 
ATOM     51  C   UNL A   1      36.919  32.952  30.227  1.00  0.00    -0.014 A 
BRANCH  51  52
ATOM     52  C   UNL A   1      38.180  32.218  30.288  1.00  0.00     0.031 A 
ATOM     53  C   UNL A   1      38.079  30.914  29.608  1.00  0.00     0.074 A 
ATOM     54  C   UNL A   1      39.384  32.743  30.597  1.00  0.00     0.049 A 
ATOM     55  N   UNL A   1      37.997  29.782  30.223  1.00  0.00    -0.248 NA
ATOM     56  C   UNL A   1      37.837  30.828  28.160  1.00  0.00     0.031 C 
ATOM     57  C   UNL A   1      39.653  34.031  31.212  1.00  0.00     0.029 A 
ATOM     58  N   UNL A   1      40.642  32.285  30.306  1.00  0.00    -0.354 N 
ATOM     59  C   UNL A   1      38.077  28.841  29.213  1.00  0.00     0.074 A 
ATOM     60  C   UNL A   1      37.646  29.513  28.017  1.00  0.00     0.031 C 
ATOM     61  C   UNL A   1      40.955  34.363  31.040  1.00  0.00     0.029 A 
ATOM     62  C   UNL A   1      41.634  33.266  30.395  1.00  0.00     0.049 A 
ATOM     63  H   UNL A   1      40.830  31.351  30.058  1.00  0.00     0.167 HD
ATOM     64  C   UNL A   1      38.869  27.746  29.381  1.00  0.00     0.034 A 
ATOM     65  C   UNL A   1      42.946  33.163  30.063  1.00  0.00     0.034 A 
ATOM     66  C   UNL A   1      39.307  27.624  30.760  1.00  0.00     0.049 A 
ATOM     67  C   UNL A   1      43.308  31.763  30.344  1.00  0.00     0.074 A 
ATOM     68  C   UNL A   1      38.687  27.639  31.996  1.00  0.00     0.029 A 
ATOM     69  N   UNL A   1      40.635  27.879  31.008  1.00  0.00    -0.354 N 
ATOM     70  N   UNL A   1      43.302  31.271  31.552  1.00  0.00    -0.248 NA
ATOM     71  C   UNL A   1      43.219  30.799  29.267  1.00  0.00     0.031 C 
ATOM     72  C   UNL A   1      39.579  28.349  32.857  1.00  0.00     0.029 A 
ATOM     73  C   UNL A   1      40.735  28.649  32.136  1.00  0.00     0.049 A 
ATOM     74  H   UNL A   1      41.391  27.560  30.464  1.00  0.00     0.167 HD
ATOM     75  C   UNL A   1      42.647  30.059  31.394  1.00  0.00     0.074 A 
ATOM     76  C   UNL A   1      42.766  29.755  29.966  1.00  0.00     0.031 C 
ATOM     77  C   UNL A   1      41.814  29.585  32.368  1.00  0.00     0.034 A 
BRANCH  64  78
ATOM     78  C   UNL A   1      39.609  27.039  28.267  1.00  0.00     0.023 A 
ATOM     79  C   UNL A   1      39.464  25.635  28.213  1.00  0.00     0.012 A 
ATOM     80  C   UNL A   1      40.621  27.607  27.458  1.00  0.00     0.148 A 
ATOM     81  C   UNL A   1      40.324  24.837  27.454  1.00  0.00     0.002 A 
ATOM     82  C   UNL A   1      41.412  26.818  26.634  1.00  0.00     0.091 A 
ATOM     83  F   UNL A   1      40.936  28.899  27.572  1.00  0.00    -0.205 F 
ATOM     84  C   UNL A   1      41.294  25.429  26.656  1.00  0.00     0.022 A 
BRANCH  82  85
ATOM     85  S   UNL A   1      42.648  27.540  25.546  1.00  0.00     0.127 S 
ATOM     86  O   UNL A   1      43.681  27.931  26.498  1.00  0.00    -0.237 OA
ATOM     87  O   UNL A   1      42.986  26.404  24.687  1.00  0.00    -0.237 OA
ATOM     88  O   UNL A   1      41.969  28.630  24.852  1.00  0.00    -0.744 OA
ENDBRANCH  82  85
ENDBRANCH  64  78
BRANCH  65  89
ATOM     89  C   UNL A   1      43.877  34.089  29.371  1.00  0.00     0.023 A 
ATOM     90  C   UNL A   1      44.651  35.000  30.122  1.00  0.00     0.012 A 
ATOM     91  C   UNL A   1      44.252  33.866  28.029  1.00  0.00     0.148 A 
ATOM     92  C   UNL A   1      45.778  35.629  29.572  1.00  0.00     0.002 A 
ATOM     93  C   UNL A   1      45.360  34.514  27.478  1.00  0.00     0.091 A 
ATOM     94  F   UNL A   1      43.600  32.930  27.329  1.00  0.00    -0.205 F 
ATOM     95  C   UNL A   1      46.137  35.383  28.251  1.00  0.00     0.022 A 
BRANCH  93  96
ATOM     96  S   UNL A   1      45.848  34.238  25.770  1.00  0.00     0.127 S 
ATOM     97  O   UNL A   1      46.226  32.823  25.772  1.00  0.00    -0.237 OA
ATOM     98  O   UNL A   1      44.621  34.547  25.045  1.00  0.00    -0.237 OA
ATOM     99  O   UNL A   1      46.968  35.150  25.557  1.00  0.00    -0.744 OA
ENDBRANCH  93  96
ENDBRANCH  65  89
BRANCH  77 100
ATOM    100  C   UNL A   1      41.864  30.244  33.729  1.00  0.00     0.023 A 
ATOM    101  C   UNL A   1      42.901  30.013  34.658  1.00  0.00     0.012 A 
ATOM    102  C   UNL A   1      40.901  31.220  34.031  1.00  0.00     0.148 A 
ATOM    103  C   UNL A   1      42.956  30.709  35.872  1.00  0.00     0.002 A 
ATOM    104  C   UNL A   1      40.981  31.941  35.217  1.00  0.00     0.091 A 
ATOM    105  F   UNL A   1      39.919  31.438  33.143  1.00  0.00    -0.205 F 
ATOM    106  C   UNL A   1      41.999  31.681  36.147  1.00  0.00     0.022 A 
BRANCH 104 107
ATOM    107  S   UNL A   1      39.838  33.278  35.569  1.00  0.00     0.127 S 
ATOM    108  O   UNL A   1      40.254  33.693  36.906  1.00  0.00    -0.237 OA
ATOM    109  O   UNL A   1      40.139  34.241  34.507  1.00  0.00    -0.237 OA
ATOM    110  O   UNL A   1      38.506  32.691  35.475  1.00  0.00    -0.744 OA
ENDBRANCH 104 107
ENDBRANCH  77 100
ENDBRANCH  51  52
ENDBRANCH  43  46
ENDBRANCH  41  42
ENDBRANCH  40  41
ENDBRANCH   1  40
TORSDOF 20
ENDMDL
MODEL 2
REMARK VINA RESULT:     -12.2      2.955      6.580
REMARK SMILES CCCSc1nc2n(n1)[C@@H](c1ccccc1C(=O)NCCCCNC(=O)c1ccc(-c3c4nc(c(-c5cccc(S(=O)(=O)[O-])c5F)c5ccc([nH]5)c(-c5cccc(S(=O)(=O)[O-])c5F)c5nc(c(-c6cccc(S(=O)(=O)[O-])c6F)c6ccc3[nH]6)C=C5)C=C4)cc1)C(C(=O)Nc1cccc(C)c1C)=C(C)N2
REMARK SMILES IDX 21 1 20 2 19 3 17 4 18 5 16 7 11 8 12 9 13 10 15 11 14 12
REMARK SMILES IDX 10 13 5 14 6 15 9 16 7 17 8 18 104 19 102 20 90 22 103 23
REMARK SMILES IDX 4 24 3 25 2 26 1 27 91 28 92 29 93 30 94 32 95 33 100 34
REMARK SMILES IDX 96 35 98 36 101 37 97 38 99 39 22 40 23 41 24 42 25 43 26 45
REMARK SMILES IDX 27 46 28 47 89 48 29 49 88 50 30 51 31 52 32 53 82 54 33 55
REMARK SMILES IDX 87 56 81 57 83 58 34 59 86 60 80 61 79 62 35 64 67 65 47 66
REMARK SMILES IDX 66 67 48 68 51 69 65 70 84 71 49 72 50 73 64 75 85 76 52 77
REMARK SMILES IDX 36 78 37 79 45 80 38 81 40 82 46 83 39 84 41 85 42 86 43 87
REMARK SMILES IDX 44 88 68 89 69 90 77 91 70 92 72 93 78 94 71 95 73 96 74 97
REMARK SMILES IDX 75 98 76 99 53 100 54 101 62 102 55 103 57 104 63 105 56 106
REMARK SMILES IDX 58 107 59 108 60 109 61 110
REMARK H PARENT 19 6 104 21 93 31 24 44 83 63 51 74
REMARK Flexibility Score: inf
ROOT
ATOM      1  C   UNL A   1      32.558  30.565  26.914  1.00  0.00     0.023 C 
ENDROOT
BRANCH   1   2
ATOM      2  C   UNL A   1      31.868  29.206  27.092  1.00  0.00     0.116 C 
BRANCH   2   3
ATOM      3  N   UNL A   1      32.748  28.069  26.884  1.00  0.00    -0.352 N 
ATOM      4  C   UNL A   1      33.470  27.377  25.957  1.00  0.00     0.251 C 
ATOM      5  O   UNL A   1      34.158  26.506  26.521  1.00  0.00    -0.269 OA
ATOM      6  H   UNL A   1      32.872  27.624  27.753  1.00  0.00     0.163 HD
BRANCH   4   7
ATOM      7  C   UNL A   1      33.536  27.413  24.441  1.00  0.00     0.045 A 
ATOM      8  C   UNL A   1      33.295  26.439  23.441  1.00  0.00    -0.006 A 
ATOM      9  C   UNL A   1      33.576  26.776  22.078  1.00  0.00     0.007 A 
ATOM     10  C   UNL A   1      33.994  28.039  21.679  1.00  0.00     0.000 A 
ATOM     11  C   UNL A   1      33.892  28.713  23.972  1.00  0.00     0.014 A 
ATOM     12  C   UNL A   1      34.108  29.029  22.628  1.00  0.00     0.001 A 
BRANCH   8  13
ATOM     13  C   UNL A   1      32.472  25.171  23.659  1.00  0.00     0.180 C 
ATOM     14  C   UNL A   1      29.154  26.207  24.169  1.00  0.00     0.210 A 
ATOM     15  N   UNL A   1      29.381  25.700  25.423  1.00  0.00    -0.185 NA
ATOM     16  N   UNL A   1      30.130  25.993  23.277  1.00  0.00    -0.141 NA
ATOM     17  C   UNL A   1      30.598  25.236  25.334  1.00  0.00     0.227 A 
ATOM     18  N   UNL A   1      31.082  25.457  24.073  1.00  0.00    -0.218 N 
ATOM     19  N   UNL A   1      31.390  24.661  26.252  1.00  0.00    -0.328 N 
ATOM     20  C   UNL A   1      32.668  24.191  25.971  1.00  0.00     0.026 C 
ATOM     21  H   UNL A   1      31.049  24.566  27.171  1.00  0.00     0.169 HD
ATOM     22  C   UNL A   1      33.163  24.300  24.714  1.00  0.00     0.065 C 
ATOM     23  C   UNL A   1      33.389  23.582  27.143  1.00  0.00     0.065 C 
BRANCH  14  24
ATOM     24  S   UNL A   1      27.717  27.138  23.855  1.00  0.00    -0.084 SA
BRANCH  24  25
ATOM     25  C   UNL A   1      28.299  28.568  22.911  1.00  0.00     0.078 C 
BRANCH  25  26
ATOM     26  C   UNL A   1      29.817  28.767  22.868  1.00  0.00     0.008 C 
ATOM     27  C   UNL A   1      30.352  29.783  23.863  1.00  0.00     0.005 C 
ENDBRANCH  25  26
ENDBRANCH  24  25
ENDBRANCH  14  24
BRANCH  22  28
ATOM     28  C   UNL A   1      34.433  23.681  24.257  1.00  0.00     0.255 C 
ATOM     29  O   UNL A   1      35.513  24.152  24.583  1.00  0.00    -0.269 OA
ATOM     30  N   UNL A   1      34.381  22.669  23.327  1.00  0.00    -0.322 N 
ATOM     31  H   UNL A   1      34.952  22.715  22.526  1.00  0.00     0.170 HD
BRANCH  30  32
ATOM     32  C   UNL A   1      33.526  21.570  23.503  1.00  0.00     0.044 A 
ATOM     33  C   UNL A   1      32.531  21.505  22.528  1.00  0.00     0.026 A 
ATOM     34  C   UNL A   1      33.727  20.518  24.427  1.00  0.00    -0.025 A 
ATOM     35  C   UNL A   1      31.895  20.305  22.302  1.00  0.00     0.002 A 
ATOM     36  C   UNL A   1      32.929  19.363  24.293  1.00  0.00    -0.046 A 
ATOM     37  C   UNL A   1      34.778  20.564  25.502  1.00  0.00     0.047 C 
ATOM     38  C   UNL A   1      32.092  19.241  23.174  1.00  0.00     0.004 A 
ATOM     39  C   UNL A   1      32.882  18.253  25.307  1.00  0.00     0.044 C 
ENDBRANCH  30  32
ENDBRANCH  22  28
ENDBRANCH   8  13
ENDBRANCH   4   7
ENDBRANCH   2   3
ENDBRANCH   1   2
BRANCH   1  40
ATOM     40  C   UNL A   1      34.005  30.608  27.447  1.00  0.00     0.023 C 
BRANCH  40  41
ATOM     41  C   UNL A   1      34.618  32.004  27.590  1.00  0.00     0.116 C 
BRANCH  41  42
ATOM     42  N   UNL A   1      34.534  32.550  28.938  1.00  0.00    -0.352 N 
ATOM     43  C   UNL A   1      35.128  32.093  30.104  1.00  0.00     0.251 C 
ATOM     44  H   UNL A   1      33.977  33.355  29.034  1.00  0.00     0.163 HD
ATOM     45  O   UNL A   1      34.591  32.365  31.174  1.00  0.00    -0.269 OA
BRANCH  43  46
ATOM     46  C   UNL A   1      36.434  31.371  30.109  1.00  0.00     0.039 A 
ATOM     47  C   UNL A   1      36.473  29.971  29.988  1.00  0.00     0.014 A 
ATOM     48  C   UNL A   1      37.612  32.037  30.427  1.00  0.00     0.014 A 
ATOM     49  C   UNL A   1      37.681  29.276  30.169  1.00  0.00     0.010 A 
ATOM     50  C   UNL A   1      38.788  31.358  30.657  1.00  0.00     0.010 A 
ATOM     51  C   UNL A   1      38.835  29.978  30.528  1.00  0.00    -0.014 A 
BRANCH  51  52
ATOM     52  C   UNL A   1      40.190  29.452  30.386  1.00  0.00     0.031 A 
ATOM     53  C   UNL A   1      40.786  29.134  31.696  1.00  0.00     0.074 A 
ATOM     54  C   UNL A   1      40.737  28.980  29.246  1.00  0.00     0.049 A 
ATOM     55  N   UNL A   1      41.688  29.852  32.274  1.00  0.00    -0.248 NA
ATOM     56  C   UNL A   1      40.222  28.078  32.550  1.00  0.00     0.031 C 
ATOM     57  C   UNL A   1      40.243  29.157  27.892  1.00  0.00     0.029 A 
ATOM     58  N   UNL A   1      41.792  28.125  29.068  1.00  0.00    -0.354 N 
ATOM     59  C   UNL A   1      42.056  29.109  33.380  1.00  0.00     0.074 A 
ATOM     60  C   UNL A   1      40.935  28.254  33.667  1.00  0.00     0.031 C 
ATOM     61  C   UNL A   1      40.833  28.262  27.064  1.00  0.00     0.029 A 
ATOM     62  C   UNL A   1      41.821  27.519  27.808  1.00  0.00     0.049 A 
ATOM     63  H   UNL A   1      42.468  27.954  29.763  1.00  0.00     0.167 HD
ATOM     64  C   UNL A   1      43.375  28.978  33.691  1.00  0.00     0.034 A 
ATOM     65  C   UNL A   1      42.660  26.548  27.365  1.00  0.00     0.034 A 
ATOM     66  C   UNL A   1      44.189  29.901  32.918  1.00  0.00     0.049 A 
ATOM     67  C   UNL A   1      43.934  26.790  28.064  1.00  0.00     0.074 A 
ATOM     68  C   UNL A   1      44.157  31.258  32.653  1.00  0.00     0.029 A 
ATOM     69  N   UNL A   1      44.980  29.351  31.938  1.00  0.00    -0.354 N 
ATOM     70  N   UNL A   1      44.645  27.865  27.865  1.00  0.00    -0.248 NA
ATOM     71  C   UNL A   1      44.183  26.085  29.305  1.00  0.00     0.031 C 
ATOM     72  C   UNL A   1      44.547  31.385  31.285  1.00  0.00     0.029 A 
ATOM     73  C   UNL A   1      44.887  30.119  30.809  1.00  0.00     0.049 A 
ATOM     74  H   UNL A   1      45.527  28.537  32.033  1.00  0.00     0.167 HD
ATOM     75  C   UNL A   1      44.976  28.264  29.151  1.00  0.00     0.074 A 
ATOM     76  C   UNL A   1      44.806  27.062  29.970  1.00  0.00     0.031 C 
ATOM     77  C   UNL A   1      45.049  29.591  29.471  1.00  0.00     0.034 A 
BRANCH  64  78
ATOM     78  C   UNL A   1      43.992  27.758  34.338  1.00  0.00     0.023 A 
ATOM     79  C   UNL A   1      44.895  28.001  35.396  1.00  0.00     0.012 A 
ATOM     80  C   UNL A   1      43.955  26.442  33.820  1.00  0.00     0.148 A 
ATOM     81  C   UNL A   1      45.762  27.010  35.863  1.00  0.00     0.002 A 
ATOM     82  C   UNL A   1      44.754  25.438  34.350  1.00  0.00     0.091 A 
ATOM     83  F   UNL A   1      43.257  26.166  32.717  1.00  0.00    -0.205 F 
ATOM     84  C   UNL A   1      45.686  25.724  35.347  1.00  0.00     0.022 A 
BRANCH  82  85
ATOM     85  S   UNL A   1      44.657  23.745  33.750  1.00  0.00     0.127 S 
ATOM     86  O   UNL A   1      44.938  23.924  32.331  1.00  0.00    -0.237 OA
ATOM     87  O   UNL A   1      45.718  23.096  34.521  1.00  0.00    -0.237 OA
ATOM     88  O   UNL A   1      43.312  23.288  34.086  1.00  0.00    -0.744 OA
ENDBRANCH  82  85
ENDBRANCH  64  78
BRANCH  65  89
ATOM     89  C   UNL A   1      42.437  25.337  26.537  1.00  0.00     0.023 A 
ATOM     90  C   UNL A   1      43.339  25.017  25.500  1.00  0.00     0.012 A 
ATOM     91  C   UNL A   1      41.545  24.329  26.960  1.00  0.00     0.148 A 
ATOM     92  C   UNL A   1      43.382  23.733  24.938  1.00  0.00     0.002 A 
ATOM     93  C   UNL A   1      41.574  23.058  26.380  1.00  0.00     0.091 A 
ATOM     94  F   UNL A   1      40.753  24.573  28.011  1.00  0.00    -0.205 F 
ATOM     95  C   UNL A   1      42.503  22.750  25.381  1.00  0.00     0.022 A 
BRANCH  93  96
ATOM     96  S   UNL A   1      40.444  21.764  26.910  1.00  0.00     0.127 S 
ATOM     97  O   UNL A   1      40.749  21.641  28.337  1.00  0.00    -0.237 OA
ATOM     98  O   UNL A   1      39.143  22.349  26.607  1.00  0.00    -0.237 OA
ATOM     99  O   UNL A   1      40.825  20.598  26.120  1.00  0.00    -0.744 OA
ENDBRANCH  93  96
ENDBRANCH  65  89
BRANCH  77 100
ATOM    100  C   UNL A   1      45.070  30.595  28.339  1.00  0.00     0.023 A 
ATOM    101  C   UNL A   1      43.907  31.011  27.658  1.00  0.00     0.012 A 
ATOM    102  C   UNL A   1      46.285  31.229  28.036  1.00  0.00     0.148 A 
ATOM    103  C   UNL A   1      43.959  32.005  26.674  1.00  0.00     0.002 A 
ATOM    104  C   UNL A   1      46.328  32.247  27.089  1.00  0.00     0.091 A 
ATOM    105  F   UNL A   1      47.388  30.831  28.688  1.00  0.00    -0.205 F 
ATOM    106  C   UNL A   1      45.170  32.631  26.396  1.00  0.00     0.022 A 
BRANCH 104 107
ATOM    107  S   UNL A   1      47.841  33.156  26.774  1.00  0.00     0.127 S 
ATOM    108  O   UNL A   1      48.771  32.089  26.414  1.00  0.00    -0.237 OA
ATOM    109  O   UNL A   1      47.459  34.035  25.667  1.00  0.00    -0.237 OA
ATOM    110  O   UNL A   1      48.140  33.865  28.013  1.00  0.00    -0.744 OA
ENDBRANCH 104 107
ENDBRANCH  77 100
ENDBRANCH  51  52
ENDBRANCH  43  46
ENDBRANCH  41  42
ENDBRANCH  40  41
ENDBRANCH   1  40
TORSDOF 20
ENDMDL
MODEL 3
REMARK VINA RESULT:     -11.3      5.453     12.924
REMARK SMILES CCCSc1nc2n(n1)[C@@H](c1ccccc1C(=O)NCCCCNC(=O)c1ccc(-c3c4nc(c(-c5cccc(S(=O)(=O)[O-])c5F)c5ccc([nH]5)c(-c5cccc(S(=O)(=O)[O-])c5F)c5nc(c(-c6cccc(S(=O)(=O)[O-])c6F)c6ccc3[nH]6)C=C5)C=C4)cc1)C(C(=O)Nc1cccc(C)c1C)=C(C)N2
REMARK SMILES IDX 21 1 20 2 19 3 17 4 18 5 16 7 11 8 12 9 13 10 15 11 14 12
REMARK SMILES IDX 10 13 5 14 6 15 9 16 7 17 8 18 104 19 102 20 90 22 103 23
REMARK SMILES IDX 4 24 3 25 2 26 1 27 91 28 92 29 93 30 94 32 95 33 100 34
REMARK SMILES IDX 96 35 98 36 101 37 97 38 99 39 22 40 23 41 24 42 25 43 26 45
REMARK SMILES IDX 27 46 28 47 89 48 29 49 88 50 30 51 31 52 32 53 82 54 33 55
REMARK SMILES IDX 87 56 81 57 83 58 34 59 86 60 80 61 79 62 35 64 67 65 47 66
REMARK SMILES IDX 66 67 48 68 51 69 65 70 84 71 49 72 50 73 64 75 85 76 52 77
REMARK SMILES IDX 36 78 37 79 45 80 38 81 40 82 46 83 39 84 41 85 42 86 43 87
REMARK SMILES IDX 44 88 68 89 69 90 77 91 70 92 72 93 78 94 71 95 73 96 74 97
REMARK SMILES IDX 75 98 76 99 53 100 54 101 62 102 55 103 57 104 63 105 56 106
REMARK SMILES IDX 58 107 59 108 60 109 61 110
REMARK H PARENT 19 6 104 21 93 31 24 44 83 63 51 74
REMARK Flexibility Score: inf
ROOT
ATOM      1  C   UNL A   1      36.718  32.649  32.561  1.00  0.00     0.023 C 
ENDROOT
BRANCH   1   2
ATOM      2  C   UNL A   1      36.869  32.355  34.060  1.00  0.00     0.116 C 
BRANCH   2   3
ATOM      3  N   UNL A   1      38.147  31.762  34.416  1.00  0.00    -0.352 N 
ATOM      4  C   UNL A   1      39.499  31.933  34.384  1.00  0.00     0.251 C 
ATOM      5  O   UNL A   1      40.056  31.029  35.033  1.00  0.00    -0.269 OA
ATOM      6  H   UNL A   1      37.964  30.898  34.852  1.00  0.00     0.163 HD
BRANCH   4   7
ATOM      7  C   UNL A   1      40.413  32.921  33.683  1.00  0.00     0.045 A 
ATOM      8  C   UNL A   1      41.203  34.002  34.146  1.00  0.00    -0.006 A 
ATOM      9  C   UNL A   1      41.866  34.826  33.180  1.00  0.00     0.007 A 
ATOM     10  C   UNL A   1      41.840  34.567  31.815  1.00  0.00     0.000 A 
ATOM     11  C   UNL A   1      40.481  32.655  32.282  1.00  0.00     0.014 A 
ATOM     12  C   UNL A   1      41.181  33.446  31.367  1.00  0.00     0.001 A 
BRANCH   8  13
ATOM     13  C   UNL A   1      41.657  34.175  35.593  1.00  0.00     0.180 C 
ATOM     14  C   UNL A   1      44.020  31.648  36.211  1.00  0.00     0.210 A 
ATOM     15  N   UNL A   1      43.049  31.203  37.071  1.00  0.00    -0.185 NA
ATOM     16  N   UNL A   1      43.783  32.837  35.642  1.00  0.00    -0.141 NA
ATOM     17  C   UNL A   1      42.118  32.111  36.956  1.00  0.00     0.227 A 
ATOM     18  N   UNL A   1      42.517  33.065  36.059  1.00  0.00    -0.218 N 
ATOM     19  N   UNL A   1      40.902  32.203  37.517  1.00  0.00    -0.328 N 
ATOM     20  C   UNL A   1      40.041  33.272  37.302  1.00  0.00     0.026 C 
ATOM     21  H   UNL A   1      40.606  31.476  38.112  1.00  0.00     0.169 HD
ATOM     22  C   UNL A   1      40.423  34.292  36.495  1.00  0.00     0.065 C 
ATOM     23  C   UNL A   1      38.724  33.178  38.025  1.00  0.00     0.065 C 
BRANCH  14  24
ATOM     24  S   UNL A   1      45.394  30.641  35.855  1.00  0.00    -0.084 SA
BRANCH  24  25
ATOM     25  C   UNL A   1      46.774  31.800  35.679  1.00  0.00     0.078 C 
BRANCH  25  26
ATOM     26  C   UNL A   1      47.488  32.188  36.977  1.00  0.00     0.008 C 
ATOM     27  C   UNL A   1      46.977  31.479  38.220  1.00  0.00     0.005 C 
ENDBRANCH  25  26
ENDBRANCH  24  25
ENDBRANCH  14  24
BRANCH  22  28
ATOM     28  C   UNL A   1      39.668  35.559  36.331  1.00  0.00     0.255 C 
ATOM     29  O   UNL A   1      38.782  35.658  35.495  1.00  0.00    -0.269 OA
ATOM     30  N   UNL A   1      40.086  36.675  37.019  1.00  0.00    -0.322 N 
ATOM     31  H   UNL A   1      40.209  37.525  36.538  1.00  0.00     0.170 HD
BRANCH  30  32
ATOM     32  C   UNL A   1      40.339  36.620  38.399  1.00  0.00     0.044 A 
ATOM     33  C   UNL A   1      39.169  36.580  39.156  1.00  0.00     0.026 A 
ATOM     34  C   UNL A   1      41.610  36.428  38.989  1.00  0.00    -0.025 A 
ATOM     35  C   UNL A   1      39.225  36.108  40.448  1.00  0.00     0.002 A 
ATOM     36  C   UNL A   1      41.657  36.127  40.367  1.00  0.00    -0.046 A 
ATOM     37  C   UNL A   1      42.892  36.483  38.205  1.00  0.00     0.047 C 
ATOM     38  C   UNL A   1      40.458  35.881  41.050  1.00  0.00     0.004 A 
ATOM     39  C   UNL A   1      42.925  36.095  41.175  1.00  0.00     0.044 C 
ENDBRANCH  30  32
ENDBRANCH  22  28
ENDBRANCH   8  13
ENDBRANCH   4   7
ENDBRANCH   2   3
ENDBRANCH   1   2
BRANCH   1  40
ATOM     40  C   UNL A   1      35.307  32.365  32.007  1.00  0.00     0.023 C 
BRANCH  40  41
ATOM     41  C   UNL A   1      34.890  33.204  30.795  1.00  0.00     0.116 C 
BRANCH  41  42
ATOM     42  N   UNL A   1      34.285  32.427  29.721  1.00  0.00    -0.352 N 
ATOM     43  C   UNL A   1      34.900  31.679  28.730  1.00  0.00     0.251 C 
ATOM     44  H   UNL A   1      33.301  32.436  29.694  1.00  0.00     0.163 HD
ATOM     45  O   UNL A   1      34.296  31.501  27.677  1.00  0.00    -0.269 OA
BRANCH  43  46
ATOM     46  C   UNL A   1      36.219  31.009  28.933  1.00  0.00     0.039 A 
ATOM     47  C   UNL A   1      36.282  29.637  29.227  1.00  0.00     0.014 A 
ATOM     48  C   UNL A   1      37.387  31.757  29.028  1.00  0.00     0.014 A 
ATOM     49  C   UNL A   1      37.503  29.043  29.591  1.00  0.00     0.010 A 
ATOM     50  C   UNL A   1      38.577  31.193  29.434  1.00  0.00     0.010 A 
ATOM     51  C   UNL A   1      38.646  29.837  29.716  1.00  0.00    -0.014 A 
BRANCH  51  52
ATOM     52  C   UNL A   1      40.010  29.313  29.719  1.00  0.00     0.031 A 
ATOM     53  C   UNL A   1      40.478  29.036  31.089  1.00  0.00     0.074 A 
ATOM     54  C   UNL A   1      40.664  28.811  28.651  1.00  0.00     0.049 A 
ATOM     55  N   UNL A   1      41.321  29.774  31.729  1.00  0.00    -0.248 NA
ATOM     56  C   UNL A   1      39.837  28.003  31.916  1.00  0.00     0.031 C 
ATOM     57  C   UNL A   1      40.302  28.946  27.252  1.00  0.00     0.029 A 
ATOM     58  N   UNL A   1      41.733  27.956  28.600  1.00  0.00    -0.354 N 
ATOM     59  C   UNL A   1      41.582  29.065  32.887  1.00  0.00     0.074 A 
ATOM     60  C   UNL A   1      40.440  28.214  33.091  1.00  0.00     0.031 C 
ATOM     61  C   UNL A   1      40.970  28.030  26.510  1.00  0.00     0.029 A 
ATOM     62  C   UNL A   1      41.883  27.314  27.367  1.00  0.00     0.049 A 
ATOM     63  H   UNL A   1      42.340  27.807  29.361  1.00  0.00     0.167 HD
ATOM     64  C   UNL A   1      42.866  28.949  33.326  1.00  0.00     0.034 A 
ATOM     65  C   UNL A   1      42.762  26.334  27.034  1.00  0.00     0.034 A 
ATOM     66  C   UNL A   1      43.747  29.853  32.607  1.00  0.00     0.049 A 
ATOM     67  C   UNL A   1      43.963  26.601  27.844  1.00  0.00     0.074 A 
ATOM     68  C   UNL A   1      43.740  31.202  32.301  1.00  0.00     0.029 A 
ATOM     69  N   UNL A   1      44.630  29.278  31.724  1.00  0.00    -0.354 N 
ATOM     70  N   UNL A   1      44.688  27.672  27.684  1.00  0.00    -0.248 NA
ATOM     71  C   UNL A   1      44.093  25.934  29.124  1.00  0.00     0.031 C 
ATOM     72  C   UNL A   1      44.258  31.290  30.974  1.00  0.00     0.029 A 
ATOM     73  C   UNL A   1      44.644  30.012  30.570  1.00  0.00     0.049 A 
ATOM     74  H   UNL A   1      45.166  28.469  31.895  1.00  0.00     0.167 HD
ATOM     75  C   UNL A   1      44.894  28.111  28.983  1.00  0.00     0.074 A 
ATOM     76  C   UNL A   1      44.649  26.932  29.816  1.00  0.00     0.031 C 
ATOM     77  C   UNL A   1      44.934  29.446  29.269  1.00  0.00     0.034 A 
BRANCH  64  78
ATOM     78  C   UNL A   1      43.419  27.751  34.065  1.00  0.00     0.023 A 
ATOM     79  C   UNL A   1      43.919  26.700  33.265  1.00  0.00     0.012 A 
ATOM     80  C   UNL A   1      43.241  27.476  35.441  1.00  0.00     0.148 A 
ATOM     81  C   UNL A   1      44.161  25.428  33.791  1.00  0.00     0.002 A 
ATOM     82  C   UNL A   1      43.570  26.238  35.976  1.00  0.00     0.091 A 
ATOM     83  F   UNL A   1      42.621  28.352  36.234  1.00  0.00    -0.205 F 
ATOM     84  C   UNL A   1      43.995  25.198  35.149  1.00  0.00     0.022 A 
BRANCH  82  85
ATOM     85  S   UNL A   1      43.421  25.905  37.737  1.00  0.00     0.127 S 
ATOM     86  O   UNL A   1      41.981  25.721  37.876  1.00  0.00    -0.237 OA
ATOM     87  O   UNL A   1      44.225  24.691  37.878  1.00  0.00    -0.237 OA
ATOM     88  O   UNL A   1      43.985  27.074  38.404  1.00  0.00    -0.744 OA
ENDBRANCH  82  85
ENDBRANCH  64  78
BRANCH  65  89
ATOM     89  C   UNL A   1      42.621  25.098  26.225  1.00  0.00     0.023 A 
ATOM     90  C   UNL A   1      43.563  24.806  25.216  1.00  0.00     0.012 A 
ATOM     91  C   UNL A   1      41.771  24.053  26.646  1.00  0.00     0.148 A 
ATOM     92  C   UNL A   1      43.685  23.516  24.680  1.00  0.00     0.002 A 
ATOM     93  C   UNL A   1      41.879  22.775  26.092  1.00  0.00     0.091 A 
ATOM     94  F   UNL A   1      40.942  24.275  27.674  1.00  0.00    -0.205 F 
ATOM     95  C   UNL A   1      42.847  22.497  25.120  1.00  0.00     0.022 A 
BRANCH  93  96
ATOM     96  S   UNL A   1      40.803  21.435  26.620  1.00  0.00     0.127 S 
ATOM     97  O   UNL A   1      40.780  21.601  28.074  1.00  0.00    -0.237 OA
ATOM     98  O   UNL A   1      39.553  21.759  25.942  1.00  0.00    -0.237 OA
ATOM     99  O   UNL A   1      41.482  20.223  26.173  1.00  0.00    -0.744 OA
ENDBRANCH  93  96
ENDBRANCH  65  89
BRANCH  77 100
ATOM    100  C   UNL A   1      45.062  30.417  28.116  1.00  0.00     0.023 A 
ATOM    101  C   UNL A   1      43.970  30.799  27.307  1.00  0.00     0.012 A 
ATOM    102  C   UNL A   1      46.296  31.056  27.918  1.00  0.00     0.148 A 
ATOM    103  C   UNL A   1      44.114  31.765  26.304  1.00  0.00     0.002 A 
ATOM    104  C   UNL A   1      46.426  32.046  26.951  1.00  0.00     0.091 A 
ATOM    105  F   UNL A   1      47.330  30.690  28.690  1.00  0.00    -0.205 F 
ATOM    106  C   UNL A   1      45.342  32.396  26.132  1.00  0.00     0.022 A 
BRANCH 104 107
ATOM    107  S   UNL A   1      47.956  32.964  26.764  1.00  0.00     0.127 S 
ATOM    108  O   UNL A   1      48.125  33.552  28.090  1.00  0.00    -0.237 OA
ATOM    109  O   UNL A   1      48.919  31.912  26.433  1.00  0.00    -0.237 OA
ATOM    110  O   UNL A   1      47.717  33.909  25.678  1.00  0.00    -0.744 OA
ENDBRANCH 104 107
ENDBRANCH  77 100
ENDBRANCH  51  52
ENDBRANCH  43  46
ENDBRANCH  41  42
ENDBRANCH  40  41
ENDBRANCH   1  40
TORSDOF 20
ENDMDL
