MODEL 1
REMARK VINA RESULT:     -12.5      0.000      0.000
REMARK SMILES CCn1c(N2CCC(C(=O)NCCCCNC(=O)c3ccc(-c4c5nc(c(-c6cccc(S(=O)(=O)[O-])c6F)c6ccc([nH]6)c(-c6cccc(S(=O)(=O)[O-])c6F)c6nc(c(-c7cccc(S(=O)(=O)[O-])c7F)c7ccc4[nH]7)C=C6)C=C5)cc3)CC2)nc2cc(C)ccc21
REMARK SMILES IDX 14 1 13 2 12 3 11 4 9 5 10 6 8 8 5 9 6 10 83 11 7 12 82 13
REMARK SMILES IDX 4 14 3 15 91 16 84 17 85 18 90 19 86 20 89 21 87 22 88 23
REMARK SMILES IDX 2 24 1 25 15 26 16 27 17 28 18 30 19 31 20 32 81 33 21 34
REMARK SMILES IDX 80 35 22 36 23 37 24 38 74 39 25 40 79 41 73 42 75 43 26 44
REMARK SMILES IDX 78 45 72 46 71 47 27 49 59 50 39 51 58 52 40 53 43 54 57 55
REMARK SMILES IDX 76 56 41 57 42 58 56 60 77 61 44 62 28 63 29 64 37 65 30 66
REMARK SMILES IDX 32 67 38 68 31 69 33 70 34 71 35 72 36 73 60 74 61 75 69 76
REMARK SMILES IDX 62 77 64 78 70 79 63 80 65 81 66 82 67 83 68 84 45 85 46 86
REMARK SMILES IDX 54 87 47 88 49 89 55 90 48 91 50 92 51 93 52 94 53 95
REMARK H PARENT 11 7 16 29 75 48 43 59
REMARK Flexibility Score: inf
ROOT
ATOM      1  C   UNL A   1      32.653  29.756  27.055  1.00  0.00     0.023 C 
ENDROOT
BRANCH   1   2
ATOM      2  C   UNL A   1      32.526  28.662  25.989  1.00  0.00     0.023 C 
BRANCH   2   3
ATOM      3  C   UNL A   1      32.493  29.169  24.552  1.00  0.00     0.116 C 
BRANCH   3   4
ATOM      4  N   UNL A   1      31.176  29.661  24.174  1.00  0.00    -0.356 N 
ATOM      5  C   UNL A   1      30.141  29.031  23.555  1.00  0.00     0.223 C 
ATOM      6  O   UNL A   1      29.092  29.660  23.391  1.00  0.00    -0.275 OA
ATOM      7  H   UNL A   1      31.007  30.603  24.403  1.00  0.00     0.163 HD
BRANCH   5   8
ATOM      8  C   UNL A   1      30.240  27.581  23.107  1.00  0.00     0.082 C 
ATOM      9  N   UNL A   1      31.655  25.092  23.171  1.00  0.00    -0.342 N 
ATOM     10  C   UNL A   1      31.715  25.866  21.938  1.00  0.00     0.120 C 
ATOM     11  C   UNL A   1      30.435  25.192  23.955  1.00  0.00     0.120 C 
ATOM     12  C   UNL A   1      31.445  27.341  22.189  1.00  0.00     0.035 C 
ATOM     13  C   UNL A   1      30.130  26.638  24.310  1.00  0.00     0.035 C 
BRANCH   9  14
ATOM     14  C   UNL A   1      32.804  24.607  23.711  1.00  0.00     0.206 A 
ATOM     15  N   UNL A   1      33.273  23.335  23.399  1.00  0.00    -0.310 N 
ATOM     16  C   UNL A   1      34.477  23.158  24.051  1.00  0.00     0.070 A 
ATOM     17  N   UNL A   1      33.666  25.258  24.454  1.00  0.00    -0.213 NA
ATOM     18  C   UNL A   1      34.694  24.380  24.692  1.00  0.00     0.091 A 
ATOM     19  C   UNL A   1      35.407  22.112  24.145  1.00  0.00     0.029 A 
ATOM     20  C   UNL A   1      35.868  24.571  25.446  1.00  0.00     0.034 A 
ATOM     21  C   UNL A   1      36.571  22.322  24.895  1.00  0.00     0.006 A 
ATOM     22  C   UNL A   1      36.814  23.535  25.541  1.00  0.00    -0.049 A 
ATOM     23  C   UNL A   1      38.073  23.737  26.337  1.00  0.00     0.044 C 
BRANCH  15  24
ATOM     24  C   UNL A   1      32.619  22.486  22.421  1.00  0.00     0.122 C 
ATOM     25  C   UNL A   1      32.130  21.107  22.823  1.00  0.00     0.028 C 
ENDBRANCH  15  24
ENDBRANCH   9  14
ENDBRANCH   5   8
ENDBRANCH   3   4
ENDBRANCH   2   3
ENDBRANCH   1   2
BRANCH   1  26
ATOM     26  C   UNL A   1      34.068  30.307  27.252  1.00  0.00     0.116 C 
BRANCH  26  27
ATOM     27  N   UNL A   1      34.149  31.365  28.238  1.00  0.00    -0.352 N 
ATOM     28  C   UNL A   1      35.100  31.789  29.124  1.00  0.00     0.251 C 
ATOM     29  H   UNL A   1      33.326  31.903  28.282  1.00  0.00     0.163 HD
ATOM     30  O   UNL A   1      34.835  32.830  29.732  1.00  0.00    -0.269 OA
BRANCH  28  31
ATOM     31  C   UNL A   1      36.380  31.086  29.420  1.00  0.00     0.039 A 
ATOM     32  C   UNL A   1      37.655  31.597  29.182  1.00  0.00     0.014 A 
ATOM     33  C   UNL A   1      36.271  29.778  29.931  1.00  0.00     0.014 A 
ATOM     34  C   UNL A   1      38.783  30.809  29.388  1.00  0.00     0.010 A 
ATOM     35  C   UNL A   1      37.399  28.988  30.152  1.00  0.00     0.010 A 
ATOM     36  C   UNL A   1      38.657  29.495  29.846  1.00  0.00    -0.014 A 
BRANCH  36  37
ATOM     37  C   UNL A   1      39.887  28.725  30.003  1.00  0.00     0.031 A 
ATOM     38  C   UNL A   1      40.487  28.702  31.368  1.00  0.00     0.074 A 
ATOM     39  C   UNL A   1      40.474  28.027  29.012  1.00  0.00     0.049 A 
ATOM     40  N   UNL A   1      41.596  29.245  31.759  1.00  0.00    -0.248 NA
ATOM     41  C   UNL A   1      39.723  28.053  32.440  1.00  0.00     0.031 C 
ATOM     42  C   UNL A   1      39.935  27.675  27.698  1.00  0.00     0.029 A 
ATOM     43  N   UNL A   1      41.679  27.388  29.038  1.00  0.00    -0.354 N 
ATOM     44  C   UNL A   1      41.765  28.858  33.088  1.00  0.00     0.074 A 
ATOM     45  C   UNL A   1      40.535  28.218  33.486  1.00  0.00     0.031 C 
ATOM     46  C   UNL A   1      40.698  26.697  27.157  1.00  0.00     0.029 A 
ATOM     47  C   UNL A   1      41.849  26.470  28.012  1.00  0.00     0.049 A 
ATOM     48  H   UNL A   1      42.364  27.561  29.723  1.00  0.00     0.167 HD
ATOM     49  C   UNL A   1      42.962  28.940  33.733  1.00  0.00     0.034 A 
ATOM     50  C   UNL A   1      42.837  25.548  27.928  1.00  0.00     0.034 A 
ATOM     51  C   UNL A   1      43.924  29.729  33.018  1.00  0.00     0.049 A 
ATOM     52  C   UNL A   1      43.964  26.037  28.756  1.00  0.00     0.074 A 
ATOM     53  C   UNL A   1      44.026  31.045  32.619  1.00  0.00     0.029 A 
ATOM     54  N   UNL A   1      44.898  29.048  32.333  1.00  0.00    -0.354 N 
ATOM     55  N   UNL A   1      44.678  27.091  28.474  1.00  0.00    -0.248 NA
ATOM     56  C   UNL A   1      44.109  25.527  30.110  1.00  0.00     0.031 C 
ATOM     57  C   UNL A   1      44.739  31.002  31.385  1.00  0.00     0.029 A 
ATOM     58  C   UNL A   1      45.030  29.662  31.117  1.00  0.00     0.049 A 
ATOM     59  H   UNL A   1      45.405  28.268  32.654  1.00  0.00     0.167 HD
ATOM     60  C   UNL A   1      45.035  27.614  29.709  1.00  0.00     0.074 A 
ATOM     61  C   UNL A   1      44.772  26.545  30.664  1.00  0.00     0.031 C 
ATOM     62  C   UNL A   1      45.243  28.953  29.874  1.00  0.00     0.034 A 
BRANCH  49  63
ATOM     63  C   UNL A   1      43.394  28.072  34.885  1.00  0.00     0.023 A 
ATOM     64  C   UNL A   1      43.893  28.707  36.044  1.00  0.00     0.012 A 
ATOM     65  C   UNL A   1      43.590  26.678  34.775  1.00  0.00     0.148 A 
ATOM     66  C   UNL A   1      44.577  27.995  37.035  1.00  0.00     0.002 A 
ATOM     67  C   UNL A   1      44.212  25.965  35.795  1.00  0.00     0.091 A 
ATOM     68  F   UNL A   1      43.293  26.058  33.627  1.00  0.00    -0.205 F 
ATOM     69  C   UNL A   1      44.728  26.619  36.915  1.00  0.00     0.022 A 
BRANCH  67  70
ATOM     70  S   UNL A   1      44.390  24.180  35.700  1.00  0.00     0.127 S 
ATOM     71  O   UNL A   1      43.004  23.762  35.466  1.00  0.00    -0.237 OA
ATOM     72  O   UNL A   1      45.280  24.025  34.544  1.00  0.00    -0.237 OA
ATOM     73  O   UNL A   1      44.980  23.789  36.963  1.00  0.00    -0.744 OA
ENDBRANCH  67  70
ENDBRANCH  49  63
BRANCH  50  74
ATOM     74  C   UNL A   1      42.808  24.170  27.382  1.00  0.00     0.023 A 
ATOM     75  C   UNL A   1      41.612  23.426  27.468  1.00  0.00     0.012 A 
ATOM     76  C   UNL A   1      43.827  23.691  26.529  1.00  0.00     0.148 A 
ATOM     77  C   UNL A   1      41.415  22.280  26.688  1.00  0.00     0.002 A 
ATOM     78  C   UNL A   1      43.631  22.541  25.768  1.00  0.00     0.091 A 
ATOM     79  F   UNL A   1      44.946  24.410  26.380  1.00  0.00    -0.205 F 
ATOM     80  C   UNL A   1      42.420  21.843  25.831  1.00  0.00     0.022 A 
BRANCH  78  81
ATOM     81  S   UNL A   1      44.892  21.929  24.642  1.00  0.00     0.127 S 
ATOM     82  O   UNL A   1      46.066  21.831  25.512  1.00  0.00    -0.237 OA
ATOM     83  O   UNL A   1      44.332  20.648  24.224  1.00  0.00    -0.237 OA
ATOM     84  O   UNL A   1      45.011  22.944  23.602  1.00  0.00    -0.744 OA
ENDBRANCH  78  81
ENDBRANCH  50  74
BRANCH  62  85
ATOM     85  C   UNL A   1      45.374  29.813  28.646  1.00  0.00     0.023 A 
ATOM     86  C   UNL A   1      44.241  30.253  27.933  1.00  0.00     0.012 A 
ATOM     87  C   UNL A   1      46.634  30.355  28.336  1.00  0.00     0.148 A 
ATOM     88  C   UNL A   1      44.362  31.209  26.921  1.00  0.00     0.002 A 
ATOM     89  C   UNL A   1      46.745  31.333  27.356  1.00  0.00     0.091 A 
ATOM     90  F   UNL A   1      47.694  29.935  29.042  1.00  0.00    -0.205 F 
ATOM     91  C   UNL A   1      45.612  31.758  26.642  1.00  0.00     0.022 A 
BRANCH  89  92
ATOM     92  S   UNL A   1      48.294  32.179  27.024  1.00  0.00     0.127 S 
ATOM     93  O   UNL A   1      47.899  33.152  26.009  1.00  0.00    -0.237 OA
ATOM     94  O   UNL A   1      48.618  32.754  28.331  1.00  0.00    -0.237 OA
ATOM     95  O   UNL A   1      49.227  31.155  26.572  1.00  0.00    -0.744 OA
ENDBRANCH  89  92
ENDBRANCH  62  85
ENDBRANCH  36  37
ENDBRANCH  28  31
ENDBRANCH  26  27
ENDBRANCH   1  26
TORSDOF 16
ENDMDL
MODEL 2
REMARK VINA RESULT:     -12.5      3.114      8.910
REMARK SMILES CCn1c(N2CCC(C(=O)NCCCCNC(=O)c3ccc(-c4c5nc(c(-c6cccc(S(=O)(=O)[O-])c6F)c6ccc([nH]6)c(-c6cccc(S(=O)(=O)[O-])c6F)c6nc(c(-c7cccc(S(=O)(=O)[O-])c7F)c7ccc4[nH]7)C=C6)C=C5)cc3)CC2)nc2cc(C)ccc21
REMARK SMILES IDX 14 1 13 2 12 3 11 4 9 5 10 6 8 8 5 9 6 10 83 11 7 12 82 13
REMARK SMILES IDX 4 14 3 15 91 16 84 17 85 18 90 19 86 20 89 21 87 22 88 23
REMARK SMILES IDX 2 24 1 25 15 26 16 27 17 28 18 30 19 31 20 32 81 33 21 34
REMARK SMILES IDX 80 35 22 36 23 37 24 38 74 39 25 40 79 41 73 42 75 43 26 44
REMARK SMILES IDX 78 45 72 46 71 47 27 49 59 50 39 51 58 52 40 53 43 54 57 55
REMARK SMILES IDX 76 56 41 57 42 58 56 60 77 61 44 62 28 63 29 64 37 65 30 66
REMARK SMILES IDX 32 67 38 68 31 69 33 70 34 71 35 72 36 73 60 74 61 75 69 76
REMARK SMILES IDX 62 77 64 78 70 79 63 80 65 81 66 82 67 83 68 84 45 85 46 86
REMARK SMILES IDX 54 87 47 88 49 89 55 90 48 91 50 92 51 93 52 94 53 95
REMARK H PARENT 11 7 16 29 75 48 43 59
REMARK Flexibility Score: inf
ROOT
ATOM      1  C   UNL A   1      36.195  21.510  25.493  1.00  0.00     0.023 C 
ENDROOT
BRANCH   1   2
ATOM      2  C   UNL A   1      35.448  22.424  26.470  1.00  0.00     0.023 C 
BRANCH   2   3
ATOM      3  C   UNL A   1      34.157  21.842  27.034  1.00  0.00     0.116 C 
BRANCH   3   4
ATOM      4  N   UNL A   1      33.825  20.560  26.431  1.00  0.00    -0.356 N 
ATOM      5  C   UNL A   1      32.968  20.253  25.419  1.00  0.00     0.223 C 
ATOM      6  O   UNL A   1      32.901  19.078  25.049  1.00  0.00    -0.275 OA
ATOM      7  H   UNL A   1      34.296  19.787  26.819  1.00  0.00     0.163 HD
BRANCH   5   8
ATOM      8  C   UNL A   1      32.137  21.321  24.724  1.00  0.00     0.082 C 
ATOM      9  N   UNL A   1      31.646  24.097  24.222  1.00  0.00    -0.342 N 
ATOM     10  C   UNL A   1      30.703  23.394  25.081  1.00  0.00     0.120 C 
ATOM     11  C   UNL A   1      32.280  23.325  23.166  1.00  0.00     0.120 C 
ATOM     12  C   UNL A   1      31.334  22.166  25.720  1.00  0.00     0.035 C 
ATOM     13  C   UNL A   1      32.998  22.111  23.732  1.00  0.00     0.035 C 
BRANCH   9  14
ATOM     14  C   UNL A   1      32.152  25.292  24.625  1.00  0.00     0.206 A 
ATOM     15  N   UNL A   1      31.636  26.496  24.156  1.00  0.00    -0.310 N 
ATOM     16  C   UNL A   1      32.313  27.520  24.787  1.00  0.00     0.070 A 
ATOM     17  N   UNL A   1      33.055  25.497  25.555  1.00  0.00    -0.213 NA
ATOM     18  C   UNL A   1      33.184  26.860  25.658  1.00  0.00     0.091 A 
ATOM     19  C   UNL A   1      32.264  28.921  24.731  1.00  0.00     0.029 A 
ATOM     20  C   UNL A   1      34.029  27.610  26.498  1.00  0.00     0.034 A 
ATOM     21  C   UNL A   1      33.107  29.650  25.579  1.00  0.00     0.006 A 
ATOM     22  C   UNL A   1      33.984  29.015  26.460  1.00  0.00    -0.049 A 
ATOM     23  C   UNL A   1      34.877  29.821  27.361  1.00  0.00     0.044 C 
BRANCH  15  24
ATOM     24  C   UNL A   1      30.479  26.554  23.283  1.00  0.00     0.122 C 
ATOM     25  C   UNL A   1      29.091  26.700  23.878  1.00  0.00     0.028 C 
ENDBRANCH  15  24
ENDBRANCH   9  14
ENDBRANCH   5   8
ENDBRANCH   3   4
ENDBRANCH   2   3
ENDBRANCH   1   2
BRANCH   1  26
ATOM     26  C   UNL A   1      37.543  22.047  25.006  1.00  0.00     0.116 C 
BRANCH  26  27
ATOM     27  N   UNL A   1      38.684  21.373  25.592  1.00  0.00    -0.352 N 
ATOM     28  C   UNL A   1      39.645  21.715  26.501  1.00  0.00     0.251 C 
ATOM     29  H   UNL A   1      38.793  20.455  25.255  1.00  0.00     0.163 HD
ATOM     30  O   UNL A   1      40.402  20.802  26.845  1.00  0.00    -0.269 OA
BRANCH  28  31
ATOM     31  C   UNL A   1      39.856  23.078  27.066  1.00  0.00     0.039 A 
ATOM     32  C   UNL A   1      39.037  24.182  26.838  1.00  0.00     0.014 A 
ATOM     33  C   UNL A   1      41.014  23.257  27.849  1.00  0.00     0.014 A 
ATOM     34  C   UNL A   1      39.390  25.437  27.321  1.00  0.00     0.010 A 
ATOM     35  C   UNL A   1      41.366  24.511  28.346  1.00  0.00     0.010 A 
ATOM     36  C   UNL A   1      40.569  25.611  28.051  1.00  0.00    -0.014 A 
BRANCH  36  37
ATOM     37  C   UNL A   1      40.884  26.967  28.491  1.00  0.00     0.031 A 
ATOM     38  C   UNL A   1      42.171  27.541  28.004  1.00  0.00     0.074 A 
ATOM     39  C   UNL A   1      40.079  27.716  29.269  1.00  0.00     0.049 A 
ATOM     40  N   UNL A   1      43.233  27.814  28.694  1.00  0.00    -0.248 NA
ATOM     41  C   UNL A   1      42.312  27.776  26.562  1.00  0.00     0.031 C 
ATOM     42  C   UNL A   1      38.679  27.483  29.626  1.00  0.00     0.029 A 
ATOM     43  N   UNL A   1      40.347  28.932  29.825  1.00  0.00    -0.354 N 
ATOM     44  C   UNL A   1      44.121  28.423  27.807  1.00  0.00     0.074 A 
ATOM     45  C   UNL A   1      43.547  28.277  26.492  1.00  0.00     0.031 C 
ATOM     46  C   UNL A   1      38.157  28.627  30.128  1.00  0.00     0.029 A 
ATOM     47  C   UNL A   1      39.218  29.608  30.264  1.00  0.00     0.049 A 
ATOM     48  H   UNL A   1      41.257  29.297  29.905  1.00  0.00     0.167 HD
ATOM     49  C   UNL A   1      45.192  29.153  28.223  1.00  0.00     0.034 A 
ATOM     50  C   UNL A   1      39.168  30.907  30.642  1.00  0.00     0.034 A 
ATOM     51  C   UNL A   1      45.476  28.976  29.619  1.00  0.00     0.049 A 
ATOM     52  C   UNL A   1      40.541  31.300  31.042  1.00  0.00     0.074 A 
ATOM     53  C   UNL A   1      45.854  27.924  30.427  1.00  0.00     0.029 A 
ATOM     54  N   UNL A   1      45.086  29.983  30.464  1.00  0.00    -0.354 N 
ATOM     55  N   UNL A   1      41.160  30.832  32.089  1.00  0.00    -0.248 NA
ATOM     56  C   UNL A   1      41.376  31.997  30.079  1.00  0.00     0.031 C 
ATOM     57  C   UNL A   1      45.236  28.187  31.685  1.00  0.00     0.029 A 
ATOM     58  C   UNL A   1      44.530  29.385  31.562  1.00  0.00     0.049 A 
ATOM     59  H   UNL A   1      45.187  30.950  30.311  1.00  0.00     0.167 HD
ATOM     60  C   UNL A   1      42.499  30.810  31.724  1.00  0.00     0.074 A 
ATOM     61  C   UNL A   1      42.582  31.655  30.538  1.00  0.00     0.031 C 
ATOM     62  C   UNL A   1      43.358  29.887  32.247  1.00  0.00     0.034 A 
BRANCH  49  63
ATOM     63  C   UNL A   1      45.839  30.272  27.450  1.00  0.00     0.023 A 
ATOM     64  C   UNL A   1      47.243  30.409  27.530  1.00  0.00     0.012 A 
ATOM     65  C   UNL A   1      45.114  31.345  26.887  1.00  0.00     0.148 A 
ATOM     66  C   UNL A   1      47.893  31.568  27.092  1.00  0.00     0.002 A 
ATOM     67  C   UNL A   1      45.773  32.467  26.392  1.00  0.00     0.091 A 
ATOM     68  F   UNL A   1      43.778  31.342  26.946  1.00  0.00    -0.205 F 
ATOM     69  C   UNL A   1      47.158  32.594  26.513  1.00  0.00     0.022 A 
BRANCH  67  70
ATOM     70  S   UNL A   1      44.865  33.798  25.598  1.00  0.00     0.127 S 
ATOM     71  O   UNL A   1      45.958  34.629  25.086  1.00  0.00    -0.237 OA
ATOM     72  O   UNL A   1      44.109  33.077  24.568  1.00  0.00    -0.237 OA
ATOM     73  O   UNL A   1      44.046  34.376  26.643  1.00  0.00    -0.744 OA
ENDBRANCH  67  70
ENDBRANCH  49  63
BRANCH  50  74
ATOM     74  C   UNL A   1      38.087  31.908  30.470  1.00  0.00     0.023 A 
ATOM     75  C   UNL A   1      37.550  32.118  29.183  1.00  0.00     0.012 A 
ATOM     76  C   UNL A   1      37.385  32.435  31.576  1.00  0.00     0.148 A 
ATOM     77  C   UNL A   1      36.328  32.777  29.008  1.00  0.00     0.002 A 
ATOM     78  C   UNL A   1      36.177  33.104  31.394  1.00  0.00     0.091 A 
ATOM     79  F   UNL A   1      37.839  32.196  32.813  1.00  0.00    -0.205 F 
ATOM     80  C   UNL A   1      35.636  33.262  30.113  1.00  0.00     0.022 A 
BRANCH  78  81
ATOM     81  S   UNL A   1      35.237  33.750  32.784  1.00  0.00     0.127 S 
ATOM     82  O   UNL A   1      33.884  33.835  32.233  1.00  0.00    -0.237 OA
ATOM     83  O   UNL A   1      35.424  32.708  33.789  1.00  0.00    -0.237 OA
ATOM     84  O   UNL A   1      35.834  35.045  33.089  1.00  0.00    -0.744 OA
ENDBRANCH  78  81
ENDBRANCH  50  74
BRANCH  62  85
ATOM     85  C   UNL A   1      42.910  29.091  33.443  1.00  0.00     0.023 A 
ATOM     86  C   UNL A   1      41.952  28.064  33.324  1.00  0.00     0.012 A 
ATOM     87  C   UNL A   1      43.616  29.236  34.650  1.00  0.00     0.148 A 
ATOM     88  C   UNL A   1      41.693  27.204  34.395  1.00  0.00     0.002 A 
ATOM     89  C   UNL A   1      43.384  28.355  35.698  1.00  0.00     0.091 A 
ATOM     90  F   UNL A   1      44.537  30.208  34.731  1.00  0.00    -0.205 F 
ATOM     91  C   UNL A   1      42.419  27.340  35.576  1.00  0.00     0.022 A 
BRANCH  89  92
ATOM     92  S   UNL A   1      44.362  28.385  37.204  1.00  0.00     0.127 S 
ATOM     93  O   UNL A   1      43.791  27.274  37.962  1.00  0.00    -0.237 OA
ATOM     94  O   UNL A   1      45.715  28.150  36.698  1.00  0.00    -0.237 OA
ATOM     95  O   UNL A   1      44.162  29.703  37.792  1.00  0.00    -0.744 OA
ENDBRANCH  89  92
ENDBRANCH  62  85
ENDBRANCH  36  37
ENDBRANCH  28  31
ENDBRANCH  26  27
ENDBRANCH   1  26
TORSDOF 16
ENDMDL
MODEL 3
REMARK VINA RESULT:     -12.2      4.165      6.736
REMARK SMILES CCn1c(N2CCC(C(=O)NCCCCNC(=O)c3ccc(-c4c5nc(c(-c6cccc(S(=O)(=O)[O-])c6F)c6ccc([nH]6)c(-c6cccc(S(=O)(=O)[O-])c6F)c6nc(c(-c7cccc(S(=O)(=O)[O-])c7F)c7ccc4[nH]7)C=C6)C=C5)cc3)CC2)nc2cc(C)ccc21
REMARK SMILES IDX 14 1 13 2 12 3 11 4 9 5 10 6 8 8 5 9 6 10 83 11 7 12 82 13
REMARK SMILES IDX 4 14 3 15 91 16 84 17 85 18 90 19 86 20 89 21 87 22 88 23
REMARK SMILES IDX 2 24 1 25 15 26 16 27 17 28 18 30 19 31 20 32 81 33 21 34
REMARK SMILES IDX 80 35 22 36 23 37 24 38 74 39 25 40 79 41 73 42 75 43 26 44
REMARK SMILES IDX 78 45 72 46 71 47 27 49 59 50 39 51 58 52 40 53 43 54 57 55
REMARK SMILES IDX 76 56 41 57 42 58 56 60 77 61 44 62 28 63 29 64 37 65 30 66
REMARK SMILES IDX 32 67 38 68 31 69 33 70 34 71 35 72 36 73 60 74 61 75 69 76
REMARK SMILES IDX 62 77 64 78 70 79 63 80 65 81 66 82 67 83 68 84 45 85 46 86
REMARK SMILES IDX 54 87 47 88 49 89 55 90 48 91 50 92 51 93 52 94 53 95
REMARK H PARENT 11 7 16 29 75 48 43 59
REMARK Flexibility Score: inf
ROOT
ATOM      1  C   UNL A   1      34.618  35.731  27.989  1.00  0.00     0.023 C 
ENDROOT
BRANCH   1   2
ATOM      2  C   UNL A   1      33.605  36.470  28.870  1.00  0.00     0.023 C 
BRANCH   2   3
ATOM      3  C   UNL A   1      32.822  35.581  29.829  1.00  0.00     0.116 C 
BRANCH   3   4
ATOM      4  N   UNL A   1      32.356  36.312  30.998  1.00  0.00    -0.356 N 
ATOM      5  C   UNL A   1      32.633  36.137  32.319  1.00  0.00     0.223 C 
ATOM      6  O   UNL A   1      32.147  36.935  33.126  1.00  0.00    -0.275 OA
ATOM      7  H   UNL A   1      31.739  37.054  30.802  1.00  0.00     0.163 HD
BRANCH   5   8
ATOM      8  C   UNL A   1      33.545  35.021  32.803  1.00  0.00     0.082 C 
ATOM      9  N   UNL A   1      36.113  33.756  32.733  1.00  0.00    -0.342 N 
ATOM     10  C   UNL A   1      35.011  33.072  32.071  1.00  0.00     0.120 C 
ATOM     11  C   UNL A   1      35.788  34.551  33.905  1.00  0.00     0.120 C 
ATOM     12  C   UNL A   1      33.904  34.040  31.681  1.00  0.00     0.035 C 
ATOM     13  C   UNL A   1      34.735  35.597  33.581  1.00  0.00     0.035 C 
BRANCH   9  14
ATOM     14  C   UNL A   1      37.291  33.917  32.074  1.00  0.00     0.206 A 
ATOM     15  N   UNL A   1      38.331  33.003  32.211  1.00  0.00    -0.310 N 
ATOM     16  C   UNL A   1      39.357  33.405  31.380  1.00  0.00     0.070 A 
ATOM     17  N   UNL A   1      37.573  34.819  31.165  1.00  0.00    -0.213 NA
ATOM     18  C   UNL A   1      38.847  34.536  30.738  1.00  0.00     0.091 A 
ATOM     19  C   UNL A   1      40.642  32.922  31.090  1.00  0.00     0.029 A 
ATOM     20  C   UNL A   1      39.631  35.206  29.780  1.00  0.00     0.034 A 
ATOM     21  C   UNL A   1      41.406  33.598  30.130  1.00  0.00     0.006 A 
ATOM     22  C   UNL A   1      40.917  34.728  29.471  1.00  0.00    -0.049 A 
ATOM     23  C   UNL A   1      41.755  35.434  28.443  1.00  0.00     0.044 C 
BRANCH  15  24
ATOM     24  C   UNL A   1      38.195  31.786  32.989  1.00  0.00     0.122 C 
ATOM     25  C   UNL A   1      38.957  31.634  34.292  1.00  0.00     0.028 C 
ENDBRANCH  15  24
ENDBRANCH   9  14
ENDBRANCH   5   8
ENDBRANCH   3   4
ENDBRANCH   2   3
ENDBRANCH   1   2
BRANCH   1  26
ATOM     26  C   UNL A   1      35.107  34.393  28.550  1.00  0.00     0.116 C 
BRANCH  26  27
ATOM     27  N   UNL A   1      34.417  33.245  27.999  1.00  0.00    -0.352 N 
ATOM     28  C   UNL A   1      34.667  31.901  27.948  1.00  0.00     0.251 C 
ATOM     29  H   UNL A   1      33.572  33.488  27.558  1.00  0.00     0.163 HD
ATOM     30  O   UNL A   1      33.757  31.208  27.483  1.00  0.00    -0.269 OA
BRANCH  28  31
ATOM     31  C   UNL A   1      35.933  31.240  28.372  1.00  0.00     0.039 A 
ATOM     32  C   UNL A   1      37.093  31.900  28.774  1.00  0.00     0.014 A 
ATOM     33  C   UNL A   1      35.957  29.833  28.301  1.00  0.00     0.014 A 
ATOM     34  C   UNL A   1      38.257  31.187  29.039  1.00  0.00     0.010 A 
ATOM     35  C   UNL A   1      37.118  29.112  28.578  1.00  0.00     0.010 A 
ATOM     36  C   UNL A   1      38.281  29.795  28.914  1.00  0.00    -0.014 A 
BRANCH  36  37
ATOM     37  C   UNL A   1      39.552  29.126  29.176  1.00  0.00     0.031 A 
ATOM     38  C   UNL A   1      39.856  28.814  30.602  1.00  0.00     0.074 A 
ATOM     39  C   UNL A   1      40.424  28.758  28.219  1.00  0.00     0.049 A 
ATOM     40  N   UNL A   1      40.771  29.339  31.353  1.00  0.00    -0.248 NA
ATOM     41  C   UNL A   1      38.992  27.848  31.290  1.00  0.00     0.031 C 
ATOM     42  C   UNL A   1      40.222  28.702  26.770  1.00  0.00     0.029 A 
ATOM     43  N   UNL A   1      41.678  28.246  28.380  1.00  0.00    -0.354 N 
ATOM     44  C   UNL A   1      40.720  28.646  32.563  1.00  0.00     0.074 A 
ATOM     45  C   UNL A   1      39.541  27.817  32.506  1.00  0.00     0.031 C 
ATOM     46  C   UNL A   1      41.213  27.966  26.216  1.00  0.00     0.029 A 
ATOM     47  C   UNL A   1      42.186  27.636  27.242  1.00  0.00     0.049 A 
ATOM     48  H   UNL A   1      42.176  28.302  29.227  1.00  0.00     0.167 HD
ATOM     49  C   UNL A   1      41.734  28.671  33.470  1.00  0.00     0.034 A 
ATOM     50  C   UNL A   1      43.293  26.860  27.185  1.00  0.00     0.034 A 
ATOM     51  C   UNL A   1      42.697  29.699  33.197  1.00  0.00     0.049 A 
ATOM     52  C   UNL A   1      44.144  27.224  28.342  1.00  0.00     0.074 A 
ATOM     53  C   UNL A   1      42.686  31.077  33.141  1.00  0.00     0.029 A 
ATOM     54  N   UNL A   1      43.879  29.306  32.623  1.00  0.00    -0.354 N 
ATOM     55  N   UNL A   1      44.740  28.375  28.480  1.00  0.00    -0.248 NA
ATOM     56  C   UNL A   1      44.082  26.404  29.541  1.00  0.00     0.031 C 
ATOM     57  C   UNL A   1      43.635  31.412  32.131  1.00  0.00     0.029 A 
ATOM     58  C   UNL A   1      44.166  30.217  31.643  1.00  0.00     0.049 A 
ATOM     59  H   UNL A   1      44.418  28.520  32.869  1.00  0.00     0.167 HD
ATOM     60  C   UNL A   1      44.757  28.600  29.849  1.00  0.00     0.074 A 
ATOM     61  C   UNL A   1      44.462  27.305  30.450  1.00  0.00     0.031 C 
ATOM     62  C   UNL A   1      44.730  29.867  30.357  1.00  0.00     0.034 A 
BRANCH  49  63
ATOM     63  C   UNL A   1      42.043  27.583  34.465  1.00  0.00     0.023 A 
ATOM     64  C   UNL A   1      41.793  27.842  35.831  1.00  0.00     0.012 A 
ATOM     65  C   UNL A   1      42.816  26.444  34.153  1.00  0.00     0.148 A 
ATOM     66  C   UNL A   1      42.307  27.021  36.840  1.00  0.00     0.002 A 
ATOM     67  C   UNL A   1      43.268  25.594  35.157  1.00  0.00     0.091 A 
ATOM     68  F   UNL A   1      43.226  26.249  32.894  1.00  0.00    -0.205 F 
ATOM     69  C   UNL A   1      43.038  25.889  36.502  1.00  0.00     0.022 A 
BRANCH  67  70
ATOM     70  S   UNL A   1      44.180  24.097  34.762  1.00  0.00     0.127 S 
ATOM     71  O   UNL A   1      45.362  24.647  34.090  1.00  0.00    -0.237 OA
ATOM     72  O   UNL A   1      44.438  23.539  36.094  1.00  0.00    -0.237 OA
ATOM     73  O   UNL A   1      43.280  23.307  33.949  1.00  0.00    -0.744 OA
ENDBRANCH  67  70
ENDBRANCH  49  63
BRANCH  50  74
ATOM     74  C   UNL A   1      43.577  25.667  26.350  1.00  0.00     0.023 A 
ATOM     75  C   UNL A   1      44.758  25.641  25.578  1.00  0.00     0.012 A 
ATOM     76  C   UNL A   1      42.872  24.457  26.525  1.00  0.00     0.148 A 
ATOM     77  C   UNL A   1      45.249  24.441  25.049  1.00  0.00     0.002 A 
ATOM     78  C   UNL A   1      43.358  23.269  25.983  1.00  0.00     0.091 A 
ATOM     79  F   UNL A   1      41.784  24.441  27.305  1.00  0.00    -0.205 F 
ATOM     80  C   UNL A   1      44.556  23.254  25.260  1.00  0.00     0.022 A 
BRANCH  78  81
ATOM     81  S   UNL A   1      42.506  21.704  26.224  1.00  0.00     0.127 S 
ATOM     82  O   UNL A   1      43.255  20.804  25.345  1.00  0.00    -0.237 OA
ATOM     83  O   UNL A   1      42.699  21.467  27.651  1.00  0.00    -0.237 OA
ATOM     84  O   UNL A   1      41.132  21.940  25.795  1.00  0.00    -0.744 OA
ENDBRANCH  78  81
ENDBRANCH  50  74
BRANCH  62  85
ATOM     85  C   UNL A   1      44.983  31.017  29.420  1.00  0.00     0.023 A 
ATOM     86  C   UNL A   1      43.962  31.532  28.596  1.00  0.00     0.012 A 
ATOM     87  C   UNL A   1      46.196  31.719  29.530  1.00  0.00     0.148 A 
ATOM     88  C   UNL A   1      44.151  32.720  27.885  1.00  0.00     0.002 A 
ATOM     89  C   UNL A   1      46.366  32.920  28.852  1.00  0.00     0.091 A 
ATOM     90  F   UNL A   1      47.144  31.221  30.337  1.00  0.00    -0.205 F 
ATOM     91  C   UNL A   1      45.347  33.420  28.023  1.00  0.00     0.022 A 
BRANCH  89  92
ATOM     92  S   UNL A   1      47.824  33.943  29.075  1.00  0.00     0.127 S 
ATOM     93  O   UNL A   1      47.561  35.054  28.163  1.00  0.00    -0.237 OA
ATOM     94  O   UNL A   1      47.748  34.285  30.496  1.00  0.00    -0.237 OA
ATOM     95  O   UNL A   1      48.965  33.107  28.720  1.00  0.00    -0.744 OA
ENDBRANCH  89  92
ENDBRANCH  62  85
ENDBRANCH  36  37
ENDBRANCH  28  31
ENDBRANCH  26  27
ENDBRANCH   1  26
TORSDOF 16
ENDMDL
