MODEL 1
REMARK VINA RESULT:     -12.0      0.000      0.000
REMARK SMILES CC(C)n1c(CCC(=O)NCCCCNC(=O)c2ccc(-c3c4nc(c(-c5cccc(S(=O)(=O)[O-])c5F)c5ccc([nH]5)c(-c5cccc(S(=O)(=O)[O-])c5F)c5nc(c(-c6cccc(S(=O)(=O)[O-])c6F)c6ccc3[nH]6)C=C5)C=C4)cc2)ccc1-c1ccc(F)cc1
REMARK SMILES IDX 12 1 11 2 10 3 8 4 9 5 7 7 6 8 5 9 4 10 83 11 81 12 82 13
REMARK SMILES IDX 2 14 1 15 3 16 84 17 85 18 90 19 86 20 89 21 87 22 88 23
REMARK SMILES IDX 13 24 14 25 15 26 16 27 17 29 18 30 19 31 80 32 20 33 79 34
REMARK SMILES IDX 21 35 22 36 23 37 73 38 24 39 78 40 72 41 74 42 25 43 77 44
REMARK SMILES IDX 71 45 70 46 26 48 58 49 38 50 57 51 39 52 42 53 56 54 75 55
REMARK SMILES IDX 40 56 41 57 55 59 76 60 43 61 27 62 28 63 36 64 29 65 31 66
REMARK SMILES IDX 37 67 30 68 32 69 33 70 34 71 35 72 59 73 60 74 68 75 61 76
REMARK SMILES IDX 63 77 69 78 62 79 64 80 65 81 66 82 67 83 44 84 45 85 53 86
REMARK SMILES IDX 46 87 48 88 54 89 47 90 49 91 50 92 51 93 52 94
REMARK H PARENT 10 6 15 28 74 47 42 58
REMARK Flexibility Score: inf
ROOT
ATOM      1  C   UNL A   1      32.703  28.926  25.773  1.00  0.00     0.023 C 
ENDROOT
BRANCH   1   2
ATOM      2  C   UNL A   1      32.278  27.609  25.147  1.00  0.00     0.116 C 
BRANCH   2   3
ATOM      3  N   UNL A   1      31.338  26.908  25.999  1.00  0.00    -0.356 N 
ATOM      4  C   UNL A   1      30.303  26.100  25.637  1.00  0.00     0.220 C 
ATOM      5  O   UNL A   1      29.613  25.579  26.516  1.00  0.00    -0.275 OA
ATOM      6  H   UNL A   1      31.465  27.033  26.967  1.00  0.00     0.163 HD
BRANCH   4   7
ATOM      7  C   UNL A   1      30.046  25.805  24.172  1.00  0.00     0.106 C 
BRANCH   7   8
ATOM      8  C   UNL A   1      30.635  24.479  23.684  1.00  0.00     0.064 C 
BRANCH   8   9
ATOM      9  C   UNL A   1      32.148  24.425  23.673  1.00  0.00     0.019 A 
ATOM     10  N   UNL A   1      33.033  23.799  24.575  1.00  0.00    -0.342 N 
ATOM     11  C   UNL A   1      34.340  23.970  24.068  1.00  0.00     0.048 A 
ATOM     12  C   UNL A   1      32.910  25.033  22.689  1.00  0.00     0.024 A 
ATOM     13  C   UNL A   1      34.257  24.764  22.938  1.00  0.00     0.029 A 
BRANCH  10  14
ATOM     14  C   UNL A   1      32.676  22.945  25.734  1.00  0.00     0.081 C 
ATOM     15  C   UNL A   1      32.550  23.676  27.086  1.00  0.00     0.031 C 
ATOM     16  C   UNL A   1      31.365  22.159  25.610  1.00  0.00     0.031 C 
ENDBRANCH  10  14
BRANCH  11  17
ATOM     17  C   UNL A   1      35.576  23.288  24.479  1.00  0.00    -0.002 A 
ATOM     18  C   UNL A   1      35.865  21.967  24.124  1.00  0.00     0.013 A 
ATOM     19  C   UNL A   1      36.440  23.934  25.364  1.00  0.00     0.013 A 
ATOM     20  C   UNL A   1      36.998  21.330  24.652  1.00  0.00     0.040 A 
ATOM     21  C   UNL A   1      37.553  23.304  25.917  1.00  0.00     0.040 A 
ATOM     22  C   UNL A   1      37.824  22.000  25.552  1.00  0.00     0.123 A 
ATOM     23  F   UNL A   1      38.891  21.376  26.068  1.00  0.00    -0.207 F 
ENDBRANCH  11  17
ENDBRANCH   8   9
ENDBRANCH   7   8
ENDBRANCH   4   7
ENDBRANCH   2   3
ENDBRANCH   1   2
BRANCH   1  24
ATOM     24  C   UNL A   1      33.485  28.745  27.078  1.00  0.00     0.023 C 
BRANCH  24  25
ATOM     25  C   UNL A   1      34.965  29.052  26.886  1.00  0.00     0.116 C 
BRANCH  25  26
ATOM     26  N   UNL A   1      35.412  30.331  27.469  1.00  0.00    -0.352 N 
ATOM     27  C   UNL A   1      36.581  30.582  28.166  1.00  0.00     0.251 C 
ATOM     28  H   UNL A   1      34.806  31.098  27.348  1.00  0.00     0.163 HD
ATOM     29  O   UNL A   1      36.772  31.601  28.787  1.00  0.00    -0.269 OA
BRANCH  27  30
ATOM     30  C   UNL A   1      37.597  29.523  28.095  1.00  0.00     0.039 A 
ATOM     31  C   UNL A   1      38.590  29.575  27.116  1.00  0.00     0.014 A 
ATOM     32  C   UNL A   1      37.653  28.645  29.177  1.00  0.00     0.014 A 
ATOM     33  C   UNL A   1      39.736  28.814  27.305  1.00  0.00     0.010 A 
ATOM     34  C   UNL A   1      38.838  28.008  29.433  1.00  0.00     0.010 A 
ATOM     35  C   UNL A   1      39.873  28.081  28.491  1.00  0.00    -0.014 A 
BRANCH  35  36
ATOM     36  C   UNL A   1      41.126  27.383  28.817  1.00  0.00     0.031 A 
ATOM     37  C   UNL A   1      41.196  25.973  28.238  1.00  0.00     0.074 A 
ATOM     38  C   UNL A   1      42.027  28.143  29.509  1.00  0.00     0.049 A 
ATOM     39  N   UNL A   1      41.706  24.904  28.768  1.00  0.00    -0.248 NA
ATOM     40  C   UNL A   1      40.482  25.655  26.975  1.00  0.00     0.031 C 
ATOM     41  C   UNL A   1      41.733  29.504  30.018  1.00  0.00     0.029 A 
ATOM     42  N   UNL A   1      43.340  27.984  29.896  1.00  0.00    -0.354 N 
ATOM     43  C   UNL A   1      41.577  23.862  27.819  1.00  0.00     0.074 A 
ATOM     44  C   UNL A   1      40.660  24.337  26.827  1.00  0.00     0.031 C 
ATOM     45  C   UNL A   1      42.801  30.030  30.636  1.00  0.00     0.029 A 
ATOM     46  C   UNL A   1      43.892  29.079  30.598  1.00  0.00     0.049 A 
ATOM     47  H   UNL A   1      43.855  27.170  29.698  1.00  0.00     0.167 HD
ATOM     48  C   UNL A   1      42.401  22.768  27.814  1.00  0.00     0.034 A 
ATOM     49  C   UNL A   1      45.123  29.223  31.170  1.00  0.00     0.034 A 
ATOM     50  C   UNL A   1      43.460  23.005  28.749  1.00  0.00     0.049 A 
ATOM     51  C   UNL A   1      45.883  28.002  30.864  1.00  0.00     0.074 A 
ATOM     52  C   UNL A   1      43.536  23.029  30.116  1.00  0.00     0.029 A 
ATOM     53  N   UNL A   1      44.559  23.642  28.213  1.00  0.00    -0.354 N 
ATOM     54  N   UNL A   1      46.375  27.704  29.697  1.00  0.00    -0.248 NA
ATOM     55  C   UNL A   1      45.946  26.940  31.878  1.00  0.00     0.031 C 
ATOM     56  C   UNL A   1      44.479  24.048  30.375  1.00  0.00     0.029 A 
ATOM     57  C   UNL A   1      45.074  24.466  29.177  1.00  0.00     0.049 A 
ATOM     58  H   UNL A   1      44.909  23.526  27.301  1.00  0.00     0.167 HD
ATOM     59  C   UNL A   1      46.439  26.329  29.754  1.00  0.00     0.074 A 
ATOM     60  C   UNL A   1      46.494  25.971  31.152  1.00  0.00     0.031 C 
ATOM     61  C   UNL A   1      45.875  25.594  28.758  1.00  0.00     0.034 A 
BRANCH  48  62
ATOM     62  C   UNL A   1      42.630  21.595  26.882  1.00  0.00     0.023 A 
ATOM     63  C   UNL A   1      41.854  20.433  27.180  1.00  0.00     0.012 A 
ATOM     64  C   UNL A   1      43.669  21.440  25.953  1.00  0.00     0.148 A 
ATOM     65  C   UNL A   1      42.172  19.165  26.697  1.00  0.00     0.002 A 
ATOM     66  C   UNL A   1      43.953  20.172  25.425  1.00  0.00     0.091 A 
ATOM     67  F   UNL A   1      44.438  22.486  25.639  1.00  0.00    -0.205 F 
ATOM     68  C   UNL A   1      43.236  19.034  25.826  1.00  0.00     0.022 A 
BRANCH  66  69
ATOM     69  S   UNL A   1      45.246  19.896  24.209  1.00  0.00     0.127 S 
ATOM     70  O   UNL A   1      45.680  18.538  24.530  1.00  0.00    -0.237 OA
ATOM     71  O   UNL A   1      44.511  20.014  22.947  1.00  0.00    -0.237 OA
ATOM     72  O   UNL A   1      46.218  20.958  24.426  1.00  0.00    -0.744 OA
ENDBRANCH  66  69
ENDBRANCH  48  62
BRANCH  49  73
ATOM     73  C   UNL A   1      45.676  30.226  32.147  1.00  0.00     0.023 A 
ATOM     74  C   UNL A   1      46.546  31.269  31.789  1.00  0.00     0.012 A 
ATOM     75  C   UNL A   1      45.265  30.199  33.504  1.00  0.00     0.148 A 
ATOM     76  C   UNL A   1      46.855  32.308  32.684  1.00  0.00     0.002 A 
ATOM     77  C   UNL A   1      45.491  31.267  34.362  1.00  0.00     0.091 A 
ATOM     78  F   UNL A   1      44.674  29.107  33.995  1.00  0.00    -0.205 F 
ATOM     79  C   UNL A   1      46.289  32.332  33.955  1.00  0.00     0.022 A 
BRANCH  77  80
ATOM     80  S   UNL A   1      44.659  31.387  35.955  1.00  0.00     0.127 S 
ATOM     81  O   UNL A   1      45.188  30.226  36.667  1.00  0.00    -0.237 OA
ATOM     82  O   UNL A   1      45.142  32.680  36.438  1.00  0.00    -0.237 OA
ATOM     83  O   UNL A   1      43.229  31.342  35.673  1.00  0.00    -0.744 OA
ENDBRANCH  77  80
ENDBRANCH  49  73
BRANCH  61  84
ATOM     84  C   UNL A   1      45.879  26.266  27.388  1.00  0.00     0.023 A 
ATOM     85  C   UNL A   1      44.654  26.789  26.927  1.00  0.00     0.012 A 
ATOM     86  C   UNL A   1      46.978  26.313  26.497  1.00  0.00     0.148 A 
ATOM     87  C   UNL A   1      44.514  27.312  25.639  1.00  0.00     0.002 A 
ATOM     88  C   UNL A   1      46.839  26.828  25.202  1.00  0.00     0.091 A 
ATOM     89  F   UNL A   1      48.151  25.841  26.911  1.00  0.00    -0.205 F 
ATOM     90  C   UNL A   1      45.604  27.330  24.777  1.00  0.00     0.022 A 
BRANCH  88  91
ATOM     91  S   UNL A   1      48.162  26.828  23.970  1.00  0.00     0.127 S 
ATOM     92  O   UNL A   1      48.172  25.436  23.514  1.00  0.00    -0.237 OA
ATOM     93  O   UNL A   1      47.665  27.776  22.978  1.00  0.00    -0.237 OA
ATOM     94  O   UNL A   1      49.383  27.227  24.660  1.00  0.00    -0.744 OA
ENDBRANCH  88  91
ENDBRANCH  61  84
ENDBRANCH  35  36
ENDBRANCH  27  30
ENDBRANCH  25  26
ENDBRANCH  24  25
ENDBRANCH   1  24
TORSDOF 18
ENDMDL
MODEL 2
REMARK VINA RESULT:     -11.7      1.406      1.680
REMARK SMILES CC(C)n1c(CCC(=O)NCCCCNC(=O)c2ccc(-c3c4nc(c(-c5cccc(S(=O)(=O)[O-])c5F)c5ccc([nH]5)c(-c5cccc(S(=O)(=O)[O-])c5F)c5nc(c(-c6cccc(S(=O)(=O)[O-])c6F)c6ccc3[nH]6)C=C5)C=C4)cc2)ccc1-c1ccc(F)cc1
REMARK SMILES IDX 12 1 11 2 10 3 8 4 9 5 7 7 6 8 5 9 4 10 83 11 81 12 82 13
REMARK SMILES IDX 2 14 1 15 3 16 84 17 85 18 90 19 86 20 89 21 87 22 88 23
REMARK SMILES IDX 13 24 14 25 15 26 16 27 17 29 18 30 19 31 80 32 20 33 79 34
REMARK SMILES IDX 21 35 22 36 23 37 73 38 24 39 78 40 72 41 74 42 25 43 77 44
REMARK SMILES IDX 71 45 70 46 26 48 58 49 38 50 57 51 39 52 42 53 56 54 75 55
REMARK SMILES IDX 40 56 41 57 55 59 76 60 43 61 27 62 28 63 36 64 29 65 31 66
REMARK SMILES IDX 37 67 30 68 32 69 33 70 34 71 35 72 59 73 60 74 68 75 61 76
REMARK SMILES IDX 63 77 69 78 62 79 64 80 65 81 66 82 67 83 44 84 45 85 53 86
REMARK SMILES IDX 46 87 48 88 54 89 47 90 49 91 50 92 51 93 52 94
REMARK H PARENT 10 6 15 28 74 47 42 58
REMARK Flexibility Score: inf
ROOT
ATOM      1  C   UNL A   1      32.907  28.497  25.594  1.00  0.00     0.023 C 
ENDROOT
BRANCH   1   2
ATOM      2  C   UNL A   1      32.704  27.006  25.386  1.00  0.00     0.116 C 
BRANCH   2   3
ATOM      3  N   UNL A   1      31.553  26.530  26.125  1.00  0.00    -0.356 N 
ATOM      4  C   UNL A   1      30.442  25.897  25.653  1.00  0.00     0.220 C 
ATOM      5  O   UNL A   1      29.564  25.555  26.447  1.00  0.00    -0.275 OA
ATOM      6  H   UNL A   1      31.576  26.684  27.097  1.00  0.00     0.163 HD
BRANCH   4   7
ATOM      7  C   UNL A   1      30.324  25.570  24.177  1.00  0.00     0.106 C 
BRANCH   7   8
ATOM      8  C   UNL A   1      30.795  24.161  23.804  1.00  0.00     0.064 C 
BRANCH   8   9
ATOM      9  C   UNL A   1      32.295  24.010  23.675  1.00  0.00     0.019 A 
ATOM     10  N   UNL A   1      33.237  23.541  24.614  1.00  0.00    -0.342 N 
ATOM     11  C   UNL A   1      34.494  23.512  23.970  1.00  0.00     0.048 A 
ATOM     12  C   UNL A   1      32.982  24.336  22.516  1.00  0.00     0.024 A 
ATOM     13  C   UNL A   1      34.334  24.042  22.702  1.00  0.00     0.029 A 
BRANCH  10  14
ATOM     14  C   UNL A   1      32.960  22.989  25.962  1.00  0.00     0.081 C 
ATOM     15  C   UNL A   1      32.752  21.462  26.028  1.00  0.00     0.031 C 
ATOM     16  C   UNL A   1      34.023  23.269  27.033  1.00  0.00     0.031 C 
ENDBRANCH  10  14
BRANCH  11  17
ATOM     17  C   UNL A   1      35.734  22.859  24.415  1.00  0.00    -0.002 A 
ATOM     18  C   UNL A   1      35.886  21.471  24.453  1.00  0.00     0.013 A 
ATOM     19  C   UNL A   1      36.758  23.646  24.944  1.00  0.00     0.013 A 
ATOM     20  C   UNL A   1      37.044  20.906  25.007  1.00  0.00     0.040 A 
ATOM     21  C   UNL A   1      37.901  23.098  25.522  1.00  0.00     0.040 A 
ATOM     22  C   UNL A   1      38.035  21.724  25.547  1.00  0.00     0.123 A 
ATOM     23  F   UNL A   1      39.127  21.175  26.093  1.00  0.00    -0.207 F 
ENDBRANCH  11  17
ENDBRANCH   8   9
ENDBRANCH   7   8
ENDBRANCH   4   7
ENDBRANCH   2   3
ENDBRANCH   1   2
BRANCH   1  24
ATOM     24  C   UNL A   1      33.476  28.837  26.976  1.00  0.00     0.023 C 
BRANCH  24  25
ATOM     25  C   UNL A   1      34.982  29.061  26.917  1.00  0.00     0.116 C 
BRANCH  25  26
ATOM     26  N   UNL A   1      35.437  30.356  27.455  1.00  0.00    -0.352 N 
ATOM     27  C   UNL A   1      36.618  30.629  28.123  1.00  0.00     0.251 C 
ATOM     28  H   UNL A   1      34.827  31.119  27.323  1.00  0.00     0.163 HD
ATOM     29  O   UNL A   1      36.817  31.666  28.712  1.00  0.00    -0.269 OA
BRANCH  27  30
ATOM     30  C   UNL A   1      37.635  29.571  28.064  1.00  0.00     0.039 A 
ATOM     31  C   UNL A   1      38.659  29.641  27.118  1.00  0.00     0.014 A 
ATOM     32  C   UNL A   1      37.655  28.672  29.130  1.00  0.00     0.014 A 
ATOM     33  C   UNL A   1      39.797  28.874  27.329  1.00  0.00     0.010 A 
ATOM     34  C   UNL A   1      38.832  28.028  29.411  1.00  0.00     0.010 A 
ATOM     35  C   UNL A   1      39.896  28.119  28.504  1.00  0.00    -0.014 A 
BRANCH  35  36
ATOM     36  C   UNL A   1      41.137  27.412  28.857  1.00  0.00     0.031 A 
ATOM     37  C   UNL A   1      41.213  26.004  28.274  1.00  0.00     0.074 A 
ATOM     38  C   UNL A   1      42.026  28.165  29.571  1.00  0.00     0.049 A 
ATOM     39  N   UNL A   1      41.705  24.930  28.813  1.00  0.00    -0.248 NA
ATOM     40  C   UNL A   1      40.526  25.693  26.995  1.00  0.00     0.031 C 
ATOM     41  C   UNL A   1      41.728  29.526  30.077  1.00  0.00     0.029 A 
ATOM     42  N   UNL A   1      43.329  27.998  29.986  1.00  0.00    -0.354 N 
ATOM     43  C   UNL A   1      41.591  23.892  27.858  1.00  0.00     0.074 A 
ATOM     44  C   UNL A   1      40.699  24.375  26.846  1.00  0.00     0.031 C 
ATOM     45  C   UNL A   1      42.785  30.044  30.720  1.00  0.00     0.029 A 
ATOM     46  C   UNL A   1      43.871  29.088  30.705  1.00  0.00     0.049 A 
ATOM     47  H   UNL A   1      43.844  27.181  29.798  1.00  0.00     0.167 HD
ATOM     48  C   UNL A   1      42.409  22.793  27.868  1.00  0.00     0.034 A 
ATOM     49  C   UNL A   1      45.090  29.223  31.305  1.00  0.00     0.034 A 
ATOM     50  C   UNL A   1      43.448  23.021  28.828  1.00  0.00     0.049 A 
ATOM     51  C   UNL A   1      45.850  27.999  31.012  1.00  0.00     0.074 A 
ATOM     52  C   UNL A   1      43.494  23.042  30.196  1.00  0.00     0.029 A 
ATOM     53  N   UNL A   1      44.562  23.654  28.319  1.00  0.00    -0.354 N 
ATOM     54  N   UNL A   1      46.366  27.701  29.855  1.00  0.00    -0.248 NA
ATOM     55  C   UNL A   1      45.884  26.934  32.024  1.00  0.00     0.031 C 
ATOM     56  C   UNL A   1      44.436  24.054  30.479  1.00  0.00     0.029 A 
ATOM     57  C   UNL A   1      45.060  24.472  29.297  1.00  0.00     0.049 A 
ATOM     58  H   UNL A   1      44.933  23.539  27.414  1.00  0.00     0.167 HD
ATOM     59  C   UNL A   1      46.421  26.326  29.910  1.00  0.00     0.074 A 
ATOM     60  C   UNL A   1      46.443  25.964  31.307  1.00  0.00     0.031 C 
ATOM     61  C   UNL A   1      45.876  25.597  28.899  1.00  0.00     0.034 A 
BRANCH  48  62
ATOM     62  C   UNL A   1      42.653  21.622  26.938  1.00  0.00     0.023 A 
ATOM     63  C   UNL A   1      41.916  20.440  27.258  1.00  0.00     0.012 A 
ATOM     64  C   UNL A   1      43.678  21.491  25.989  1.00  0.00     0.148 A 
ATOM     65  C   UNL A   1      42.260  19.179  26.775  1.00  0.00     0.002 A 
ATOM     66  C   UNL A   1      43.986  20.228  25.463  1.00  0.00     0.091 A 
ATOM     67  F   UNL A   1      44.410  22.556  25.654  1.00  0.00    -0.205 F 
ATOM     68  C   UNL A   1      43.310  19.072  25.883  1.00  0.00     0.022 A 
BRANCH  66  69
ATOM     69  S   UNL A   1      45.263  19.981  24.222  1.00  0.00     0.127 S 
ATOM     70  O   UNL A   1      44.597  20.439  23.006  1.00  0.00    -0.237 OA
ATOM     71  O   UNL A   1      46.329  20.866  24.699  1.00  0.00    -0.237 OA
ATOM     72  O   UNL A   1      45.600  18.566  24.288  1.00  0.00    -0.744 OA
ENDBRANCH  66  69
ENDBRANCH  48  62
BRANCH  49  73
ATOM     73  C   UNL A   1      45.626  30.220  32.297  1.00  0.00     0.023 A 
ATOM     74  C   UNL A   1      45.243  30.264  33.647  1.00  0.00     0.012 A 
ATOM     75  C   UNL A   1      46.631  31.142  31.907  1.00  0.00     0.148 A 
ATOM     76  C   UNL A   1      45.930  31.059  34.581  1.00  0.00     0.002 A 
ATOM     77  C   UNL A   1      47.373  31.857  32.837  1.00  0.00     0.091 A 
ATOM     78  F   UNL A   1      46.858  31.365  30.610  1.00  0.00    -0.205 F 
ATOM     79  C   UNL A   1      47.027  31.820  34.184  1.00  0.00     0.022 A 
BRANCH  77  80
ATOM     80  S   UNL A   1      48.875  32.734  32.369  1.00  0.00     0.127 S 
ATOM     81  O   UNL A   1      49.518  32.955  33.663  1.00  0.00    -0.237 OA
ATOM     82  O   UNL A   1      49.533  31.748  31.513  1.00  0.00    -0.237 OA
ATOM     83  O   UNL A   1      48.445  33.943  31.678  1.00  0.00    -0.744 OA
ENDBRANCH  77  80
ENDBRANCH  49  73
BRANCH  61  84
ATOM     84  C   UNL A   1      45.916  26.273  27.532  1.00  0.00     0.023 A 
ATOM     85  C   UNL A   1      44.680  26.654  26.970  1.00  0.00     0.012 A 
ATOM     86  C   UNL A   1      47.070  26.451  26.734  1.00  0.00     0.148 A 
ATOM     87  C   UNL A   1      44.586  27.165  25.672  1.00  0.00     0.002 A 
ATOM     88  C   UNL A   1      46.980  26.954  25.430  1.00  0.00     0.091 A 
ATOM     89  F   UNL A   1      48.253  26.115  27.244  1.00  0.00    -0.205 F 
ATOM     90  C   UNL A   1      45.734  27.313  24.903  1.00  0.00     0.022 A 
BRANCH  88  91
ATOM     91  S   UNL A   1      48.390  27.113  24.310  1.00  0.00     0.127 S 
ATOM     92  O   UNL A   1      49.066  25.823  24.463  1.00  0.00    -0.237 OA
ATOM     93  O   UNL A   1      47.742  27.296  23.015  1.00  0.00    -0.237 OA
ATOM     94  O   UNL A   1      49.178  28.246  24.780  1.00  0.00    -0.744 OA
ENDBRANCH  88  91
ENDBRANCH  61  84
ENDBRANCH  35  36
ENDBRANCH  27  30
ENDBRANCH  25  26
ENDBRANCH  24  25
ENDBRANCH   1  24
TORSDOF 18
ENDMDL
MODEL 3
REMARK VINA RESULT:     -11.5      3.108      8.543
REMARK SMILES CC(C)n1c(CCC(=O)NCCCCNC(=O)c2ccc(-c3c4nc(c(-c5cccc(S(=O)(=O)[O-])c5F)c5ccc([nH]5)c(-c5cccc(S(=O)(=O)[O-])c5F)c5nc(c(-c6cccc(S(=O)(=O)[O-])c6F)c6ccc3[nH]6)C=C5)C=C4)cc2)ccc1-c1ccc(F)cc1
REMARK SMILES IDX 12 1 11 2 10 3 8 4 9 5 7 7 6 8 5 9 4 10 83 11 81 12 82 13
REMARK SMILES IDX 2 14 1 15 3 16 84 17 85 18 90 19 86 20 89 21 87 22 88 23
REMARK SMILES IDX 13 24 14 25 15 26 16 27 17 29 18 30 19 31 80 32 20 33 79 34
REMARK SMILES IDX 21 35 22 36 23 37 73 38 24 39 78 40 72 41 74 42 25 43 77 44
REMARK SMILES IDX 71 45 70 46 26 48 58 49 38 50 57 51 39 52 42 53 56 54 75 55
REMARK SMILES IDX 40 56 41 57 55 59 76 60 43 61 27 62 28 63 36 64 29 65 31 66
REMARK SMILES IDX 37 67 30 68 32 69 33 70 34 71 35 72 59 73 60 74 68 75 61 76
REMARK SMILES IDX 63 77 69 78 62 79 64 80 65 81 66 82 67 83 44 84 45 85 53 86
REMARK SMILES IDX 46 87 48 88 54 89 47 90 49 91 50 92 51 93 52 94
REMARK H PARENT 10 6 15 28 74 47 42 58
REMARK Flexibility Score: inf
ROOT
ATOM      1  C   UNL A   1      37.548  21.309  25.073  1.00  0.00     0.023 C 
ENDROOT
BRANCH   1   2
ATOM      2  C   UNL A   1      36.079  20.999  25.306  1.00  0.00     0.116 C 
BRANCH   2   3
ATOM      3  N   UNL A   1      35.570  21.722  26.454  1.00  0.00    -0.356 N 
ATOM      4  C   UNL A   1      34.297  21.764  26.935  1.00  0.00     0.220 C 
ATOM      5  O   UNL A   1      34.058  22.435  27.941  1.00  0.00    -0.275 OA
ATOM      6  H   UNL A   1      36.234  22.253  26.951  1.00  0.00     0.163 HD
BRANCH   4   7
ATOM      7  C   UNL A   1      33.206  20.947  26.270  1.00  0.00     0.106 C 
BRANCH   7   8
ATOM      8  C   UNL A   1      32.613  21.592  25.014  1.00  0.00     0.064 C 
BRANCH   8   9
ATOM      9  C   UNL A   1      31.995  22.956  25.236  1.00  0.00     0.019 A 
ATOM     10  N   UNL A   1      32.317  24.196  24.648  1.00  0.00    -0.342 N 
ATOM     11  C   UNL A   1      31.386  25.143  25.127  1.00  0.00     0.048 A 
ATOM     12  C   UNL A   1      30.945  23.167  26.115  1.00  0.00     0.024 A 
ATOM     13  C   UNL A   1      30.579  24.513  26.057  1.00  0.00     0.029 A 
BRANCH  10  14
ATOM     14  C   UNL A   1      33.311  24.449  23.576  1.00  0.00     0.081 C 
ATOM     15  C   UNL A   1      34.784  24.208  23.963  1.00  0.00     0.031 C 
ATOM     16  C   UNL A   1      33.125  23.642  22.285  1.00  0.00     0.031 C 
ENDBRANCH  10  14
BRANCH  11  17
ATOM     17  C   UNL A   1      31.118  26.498  24.623  1.00  0.00    -0.002 A 
ATOM     18  C   UNL A   1      31.561  27.650  25.279  1.00  0.00     0.013 A 
ATOM     19  C   UNL A   1      30.281  26.653  23.517  1.00  0.00     0.013 A 
ATOM     20  C   UNL A   1      31.166  28.916  24.819  1.00  0.00     0.040 A 
ATOM     21  C   UNL A   1      29.858  27.902  23.067  1.00  0.00     0.040 A 
ATOM     22  C   UNL A   1      30.309  29.029  23.726  1.00  0.00     0.123 A 
ATOM     23  F   UNL A   1      29.920  30.240  23.308  1.00  0.00    -0.207 F 
ENDBRANCH  11  17
ENDBRANCH   8   9
ENDBRANCH   7   8
ENDBRANCH   4   7
ENDBRANCH   2   3
ENDBRANCH   1   2
BRANCH   1  24
ATOM     24  C   UNL A   1      38.423  20.052  25.014  1.00  0.00     0.023 C 
BRANCH  24  25
ATOM     25  C   UNL A   1      39.703  20.228  25.822  1.00  0.00     0.116 C 
BRANCH  25  26
ATOM     26  N   UNL A   1      40.503  19.001  25.990  1.00  0.00    -0.352 N 
ATOM     27  C   UNL A   1      41.879  18.895  26.099  1.00  0.00     0.251 C 
ATOM     28  H   UNL A   1      39.998  18.156  26.029  1.00  0.00     0.163 HD
ATOM     29  O   UNL A   1      42.466  17.841  26.023  1.00  0.00    -0.269 OA
BRANCH  27  30
ATOM     30  C   UNL A   1      42.593  20.158  26.326  1.00  0.00     0.039 A 
ATOM     31  C   UNL A   1      43.173  20.833  25.251  1.00  0.00     0.014 A 
ATOM     32  C   UNL A   1      42.438  20.739  27.584  1.00  0.00     0.014 A 
ATOM     33  C   UNL A   1      43.485  22.176  25.413  1.00  0.00     0.010 A 
ATOM     34  C   UNL A   1      42.612  22.094  27.697  1.00  0.00     0.010 A 
ATOM     35  C   UNL A   1      43.148  22.808  26.617  1.00  0.00    -0.014 A 
BRANCH  35  36
ATOM     36  C   UNL A   1      43.310  24.260  26.789  1.00  0.00     0.031 A 
ATOM     37  C   UNL A   1      42.025  24.960  27.225  1.00  0.00     0.074 A 
ATOM     38  C   UNL A   1      44.588  24.707  26.605  1.00  0.00     0.049 A 
ATOM     39  N   UNL A   1      41.578  26.126  26.869  1.00  0.00    -0.248 NA
ATOM     40  C   UNL A   1      41.023  24.228  28.040  1.00  0.00     0.031 C 
ATOM     41  C   UNL A   1      45.698  23.844  26.137  1.00  0.00     0.029 A 
ATOM     42  N   UNL A   1      45.235  25.908  26.793  1.00  0.00    -0.354 N 
ATOM     43  C   UNL A   1      40.378  26.350  27.586  1.00  0.00     0.074 A 
ATOM     44  C   UNL A   1      39.999  25.084  28.138  1.00  0.00     0.031 C 
ATOM     45  C   UNL A   1      46.849  24.532  26.070  1.00  0.00     0.029 A 
ATOM     46  C   UNL A   1      46.614  25.899  26.482  1.00  0.00     0.049 A 
ATOM     47  H   UNL A   1      44.772  26.713  27.120  1.00  0.00     0.167 HD
ATOM     48  C   UNL A   1      39.903  27.609  27.844  1.00  0.00     0.034 A 
ATOM     49  C   UNL A   1      47.522  26.918  26.493  1.00  0.00     0.034 A 
ATOM     50  C   UNL A   1      40.912  28.552  27.463  1.00  0.00     0.049 A 
ATOM     51  C   UNL A   1      46.820  28.112  26.986  1.00  0.00     0.074 A 
ATOM     52  C   UNL A   1      41.390  29.002  26.262  1.00  0.00     0.029 A 
ATOM     53  N   UNL A   1      41.813  28.854  28.462  1.00  0.00    -0.354 N 
ATOM     54  N   UNL A   1      46.466  28.311  28.223  1.00  0.00    -0.248 NA
ATOM     55  C   UNL A   1      46.303  29.079  26.007  1.00  0.00     0.031 C 
ATOM     56  C   UNL A   1      42.766  29.201  26.508  1.00  0.00     0.029 A 
ATOM     57  C   UNL A   1      43.034  29.053  27.875  1.00  0.00     0.049 A 
ATOM     58  H   UNL A   1      41.614  28.916  29.423  1.00  0.00     0.167 HD
ATOM     59  C   UNL A   1      45.402  29.175  28.083  1.00  0.00     0.074 A 
ATOM     60  C   UNL A   1      45.569  29.841  26.812  1.00  0.00     0.031 C 
ATOM     61  C   UNL A   1      44.219  28.879  28.684  1.00  0.00     0.034 A 
BRANCH  48  62
ATOM     62  C   UNL A   1      38.782  28.186  28.685  1.00  0.00     0.023 A 
ATOM     63  C   UNL A   1      37.787  28.900  27.947  1.00  0.00     0.012 A 
ATOM     64  C   UNL A   1      38.750  28.318  30.081  1.00  0.00     0.148 A 
ATOM     65  C   UNL A   1      36.903  29.797  28.541  1.00  0.00     0.002 A 
ATOM     66  C   UNL A   1      37.821  29.180  30.681  1.00  0.00     0.091 A 
ATOM     67  F   UNL A   1      39.659  27.685  30.827  1.00  0.00    -0.205 F 
ATOM     68  C   UNL A   1      36.929  29.947  29.914  1.00  0.00     0.022 A 
BRANCH  66  69
ATOM     69  S   UNL A   1      37.695  29.381  32.463  1.00  0.00     0.127 S 
ATOM     70  O   UNL A   1      38.933  30.090  32.776  1.00  0.00    -0.237 OA
ATOM     71  O   UNL A   1      36.482  30.193  32.594  1.00  0.00    -0.237 OA
ATOM     72  O   UNL A   1      37.563  28.033  32.997  1.00  0.00    -0.744 OA
ENDBRANCH  66  69
ENDBRANCH  48  62
BRANCH  49  73
ATOM     73  C   UNL A   1      48.910  27.045  25.926  1.00  0.00     0.023 A 
ATOM     74  C   UNL A   1      49.185  27.214  24.559  1.00  0.00     0.012 A 
ATOM     75  C   UNL A   1      50.033  27.073  26.793  1.00  0.00     0.148 A 
ATOM     76  C   UNL A   1      50.472  27.550  24.104  1.00  0.00     0.002 A 
ATOM     77  C   UNL A   1      51.283  27.496  26.363  1.00  0.00     0.091 A 
ATOM     78  F   UNL A   1      49.907  26.650  28.053  1.00  0.00    -0.205 F 
ATOM     79  C   UNL A   1      51.511  27.739  25.011  1.00  0.00     0.022 A 
BRANCH  77  80
ATOM     80  S   UNL A   1      52.600  27.880  27.529  1.00  0.00     0.127 S 
ATOM     81  O   UNL A   1      53.624  28.454  26.659  1.00  0.00    -0.237 OA
ATOM     82  O   UNL A   1      51.935  28.836  28.414  1.00  0.00    -0.237 OA
ATOM     83  O   UNL A   1      52.964  26.620  28.165  1.00  0.00    -0.744 OA
ENDBRANCH  77  80
ENDBRANCH  49  73
BRANCH  61  84
ATOM     84  C   UNL A   1      44.345  28.084  29.981  1.00  0.00     0.023 A 
ATOM     85  C   UNL A   1      44.107  26.696  29.907  1.00  0.00     0.012 A 
ATOM     86  C   UNL A   1      44.570  28.634  31.265  1.00  0.00     0.148 A 
ATOM     87  C   UNL A   1      44.071  25.893  31.050  1.00  0.00     0.002 A 
ATOM     88  C   UNL A   1      44.526  27.834  32.414  1.00  0.00     0.091 A 
ATOM     89  F   UNL A   1      44.814  29.938  31.364  1.00  0.00    -0.205 F 
ATOM     90  C   UNL A   1      44.278  26.460  32.302  1.00  0.00     0.022 A 
BRANCH  88  91
ATOM     91  S   UNL A   1      44.699  28.473  34.096  1.00  0.00     0.127 S 
ATOM     92  O   UNL A   1      44.493  27.276  34.915  1.00  0.00    -0.237 OA
ATOM     93  O   UNL A   1      46.072  28.970  34.102  1.00  0.00    -0.237 OA
ATOM     94  O   UNL A   1      43.667  29.487  34.272  1.00  0.00    -0.744 OA
ENDBRANCH  88  91
ENDBRANCH  61  84
ENDBRANCH  35  36
ENDBRANCH  27  30
ENDBRANCH  25  26
ENDBRANCH  24  25
ENDBRANCH   1  24
TORSDOF 18
ENDMDL
