MODEL 1
REMARK VINA RESULT:     -11.1      0.000      0.000
REMARK SMILES O=C(Cc1ccc(S(=O)(=O)C[C@H]2CCCO2)cc1)NCCCCNC(=O)c1ccc(-c2c3nc(c(-c4cccc(S(=O)(=O)[O-])c4F)c4ccc([nH]4)c(-c4cccc(S(=O)(=O)[O-])c4F)c4nc(c(-c5cccc(S(=O)(=O)[O-])c5F)c5ccc2[nH]5)C=C4)C=C3)cc1
REMARK SMILES IDX 21 1 20 2 19 3 1 4 2 5 3 7 4 8 5 9 18 10 6 11 17 12 7 13
REMARK SMILES IDX 8 14 9 15 10 16 11 17 12 18 13 19 16 20 14 21 15 22 22 23
REMARK SMILES IDX 23 24 24 25 25 26 26 28 27 29 28 30 89 31 29 32 88 33 30 34
REMARK SMILES IDX 31 35 32 36 82 37 33 38 87 39 81 40 83 41 34 42 86 43 80 44
REMARK SMILES IDX 79 45 35 47 67 48 47 49 66 50 48 51 51 52 65 53 84 54 49 55
REMARK SMILES IDX 50 56 64 58 85 59 52 60 36 61 37 62 45 63 38 64 40 65 46 66
REMARK SMILES IDX 39 67 41 68 42 69 43 70 44 71 68 72 69 73 77 74 70 75 72 76
REMARK SMILES IDX 78 77 71 78 73 79 74 80 75 81 76 82 53 83 54 84 62 85 55 86
REMARK SMILES IDX 57 87 63 88 56 89 58 90 59 91 60 92 61 93
REMARK H PARENT 19 6 24 27 83 46 51 57
REMARK Flexibility Score: inf
ROOT
ATOM      1  C   UNL A   1      34.929  21.959  26.534  1.00  0.00     0.023 C 
ENDROOT
BRANCH   1   2
ATOM      2  C   UNL A   1      34.710  20.758  25.617  1.00  0.00     0.116 C 
BRANCH   2   3
ATOM      3  N   UNL A   1      34.062  21.108  24.370  1.00  0.00    -0.356 N 
ATOM      4  O   UNL A   1      31.998  20.276  24.951  1.00  0.00    -0.275 OA
ATOM      5  C   UNL A   1      32.714  20.885  24.162  1.00  0.00     0.224 C 
ATOM      6  H   UNL A   1      34.596  21.519  23.652  1.00  0.00     0.163 HD
BRANCH   5   7
ATOM      7  C   UNL A   1      32.182  21.487  22.871  1.00  0.00     0.135 C 
BRANCH   7   8
ATOM      8  C   UNL A   1      32.079  22.996  22.912  1.00  0.00    -0.039 A 
ATOM      9  C   UNL A   1      33.080  23.806  22.355  1.00  0.00     0.005 A 
ATOM     10  C   UNL A   1      30.941  23.609  23.459  1.00  0.00     0.005 A 
ATOM     11  C   UNL A   1      32.943  25.194  22.332  1.00  0.00     0.020 A 
ATOM     12  C   UNL A   1      30.803  25.000  23.450  1.00  0.00     0.020 A 
ATOM     13  C   UNL A   1      31.794  25.786  22.861  1.00  0.00     0.067 A 
BRANCH  13  14
ATOM     14  S   UNL A   1      31.616  27.548  22.763  1.00  0.00     0.180 S 
ATOM     15  O   UNL A   1      32.906  28.041  22.307  1.00  0.00    -0.224 OA
ATOM     16  O   UNL A   1      30.426  27.822  21.980  1.00  0.00    -0.224 OA
BRANCH  14  17
ATOM     17  C   UNL A   1      31.359  28.199  24.384  1.00  0.00     0.174 C 
BRANCH  17  18
ATOM     18  C   UNL A   1      32.310  29.265  24.899  1.00  0.00     0.133 C 
ATOM     19  C   UNL A   1      31.773  30.335  25.838  1.00  0.00     0.035 C 
ATOM     20  O   UNL A   1      33.461  28.672  25.521  1.00  0.00    -0.377 OA
ATOM     21  C   UNL A   1      32.447  30.031  27.153  1.00  0.00     0.031 C 
ATOM     22  C   UNL A   1      33.752  29.408  26.719  1.00  0.00     0.160 C 
ENDBRANCH  17  18
ENDBRANCH  14  17
ENDBRANCH  13  14
ENDBRANCH   7   8
ENDBRANCH   5   7
ENDBRANCH   2   3
ENDBRANCH   1   2
BRANCH   1  23
ATOM     23  C   UNL A   1      35.122  23.308  25.831  1.00  0.00     0.023 C 
BRANCH  23  24
ATOM     24  C   UNL A   1      36.568  23.736  25.596  1.00  0.00     0.116 C 
BRANCH  24  25
ATOM     25  N   UNL A   1      37.521  22.680  25.890  1.00  0.00    -0.352 N 
ATOM     26  C   UNL A   1      38.799  22.761  26.395  1.00  0.00     0.251 C 
ATOM     27  H   UNL A   1      37.205  21.766  25.700  1.00  0.00     0.163 HD
ATOM     28  O   UNL A   1      39.502  21.753  26.419  1.00  0.00    -0.269 OA
BRANCH  26  29
ATOM     29  C   UNL A   1      39.343  24.050  26.883  1.00  0.00     0.039 A 
ATOM     30  C   UNL A   1      40.084  24.844  26.001  1.00  0.00     0.014 A 
ATOM     31  C   UNL A   1      39.154  24.469  28.203  1.00  0.00     0.014 A 
ATOM     32  C   UNL A   1      40.577  26.084  26.421  1.00  0.00     0.010 A 
ATOM     33  C   UNL A   1      39.596  25.731  28.603  1.00  0.00     0.010 A 
ATOM     34  C   UNL A   1      40.311  26.553  27.717  1.00  0.00    -0.014 A 
BRANCH  34  35
ATOM     35  C   UNL A   1      40.743  27.907  28.155  1.00  0.00     0.031 A 
ATOM     36  C   UNL A   1      42.202  28.271  28.191  1.00  0.00     0.074 A 
ATOM     37  C   UNL A   1      39.825  28.781  28.616  1.00  0.00     0.049 A 
ATOM     38  N   UNL A   1      42.766  29.377  28.606  1.00  0.00    -0.248 NA
ATOM     39  C   UNL A   1      43.156  27.253  27.723  1.00  0.00     0.031 C 
ATOM     40  C   UNL A   1      38.386  28.525  28.709  1.00  0.00     0.029 A 
ATOM     41  N   UNL A   1      39.969  30.050  29.122  1.00  0.00    -0.354 N 
ATOM     42  C   UNL A   1      44.135  29.175  28.488  1.00  0.00     0.074 A 
ATOM     43  C   UNL A   1      44.321  27.832  27.982  1.00  0.00     0.031 C 
ATOM     44  C   UNL A   1      37.781  29.600  29.238  1.00  0.00     0.029 A 
ATOM     45  C   UNL A   1      38.788  30.612  29.545  1.00  0.00     0.049 A 
ATOM     46  H   UNL A   1      40.836  30.513  29.175  1.00  0.00     0.167 HD
ATOM     47  C   UNL A   1      45.147  30.038  28.748  1.00  0.00     0.034 A 
ATOM     48  C   UNL A   1      38.540  31.808  30.117  1.00  0.00     0.034 A 
ATOM     49  C   UNL A   1      44.964  31.395  29.189  1.00  0.00     0.049 A 
ATOM     50  C   UNL A   1      39.676  32.768  30.341  1.00  0.00     0.074 A 
ATOM     51  C   UNL A   1      45.922  32.375  29.377  1.00  0.00     0.029 A 
ATOM     52  N   UNL A   1      43.742  31.963  29.514  1.00  0.00    -0.354 N 
ATOM     53  N   UNL A   1      40.948  32.619  30.061  1.00  0.00    -0.248 NA
ATOM     54  C   UNL A   1      39.339  34.074  30.926  1.00  0.00     0.031 C 
ATOM     55  C   UNL A   1      45.280  33.536  29.822  1.00  0.00     0.029 A 
ATOM     56  C   UNL A   1      43.921  33.279  29.907  1.00  0.00     0.049 A 
ATOM     57  H   UNL A   1      42.874  31.500  29.471  1.00  0.00     0.167 HD
ATOM     58  C   UNL A   1      41.557  33.820  30.403  1.00  0.00     0.074 A 
ATOM     59  C   UNL A   1      40.512  34.694  30.894  1.00  0.00     0.031 C 
ATOM     60  C   UNL A   1      42.868  34.161  30.335  1.00  0.00     0.034 A 
BRANCH  47  61
ATOM     61  C   UNL A   1      46.553  29.563  28.492  1.00  0.00     0.023 A 
ATOM     62  C   UNL A   1      47.142  29.798  27.234  1.00  0.00     0.012 A 
ATOM     63  C   UNL A   1      47.311  28.947  29.507  1.00  0.00     0.148 A 
ATOM     64  C   UNL A   1      48.454  29.402  26.978  1.00  0.00     0.002 A 
ATOM     65  C   UNL A   1      48.632  28.589  29.256  1.00  0.00     0.091 A 
ATOM     66  F   UNL A   1      46.728  28.711  30.691  1.00  0.00    -0.205 F 
ATOM     67  C   UNL A   1      49.201  28.808  27.991  1.00  0.00     0.022 A 
BRANCH  65  68
ATOM     68  S   UNL A   1      49.695  27.887  30.524  1.00  0.00     0.127 S 
ATOM     69  O   UNL A   1      49.029  26.616  30.798  1.00  0.00    -0.237 OA
ATOM     70  O   UNL A   1      50.976  27.766  29.826  1.00  0.00    -0.237 OA
ATOM     71  O   UNL A   1      49.694  28.849  31.618  1.00  0.00    -0.744 OA
ENDBRANCH  65  68
ENDBRANCH  47  61
BRANCH  48  72
ATOM     72  C   UNL A   1      37.138  32.197  30.437  1.00  0.00     0.023 A 
ATOM     73  C   UNL A   1      36.645  31.969  31.737  1.00  0.00     0.012 A 
ATOM     74  C   UNL A   1      36.309  32.823  29.487  1.00  0.00     0.148 A 
ATOM     75  C   UNL A   1      35.343  32.336  32.079  1.00  0.00     0.002 A 
ATOM     76  C   UNL A   1      35.029  33.232  29.849  1.00  0.00     0.091 A 
ATOM     77  F   UNL A   1      36.788  33.014  28.251  1.00  0.00    -0.205 F 
ATOM     78  C   UNL A   1      34.539  32.977  31.139  1.00  0.00     0.022 A 
BRANCH  76  79
ATOM     79  S   UNL A   1      33.982  34.181  28.739  1.00  0.00     0.127 S 
ATOM     80  O   UNL A   1      32.854  34.514  29.603  1.00  0.00    -0.237 OA
ATOM     81  O   UNL A   1      34.847  35.310  28.390  1.00  0.00    -0.237 OA
ATOM     82  O   UNL A   1      33.692  33.290  27.624  1.00  0.00    -0.744 OA
ENDBRANCH  76  79
ENDBRANCH  48  72
BRANCH  60  83
ATOM     83  C   UNL A   1      43.255  35.546  30.779  1.00  0.00     0.023 A 
ATOM     84  C   UNL A   1      43.641  35.762  32.116  1.00  0.00     0.012 A 
ATOM     85  C   UNL A   1      43.315  36.612  29.860  1.00  0.00     0.148 A 
ATOM     86  C   UNL A   1      44.059  37.024  32.538  1.00  0.00     0.002 A 
ATOM     87  C   UNL A   1      43.770  37.857  30.279  1.00  0.00     0.091 A 
ATOM     88  F   UNL A   1      42.920  36.393  28.597  1.00  0.00    -0.205 F 
ATOM     89  C   UNL A   1      44.135  38.067  31.618  1.00  0.00     0.022 A 
BRANCH  87  90
ATOM     90  S   UNL A   1      43.980  39.229  29.137  1.00  0.00     0.127 S 
ATOM     91  O   UNL A   1      44.940  38.679  28.183  1.00  0.00    -0.237 OA
ATOM     92  O   UNL A   1      42.628  39.408  28.606  1.00  0.00    -0.237 OA
ATOM     93  O   UNL A   1      44.459  40.344  29.943  1.00  0.00    -0.744 OA
ENDBRANCH  87  90
ENDBRANCH  60  83
ENDBRANCH  34  35
ENDBRANCH  26  29
ENDBRANCH  24  25
ENDBRANCH  23  24
ENDBRANCH   1  23
TORSDOF 18
ENDMDL
MODEL 2
REMARK VINA RESULT:     -11.0      2.849      3.689
REMARK SMILES O=C(Cc1ccc(S(=O)(=O)C[C@H]2CCCO2)cc1)NCCCCNC(=O)c1ccc(-c2c3nc(c(-c4cccc(S(=O)(=O)[O-])c4F)c4ccc([nH]4)c(-c4cccc(S(=O)(=O)[O-])c4F)c4nc(c(-c5cccc(S(=O)(=O)[O-])c5F)c5ccc2[nH]5)C=C4)C=C3)cc1
REMARK SMILES IDX 21 1 20 2 19 3 1 4 2 5 3 7 4 8 5 9 18 10 6 11 17 12 7 13
REMARK SMILES IDX 8 14 9 15 10 16 11 17 12 18 13 19 16 20 14 21 15 22 22 23
REMARK SMILES IDX 23 24 24 25 25 26 26 28 27 29 28 30 89 31 29 32 88 33 30 34
REMARK SMILES IDX 31 35 32 36 82 37 33 38 87 39 81 40 83 41 34 42 86 43 80 44
REMARK SMILES IDX 79 45 35 47 67 48 47 49 66 50 48 51 51 52 65 53 84 54 49 55
REMARK SMILES IDX 50 56 64 58 85 59 52 60 36 61 37 62 45 63 38 64 40 65 46 66
REMARK SMILES IDX 39 67 41 68 42 69 43 70 44 71 68 72 69 73 77 74 70 75 72 76
REMARK SMILES IDX 78 77 71 78 73 79 74 80 75 81 76 82 53 83 54 84 62 85 55 86
REMARK SMILES IDX 57 87 63 88 56 89 58 90 59 91 60 92 61 93
REMARK H PARENT 19 6 24 27 83 46 51 57
REMARK Flexibility Score: inf
ROOT
ATOM      1  C   UNL A   1      34.354  20.172  24.957  1.00  0.00     0.023 C 
ENDROOT
BRANCH   1   2
ATOM      2  C   UNL A   1      33.011  20.171  25.683  1.00  0.00     0.116 C 
BRANCH   2   3
ATOM      3  N   UNL A   1      32.741  21.414  26.375  1.00  0.00    -0.356 N 
ATOM      4  O   UNL A   1      31.286  22.236  24.794  1.00  0.00    -0.275 OA
ATOM      5  C   UNL A   1      31.834  22.336  25.888  1.00  0.00     0.224 C 
ATOM      6  H   UNL A   1      33.214  21.606  27.217  1.00  0.00     0.163 HD
BRANCH   5   7
ATOM      7  C   UNL A   1      31.550  23.484  26.844  1.00  0.00     0.135 C 
BRANCH   7   8
ATOM      8  C   UNL A   1      31.661  24.846  26.194  1.00  0.00    -0.039 A 
ATOM      9  C   UNL A   1      30.517  25.574  25.834  1.00  0.00     0.005 A 
ATOM     10  C   UNL A   1      32.923  25.430  25.997  1.00  0.00     0.005 A 
ATOM     11  C   UNL A   1      30.627  26.858  25.302  1.00  0.00     0.020 A 
ATOM     12  C   UNL A   1      33.040  26.713  25.454  1.00  0.00     0.020 A 
ATOM     13  C   UNL A   1      31.889  27.433  25.134  1.00  0.00     0.067 A 
BRANCH  13  14
ATOM     14  S   UNL A   1      31.998  29.092  24.515  1.00  0.00     0.180 S 
ATOM     15  O   UNL A   1      31.282  29.912  25.479  1.00  0.00    -0.224 OA
ATOM     16  O   UNL A   1      33.397  29.362  24.242  1.00  0.00    -0.224 OA
BRANCH  14  17
ATOM     17  C   UNL A   1      31.118  29.204  22.988  1.00  0.00     0.174 C 
BRANCH  17  18
ATOM     18  C   UNL A   1      29.631  29.509  23.026  1.00  0.00     0.133 C 
ATOM     19  C   UNL A   1      29.176  30.873  23.524  1.00  0.00     0.035 C 
ATOM     20  O   UNL A   1      29.025  29.285  21.744  1.00  0.00    -0.377 OA
ATOM     21  C   UNL A   1      28.612  31.537  22.293  1.00  0.00     0.031 C 
ATOM     22  C   UNL A   1      28.112  30.362  21.485  1.00  0.00     0.160 C 
ENDBRANCH  17  18
ENDBRANCH  14  17
ENDBRANCH  13  14
ENDBRANCH   7   8
ENDBRANCH   5   7
ENDBRANCH   2   3
ENDBRANCH   1   2
BRANCH   1  23
ATOM     23  C   UNL A   1      35.015  21.544  24.781  1.00  0.00     0.023 C 
BRANCH  23  24
ATOM     24  C   UNL A   1      36.158  21.861  25.742  1.00  0.00     0.116 C 
BRANCH  24  25
ATOM     25  N   UNL A   1      37.222  20.872  25.694  1.00  0.00    -0.352 N 
ATOM     26  C   UNL A   1      38.579  21.028  25.865  1.00  0.00     0.251 C 
ATOM     27  H   UNL A   1      36.928  19.950  25.512  1.00  0.00     0.163 HD
ATOM     28  O   UNL A   1      39.329  20.085  25.625  1.00  0.00    -0.269 OA
BRANCH  26  29
ATOM     29  C   UNL A   1      39.145  22.324  26.309  1.00  0.00     0.039 A 
ATOM     30  C   UNL A   1      40.212  22.316  27.214  1.00  0.00     0.014 A 
ATOM     31  C   UNL A   1      38.619  23.541  25.867  1.00  0.00     0.014 A 
ATOM     32  C   UNL A   1      40.793  23.522  27.621  1.00  0.00     0.010 A 
ATOM     33  C   UNL A   1      39.236  24.739  26.228  1.00  0.00     0.010 A 
ATOM     34  C   UNL A   1      40.330  24.744  27.107  1.00  0.00    -0.014 A 
BRANCH  34  35
ATOM     35  C   UNL A   1      40.993  26.030  27.451  1.00  0.00     0.031 A 
ATOM     36  C   UNL A   1      42.416  26.293  27.041  1.00  0.00     0.074 A 
ATOM     37  C   UNL A   1      40.344  26.927  28.222  1.00  0.00     0.049 A 
ATOM     38  N   UNL A   1      43.174  27.325  27.310  1.00  0.00    -0.248 NA
ATOM     39  C   UNL A   1      43.085  25.250  26.246  1.00  0.00     0.031 C 
ATOM     40  C   UNL A   1      38.989  26.761  28.752  1.00  0.00     0.029 A 
ATOM     41  N   UNL A   1      40.747  28.143  28.717  1.00  0.00    -0.354 N 
ATOM     42  C   UNL A   1      44.416  27.042  26.755  1.00  0.00     0.074 A 
ATOM     43  C   UNL A   1      44.318  25.730  26.151  1.00  0.00     0.031 C 
ATOM     44  C   UNL A   1      38.675  27.832  29.498  1.00  0.00     0.029 A 
ATOM     45  C   UNL A   1      39.810  28.750  29.520  1.00  0.00     0.049 A 
ATOM     46  H   UNL A   1      41.625  28.541  28.516  1.00  0.00     0.167 HD
ATOM     47  C   UNL A   1      45.529  27.814  26.723  1.00  0.00     0.034 A 
ATOM     48  C   UNL A   1      39.857  29.914  30.198  1.00  0.00     0.034 A 
ATOM     49  C   UNL A   1      45.610  29.143  27.266  1.00  0.00     0.049 A 
ATOM     50  C   UNL A   1      41.084  30.777  30.098  1.00  0.00     0.074 A 
ATOM     51  C   UNL A   1      46.661  30.041  27.188  1.00  0.00     0.029 A 
ATOM     52  N   UNL A   1      44.605  29.766  27.988  1.00  0.00    -0.354 N 
ATOM     53  N   UNL A   1      42.188  30.564  29.423  1.00  0.00    -0.248 NA
ATOM     54  C   UNL A   1      41.061  32.056  30.823  1.00  0.00     0.031 C 
ATOM     55  C   UNL A   1      46.292  31.207  27.871  1.00  0.00     0.029 A 
ATOM     56  C   UNL A   1      45.011  31.035  28.368  1.00  0.00     0.049 A 
ATOM     57  H   UNL A   1      43.730  29.366  28.199  1.00  0.00     0.167 HD
ATOM     58  C   UNL A   1      42.975  31.694  29.613  1.00  0.00     0.074 A 
ATOM     59  C   UNL A   1      42.215  32.597  30.452  1.00  0.00     0.031 C 
ATOM     60  C   UNL A   1      44.223  31.951  29.150  1.00  0.00     0.034 A 
BRANCH  47  61
ATOM     61  C   UNL A   1      46.738  27.266  26.012  1.00  0.00     0.023 A 
ATOM     62  C   UNL A   1      47.506  26.262  26.634  1.00  0.00     0.012 A 
ATOM     63  C   UNL A   1      47.076  27.690  24.712  1.00  0.00     0.148 A 
ATOM     64  C   UNL A   1      48.610  25.708  25.987  1.00  0.00     0.002 A 
ATOM     65  C   UNL A   1      48.155  27.106  24.058  1.00  0.00     0.091 A 
ATOM     66  F   UNL A   1      46.347  28.663  24.144  1.00  0.00    -0.205 F 
ATOM     67  C   UNL A   1      48.928  26.122  24.696  1.00  0.00     0.022 A 
BRANCH  65  68
ATOM     68  S   UNL A   1      48.593  27.523  22.365  1.00  0.00     0.127 S 
ATOM     69  O   UNL A   1      49.873  28.203  22.550  1.00  0.00    -0.237 OA
ATOM     70  O   UNL A   1      48.689  26.205  21.734  1.00  0.00    -0.237 OA
ATOM     71  O   UNL A   1      47.503  28.351  21.867  1.00  0.00    -0.744 OA
ENDBRANCH  65  68
ENDBRANCH  47  61
BRANCH  48  72
ATOM     72  C   UNL A   1      38.664  30.370  30.965  1.00  0.00     0.023 A 
ATOM     73  C   UNL A   1      38.584  30.083  32.342  1.00  0.00     0.012 A 
ATOM     74  C   UNL A   1      37.636  31.115  30.358  1.00  0.00     0.148 A 
ATOM     75  C   UNL A   1      37.491  30.509  33.096  1.00  0.00     0.002 A 
ATOM     76  C   UNL A   1      36.573  31.581  31.125  1.00  0.00     0.091 A 
ATOM     77  F   UNL A   1      37.719  31.363  29.043  1.00  0.00    -0.205 F 
ATOM     78  C   UNL A   1      36.491  31.268  32.491  1.00  0.00     0.022 A 
BRANCH  76  79
ATOM     79  S   UNL A   1      35.316  32.675  30.451  1.00  0.00     0.127 S 
ATOM     80  O   UNL A   1      36.110  33.833  30.053  1.00  0.00    -0.237 OA
ATOM     81  O   UNL A   1      34.781  31.882  29.343  1.00  0.00    -0.237 OA
ATOM     82  O   UNL A   1      34.370  32.891  31.537  1.00  0.00    -0.744 OA
ENDBRANCH  76  79
ENDBRANCH  48  72
BRANCH  60  83
ATOM     83  C   UNL A   1      44.847  33.271  29.516  1.00  0.00     0.023 A 
ATOM     84  C   UNL A   1      45.654  33.360  30.668  1.00  0.00     0.012 A 
ATOM     85  C   UNL A   1      44.705  34.397  28.683  1.00  0.00     0.148 A 
ATOM     86  C   UNL A   1      46.290  34.556  30.997  1.00  0.00     0.002 A 
ATOM     87  C   UNL A   1      45.373  35.575  28.996  1.00  0.00     0.091 A 
ATOM     88  F   UNL A   1      43.913  34.300  27.604  1.00  0.00    -0.205 F 
ATOM     89  C   UNL A   1      46.160  35.659  30.156  1.00  0.00     0.022 A 
BRANCH  87  90
ATOM     90  S   UNL A   1      45.328  37.012  27.919  1.00  0.00     0.127 S 
ATOM     91  O   UNL A   1      45.750  36.442  26.641  1.00  0.00    -0.237 OA
ATOM     92  O   UNL A   1      43.919  37.405  27.975  1.00  0.00    -0.237 OA
ATOM     93  O   UNL A   1      46.242  37.980  28.512  1.00  0.00    -0.744 OA
ENDBRANCH  87  90
ENDBRANCH  60  83
ENDBRANCH  34  35
ENDBRANCH  26  29
ENDBRANCH  24  25
ENDBRANCH  23  24
ENDBRANCH   1  23
TORSDOF 18
ENDMDL
MODEL 3
REMARK VINA RESULT:     -11.0      2.854      8.077
REMARK SMILES O=C(Cc1ccc(S(=O)(=O)C[C@H]2CCCO2)cc1)NCCCCNC(=O)c1ccc(-c2c3nc(c(-c4cccc(S(=O)(=O)[O-])c4F)c4ccc([nH]4)c(-c4cccc(S(=O)(=O)[O-])c4F)c4nc(c(-c5cccc(S(=O)(=O)[O-])c5F)c5ccc2[nH]5)C=C4)C=C3)cc1
REMARK SMILES IDX 21 1 20 2 19 3 1 4 2 5 3 7 4 8 5 9 18 10 6 11 17 12 7 13
REMARK SMILES IDX 8 14 9 15 10 16 11 17 12 18 13 19 16 20 14 21 15 22 22 23
REMARK SMILES IDX 23 24 24 25 25 26 26 28 27 29 28 30 89 31 29 32 88 33 30 34
REMARK SMILES IDX 31 35 32 36 82 37 33 38 87 39 81 40 83 41 34 42 86 43 80 44
REMARK SMILES IDX 79 45 35 47 67 48 47 49 66 50 48 51 51 52 65 53 84 54 49 55
REMARK SMILES IDX 50 56 64 58 85 59 52 60 36 61 37 62 45 63 38 64 40 65 46 66
REMARK SMILES IDX 39 67 41 68 42 69 43 70 44 71 68 72 69 73 77 74 70 75 72 76
REMARK SMILES IDX 78 77 71 78 73 79 74 80 75 81 76 82 53 83 54 84 62 85 55 86
REMARK SMILES IDX 57 87 63 88 56 89 58 90 59 91 60 92 61 93
REMARK H PARENT 19 6 24 27 83 46 51 57
REMARK Flexibility Score: inf
ROOT
ATOM      1  C   UNL A   1      35.631  21.353  24.688  1.00  0.00     0.023 C 
ENDROOT
BRANCH   1   2
ATOM      2  C   UNL A   1      34.570  21.049  25.743  1.00  0.00     0.116 C 
BRANCH   2   3
ATOM      3  N   UNL A   1      33.881  22.233  26.211  1.00  0.00    -0.356 N 
ATOM      4  O   UNL A   1      31.870  21.728  25.216  1.00  0.00    -0.275 OA
ATOM      5  C   UNL A   1      32.541  22.447  25.950  1.00  0.00     0.224 C 
ATOM      6  H   UNL A   1      34.381  22.903  26.731  1.00  0.00     0.163 HD
BRANCH   5   7
ATOM      7  C   UNL A   1      31.956  23.646  26.679  1.00  0.00     0.135 C 
BRANCH   7   8
ATOM      8  C   UNL A   1      31.472  24.736  25.747  1.00  0.00    -0.039 A 
ATOM      9  C   UNL A   1      30.177  25.265  25.860  1.00  0.00     0.005 A 
ATOM     10  C   UNL A   1      32.342  25.278  24.787  1.00  0.00     0.005 A 
ATOM     11  C   UNL A   1      29.764  26.319  25.044  1.00  0.00     0.020 A 
ATOM     12  C   UNL A   1      31.930  26.327  23.959  1.00  0.00     0.020 A 
ATOM     13  C   UNL A   1      30.650  26.861  24.111  1.00  0.00     0.067 A 
BRANCH  13  14
ATOM     14  S   UNL A   1      30.121  28.241  23.130  1.00  0.00     0.180 S 
ATOM     15  O   UNL A   1      30.645  29.418  23.806  1.00  0.00    -0.224 OA
ATOM     16  O   UNL A   1      30.506  27.972  21.758  1.00  0.00    -0.224 OA
BRANCH  14  17
ATOM     17  C   UNL A   1      28.360  28.356  23.186  1.00  0.00     0.174 C 
BRANCH  17  18
ATOM     18  C   UNL A   1      27.690  29.569  22.566  1.00  0.00     0.133 C 
ATOM     19  C   UNL A   1      27.577  30.845  23.387  1.00  0.00     0.035 C 
ATOM     20  O   UNL A   1      28.297  29.908  21.309  1.00  0.00    -0.377 OA
ATOM     21  C   UNL A   1      28.496  31.810  22.680  1.00  0.00     0.031 C 
ATOM     22  C   UNL A   1      28.434  31.335  21.248  1.00  0.00     0.160 C 
ENDBRANCH  17  18
ENDBRANCH  14  17
ENDBRANCH  13  14
ENDBRANCH   7   8
ENDBRANCH   5   7
ENDBRANCH   2   3
ENDBRANCH   1   2
BRANCH   1  23
ATOM     23  C   UNL A   1      36.923  20.535  24.787  1.00  0.00     0.023 C 
BRANCH  23  24
ATOM     24  C   UNL A   1      38.108  21.238  25.445  1.00  0.00     0.116 C 
BRANCH  24  25
ATOM     25  N   UNL A   1      39.083  20.306  25.987  1.00  0.00    -0.352 N 
ATOM     26  C   UNL A   1      40.279  20.552  26.620  1.00  0.00     0.251 C 
ATOM     27  H   UNL A   1      38.852  19.354  25.887  1.00  0.00     0.163 HD
ATOM     28  O   UNL A   1      41.037  19.615  26.862  1.00  0.00    -0.269 OA
BRANCH  26  29
ATOM     29  C   UNL A   1      40.675  21.932  26.989  1.00  0.00     0.039 A 
ATOM     30  C   UNL A   1      41.436  22.126  28.147  1.00  0.00     0.014 A 
ATOM     31  C   UNL A   1      40.282  23.033  26.224  1.00  0.00     0.014 A 
ATOM     32  C   UNL A   1      41.857  23.412  28.500  1.00  0.00     0.010 A 
ATOM     33  C   UNL A   1      40.752  24.307  26.544  1.00  0.00     0.010 A 
ATOM     34  C   UNL A   1      41.545  24.512  27.684  1.00  0.00    -0.014 A 
BRANCH  34  35
ATOM     35  C   UNL A   1      42.062  25.873  27.987  1.00  0.00     0.031 A 
ATOM     36  C   UNL A   1      41.177  26.901  28.639  1.00  0.00     0.074 A 
ATOM     37  C   UNL A   1      43.303  26.218  27.587  1.00  0.00     0.049 A 
ATOM     38  N   UNL A   1      41.435  28.154  28.916  1.00  0.00    -0.248 NA
ATOM     39  C   UNL A   1      39.816  26.475  29.003  1.00  0.00     0.031 C 
ATOM     40  C   UNL A   1      44.236  25.341  26.877  1.00  0.00     0.029 A 
ATOM     41  N   UNL A   1      43.982  27.407  27.694  1.00  0.00    -0.354 N 
ATOM     42  C   UNL A   1      40.263  28.676  29.449  1.00  0.00     0.074 A 
ATOM     43  C   UNL A   1      39.283  27.610  29.436  1.00  0.00     0.031 C 
ATOM     44  C   UNL A   1      45.362  26.020  26.611  1.00  0.00     0.029 A 
ATOM     45  C   UNL A   1      45.227  27.385  27.110  1.00  0.00     0.049 A 
ATOM     46  H   UNL A   1      43.612  28.199  28.147  1.00  0.00     0.167 HD
ATOM     47  C   UNL A   1      40.029  29.920  29.933  1.00  0.00     0.034 A 
ATOM     48  C   UNL A   1      46.156  28.355  26.987  1.00  0.00     0.034 A 
ATOM     49  C   UNL A   1      41.018  30.961  30.005  1.00  0.00     0.049 A 
ATOM     50  C   UNL A   1      45.892  29.710  27.584  1.00  0.00     0.074 A 
ATOM     51  C   UNL A   1      40.904  32.217  30.575  1.00  0.00     0.029 A 
ATOM     52  N   UNL A   1      42.302  30.871  29.492  1.00  0.00    -0.354 N 
ATOM     53  N   UNL A   1      44.835  30.130  28.238  1.00  0.00    -0.248 NA
ATOM     54  C   UNL A   1      46.958  30.713  27.459  1.00  0.00     0.031 C 
ATOM     55  C   UNL A   1      42.119  32.890  30.399  1.00  0.00     0.029 A 
ATOM     56  C   UNL A   1      42.990  32.050  29.725  1.00  0.00     0.049 A 
ATOM     57  H   UNL A   1      42.671  30.083  29.029  1.00  0.00     0.167 HD
ATOM     58  C   UNL A   1      45.123  31.432  28.631  1.00  0.00     0.074 A 
ATOM     59  C   UNL A   1      46.460  31.726  28.158  1.00  0.00     0.031 C 
ATOM     60  C   UNL A   1      44.342  32.311  29.305  1.00  0.00     0.034 A 
BRANCH  47  61
ATOM     61  C   UNL A   1      38.660  30.205  30.492  1.00  0.00     0.023 A 
ATOM     62  C   UNL A   1      38.363  29.823  31.814  1.00  0.00     0.012 A 
ATOM     63  C   UNL A   1      37.697  30.906  29.740  1.00  0.00     0.148 A 
ATOM     64  C   UNL A   1      37.117  30.105  32.373  1.00  0.00     0.002 A 
ATOM     65  C   UNL A   1      36.470  31.217  30.317  1.00  0.00     0.091 A 
ATOM     66  F   UNL A   1      37.988  31.242  28.475  1.00  0.00    -0.205 F 
ATOM     67  C   UNL A   1      36.176  30.811  31.629  1.00  0.00     0.022 A 
BRANCH  65  68
ATOM     68  S   UNL A   1      35.223  32.189  29.460  1.00  0.00     0.127 S 
ATOM     69  O   UNL A   1      34.334  32.562  30.558  1.00  0.00    -0.237 OA
ATOM     70  O   UNL A   1      36.011  33.294  28.912  1.00  0.00    -0.237 OA
ATOM     71  O   UNL A   1      34.652  31.302  28.457  1.00  0.00    -0.744 OA
ENDBRANCH  65  68
ENDBRANCH  47  61
BRANCH  48  72
ATOM     72  C   UNL A   1      47.463  28.048  26.341  1.00  0.00     0.023 A 
ATOM     73  C   UNL A   1      48.584  27.790  27.154  1.00  0.00     0.012 A 
ATOM     74  C   UNL A   1      47.595  27.968  24.942  1.00  0.00     0.148 A 
ATOM     75  C   UNL A   1      49.819  27.481  26.585  1.00  0.00     0.002 A 
ATOM     76  C   UNL A   1      48.817  27.610  24.382  1.00  0.00     0.091 A 
ATOM     77  F   UNL A   1      46.522  28.235  24.185  1.00  0.00    -0.205 F 
ATOM     78  C   UNL A   1      49.934  27.380  25.200  1.00  0.00     0.022 A 
BRANCH  76  79
ATOM     79  S   UNL A   1      49.011  27.328  22.618  1.00  0.00     0.127 S 
ATOM     80  O   UNL A   1      50.464  27.307  22.476  1.00  0.00    -0.237 OA
ATOM     81  O   UNL A   1      48.354  26.032  22.439  1.00  0.00    -0.237 OA
ATOM     82  O   UNL A   1      48.322  28.437  21.971  1.00  0.00    -0.744 OA
ENDBRANCH  76  79
ENDBRANCH  48  72
BRANCH  60  83
ATOM     83  C   UNL A   1      44.913  33.672  29.598  1.00  0.00     0.023 A 
ATOM     84  C   UNL A   1      45.631  33.880  30.793  1.00  0.00     0.012 A 
ATOM     85  C   UNL A   1      44.810  34.719  28.661  1.00  0.00     0.148 A 
ATOM     86  C   UNL A   1      46.218  35.116  31.061  1.00  0.00     0.002 A 
ATOM     87  C   UNL A   1      45.432  35.936  28.918  1.00  0.00     0.091 A 
ATOM     88  F   UNL A   1      44.103  34.510  27.542  1.00  0.00    -0.205 F 
ATOM     89  C   UNL A   1      46.130  36.139  30.119  1.00  0.00     0.022 A 
BRANCH  87  90
ATOM     90  S   UNL A   1      45.439  37.274  27.718  1.00  0.00     0.127 S 
ATOM     91  O   UNL A   1      44.027  37.647  27.678  1.00  0.00    -0.237 OA
ATOM     92  O   UNL A   1      46.313  38.263  28.352  1.00  0.00    -0.237 OA
ATOM     93  O   UNL A   1      45.977  36.701  26.491  1.00  0.00    -0.744 OA
ENDBRANCH  87  90
ENDBRANCH  60  83
ENDBRANCH  34  35
ENDBRANCH  26  29
ENDBRANCH  24  25
ENDBRANCH  23  24
ENDBRANCH   1  23
TORSDOF 18
ENDMDL
