MODEL 1
REMARK VINA RESULT:     -13.1      0.000      0.000
REMARK SMILES CCc1ccc(-c2cc(Cl)cc3c2O[C@H](C(F)(F)F)C(C(=O)NCCCCNC(=O)c2ccc(-c4c5nc(c(-c6cccc(S(=O)(=O)[O-])c6F)c6ccc([nH]6)c(-c6cccc(S(=O)(=O)[O-])c6F)c6nc(c(-c7cccc(S(=O)(=O)[O-])c7F)c7ccc4[nH]7)C=C6)C=C5)cc2)=C3)cc1
REMARK SMILES IDX 26 1 25 2 24 3 23 4 21 5 22 6 20 8 7 9 8 10 13 11 9 12 12 13
REMARK SMILES IDX 14 14 10 15 11 16 94 17 15 18 6 19 3 20 4 21 96 22 5 23
REMARK SMILES IDX 95 24 2 25 1 26 16 27 17 28 18 29 19 30 27 31 28 32 29 33
REMARK SMILES IDX 30 35 31 36 32 37 93 38 33 39 92 40 34 41 35 42 36 43 86 44
REMARK SMILES IDX 37 45 91 46 85 47 87 48 38 49 90 50 84 51 83 52 39 54 71 55
REMARK SMILES IDX 51 56 70 57 52 58 55 59 69 60 88 61 53 62 54 63 68 65 89 66
REMARK SMILES IDX 56 67 40 68 41 69 49 70 42 71 44 72 50 73 43 74 45 75 46 76
REMARK SMILES IDX 47 77 48 78 72 79 73 80 81 81 74 82 76 83 82 84 75 85 77 86
REMARK SMILES IDX 78 87 79 88 80 89 57 90 58 91 66 92 59 93 61 94 67 95 60 96
REMARK SMILES IDX 62 97 63 98 64 99 65 100
REMARK H PARENT 23 7 28 34 87 53 55 64
REMARK Flexibility Score: inf
ROOT
ATOM      1  C   UNL A   1      31.585  31.834  26.610  1.00  0.00     0.023 C 
ENDROOT
BRANCH   1   2
ATOM      2  C   UNL A   1      31.618  30.301  26.515  1.00  0.00     0.023 C 
BRANCH   2   3
ATOM      3  C   UNL A   1      32.976  29.698  26.127  1.00  0.00     0.116 C 
BRANCH   3   4
ATOM      4  N   UNL A   1      33.103  28.374  26.697  1.00  0.00    -0.352 N 
ATOM      5  C   UNL A   1      32.408  27.250  26.403  1.00  0.00     0.251 C 
ATOM      6  O   UNL A   1      32.189  26.442  27.300  1.00  0.00    -0.270 OA
ATOM      7  H   UNL A   1      33.791  28.277  27.393  1.00  0.00     0.163 HD
BRANCH   5   8
ATOM      8  C   UNL A   1      32.025  26.994  24.981  1.00  0.00     0.067 C 
ATOM      9  C   UNL A   1      33.044  23.049  24.799  1.00  0.00     0.026 A 
ATOM     10  C   UNL A   1      34.328  22.929  25.395  1.00  0.00     0.033 A 
ATOM     11  C   UNL A   1      32.622  24.355  24.490  1.00  0.00     0.135 A 
ATOM     12  C   UNL A   1      35.207  24.003  25.510  1.00  0.00     0.042 A 
ATOM     13  C   UNL A   1      33.570  25.411  24.507  1.00  0.00     0.019 A 
ATOM     14  O   UNL A   1      31.300  24.686  24.220  1.00  0.00    -0.475 OA
ATOM     15  Cl  UNL A   1      36.735  23.775  26.258  1.00  0.00    -0.084 Cl
ATOM     16  C   UNL A   1      34.861  25.237  24.996  1.00  0.00     0.032 A 
ATOM     17  C   UNL A   1      33.093  26.776  24.188  1.00  0.00     0.025 C 
ATOM     18  C   UNL A   1      30.882  25.998  24.809  1.00  0.00     0.314 C 
BRANCH   9  19
ATOM     19  C   UNL A   1      32.441  21.754  24.376  1.00  0.00    -0.015 A 
ATOM     20  C   UNL A   1      32.444  19.129  23.244  1.00  0.00    -0.048 A 
ATOM     21  C   UNL A   1      32.592  19.314  24.622  1.00  0.00     0.004 A 
ATOM     22  C   UNL A   1      32.174  20.255  22.456  1.00  0.00     0.004 A 
ATOM     23  C   UNL A   1      32.569  20.603  25.181  1.00  0.00     0.009 A 
ATOM     24  C   UNL A   1      32.160  21.547  23.015  1.00  0.00     0.009 A 
BRANCH  20  25
ATOM     25  C   UNL A   1      32.604  17.760  22.619  1.00  0.00     0.032 C 
ATOM     26  C   UNL A   1      33.820  16.985  23.124  1.00  0.00     0.009 C 
ENDBRANCH  20  25
ENDBRANCH   9  19
BRANCH  18  27
ATOM     27  C   UNL A   1      29.774  26.672  23.968  1.00  0.00     0.429 C 
ATOM     28  F   UNL A   1      28.529  26.382  24.412  1.00  0.00    -0.167 F 
ATOM     29  F   UNL A   1      29.904  28.021  23.973  1.00  0.00    -0.167 F 
ATOM     30  F   UNL A   1      29.810  26.297  22.661  1.00  0.00    -0.167 F 
ENDBRANCH  18  27
ENDBRANCH   5   8
ENDBRANCH   3   4
ENDBRANCH   2   3
ENDBRANCH   1   2
BRANCH   1  31
ATOM     31  C   UNL A   1      32.645  32.447  27.516  1.00  0.00     0.116 C 
BRANCH  31  32
ATOM     32  N   UNL A   1      32.471  33.885  27.662  1.00  0.00    -0.352 N 
ATOM     33  C   UNL A   1      33.104  34.747  28.524  1.00  0.00     0.251 C 
ATOM     34  H   UNL A   1      31.809  34.295  27.060  1.00  0.00     0.163 HD
ATOM     35  O   UNL A   1      32.696  35.900  28.646  1.00  0.00    -0.269 OA
BRANCH  33  36
ATOM     36  C   UNL A   1      34.259  34.277  29.319  1.00  0.00     0.039 A 
ATOM     37  C   UNL A   1      34.030  33.613  30.525  1.00  0.00     0.014 A 
ATOM     38  C   UNL A   1      35.566  34.482  28.867  1.00  0.00     0.014 A 
ATOM     39  C   UNL A   1      35.109  33.092  31.246  1.00  0.00     0.010 A 
ATOM     40  C   UNL A   1      36.633  33.900  29.547  1.00  0.00     0.010 A 
ATOM     41  C   UNL A   1      36.417  33.199  30.744  1.00  0.00    -0.014 A 
BRANCH  41  42
ATOM     42  C   UNL A   1      37.572  32.576  31.444  1.00  0.00     0.031 A 
ATOM     43  C   UNL A   1      38.296  31.411  30.823  1.00  0.00     0.074 A 
ATOM     44  C   UNL A   1      37.914  33.003  32.677  1.00  0.00     0.049 A 
ATOM     45  N   UNL A   1      39.268  30.686  31.314  1.00  0.00    -0.248 NA
ATOM     46  C   UNL A   1      37.854  30.989  29.483  1.00  0.00     0.031 C 
ATOM     47  C   UNL A   1      37.250  34.078  33.418  1.00  0.00     0.029 A 
ATOM     48  N   UNL A   1      38.891  32.565  33.539  1.00  0.00    -0.354 N 
ATOM     49  C   UNL A   1      39.534  29.710  30.362  1.00  0.00     0.074 A 
ATOM     50  C   UNL A   1      38.595  29.908  29.280  1.00  0.00     0.031 C 
ATOM     51  C   UNL A   1      37.840  34.218  34.617  1.00  0.00     0.029 A 
ATOM     52  C   UNL A   1      38.898  33.223  34.747  1.00  0.00     0.049 A 
ATOM     53  H   UNL A   1      39.524  31.846  33.313  1.00  0.00     0.167 HD
ATOM     54  C   UNL A   1      40.493  28.754  30.370  1.00  0.00     0.034 A 
ATOM     55  C   UNL A   1      39.664  33.038  35.841  1.00  0.00     0.034 A 
ATOM     56  C   UNL A   1      41.451  28.581  31.429  1.00  0.00     0.049 A 
ATOM     57  C   UNL A   1      40.729  31.974  35.817  1.00  0.00     0.074 A 
ATOM     58  C   UNL A   1      42.501  27.682  31.501  1.00  0.00     0.029 A 
ATOM     59  N   UNL A   1      41.475  29.318  32.602  1.00  0.00    -0.354 N 
ATOM     60  N   UNL A   1      41.054  31.153  34.848  1.00  0.00    -0.248 NA
ATOM     61  C   UNL A   1      41.556  31.833  37.024  1.00  0.00     0.031 C 
ATOM     62  C   UNL A   1      43.148  27.863  32.728  1.00  0.00     0.029 A 
ATOM     63  C   UNL A   1      42.519  28.894  33.405  1.00  0.00     0.049 A 
ATOM     64  H   UNL A   1      40.842  30.038  32.831  1.00  0.00     0.167 HD
ATOM     65  C   UNL A   1      42.150  30.433  35.311  1.00  0.00     0.074 A 
ATOM     66  C   UNL A   1      42.445  30.928  36.640  1.00  0.00     0.031 C 
ATOM     67  C   UNL A   1      42.842  29.442  34.698  1.00  0.00     0.034 A 
BRANCH  54  68
ATOM     68  C   UNL A   1      40.599  27.855  29.164  1.00  0.00     0.023 A 
ATOM     69  C   UNL A   1      39.714  26.765  29.036  1.00  0.00     0.012 A 
ATOM     70  C   UNL A   1      41.515  28.126  28.130  1.00  0.00     0.148 A 
ATOM     71  C   UNL A   1      39.761  25.938  27.914  1.00  0.00     0.002 A 
ATOM     72  C   UNL A   1      41.525  27.325  26.993  1.00  0.00     0.091 A 
ATOM     73  F   UNL A   1      42.359  29.157  28.276  1.00  0.00    -0.205 F 
ATOM     74  C   UNL A   1      40.658  26.225  26.889  1.00  0.00     0.022 A 
BRANCH  72  75
ATOM     75  S   UNL A   1      42.585  27.653  25.580  1.00  0.00     0.127 S 
ATOM     76  O   UNL A   1      42.328  26.483  24.742  1.00  0.00    -0.237 OA
ATOM     77  O   UNL A   1      42.032  28.905  25.066  1.00  0.00    -0.237 OA
ATOM     78  O   UNL A   1      43.939  27.754  26.107  1.00  0.00    -0.744 OA
ENDBRANCH  72  75
ENDBRANCH  54  68
BRANCH  55  79
ATOM     79  C   UNL A   1      39.498  33.915  37.037  1.00  0.00     0.023 A 
ATOM     80  C   UNL A   1      39.976  35.240  36.992  1.00  0.00     0.012 A 
ATOM     81  C   UNL A   1      38.883  33.449  38.214  1.00  0.00     0.148 A 
ATOM     82  C   UNL A   1      39.885  36.070  38.110  1.00  0.00     0.002 A 
ATOM     83  C   UNL A   1      38.745  34.299  39.306  1.00  0.00     0.091 A 
ATOM     84  F   UNL A   1      38.445  32.183  38.245  1.00  0.00    -0.205 F 
ATOM     85  C   UNL A   1      39.263  35.603  39.264  1.00  0.00     0.022 A 
BRANCH  83  86
ATOM     86  S   UNL A   1      37.845  33.823  40.786  1.00  0.00     0.127 S 
ATOM     87  O   UNL A   1      38.779  32.897  41.420  1.00  0.00    -0.237 OA
ATOM     88  O   UNL A   1      37.686  35.107  41.472  1.00  0.00    -0.237 OA
ATOM     89  O   UNL A   1      36.595  33.242  40.312  1.00  0.00    -0.744 OA
ENDBRANCH  83  86
ENDBRANCH  55  79
BRANCH  67  90
ATOM     90  C   UNL A   1      44.024  28.856  35.426  1.00  0.00     0.023 A 
ATOM     91  C   UNL A   1      45.298  29.441  35.290  1.00  0.00     0.012 A 
ATOM     92  C   UNL A   1      43.852  27.771  36.309  1.00  0.00     0.148 A 
ATOM     93  C   UNL A   1      46.389  28.935  35.995  1.00  0.00     0.002 A 
ATOM     94  C   UNL A   1      44.932  27.305  37.047  1.00  0.00     0.091 A 
ATOM     95  F   UNL A   1      42.634  27.218  36.411  1.00  0.00    -0.205 F 
ATOM     96  C   UNL A   1      46.204  27.877  36.882  1.00  0.00     0.022 A 
BRANCH  94  97
ATOM     97  S   UNL A   1      44.769  26.014  38.285  1.00  0.00     0.127 S 
ATOM     98  O   UNL A   1      46.146  25.884  38.761  1.00  0.00    -0.237 OA
ATOM     99  O   UNL A   1      43.846  26.621  39.245  1.00  0.00    -0.237 OA
ATOM    100  O   UNL A   1      44.239  24.851  37.588  1.00  0.00    -0.744 OA
ENDBRANCH  94  97
ENDBRANCH  67  90
ENDBRANCH  41  42
ENDBRANCH  33  36
ENDBRANCH  31  32
ENDBRANCH   1  31
TORSDOF 17
ENDMDL
MODEL 2
REMARK VINA RESULT:     -12.6      6.023     11.157
REMARK SMILES CCc1ccc(-c2cc(Cl)cc3c2O[C@H](C(F)(F)F)C(C(=O)NCCCCNC(=O)c2ccc(-c4c5nc(c(-c6cccc(S(=O)(=O)[O-])c6F)c6ccc([nH]6)c(-c6cccc(S(=O)(=O)[O-])c6F)c6nc(c(-c7cccc(S(=O)(=O)[O-])c7F)c7ccc4[nH]7)C=C6)C=C5)cc2)=C3)cc1
REMARK SMILES IDX 26 1 25 2 24 3 23 4 21 5 22 6 20 8 7 9 8 10 13 11 9 12 12 13
REMARK SMILES IDX 14 14 10 15 11 16 94 17 15 18 6 19 3 20 4 21 96 22 5 23
REMARK SMILES IDX 95 24 2 25 1 26 16 27 17 28 18 29 19 30 27 31 28 32 29 33
REMARK SMILES IDX 30 35 31 36 32 37 93 38 33 39 92 40 34 41 35 42 36 43 86 44
REMARK SMILES IDX 37 45 91 46 85 47 87 48 38 49 90 50 84 51 83 52 39 54 71 55
REMARK SMILES IDX 51 56 70 57 52 58 55 59 69 60 88 61 53 62 54 63 68 65 89 66
REMARK SMILES IDX 56 67 40 68 41 69 49 70 42 71 44 72 50 73 43 74 45 75 46 76
REMARK SMILES IDX 47 77 48 78 72 79 73 80 81 81 74 82 76 83 82 84 75 85 77 86
REMARK SMILES IDX 78 87 79 88 80 89 57 90 58 91 66 92 59 93 61 94 67 95 60 96
REMARK SMILES IDX 62 97 63 98 64 99 65 100
REMARK H PARENT 23 7 28 34 87 53 55 64
REMARK Flexibility Score: inf
ROOT
ATOM      1  C   UNL A   1      35.584  20.921  25.491  1.00  0.00     0.023 C 
ENDROOT
BRANCH   1   2
ATOM      2  C   UNL A   1      34.918  19.791  24.691  1.00  0.00     0.023 C 
BRANCH   2   3
ATOM      3  C   UNL A   1      33.383  19.802  24.694  1.00  0.00     0.116 C 
BRANCH   3   4
ATOM      4  N   UNL A   1      32.899  20.635  23.614  1.00  0.00    -0.352 N 
ATOM      5  C   UNL A   1      32.272  21.832  23.677  1.00  0.00     0.251 C 
ATOM      6  O   UNL A   1      31.433  22.104  22.824  1.00  0.00    -0.270 OA
ATOM      7  H   UNL A   1      33.048  20.282  22.708  1.00  0.00     0.163 HD
BRANCH   5   8
ATOM      8  C   UNL A   1      32.701  22.813  24.722  1.00  0.00     0.067 C 
ATOM      9  C   UNL A   1      31.079  26.174  23.077  1.00  0.00     0.026 A 
ATOM     10  C   UNL A   1      31.418  26.160  21.697  1.00  0.00     0.033 A 
ATOM     11  C   UNL A   1      31.775  25.266  23.897  1.00  0.00     0.135 A 
ATOM     12  C   UNL A   1      32.495  25.434  21.195  1.00  0.00     0.042 A 
ATOM     13  C   UNL A   1      32.936  24.627  23.391  1.00  0.00     0.019 A 
ATOM     14  O   UNL A   1      31.353  24.913  25.172  1.00  0.00    -0.475 OA
ATOM     15  Cl  UNL A   1      32.828  25.460  19.511  1.00  0.00    -0.084 Cl
ATOM     16  C   UNL A   1      33.308  24.721  22.054  1.00  0.00     0.032 A 
ATOM     17  C   UNL A   1      33.640  23.670  24.274  1.00  0.00     0.025 C 
ATOM     18  C   UNL A   1      31.548  23.461  25.483  1.00  0.00     0.314 C 
BRANCH   9  19
ATOM     19  C   UNL A   1      30.206  27.311  23.481  1.00  0.00    -0.015 A 
ATOM     20  C   UNL A   1      28.544  29.597  23.052  1.00  0.00    -0.048 A 
ATOM     21  C   UNL A   1      27.986  28.322  23.184  1.00  0.00     0.004 A 
ATOM     22  C   UNL A   1      29.922  29.735  23.257  1.00  0.00     0.004 A 
ATOM     23  C   UNL A   1      28.801  27.201  23.417  1.00  0.00     0.009 A 
ATOM     24  C   UNL A   1      30.741  28.612  23.481  1.00  0.00     0.009 A 
BRANCH  20  25
ATOM     25  C   UNL A   1      27.690  30.785  22.666  1.00  0.00     0.032 C 
ATOM     26  C   UNL A   1      27.305  31.681  23.842  1.00  0.00     0.009 C 
ENDBRANCH  20  25
ENDBRANCH   9  19
BRANCH  18  27
ATOM     27  C   UNL A   1      31.775  23.228  26.994  1.00  0.00     0.429 C 
ATOM     28  F   UNL A   1      32.702  22.275  27.245  1.00  0.00    -0.167 F 
ATOM     29  F   UNL A   1      32.180  24.364  27.612  1.00  0.00    -0.167 F 
ATOM     30  F   UNL A   1      30.642  22.835  27.637  1.00  0.00    -0.167 F 
ENDBRANCH  18  27
ENDBRANCH   5   8
ENDBRANCH   3   4
ENDBRANCH   2   3
ENDBRANCH   1   2
BRANCH   1  31
ATOM     31  C   UNL A   1      37.007  21.259  25.067  1.00  0.00     0.116 C 
BRANCH  31  32
ATOM     32  N   UNL A   1      37.936  20.180  25.372  1.00  0.00    -0.352 N 
ATOM     33  C   UNL A   1      39.220  20.258  25.854  1.00  0.00     0.251 C 
ATOM     34  H   UNL A   1      37.598  19.270  25.210  1.00  0.00     0.163 HD
ATOM     35  O   UNL A   1      39.930  19.254  25.871  1.00  0.00    -0.269 OA
BRANCH  33  36
ATOM     36  C   UNL A   1      39.751  21.553  26.329  1.00  0.00     0.039 A 
ATOM     37  C   UNL A   1      40.789  21.562  27.264  1.00  0.00     0.014 A 
ATOM     38  C   UNL A   1      39.233  22.758  25.844  1.00  0.00     0.014 A 
ATOM     39  C   UNL A   1      41.355  22.777  27.660  1.00  0.00     0.010 A 
ATOM     40  C   UNL A   1      39.846  23.961  26.183  1.00  0.00     0.010 A 
ATOM     41  C   UNL A   1      40.914  23.985  27.094  1.00  0.00    -0.014 A 
BRANCH  41  42
ATOM     42  C   UNL A   1      41.559  25.282  27.430  1.00  0.00     0.031 A 
ATOM     43  C   UNL A   1      40.786  26.346  28.164  1.00  0.00     0.074 A 
ATOM     44  C   UNL A   1      42.812  25.536  26.999  1.00  0.00     0.049 A 
ATOM     45  N   UNL A   1      41.148  27.565  28.472  1.00  0.00    -0.248 NA
ATOM     46  C   UNL A   1      39.417  26.004  28.586  1.00  0.00     0.031 C 
ATOM     47  C   UNL A   1      43.644  24.615  26.221  1.00  0.00     0.029 A 
ATOM     48  N   UNL A   1      43.596  26.656  27.131  1.00  0.00    -0.354 N 
ATOM     49  C   UNL A   1      40.049  28.143  29.095  1.00  0.00     0.074 A 
ATOM     50  C   UNL A   1      38.992  27.155  29.087  1.00  0.00     0.031 C 
ATOM     51  C   UNL A   1      44.820  25.205  25.949  1.00  0.00     0.029 A 
ATOM     52  C   UNL A   1      44.815  26.555  26.500  1.00  0.00     0.049 A 
ATOM     53  H   UNL A   1      43.311  27.456  27.628  1.00  0.00     0.167 HD
ATOM     54  C   UNL A   1      39.936  29.371  29.654  1.00  0.00     0.034 A 
ATOM     55  C   UNL A   1      45.811  27.454  26.371  1.00  0.00     0.034 A 
ATOM     56  C   UNL A   1      41.000  30.339  29.695  1.00  0.00     0.049 A 
ATOM     57  C   UNL A   1      45.663  28.809  27.011  1.00  0.00     0.074 A 
ATOM     58  C   UNL A   1      41.004  31.586  30.293  1.00  0.00     0.029 A 
ATOM     59  N   UNL A   1      42.246  30.170  29.113  1.00  0.00    -0.354 N 
ATOM     60  N   UNL A   1      44.666  29.283  27.717  1.00  0.00    -0.248 NA
ATOM     61  C   UNL A   1      46.790  29.741  26.865  1.00  0.00     0.031 C 
ATOM     62  C   UNL A   1      42.248  32.180  30.055  1.00  0.00     0.029 A 
ATOM     63  C   UNL A   1      43.027  31.290  29.335  1.00  0.00     0.049 A 
ATOM     64  H   UNL A   1      42.534  29.370  28.615  1.00  0.00     0.167 HD
ATOM     65  C   UNL A   1      45.064  30.546  28.138  1.00  0.00     0.074 A 
ATOM     66  C   UNL A   1      46.402  30.756  27.623  1.00  0.00     0.031 C 
ATOM     67  C   UNL A   1      44.381  31.458  28.874  1.00  0.00     0.034 A 
BRANCH  54  68
ATOM     68  C   UNL A   1      38.633  29.721  30.326  1.00  0.00     0.023 A 
ATOM     69  C   UNL A   1      38.377  29.239  31.626  1.00  0.00     0.012 A 
ATOM     70  C   UNL A   1      37.701  30.577  29.711  1.00  0.00     0.148 A 
ATOM     71  C   UNL A   1      37.198  29.577  32.291  1.00  0.00     0.002 A 
ATOM     72  C   UNL A   1      36.548  30.947  30.397  1.00  0.00     0.091 A 
ATOM     73  F   UNL A   1      37.954  31.013  28.468  1.00  0.00    -0.205 F 
ATOM     74  C   UNL A   1      36.291  30.438  31.681  1.00  0.00     0.022 A 
BRANCH  72  75
ATOM     75  S   UNL A   1      35.353  32.113  29.736  1.00  0.00     0.127 S 
ATOM     76  O   UNL A   1      34.498  32.349  30.898  1.00  0.00    -0.237 OA
ATOM     77  O   UNL A   1      36.201  33.245  29.364  1.00  0.00    -0.237 OA
ATOM     78  O   UNL A   1      34.708  31.439  28.617  1.00  0.00    -0.744 OA
ENDBRANCH  72  75
ENDBRANCH  54  68
BRANCH  55  79
ATOM     79  C   UNL A   1      47.069  27.090  25.655  1.00  0.00     0.023 A 
ATOM     80  C   UNL A   1      48.045  26.321  26.321  1.00  0.00     0.012 A 
ATOM     81  C   UNL A   1      47.310  27.503  24.331  1.00  0.00     0.148 A 
ATOM     82  C   UNL A   1      49.254  26.009  25.700  1.00  0.00     0.002 A 
ATOM     83  C   UNL A   1      48.494  27.140  23.697  1.00  0.00     0.091 A 
ATOM     84  F   UNL A   1      46.378  28.244  23.715  1.00  0.00    -0.205 F 
ATOM     85  C   UNL A   1      49.475  26.411  24.386  1.00  0.00     0.022 A 
BRANCH  83  86
ATOM     86  S   UNL A   1      48.808  27.505  21.966  1.00  0.00     0.127 S 
ATOM     87  O   UNL A   1      50.242  27.778  21.973  1.00  0.00    -0.237 OA
ATOM     88  O   UNL A   1      48.421  26.252  21.317  1.00  0.00    -0.237 OA
ATOM     89  O   UNL A   1      47.946  28.635  21.644  1.00  0.00    -0.744 OA
ENDBRANCH  83  86
ENDBRANCH  55  79
BRANCH  67  90
ATOM     90  C   UNL A   1      45.079  32.747  29.219  1.00  0.00     0.023 A 
ATOM     91  C   UNL A   1      45.870  32.833  30.381  1.00  0.00     0.012 A 
ATOM     92  C   UNL A   1      45.012  33.851  28.345  1.00  0.00     0.148 A 
ATOM     93  C   UNL A   1      46.557  34.008  30.686  1.00  0.00     0.002 A 
ATOM     94  C   UNL A   1      45.740  35.000  28.628  1.00  0.00     0.091 A 
ATOM     95  F   UNL A   1      44.240  33.755  27.252  1.00  0.00    -0.205 F 
ATOM     96  C   UNL A   1      46.503  35.085  29.804  1.00  0.00     0.022 A 
BRANCH  94  97
ATOM     97  S   UNL A   1      45.811  36.399  27.503  1.00  0.00     0.127 S 
ATOM     98  O   UNL A   1      44.422  36.857  27.512  1.00  0.00    -0.237 OA
ATOM     99  O   UNL A   1      46.753  37.291  28.179  1.00  0.00    -0.237 OA
ATOM    100  O   UNL A   1      46.284  35.870  26.231  1.00  0.00    -0.744 OA
ENDBRANCH  94  97
ENDBRANCH  67  90
ENDBRANCH  41  42
ENDBRANCH  33  36
ENDBRANCH  31  32
ENDBRANCH   1  31
TORSDOF 17
ENDMDL
MODEL 3
REMARK VINA RESULT:     -12.6      5.741      9.102
REMARK SMILES CCc1ccc(-c2cc(Cl)cc3c2O[C@H](C(F)(F)F)C(C(=O)NCCCCNC(=O)c2ccc(-c4c5nc(c(-c6cccc(S(=O)(=O)[O-])c6F)c6ccc([nH]6)c(-c6cccc(S(=O)(=O)[O-])c6F)c6nc(c(-c7cccc(S(=O)(=O)[O-])c7F)c7ccc4[nH]7)C=C6)C=C5)cc2)=C3)cc1
REMARK SMILES IDX 26 1 25 2 24 3 23 4 21 5 22 6 20 8 7 9 8 10 13 11 9 12 12 13
REMARK SMILES IDX 14 14 10 15 11 16 94 17 15 18 6 19 3 20 4 21 96 22 5 23
REMARK SMILES IDX 95 24 2 25 1 26 16 27 17 28 18 29 19 30 27 31 28 32 29 33
REMARK SMILES IDX 30 35 31 36 32 37 93 38 33 39 92 40 34 41 35 42 36 43 86 44
REMARK SMILES IDX 37 45 91 46 85 47 87 48 38 49 90 50 84 51 83 52 39 54 71 55
REMARK SMILES IDX 51 56 70 57 52 58 55 59 69 60 88 61 53 62 54 63 68 65 89 66
REMARK SMILES IDX 56 67 40 68 41 69 49 70 42 71 44 72 50 73 43 74 45 75 46 76
REMARK SMILES IDX 47 77 48 78 72 79 73 80 81 81 74 82 76 83 82 84 75 85 77 86
REMARK SMILES IDX 78 87 79 88 80 89 57 90 58 91 66 92 59 93 61 94 67 95 60 96
REMARK SMILES IDX 62 97 63 98 64 99 65 100
REMARK H PARENT 23 7 28 34 87 53 55 64
REMARK Flexibility Score: inf
ROOT
ATOM      1  C   UNL A   1      35.816  21.317  25.701  1.00  0.00     0.023 C 
ENDROOT
BRANCH   1   2
ATOM      2  C   UNL A   1      35.203  20.175  24.876  1.00  0.00     0.023 C 
BRANCH   2   3
ATOM      3  C   UNL A   1      33.668  20.143  24.841  1.00  0.00     0.116 C 
BRANCH   3   4
ATOM      4  N   UNL A   1      33.188  20.927  23.724  1.00  0.00    -0.352 N 
ATOM      5  C   UNL A   1      32.542  22.116  23.733  1.00  0.00     0.251 C 
ATOM      6  O   UNL A   1      31.712  22.342  22.858  1.00  0.00    -0.270 OA
ATOM      7  H   UNL A   1      33.357  20.543  22.834  1.00  0.00     0.163 HD
BRANCH   5   8
ATOM      8  C   UNL A   1      32.940  23.141  24.746  1.00  0.00     0.067 C 
ATOM      9  C   UNL A   1      31.036  26.356  23.110  1.00  0.00     0.026 A 
ATOM     10  C   UNL A   1      31.328  26.341  21.720  1.00  0.00     0.033 A 
ATOM     11  C   UNL A   1      31.821  25.512  23.918  1.00  0.00     0.135 A 
ATOM     12  C   UNL A   1      32.433  25.680  21.190  1.00  0.00     0.042 A 
ATOM     13  C   UNL A   1      33.004  24.944  23.380  1.00  0.00     0.019 A 
ATOM     14  O   UNL A   1      31.469  25.153  25.213  1.00  0.00    -0.475 OA
ATOM     15  Cl  UNL A   1      32.703  25.699  19.494  1.00  0.00    -0.084 Cl
ATOM     16  C   UNL A   1      33.322  25.039  22.029  1.00  0.00     0.032 A 
ATOM     17  C   UNL A   1      33.803  24.051  24.252  1.00  0.00     0.025 C 
ATOM     18  C   UNL A   1      31.773  23.724  25.539  1.00  0.00     0.314 C 
BRANCH   9  19
ATOM     19  C   UNL A   1      30.104  27.439  23.529  1.00  0.00    -0.015 A 
ATOM     20  C   UNL A   1      28.454  29.743  23.151  1.00  0.00    -0.048 A 
ATOM     21  C   UNL A   1      27.910  28.457  23.092  1.00  0.00     0.004 A 
ATOM     22  C   UNL A   1      29.800  29.871  23.520  1.00  0.00     0.004 A 
ATOM     23  C   UNL A   1      28.716  27.325  23.299  1.00  0.00     0.009 A 
ATOM     24  C   UNL A   1      30.610  28.737  23.719  1.00  0.00     0.009 A 
BRANCH  20  25
ATOM     25  C   UNL A   1      27.625  30.958  22.796  1.00  0.00     0.032 C 
ATOM     26  C   UNL A   1      28.414  32.266  22.779  1.00  0.00     0.009 C 
ENDBRANCH  20  25
ENDBRANCH   9  19
BRANCH  18  27
ATOM     27  C   UNL A   1      32.068  23.533  27.044  1.00  0.00     0.429 C 
ATOM     28  F   UNL A   1      31.050  22.936  27.706  1.00  0.00    -0.167 F 
ATOM     29  F   UNL A   1      33.178  22.780  27.237  1.00  0.00    -0.167 F 
ATOM     30  F   UNL A   1      32.298  24.712  27.684  1.00  0.00    -0.167 F 
ENDBRANCH  18  27
ENDBRANCH   5   8
ENDBRANCH   3   4
ENDBRANCH   2   3
ENDBRANCH   1   2
BRANCH   1  31
ATOM     31  C   UNL A   1      37.228  21.718  25.294  1.00  0.00     0.116 C 
BRANCH  31  32
ATOM     32  N   UNL A   1      38.211  20.714  25.675  1.00  0.00    -0.352 N 
ATOM     33  C   UNL A   1      39.464  20.892  26.208  1.00  0.00     0.251 C 
ATOM     34  H   UNL A   1      37.939  19.778  25.532  1.00  0.00     0.163 HD
ATOM     35  O   UNL A   1      40.236  19.938  26.290  1.00  0.00    -0.269 OA
BRANCH  33  36
ATOM     36  C   UNL A   1      39.889  22.235  26.658  1.00  0.00     0.039 A 
ATOM     37  C   UNL A   1      40.892  22.343  27.624  1.00  0.00     0.014 A 
ATOM     38  C   UNL A   1      39.307  23.386  26.118  1.00  0.00     0.014 A 
ATOM     39  C   UNL A   1      41.360  23.606  27.998  1.00  0.00     0.010 A 
ATOM     40  C   UNL A   1      39.825  24.638  26.437  1.00  0.00     0.010 A 
ATOM     41  C   UNL A   1      40.857  24.763  27.381  1.00  0.00    -0.014 A 
BRANCH  41  42
ATOM     42  C   UNL A   1      41.401  26.111  27.695  1.00  0.00     0.031 A 
ATOM     43  C   UNL A   1      42.812  26.467  27.311  1.00  0.00     0.074 A 
ATOM     44  C   UNL A   1      40.654  26.984  28.402  1.00  0.00     0.049 A 
ATOM     45  N   UNL A   1      43.488  27.556  27.570  1.00  0.00    -0.248 NA
ATOM     46  C   UNL A   1      43.574  25.456  26.558  1.00  0.00     0.031 C 
ATOM     47  C   UNL A   1      39.295  26.737  28.891  1.00  0.00     0.029 A 
ATOM     48  N   UNL A   1      40.941  28.249  28.855  1.00  0.00    -0.354 N 
ATOM     49  C   UNL A   1      44.757  27.353  27.040  1.00  0.00     0.074 A 
ATOM     50  C   UNL A   1      44.771  26.020  26.479  1.00  0.00     0.031 C 
ATOM     51  C   UNL A   1      38.868  27.814  29.571  1.00  0.00     0.029 A 
ATOM     52  C   UNL A   1      39.930  28.813  29.598  1.00  0.00     0.049 A 
ATOM     53  H   UNL A   1      41.792  28.707  28.667  1.00  0.00     0.167 HD
ATOM     54  C   UNL A   1      45.806  28.208  26.994  1.00  0.00     0.034 A 
ATOM     55  C   UNL A   1      39.870  29.998  30.238  1.00  0.00     0.034 A 
ATOM     56  C   UNL A   1      45.779  29.547  27.518  1.00  0.00     0.049 A 
ATOM     57  C   UNL A   1      41.048  30.933  30.161  1.00  0.00     0.074 A 
ATOM     58  C   UNL A   1      46.769  30.512  27.464  1.00  0.00     0.029 A 
ATOM     59  N   UNL A   1      44.709  30.110  28.195  1.00  0.00    -0.354 N 
ATOM     60  N   UNL A   1      42.188  30.774  29.533  1.00  0.00    -0.248 NA
ATOM     61  C   UNL A   1      40.919  32.224  30.851  1.00  0.00     0.031 C 
ATOM     62  C   UNL A   1      46.305  31.653  28.127  1.00  0.00     0.029 A 
ATOM     63  C   UNL A   1      45.015  31.408  28.567  1.00  0.00     0.049 A 
ATOM     64  H   UNL A   1      43.856  29.654  28.385  1.00  0.00     0.167 HD
ATOM     65  C   UNL A   1      42.890  31.960  29.714  1.00  0.00     0.074 A 
ATOM     66  C   UNL A   1      42.040  32.835  30.494  1.00  0.00     0.031 C 
ATOM     67  C   UNL A   1      44.133  32.291  29.284  1.00  0.00     0.034 A 
BRANCH  54  68
ATOM     68  C   UNL A   1      47.059  27.745  26.295  1.00  0.00     0.023 A 
ATOM     69  C   UNL A   1      48.041  27.049  27.028  1.00  0.00     0.012 A 
ATOM     70  C   UNL A   1      47.233  27.930  24.910  1.00  0.00     0.148 A 
ATOM     71  C   UNL A   1      49.194  26.574  26.402  1.00  0.00     0.002 A 
ATOM     72  C   UNL A   1      48.362  27.414  24.283  1.00  0.00     0.091 A 
ATOM     73  F   UNL A   1      46.296  28.608  24.231  1.00  0.00    -0.205 F 
ATOM     74  C   UNL A   1      49.348  26.747  25.030  1.00  0.00     0.022 A 
BRANCH  72  75
ATOM     75  S   UNL A   1      48.622  27.511  22.508  1.00  0.00     0.127 S 
ATOM     76  O   UNL A   1      49.921  28.178  22.437  1.00  0.00    -0.237 OA
ATOM     77  O   UNL A   1      48.639  26.100  22.123  1.00  0.00    -0.237 OA
ATOM     78  O   UNL A   1      47.500  28.275  21.978  1.00  0.00    -0.744 OA
ENDBRANCH  72  75
ENDBRANCH  54  68
BRANCH  55  79
ATOM     79  C   UNL A   1      38.629  30.403  30.963  1.00  0.00     0.023 A 
ATOM     80  C   UNL A   1      38.463  30.024  32.310  1.00  0.00     0.012 A 
ATOM     81  C   UNL A   1      37.616  31.149  30.331  1.00  0.00     0.148 A 
ATOM     82  C   UNL A   1      37.293  30.340  33.000  1.00  0.00     0.002 A 
ATOM     83  C   UNL A   1      36.476  31.509  31.042  1.00  0.00     0.091 A 
ATOM     84  F   UNL A   1      37.784  31.491  29.046  1.00  0.00    -0.205 F 
ATOM     85  C   UNL A   1      36.303  31.089  32.370  1.00  0.00     0.022 A 
BRANCH  83  86
ATOM     86  S   UNL A   1      35.211  32.580  30.350  1.00  0.00     0.127 S 
ATOM     87  O   UNL A   1      34.276  32.698  31.465  1.00  0.00    -0.237 OA
ATOM     88  O   UNL A   1      35.971  33.795  30.051  1.00  0.00    -0.237 OA
ATOM     89  O   UNL A   1      34.713  31.883  29.171  1.00  0.00    -0.744 OA
ENDBRANCH  83  86
ENDBRANCH  55  79
BRANCH  67  90
ATOM     90  C   UNL A   1      44.637  33.676  29.596  1.00  0.00     0.023 A 
ATOM     91  C   UNL A   1      45.357  33.916  30.783  1.00  0.00     0.012 A 
ATOM     92  C   UNL A   1      44.463  34.724  28.669  1.00  0.00     0.148 A 
ATOM     93  C   UNL A   1      45.867  35.184  31.059  1.00  0.00     0.002 A 
ATOM     94  C   UNL A   1      45.019  35.971  28.926  1.00  0.00     0.091 A 
ATOM     95  F   UNL A   1      43.761  34.480  27.553  1.00  0.00    -0.205 F 
ATOM     96  C   UNL A   1      45.710  36.206  30.126  1.00  0.00     0.022 A 
BRANCH  94  97
ATOM     97  S   UNL A   1      44.954  37.319  27.741  1.00  0.00     0.127 S 
ATOM     98  O   UNL A   1      45.668  36.747  26.601  1.00  0.00    -0.237 OA
ATOM     99  O   UNL A   1      43.514  37.484  27.539  1.00  0.00    -0.237 OA
ATOM    100  O   UNL A   1      45.608  38.451  28.381  1.00  0.00    -0.744 OA
ENDBRANCH  94  97
ENDBRANCH  67  90
ENDBRANCH  41  42
ENDBRANCH  33  36
ENDBRANCH  31  32
ENDBRANCH   1  31
TORSDOF 17
ENDMDL
