MODEL 1
REMARK VINA RESULT:     -12.1      0.000      0.000
REMARK SMILES Cc1cccc(C(=O)NCCCCNC(=O)c2ccc(-c3c4nc(c(-c5cccc(S(=O)(=O)[O-])c5F)c5ccc([nH]5)c(-c5cccc(S(=O)(=O)[O-])c5F)c5nc(c(-c6cccc(S(=O)(=O)[O-])c6F)c6ccc3[nH]6)C=C5)C=C4)cc2)c1OC[C@@H]1C[C@H]2CC[C@@H]1C2
REMARK SMILES IDX 11 1 10 2 9 3 7 4 8 5 6 7 1 8 2 9 3 10 80 11 4 12 5 13 81 14
REMARK SMILES IDX 82 15 83 16 84 17 88 18 85 19 87 20 89 21 86 22 12 23 13 24
REMARK SMILES IDX 14 25 15 26 16 28 17 29 18 30 79 31 19 32 78 33 20 34 21 35
REMARK SMILES IDX 22 36 72 37 23 38 77 39 71 40 73 41 24 42 76 43 70 44 69 45
REMARK SMILES IDX 25 47 57 48 37 49 56 50 38 51 41 52 55 53 74 54 39 55 40 56
REMARK SMILES IDX 54 58 75 59 42 60 26 61 27 62 35 63 28 64 30 65 36 66 29 67
REMARK SMILES IDX 31 68 32 69 33 70 34 71 58 72 59 73 67 74 60 75 62 76 68 77
REMARK SMILES IDX 61 78 63 79 64 80 65 81 66 82 43 83 44 84 52 85 45 86 47 87
REMARK SMILES IDX 53 88 46 89 48 90 49 91 50 92 51 93
REMARK H PARENT 9 6 14 27 73 46 41 57
REMARK Flexibility Score: inf
ROOT
ATOM      1  C   UNL A   1      36.531  23.193  25.593  1.00  0.00     0.023 C 
ENDROOT
BRANCH   1   2
ATOM      2  C   UNL A   1      35.861  21.836  25.829  1.00  0.00     0.116 C 
BRANCH   2   3
ATOM      3  N   UNL A   1      34.785  21.954  26.775  1.00  0.00    -0.352 N 
ATOM      4  C   UNL A   1      33.534  22.491  26.718  1.00  0.00     0.255 C 
ATOM      5  O   UNL A   1      32.950  22.503  27.812  1.00  0.00    -0.269 OA
ATOM      6  H   UNL A   1      34.998  21.565  27.653  1.00  0.00     0.163 HD
BRANCH   4   7
ATOM      7  C   UNL A   1      32.791  23.038  25.522  1.00  0.00     0.082 A 
ATOM      8  C   UNL A   1      30.206  25.532  24.203  1.00  0.00     0.048 C 
ATOM      9  C   UNL A   1      31.236  24.435  24.267  1.00  0.00    -0.008 A 
ATOM     10  C   UNL A   1      31.033  23.387  23.348  1.00  0.00     0.007 A 
ATOM     11  C   UNL A   1      32.208  24.312  25.290  1.00  0.00     0.134 A 
ATOM     12  C   UNL A   1      31.698  22.185  23.488  1.00  0.00     0.001 A 
ATOM     13  C   UNL A   1      32.536  22.008  24.578  1.00  0.00     0.018 A 
BRANCH  11  14
ATOM     14  O   UNL A   1      32.450  25.338  26.148  1.00  0.00    -0.492 OA
BRANCH  14  15
ATOM     15  C   UNL A   1      33.534  26.285  25.987  1.00  0.00     0.233 C 
BRANCH  15  16
ATOM     16  C   UNL A   1      33.226  27.777  25.744  1.00  0.00     0.030 C 
ATOM     17  C   UNL A   1      33.851  28.699  26.837  1.00  0.00     0.011 C 
ATOM     18  C   UNL A   1      31.720  28.121  25.926  1.00  0.00    -0.004 C 
ATOM     19  C   UNL A   1      32.657  29.510  27.376  1.00  0.00    -0.010 C 
ATOM     20  C   UNL A   1      31.457  29.495  25.294  1.00  0.00     0.004 C 
ATOM     21  C   UNL A   1      31.581  28.436  27.417  1.00  0.00     0.007 C 
ATOM     22  C   UNL A   1      32.131  30.453  26.282  1.00  0.00     0.004 C 
ENDBRANCH  15  16
ENDBRANCH  14  15
ENDBRANCH  11  14
ENDBRANCH   4   7
ENDBRANCH   2   3
ENDBRANCH   1   2
BRANCH   1  23
ATOM     23  C   UNL A   1      37.972  23.352  26.101  1.00  0.00     0.023 C 
BRANCH  23  24
ATOM     24  C   UNL A   1      38.871  22.138  25.931  1.00  0.00     0.116 C 
BRANCH  24  25
ATOM     25  N   UNL A   1      39.842  22.035  27.015  1.00  0.00    -0.352 N 
ATOM     26  C   UNL A   1      40.786  22.936  27.450  1.00  0.00     0.251 C 
ATOM     27  H   UNL A   1      39.817  21.187  27.514  1.00  0.00     0.163 HD
ATOM     28  O   UNL A   1      41.838  22.485  27.902  1.00  0.00    -0.269 OA
BRANCH  26  29
ATOM     29  C   UNL A   1      40.496  24.384  27.483  1.00  0.00     0.039 A 
ATOM     30  C   UNL A   1      41.049  25.261  26.540  1.00  0.00     0.014 A 
ATOM     31  C   UNL A   1      39.863  24.904  28.602  1.00  0.00     0.014 A 
ATOM     32  C   UNL A   1      41.121  26.624  26.833  1.00  0.00     0.010 A 
ATOM     33  C   UNL A   1      39.705  26.240  28.767  1.00  0.00     0.010 A 
ATOM     34  C   UNL A   1      40.520  27.066  28.003  1.00  0.00    -0.014 A 
BRANCH  34  35
ATOM     35  C   UNL A   1      40.780  28.300  28.713  1.00  0.00     0.031 A 
ATOM     36  C   UNL A   1      39.793  29.382  28.627  1.00  0.00     0.074 A 
ATOM     37  C   UNL A   1      41.596  28.124  29.788  1.00  0.00     0.049 A 
ATOM     38  N   UNL A   1      39.880  30.471  29.300  1.00  0.00    -0.248 NA
ATOM     39  C   UNL A   1      38.608  29.316  27.773  1.00  0.00     0.031 C 
ATOM     40  C   UNL A   1      41.505  28.768  31.092  1.00  0.00     0.029 A 
ATOM     41  N   UNL A   1      42.672  27.237  29.961  1.00  0.00    -0.354 N 
ATOM     42  C   UNL A   1      38.646  31.076  29.237  1.00  0.00     0.074 A 
ATOM     43  C   UNL A   1      37.961  30.425  28.150  1.00  0.00     0.031 C 
ATOM     44  C   UNL A   1      42.616  28.483  31.794  1.00  0.00     0.029 A 
ATOM     45  C   UNL A   1      43.541  27.849  30.870  1.00  0.00     0.049 A 
ATOM     46  H   UNL A   1      42.792  26.360  29.528  1.00  0.00     0.167 HD
ATOM     47  C   UNL A   1      38.308  31.945  30.228  1.00  0.00     0.034 A 
ATOM     48  C   UNL A   1      44.742  28.389  30.489  1.00  0.00     0.034 A 
ATOM     49  C   UNL A   1      39.472  32.204  31.097  1.00  0.00     0.049 A 
ATOM     50  C   UNL A   1      44.774  29.907  30.637  1.00  0.00     0.074 A 
ATOM     51  C   UNL A   1      39.829  31.769  32.360  1.00  0.00     0.029 A 
ATOM     52  N   UNL A   1      40.624  32.751  30.534  1.00  0.00    -0.354 N 
ATOM     53  N   UNL A   1      43.745  30.637  30.978  1.00  0.00    -0.248 NA
ATOM     54  C   UNL A   1      45.964  30.725  30.416  1.00  0.00     0.031 C 
ATOM     55  C   UNL A   1      41.242  31.934  32.491  1.00  0.00     0.029 A 
ATOM     56  C   UNL A   1      41.735  32.523  31.335  1.00  0.00     0.049 A 
ATOM     57  H   UNL A   1      40.647  33.237  29.678  1.00  0.00     0.167 HD
ATOM     58  C   UNL A   1      44.038  31.966  30.852  1.00  0.00     0.074 A 
ATOM     59  C   UNL A   1      45.473  31.965  30.604  1.00  0.00     0.031 C 
ATOM     60  C   UNL A   1      43.069  32.939  30.886  1.00  0.00     0.034 A 
BRANCH  47  61
ATOM     61  C   UNL A   1      36.909  32.450  30.542  1.00  0.00     0.023 A 
ATOM     62  C   UNL A   1      36.401  32.154  31.825  1.00  0.00     0.012 A 
ATOM     63  C   UNL A   1      36.018  33.119  29.662  1.00  0.00     0.148 A 
ATOM     64  C   UNL A   1      35.100  32.496  32.217  1.00  0.00     0.002 A 
ATOM     65  C   UNL A   1      34.744  33.524  30.076  1.00  0.00     0.091 A 
ATOM     66  F   UNL A   1      36.343  33.292  28.379  1.00  0.00    -0.205 F 
ATOM     67  C   UNL A   1      34.276  33.198  31.350  1.00  0.00     0.022 A 
BRANCH  65  68
ATOM     68  S   UNL A   1      33.639  34.488  29.024  1.00  0.00     0.127 S 
ATOM     69  O   UNL A   1      32.623  34.940  29.975  1.00  0.00    -0.237 OA
ATOM     70  O   UNL A   1      34.520  35.546  28.528  1.00  0.00    -0.237 OA
ATOM     71  O   UNL A   1      33.159  33.577  27.991  1.00  0.00    -0.744 OA
ENDBRANCH  65  68
ENDBRANCH  47  61
BRANCH  48  72
ATOM     72  C   UNL A   1      45.422  27.597  29.415  1.00  0.00     0.023 A 
ATOM     73  C   UNL A   1      45.762  26.264  29.743  1.00  0.00     0.012 A 
ATOM     74  C   UNL A   1      45.273  27.944  28.061  1.00  0.00     0.148 A 
ATOM     75  C   UNL A   1      45.755  25.263  28.769  1.00  0.00     0.002 A 
ATOM     76  C   UNL A   1      45.253  26.937  27.094  1.00  0.00     0.091 A 
ATOM     77  F   UNL A   1      45.060  29.229  27.750  1.00  0.00    -0.205 F 
ATOM     78  C   UNL A   1      45.444  25.594  27.455  1.00  0.00     0.022 A 
BRANCH  76  79
ATOM     79  S   UNL A   1      44.819  27.286  25.383  1.00  0.00     0.127 S 
ATOM     80  O   UNL A   1      46.021  27.983  24.916  1.00  0.00    -0.237 OA
ATOM     81  O   UNL A   1      44.645  25.942  24.823  1.00  0.00    -0.237 OA
ATOM     82  O   UNL A   1      43.606  28.067  25.445  1.00  0.00    -0.744 OA
ENDBRANCH  76  79
ENDBRANCH  48  72
BRANCH  60  83
ATOM     83  C   UNL A   1      43.292  34.387  30.466  1.00  0.00     0.023 A 
ATOM     84  C   UNL A   1      43.589  35.406  31.394  1.00  0.00     0.012 A 
ATOM     85  C   UNL A   1      43.352  34.752  29.096  1.00  0.00     0.148 A 
ATOM     86  C   UNL A   1      43.832  36.727  31.001  1.00  0.00     0.002 A 
ATOM     87  C   UNL A   1      43.732  36.035  28.706  1.00  0.00     0.091 A 
ATOM     88  F   UNL A   1      43.017  33.866  28.148  1.00  0.00    -0.205 F 
ATOM     89  C   UNL A   1      43.928  37.038  29.655  1.00  0.00     0.022 A 
BRANCH  87  90
ATOM     90  S   UNL A   1      44.157  36.397  26.996  1.00  0.00     0.127 S 
ATOM     91  O   UNL A   1      45.177  35.391  26.717  1.00  0.00    -0.237 OA
ATOM     92  O   UNL A   1      42.884  36.183  26.305  1.00  0.00    -0.237 OA
ATOM     93  O   UNL A   1      44.603  37.785  27.003  1.00  0.00    -0.744 OA
ENDBRANCH  87  90
ENDBRANCH  60  83
ENDBRANCH  34  35
ENDBRANCH  26  29
ENDBRANCH  24  25
ENDBRANCH  23  24
ENDBRANCH   1  23
TORSDOF 17
ENDMDL
MODEL 2
REMARK VINA RESULT:     -12.1      4.271      9.440
REMARK SMILES Cc1cccc(C(=O)NCCCCNC(=O)c2ccc(-c3c4nc(c(-c5cccc(S(=O)(=O)[O-])c5F)c5ccc([nH]5)c(-c5cccc(S(=O)(=O)[O-])c5F)c5nc(c(-c6cccc(S(=O)(=O)[O-])c6F)c6ccc3[nH]6)C=C5)C=C4)cc2)c1OC[C@@H]1C[C@H]2CC[C@@H]1C2
REMARK SMILES IDX 11 1 10 2 9 3 7 4 8 5 6 7 1 8 2 9 3 10 80 11 4 12 5 13 81 14
REMARK SMILES IDX 82 15 83 16 84 17 88 18 85 19 87 20 89 21 86 22 12 23 13 24
REMARK SMILES IDX 14 25 15 26 16 28 17 29 18 30 79 31 19 32 78 33 20 34 21 35
REMARK SMILES IDX 22 36 72 37 23 38 77 39 71 40 73 41 24 42 76 43 70 44 69 45
REMARK SMILES IDX 25 47 57 48 37 49 56 50 38 51 41 52 55 53 74 54 39 55 40 56
REMARK SMILES IDX 54 58 75 59 42 60 26 61 27 62 35 63 28 64 30 65 36 66 29 67
REMARK SMILES IDX 31 68 32 69 33 70 34 71 58 72 59 73 67 74 60 75 62 76 68 77
REMARK SMILES IDX 61 78 63 79 64 80 65 81 66 82 43 83 44 84 52 85 45 86 47 87
REMARK SMILES IDX 53 88 46 89 48 90 49 91 50 92 51 93
REMARK H PARENT 9 6 14 27 73 46 41 57
REMARK Flexibility Score: inf
ROOT
ATOM      1  C   UNL A   1      33.609  29.509  26.310  1.00  0.00     0.023 C 
ENDROOT
BRANCH   1   2
ATOM      2  C   UNL A   1      33.524  28.225  27.143  1.00  0.00     0.116 C 
BRANCH   2   3
ATOM      3  N   UNL A   1      32.292  27.531  26.889  1.00  0.00    -0.352 N 
ATOM      4  C   UNL A   1      31.836  26.763  25.860  1.00  0.00     0.255 C 
ATOM      5  O   UNL A   1      30.642  26.446  25.970  1.00  0.00    -0.269 OA
ATOM      6  H   UNL A   1      31.634  27.635  27.614  1.00  0.00     0.163 HD
BRANCH   4   7
ATOM      7  C   UNL A   1      32.587  26.254  24.653  1.00  0.00     0.082 A 
ATOM      8  C   UNL A   1      32.584  25.667  20.871  1.00  0.00     0.048 C 
ATOM      9  C   UNL A   1      33.011  25.703  22.315  1.00  0.00    -0.008 A 
ATOM     10  C   UNL A   1      33.820  24.622  22.715  1.00  0.00     0.007 A 
ATOM     11  C   UNL A   1      32.489  26.601  23.279  1.00  0.00     0.134 A 
ATOM     12  C   UNL A   1      34.033  24.353  24.052  1.00  0.00     0.001 A 
ATOM     13  C   UNL A   1      33.397  25.140  25.001  1.00  0.00     0.018 A 
BRANCH  11  14
ATOM     14  O   UNL A   1      31.752  27.678  22.900  1.00  0.00    -0.492 OA
BRANCH  14  15
ATOM     15  C   UNL A   1      30.316  27.647  22.711  1.00  0.00     0.233 C 
BRANCH  15  16
ATOM     16  C   UNL A   1      29.432  28.740  23.348  1.00  0.00     0.030 C 
ATOM     17  C   UNL A   1      27.954  28.670  22.854  1.00  0.00     0.011 C 
ATOM     18  C   UNL A   1      29.810  30.173  22.878  1.00  0.00    -0.004 C 
ATOM     19  C   UNL A   1      27.671  30.084  22.309  1.00  0.00    -0.010 C 
ATOM     20  C   UNL A   1      29.164  31.184  23.837  1.00  0.00     0.004 C 
ATOM     21  C   UNL A   1      28.985  30.385  21.607  1.00  0.00     0.007 C 
ATOM     22  C   UNL A   1      27.680  31.099  23.463  1.00  0.00     0.004 C 
ENDBRANCH  15  16
ENDBRANCH  14  15
ENDBRANCH  11  14
ENDBRANCH   4   7
ENDBRANCH   2   3
ENDBRANCH   1   2
BRANCH   1  23
ATOM     23  C   UNL A   1      33.232  30.819  27.018  1.00  0.00     0.023 C 
BRANCH  23  24
ATOM     24  C   UNL A   1      34.310  31.429  27.900  1.00  0.00     0.116 C 
BRANCH  24  25
ATOM     25  N   UNL A   1      33.990  32.805  28.262  1.00  0.00    -0.352 N 
ATOM     26  C   UNL A   1      34.339  33.535  29.374  1.00  0.00     0.251 C 
ATOM     27  H   UNL A   1      33.435  33.287  27.607  1.00  0.00     0.163 HD
ATOM     28  O   UNL A   1      33.535  34.372  29.782  1.00  0.00    -0.269 OA
BRANCH  26  29
ATOM     29  C   UNL A   1      35.681  33.403  29.978  1.00  0.00     0.039 A 
ATOM     30  C   UNL A   1      36.835  33.787  29.282  1.00  0.00     0.014 A 
ATOM     31  C   UNL A   1      35.808  32.671  31.149  1.00  0.00     0.014 A 
ATOM     32  C   UNL A   1      38.072  33.270  29.671  1.00  0.00     0.010 A 
ATOM     33  C   UNL A   1      37.024  32.381  31.672  1.00  0.00     0.010 A 
ATOM     34  C   UNL A   1      38.115  32.491  30.819  1.00  0.00    -0.014 A 
BRANCH  34  35
ATOM     35  C   UNL A   1      39.143  31.547  31.204  1.00  0.00     0.031 A 
ATOM     36  C   UNL A   1      39.245  30.282  30.470  1.00  0.00     0.074 A 
ATOM     37  C   UNL A   1      40.208  32.147  31.801  1.00  0.00     0.049 A 
ATOM     38  N   UNL A   1      40.182  29.427  30.664  1.00  0.00    -0.248 NA
ATOM     39  C   UNL A   1      38.294  29.878  29.435  1.00  0.00     0.031 C 
ATOM     40  C   UNL A   1      41.619  31.820  31.643  1.00  0.00     0.029 A 
ATOM     41  N   UNL A   1      40.247  33.269  32.647  1.00  0.00    -0.354 N 
ATOM     42  C   UNL A   1      40.161  28.562  29.595  1.00  0.00     0.074 A 
ATOM     43  C   UNL A   1      38.882  28.771  28.967  1.00  0.00     0.031 C 
ATOM     44  C   UNL A   1      42.327  32.503  32.560  1.00  0.00     0.029 A 
ATOM     45  C   UNL A   1      41.363  33.097  33.472  1.00  0.00     0.049 A 
ATOM     46  H   UNL A   1      39.615  34.025  32.657  1.00  0.00     0.167 HD
ATOM     47  C   UNL A   1      41.306  27.895  29.288  1.00  0.00     0.034 A 
ATOM     48  C   UNL A   1      41.252  32.767  34.798  1.00  0.00     0.034 A 
ATOM     49  C   UNL A   1      42.319  28.113  30.337  1.00  0.00     0.049 A 
ATOM     50  C   UNL A   1      41.791  31.372  35.102  1.00  0.00     0.074 A 
ATOM     51  C   UNL A   1      43.455  28.900  30.411  1.00  0.00     0.029 A 
ATOM     52  N   UNL A   1      42.031  27.724  31.645  1.00  0.00    -0.354 N 
ATOM     53  N   UNL A   1      42.209  30.530  34.195  1.00  0.00    -0.248 NA
ATOM     54  C   UNL A   1      41.904  30.815  36.447  1.00  0.00     0.031 C 
ATOM     55  C   UNL A   1      43.759  29.092  31.794  1.00  0.00     0.029 A 
ATOM     56  C   UNL A   1      42.849  28.376  32.558  1.00  0.00     0.049 A 
ATOM     57  H   UNL A   1      41.336  27.070  31.888  1.00  0.00     0.167 HD
ATOM     58  C   UNL A   1      42.460  29.309  34.755  1.00  0.00     0.074 A 
ATOM     59  C   UNL A   1      42.359  29.575  36.183  1.00  0.00     0.031 C 
ATOM     60  C   UNL A   1      42.653  28.178  33.999  1.00  0.00     0.034 A 
BRANCH  47  61
ATOM     61  C   UNL A   1      41.605  27.175  27.983  1.00  0.00     0.023 A 
ATOM     62  C   UNL A   1      41.619  27.963  26.812  1.00  0.00     0.012 A 
ATOM     63  C   UNL A   1      41.792  25.780  27.793  1.00  0.00     0.148 A 
ATOM     64  C   UNL A   1      41.807  27.414  25.537  1.00  0.00     0.002 A 
ATOM     65  C   UNL A   1      42.050  25.240  26.528  1.00  0.00     0.091 A 
ATOM     66  F   UNL A   1      41.627  24.934  28.812  1.00  0.00    -0.205 F 
ATOM     67  C   UNL A   1      42.042  26.054  25.394  1.00  0.00     0.022 A 
BRANCH  65  68
ATOM     68  S   UNL A   1      42.419  23.492  26.273  1.00  0.00     0.127 S 
ATOM     69  O   UNL A   1      43.444  23.241  27.287  1.00  0.00    -0.237 OA
ATOM     70  O   UNL A   1      41.130  22.855  26.544  1.00  0.00    -0.237 OA
ATOM     71  O   UNL A   1      42.871  23.366  24.893  1.00  0.00    -0.744 OA
ENDBRANCH  65  68
ENDBRANCH  47  61
BRANCH  48  72
ATOM     72  C   UNL A   1      40.080  33.420  35.464  1.00  0.00     0.023 A 
ATOM     73  C   UNL A   1      38.894  32.654  35.532  1.00  0.00     0.012 A 
ATOM     74  C   UNL A   1      40.266  34.464  36.388  1.00  0.00     0.148 A 
ATOM     75  C   UNL A   1      38.015  32.788  36.609  1.00  0.00     0.002 A 
ATOM     76  C   UNL A   1      39.392  34.583  37.470  1.00  0.00     0.091 A 
ATOM     77  F   UNL A   1      41.336  35.256  36.250  1.00  0.00    -0.205 F 
ATOM     78  C   UNL A   1      38.297  33.714  37.607  1.00  0.00     0.022 A 
BRANCH  76  79
ATOM     79  S   UNL A   1      39.716  35.732  38.816  1.00  0.00     0.127 S 
ATOM     80  O   UNL A   1      41.103  35.400  39.153  1.00  0.00    -0.237 OA
ATOM     81  O   UNL A   1      39.549  37.035  38.164  1.00  0.00    -0.237 OA
ATOM     82  O   UNL A   1      38.722  35.437  39.821  1.00  0.00    -0.744 OA
ENDBRANCH  76  79
ENDBRANCH  48  72
BRANCH  60  83
ATOM     83  C   UNL A   1      42.645  26.761  34.559  1.00  0.00     0.023 A 
ATOM     84  C   UNL A   1      41.555  26.240  35.284  1.00  0.00     0.012 A 
ATOM     85  C   UNL A   1      43.687  25.846  34.253  1.00  0.00     0.148 A 
ATOM     86  C   UNL A   1      41.534  24.925  35.763  1.00  0.00     0.002 A 
ATOM     87  C   UNL A   1      43.596  24.502  34.611  1.00  0.00     0.091 A 
ATOM     88  F   UNL A   1      44.794  26.270  33.628  1.00  0.00    -0.205 F 
ATOM     89  C   UNL A   1      42.544  24.048  35.406  1.00  0.00     0.022 A 
BRANCH  87  90
ATOM     90  S   UNL A   1      44.721  23.280  33.920  1.00  0.00     0.127 S 
ATOM     91  O   UNL A   1      44.211  22.039  34.494  1.00  0.00    -0.237 OA
ATOM     92  O   UNL A   1      44.496  23.425  32.481  1.00  0.00    -0.237 OA
ATOM     93  O   UNL A   1      46.047  23.698  34.359  1.00  0.00    -0.744 OA
ENDBRANCH  87  90
ENDBRANCH  60  83
ENDBRANCH  34  35
ENDBRANCH  26  29
ENDBRANCH  24  25
ENDBRANCH  23  24
ENDBRANCH   1  23
TORSDOF 17
ENDMDL
MODEL 3
REMARK VINA RESULT:     -12.1      4.190      9.603
REMARK SMILES Cc1cccc(C(=O)NCCCCNC(=O)c2ccc(-c3c4nc(c(-c5cccc(S(=O)(=O)[O-])c5F)c5ccc([nH]5)c(-c5cccc(S(=O)(=O)[O-])c5F)c5nc(c(-c6cccc(S(=O)(=O)[O-])c6F)c6ccc3[nH]6)C=C5)C=C4)cc2)c1OC[C@@H]1C[C@H]2CC[C@@H]1C2
REMARK SMILES IDX 11 1 10 2 9 3 7 4 8 5 6 7 1 8 2 9 3 10 80 11 4 12 5 13 81 14
REMARK SMILES IDX 82 15 83 16 84 17 88 18 85 19 87 20 89 21 86 22 12 23 13 24
REMARK SMILES IDX 14 25 15 26 16 28 17 29 18 30 79 31 19 32 78 33 20 34 21 35
REMARK SMILES IDX 22 36 72 37 23 38 77 39 71 40 73 41 24 42 76 43 70 44 69 45
REMARK SMILES IDX 25 47 57 48 37 49 56 50 38 51 41 52 55 53 74 54 39 55 40 56
REMARK SMILES IDX 54 58 75 59 42 60 26 61 27 62 35 63 28 64 30 65 36 66 29 67
REMARK SMILES IDX 31 68 32 69 33 70 34 71 58 72 59 73 67 74 60 75 62 76 68 77
REMARK SMILES IDX 61 78 63 79 64 80 65 81 66 82 43 83 44 84 52 85 45 86 47 87
REMARK SMILES IDX 53 88 46 89 48 90 49 91 50 92 51 93
REMARK H PARENT 9 6 14 27 73 46 41 57
REMARK Flexibility Score: inf
ROOT
ATOM      1  C   UNL A   1      35.346  29.696  27.867  1.00  0.00     0.023 C 
ENDROOT
BRANCH   1   2
ATOM      2  C   UNL A   1      34.521  28.878  26.868  1.00  0.00     0.116 C 
BRANCH   2   3
ATOM      3  N   UNL A   1      33.304  28.409  27.473  1.00  0.00    -0.352 N 
ATOM      4  C   UNL A   1      32.205  27.757  26.999  1.00  0.00     0.255 C 
ATOM      5  O   UNL A   1      31.299  27.642  27.837  1.00  0.00    -0.269 OA
ATOM      6  H   UNL A   1      33.253  28.601  28.436  1.00  0.00     0.163 HD
BRANCH   4   7
ATOM      7  C   UNL A   1      31.974  27.163  25.630  1.00  0.00     0.082 A 
ATOM      8  C   UNL A   1      33.524  25.671  22.465  1.00  0.00     0.048 C 
ATOM      9  C   UNL A   1      32.520  26.177  23.467  1.00  0.00    -0.008 A 
ATOM     10  C   UNL A   1      31.383  26.786  22.901  1.00  0.00     0.007 A 
ATOM     11  C   UNL A   1      32.757  26.260  24.861  1.00  0.00     0.134 A 
ATOM     12  C   UNL A   1      30.537  27.560  23.670  1.00  0.00     0.001 A 
ATOM     13  C   UNL A   1      30.851  27.768  25.005  1.00  0.00     0.018 A 
BRANCH  11  14
ATOM     14  O   UNL A   1      33.821  25.631  25.425  1.00  0.00    -0.492 OA
BRANCH  14  15
ATOM     15  C   UNL A   1      33.753  24.317  26.031  1.00  0.00     0.233 C 
BRANCH  15  16
ATOM     16  C   UNL A   1      34.921  23.325  25.853  1.00  0.00     0.030 C 
ATOM     17  C   UNL A   1      36.173  23.990  25.200  1.00  0.00     0.011 C 
ATOM     18  C   UNL A   1      34.621  22.219  24.801  1.00  0.00    -0.004 C 
ATOM     19  C   UNL A   1      36.475  23.107  23.975  1.00  0.00    -0.010 C 
ATOM     20  C   UNL A   1      35.644  21.088  24.980  1.00  0.00     0.004 C 
ATOM     21  C   UNL A   1      35.067  22.831  23.471  1.00  0.00     0.007 C 
ATOM     22  C   UNL A   1      36.933  21.714  24.436  1.00  0.00     0.004 C 
ENDBRANCH  15  16
ENDBRANCH  14  15
ENDBRANCH  11  14
ENDBRANCH   4   7
ENDBRANCH   2   3
ENDBRANCH   1   2
BRANCH   1  23
ATOM     23  C   UNL A   1      34.665  30.927  28.484  1.00  0.00     0.023 C 
BRANCH  23  24
ATOM     24  C   UNL A   1      34.589  32.157  27.594  1.00  0.00     0.116 C 
BRANCH  24  25
ATOM     25  N   UNL A   1      34.144  33.330  28.339  1.00  0.00    -0.352 N 
ATOM     26  C   UNL A   1      34.458  33.745  29.612  1.00  0.00     0.251 C 
ATOM     27  H   UNL A   1      33.520  33.916  27.854  1.00  0.00     0.163 HD
ATOM     28  O   UNL A   1      33.588  34.338  30.249  1.00  0.00    -0.269 OA
BRANCH  26  29
ATOM     29  C   UNL A   1      35.827  33.590  30.145  1.00  0.00     0.039 A 
ATOM     30  C   UNL A   1      36.952  33.885  29.361  1.00  0.00     0.014 A 
ATOM     31  C   UNL A   1      35.996  32.922  31.348  1.00  0.00     0.014 A 
ATOM     32  C   UNL A   1      38.188  33.338  29.709  1.00  0.00     0.010 A 
ATOM     33  C   UNL A   1      37.229  32.610  31.817  1.00  0.00     0.010 A 
ATOM     34  C   UNL A   1      38.270  32.626  30.897  1.00  0.00    -0.014 A 
BRANCH  34  35
ATOM     35  C   UNL A   1      39.281  31.662  31.278  1.00  0.00     0.031 A 
ATOM     36  C   UNL A   1      39.373  30.406  30.527  1.00  0.00     0.074 A 
ATOM     37  C   UNL A   1      40.349  32.239  31.893  1.00  0.00     0.049 A 
ATOM     38  N   UNL A   1      40.297  29.536  30.718  1.00  0.00    -0.248 NA
ATOM     39  C   UNL A   1      38.427  30.030  29.478  1.00  0.00     0.031 C 
ATOM     40  C   UNL A   1      41.757  31.896  31.744  1.00  0.00     0.029 A 
ATOM     41  N   UNL A   1      40.395  33.348  32.755  1.00  0.00    -0.354 N 
ATOM     42  C   UNL A   1      40.274  28.687  29.636  1.00  0.00     0.074 A 
ATOM     43  C   UNL A   1      39.004  28.922  28.999  1.00  0.00     0.031 C 
ATOM     44  C   UNL A   1      42.465  32.556  32.677  1.00  0.00     0.029 A 
ATOM     45  C   UNL A   1      41.501  33.150  33.588  1.00  0.00     0.049 A 
ATOM     46  H   UNL A   1      39.773  34.113  32.771  1.00  0.00     0.167 HD
ATOM     47  C   UNL A   1      41.412  28.008  29.330  1.00  0.00     0.034 A 
ATOM     48  C   UNL A   1      41.373  32.803  34.909  1.00  0.00     0.034 A 
ATOM     49  C   UNL A   1      42.419  28.198  30.392  1.00  0.00     0.049 A 
ATOM     50  C   UNL A   1      41.890  31.396  35.197  1.00  0.00     0.074 A 
ATOM     51  C   UNL A   1      43.564  28.968  30.487  1.00  0.00     0.029 A 
ATOM     52  N   UNL A   1      42.113  27.794  31.691  1.00  0.00    -0.354 N 
ATOM     53  N   UNL A   1      42.305  30.561  34.282  1.00  0.00    -0.248 NA
ATOM     54  C   UNL A   1      41.983  30.819  36.535  1.00  0.00     0.031 C 
ATOM     55  C   UNL A   1      43.858  29.136  31.875  1.00  0.00     0.029 A 
ATOM     56  C   UNL A   1      42.931  28.422  32.620  1.00  0.00     0.049 A 
ATOM     57  H   UNL A   1      41.408  27.147  31.919  1.00  0.00     0.167 HD
ATOM     58  C   UNL A   1      42.534  29.329  34.827  1.00  0.00     0.074 A 
ATOM     59  C   UNL A   1      42.423  29.577  36.258  1.00  0.00     0.031 C 
ATOM     60  C   UNL A   1      42.719  28.207  34.057  1.00  0.00     0.034 A 
BRANCH  47  61
ATOM     61  C   UNL A   1      41.714  27.303  28.018  1.00  0.00     0.023 A 
ATOM     62  C   UNL A   1      41.750  28.107  26.858  1.00  0.00     0.012 A 
ATOM     63  C   UNL A   1      41.884  25.909  27.810  1.00  0.00     0.148 A 
ATOM     64  C   UNL A   1      41.943  27.574  25.577  1.00  0.00     0.002 A 
ATOM     65  C   UNL A   1      42.147  25.383  26.540  1.00  0.00     0.091 A 
ATOM     66  F   UNL A   1      41.698  25.050  28.815  1.00  0.00    -0.205 F 
ATOM     67  C   UNL A   1      42.161  26.213  25.417  1.00  0.00     0.022 A 
BRANCH  65  68
ATOM     68  S   UNL A   1      42.495  23.634  26.263  1.00  0.00     0.127 S 
ATOM     69  O   UNL A   1      41.164  23.035  26.360  1.00  0.00    -0.237 OA
ATOM     70  O   UNL A   1      43.063  23.635  24.914  1.00  0.00    -0.237 OA
ATOM     71  O   UNL A   1      43.432  23.233  27.306  1.00  0.00    -0.744 OA
ENDBRANCH  65  68
ENDBRANCH  47  61
BRANCH  48  72
ATOM     72  C   UNL A   1      40.203  33.462  35.573  1.00  0.00     0.023 A 
ATOM     73  C   UNL A   1      39.014  32.701  35.641  1.00  0.00     0.012 A 
ATOM     74  C   UNL A   1      40.393  34.506  36.495  1.00  0.00     0.148 A 
ATOM     75  C   UNL A   1      38.134  32.841  36.717  1.00  0.00     0.002 A 
ATOM     76  C   UNL A   1      39.519  34.630  37.577  1.00  0.00     0.091 A 
ATOM     77  F   UNL A   1      41.468  35.293  36.357  1.00  0.00    -0.205 F 
ATOM     78  C   UNL A   1      38.421  33.767  37.714  1.00  0.00     0.022 A 
BRANCH  76  79
ATOM     79  S   UNL A   1      39.848  35.780  38.922  1.00  0.00     0.127 S 
ATOM     80  O   UNL A   1      38.823  35.389  39.894  1.00  0.00    -0.237 OA
ATOM     81  O   UNL A   1      41.216  35.423  39.313  1.00  0.00    -0.237 OA
ATOM     82  O   UNL A   1      39.717  37.096  38.343  1.00  0.00    -0.744 OA
ENDBRANCH  76  79
ENDBRANCH  48  72
BRANCH  60  83
ATOM     83  C   UNL A   1      42.687  26.782  34.596  1.00  0.00     0.023 A 
ATOM     84  C   UNL A   1      41.542  26.229  35.204  1.00  0.00     0.012 A 
ATOM     85  C   UNL A   1      43.773  25.893  34.383  1.00  0.00     0.148 A 
ATOM     86  C   UNL A   1      41.503  24.907  35.663  1.00  0.00     0.002 A 
ATOM     87  C   UNL A   1      43.677  24.542  34.715  1.00  0.00     0.091 A 
ATOM     88  F   UNL A   1      44.926  26.348  33.875  1.00  0.00    -0.205 F 
ATOM     89  C   UNL A   1      42.562  24.055  35.397  1.00  0.00     0.022 A 
BRANCH  87  90
ATOM     90  S   UNL A   1      44.890  23.353  34.124  1.00  0.00     0.127 S 
ATOM     91  O   UNL A   1      44.309  22.086  34.555  1.00  0.00    -0.237 OA
ATOM     92  O   UNL A   1      44.867  23.575  32.676  1.00  0.00    -0.237 OA
ATOM     93  O   UNL A   1      46.142  23.741  34.764  1.00  0.00    -0.744 OA
ENDBRANCH  87  90
ENDBRANCH  60  83
ENDBRANCH  34  35
ENDBRANCH  26  29
ENDBRANCH  24  25
ENDBRANCH  23  24
ENDBRANCH   1  23
TORSDOF 17
ENDMDL
