MODEL 1
REMARK VINA RESULT:     -13.0      0.000      0.000
REMARK SMILES Cc1ccc(C(=O)N2CCC3(CCC(=O)N(CC(=O)NCCCCNC(=O)c4ccc(-c5c6nc(c(-c7cccc(S(=O)(=O)[O-])c7F)c7ccc([nH]7)c(-c7cccc(S(=O)(=O)[O-])c7F)c7nc(c(-c8cccc(S(=O)(=O)[O-])c8F)c8ccc5[nH]8)C=C7)C=C6)cc4)C3)CC2)cc1O
REMARK SMILES IDX 22 1 21 2 20 3 18 4 19 5 17 7 16 8 6 9 7 10 8 11 9 12 93 13
REMARK SMILES IDX 10 14 92 15 11 16 12 17 91 18 13 19 14 20 15 21 5 22 1 23
REMARK SMILES IDX 2 24 3 25 95 26 4 27 94 28 96 29 23 31 24 32 25 33 26 34
REMARK SMILES IDX 27 36 28 37 29 38 90 39 30 40 89 41 31 42 32 43 33 44 83 45
REMARK SMILES IDX 34 46 88 47 82 48 84 49 35 50 87 51 81 52 80 53 36 55 68 56
REMARK SMILES IDX 48 57 67 58 49 59 52 60 66 61 85 62 50 63 51 64 65 66 86 67
REMARK SMILES IDX 53 68 37 69 38 70 46 71 39 72 41 73 47 74 40 75 42 76 43 77
REMARK SMILES IDX 44 78 45 79 69 80 70 81 78 82 71 83 73 84 79 85 72 86 74 87
REMARK SMILES IDX 75 88 76 89 77 90 54 91 55 92 63 93 56 94 58 95 64 96 57 97
REMARK SMILES IDX 59 98 60 99 61 100 62 101
REMARK H PARENT 20 6 96 30 25 35 84 54 52 65
REMARK Flexibility Score: inf
ROOT
ATOM      1  C   UNL A   1      34.687  31.059  28.127  1.00  0.00     0.023 C 
ENDROOT
BRANCH   1   2
ATOM      2  C   UNL A   1      34.505  29.788  27.305  1.00  0.00     0.116 C 
BRANCH   2   3
ATOM      3  N   UNL A   1      33.260  29.122  27.602  1.00  0.00    -0.355 N 
ATOM      4  C   UNL A   1      32.119  29.051  26.858  1.00  0.00     0.239 C 
ATOM      5  O   UNL A   1      31.276  28.215  27.193  1.00  0.00    -0.273 OA
ATOM      6  H   UNL A   1      33.230  28.650  28.466  1.00  0.00     0.163 HD
BRANCH   4   7
ATOM      7  C   UNL A   1      31.985  29.820  25.535  1.00  0.00     0.219 C 
BRANCH   7   8
ATOM      8  N   UNL A   1      31.849  29.064  24.283  1.00  0.00    -0.333 N 
ATOM      9  C   UNL A   1      33.352  22.858  24.618  1.00  0.00     0.253 C 
ATOM     10  O   UNL A   1      32.562  22.122  25.210  1.00  0.00    -0.269 OA
ATOM     11  N   UNL A   1      32.921  23.997  23.942  1.00  0.00    -0.339 N 
ATOM     12  C   UNL A   1      31.670  24.607  24.363  1.00  0.00     0.120 C 
ATOM     13  C   UNL A   1      33.491  24.542  22.715  1.00  0.00     0.120 C 
ATOM     14  C   UNL A   1      31.914  26.088  24.625  1.00  0.00     0.030 C 
ATOM     15  C   UNL A   1      33.716  26.053  22.832  1.00  0.00     0.030 C 
ATOM     16  C   UNL A   1      32.491  26.831  23.390  1.00  0.00    -0.008 C 
ATOM     17  C   UNL A   1      31.448  27.047  22.277  1.00  0.00     0.019 C 
ATOM     18  C   UNL A   1      32.949  28.236  23.814  1.00  0.00     0.127 C 
ATOM     19  C   UNL A   1      30.290  27.935  22.712  1.00  0.00     0.101 C 
ATOM     20  C   UNL A   1      30.616  29.080  23.657  1.00  0.00     0.223 C 
ATOM     21  O   UNL A   1      29.745  29.901  23.940  1.00  0.00    -0.275 OA
BRANCH   9  22
ATOM     22  C   UNL A   1      34.810  22.571  24.767  1.00  0.00     0.043 A 
ATOM     23  C   UNL A   1      38.884  21.554  25.821  1.00  0.00     0.048 C 
ATOM     24  C   UNL A   1      37.476  21.882  25.420  1.00  0.00    -0.009 A 
ATOM     25  C   UNL A   1      37.055  23.217  25.436  1.00  0.00     0.008 A 
ATOM     26  C   UNL A   1      36.540  20.899  25.079  1.00  0.00     0.119 A 
ATOM     27  C   UNL A   1      35.731  23.554  25.136  1.00  0.00     0.014 A 
ATOM     28  C   UNL A   1      35.229  21.235  24.741  1.00  0.00     0.060 A 
BRANCH  26  29
ATOM     29  O   UNL A   1      36.837  19.565  25.091  1.00  0.00    -0.508 OA
ATOM     30  H   UNL A   1      36.814  19.074  24.294  1.00  0.00     0.293 HD
ENDBRANCH  26  29
ENDBRANCH   9  22
ENDBRANCH   7   8
ENDBRANCH   4   7
ENDBRANCH   2   3
ENDBRANCH   1   2
BRANCH   1  31
ATOM     31  C   UNL A   1      34.192  32.339  27.448  1.00  0.00     0.023 C 
BRANCH  31  32
ATOM     32  C   UNL A   1      32.756  32.744  27.769  1.00  0.00     0.116 C 
BRANCH  32  33
ATOM     33  N   UNL A   1      32.583  34.181  27.918  1.00  0.00    -0.352 N 
ATOM     34  C   UNL A   1      33.283  35.056  28.716  1.00  0.00     0.251 C 
ATOM     35  H   UNL A   1      31.867  34.582  27.374  1.00  0.00     0.163 HD
ATOM     36  O   UNL A   1      32.932  36.227  28.793  1.00  0.00    -0.269 OA
BRANCH  34  37
ATOM     37  C   UNL A   1      34.436  34.567  29.505  1.00  0.00     0.039 A 
ATOM     38  C   UNL A   1      34.193  33.904  30.711  1.00  0.00     0.014 A 
ATOM     39  C   UNL A   1      35.744  34.735  29.046  1.00  0.00     0.014 A 
ATOM     40  C   UNL A   1      35.258  33.348  31.423  1.00  0.00     0.010 A 
ATOM     41  C   UNL A   1      36.798  34.124  29.722  1.00  0.00     0.010 A 
ATOM     42  C   UNL A   1      36.566  33.423  30.915  1.00  0.00    -0.014 A 
BRANCH  42  43
ATOM     43  C   UNL A   1      37.695  32.739  31.595  1.00  0.00     0.031 A 
ATOM     44  C   UNL A   1      38.387  31.574  30.945  1.00  0.00     0.074 A 
ATOM     45  C   UNL A   1      38.026  33.100  32.851  1.00  0.00     0.049 A 
ATOM     46  N   UNL A   1      39.360  30.831  31.408  1.00  0.00    -0.248 NA
ATOM     47  C   UNL A   1      37.905  31.168  29.615  1.00  0.00     0.031 C 
ATOM     48  C   UNL A   1      37.359  34.143  33.632  1.00  0.00     0.029 A 
ATOM     49  N   UNL A   1      38.982  32.607  33.704  1.00  0.00    -0.354 N 
ATOM     50  C   UNL A   1      39.579  29.849  30.451  1.00  0.00     0.074 A 
ATOM     51  C   UNL A   1      38.617  30.073  29.392  1.00  0.00     0.031 C 
ATOM     52  C   UNL A   1      37.921  34.208  34.850  1.00  0.00     0.029 A 
ATOM     53  C   UNL A   1      38.974  33.201  34.943  1.00  0.00     0.049 A 
ATOM     54  H   UNL A   1      39.613  31.895  33.451  1.00  0.00     0.167 HD
ATOM     55  C   UNL A   1      40.512  28.868  30.437  1.00  0.00     0.034 A 
ATOM     56  C   UNL A   1      39.726  32.963  36.036  1.00  0.00     0.034 A 
ATOM     57  C   UNL A   1      41.501  28.683  31.466  1.00  0.00     0.049 A 
ATOM     58  C   UNL A   1      40.809  31.921  35.968  1.00  0.00     0.074 A 
ATOM     59  C   UNL A   1      42.570  27.805  31.483  1.00  0.00     0.029 A 
ATOM     60  N   UNL A   1      41.538  29.380  32.663  1.00  0.00    -0.354 N 
ATOM     61  N   UNL A   1      41.134  31.137  34.969  1.00  0.00    -0.248 NA
ATOM     62  C   UNL A   1      41.655  31.761  37.159  1.00  0.00     0.031 C 
ATOM     63  C   UNL A   1      43.244  27.959  32.699  1.00  0.00     0.029 A 
ATOM     64  C   UNL A   1      42.602  28.945  33.433  1.00  0.00     0.049 A 
ATOM     65  H   UNL A   1      40.901  30.084  32.927  1.00  0.00     0.167 HD
ATOM     66  C   UNL A   1      42.237  30.407  35.400  1.00  0.00     0.074 A 
ATOM     67  C   UNL A   1      42.540  30.864  36.742  1.00  0.00     0.031 C 
ATOM     68  C   UNL A   1      42.925  29.437  34.749  1.00  0.00     0.034 A 
BRANCH  55  69
ATOM     69  C   UNL A   1      40.548  27.956  29.240  1.00  0.00     0.023 A 
ATOM     70  C   UNL A   1      39.653  26.869  29.172  1.00  0.00     0.012 A 
ATOM     71  C   UNL A   1      41.427  28.196  28.167  1.00  0.00     0.148 A 
ATOM     72  C   UNL A   1      39.656  26.012  28.071  1.00  0.00     0.002 A 
ATOM     73  C   UNL A   1      41.397  27.362  27.054  1.00  0.00     0.091 A 
ATOM     74  F   UNL A   1      42.290  29.218  28.259  1.00  0.00    -0.205 F 
ATOM     75  C   UNL A   1      40.521  26.264  27.010  1.00  0.00     0.022 A 
BRANCH  73  76
ATOM     76  S   UNL A   1      42.419  27.653  25.606  1.00  0.00     0.127 S 
ATOM     77  O   UNL A   1      43.755  27.724  26.198  1.00  0.00    -0.237 OA
ATOM     78  O   UNL A   1      42.173  26.454  24.803  1.00  0.00    -0.237 OA
ATOM     79  O   UNL A   1      41.924  28.888  25.014  1.00  0.00    -0.744 OA
ENDBRANCH  73  76
ENDBRANCH  55  69
BRANCH  56  80
ATOM     80  C   UNL A   1      39.524  33.788  37.260  1.00  0.00     0.023 A 
ATOM     81  C   UNL A   1      39.979  35.120  37.275  1.00  0.00     0.012 A 
ATOM     82  C   UNL A   1      38.831  33.284  38.377  1.00  0.00     0.148 A 
ATOM     83  C   UNL A   1      39.767  35.931  38.391  1.00  0.00     0.002 A 
ATOM     84  C   UNL A   1      38.575  34.114  39.462  1.00  0.00     0.091 A 
ATOM     85  F   UNL A   1      38.415  32.011  38.345  1.00  0.00    -0.205 F 
ATOM     86  C   UNL A   1      39.054  35.433  39.478  1.00  0.00     0.022 A 
BRANCH  84  87
ATOM     87  S   UNL A   1      37.547  33.602  40.844  1.00  0.00     0.127 S 
ATOM     88  O   UNL A   1      38.392  32.603  41.492  1.00  0.00    -0.237 OA
ATOM     89  O   UNL A   1      37.393  34.855  41.585  1.00  0.00    -0.237 OA
ATOM     90  O   UNL A   1      36.314  33.101  40.252  1.00  0.00    -0.744 OA
ENDBRANCH  84  87
ENDBRANCH  56  80
BRANCH  68  91
ATOM     91  C   UNL A   1      44.085  28.802  35.468  1.00  0.00     0.023 A 
ATOM     92  C   UNL A   1      45.385  29.312  35.277  1.00  0.00     0.012 A 
ATOM     93  C   UNL A   1      43.882  27.755  36.388  1.00  0.00     0.148 A 
ATOM     94  C   UNL A   1      46.468  28.771  35.969  1.00  0.00     0.002 A 
ATOM     95  C   UNL A   1      44.960  27.251  37.109  1.00  0.00     0.091 A 
ATOM     96  F   UNL A   1      42.642  27.268  36.541  1.00  0.00    -0.205 F 
ATOM     97  C   UNL A   1      46.254  27.752  36.893  1.00  0.00     0.022 A 
BRANCH  95  98
ATOM     98  S   UNL A   1      44.759  26.002  38.383  1.00  0.00     0.127 S 
ATOM     99  O   UNL A   1      46.128  25.850  38.873  1.00  0.00    -0.237 OA
ATOM    100  O   UNL A   1      43.845  26.654  39.322  1.00  0.00    -0.237 OA
ATOM    101  O   UNL A   1      44.199  24.836  37.712  1.00  0.00    -0.744 OA
ENDBRANCH  95  98
ENDBRANCH  68  91
ENDBRANCH  42  43
ENDBRANCH  34  37
ENDBRANCH  32  33
ENDBRANCH  31  32
ENDBRANCH   1  31
TORSDOF 17
ENDMDL
MODEL 2
REMARK VINA RESULT:     -12.7      5.575     11.921
REMARK SMILES Cc1ccc(C(=O)N2CCC3(CCC(=O)N(CC(=O)NCCCCNC(=O)c4ccc(-c5c6nc(c(-c7cccc(S(=O)(=O)[O-])c7F)c7ccc([nH]7)c(-c7cccc(S(=O)(=O)[O-])c7F)c7nc(c(-c8cccc(S(=O)(=O)[O-])c8F)c8ccc5[nH]8)C=C7)C=C6)cc4)C3)CC2)cc1O
REMARK SMILES IDX 22 1 21 2 20 3 18 4 19 5 17 7 16 8 6 9 7 10 8 11 9 12 93 13
REMARK SMILES IDX 10 14 92 15 11 16 12 17 91 18 13 19 14 20 15 21 5 22 1 23
REMARK SMILES IDX 2 24 3 25 95 26 4 27 94 28 96 29 23 31 24 32 25 33 26 34
REMARK SMILES IDX 27 36 28 37 29 38 90 39 30 40 89 41 31 42 32 43 33 44 83 45
REMARK SMILES IDX 34 46 88 47 82 48 84 49 35 50 87 51 81 52 80 53 36 55 68 56
REMARK SMILES IDX 48 57 67 58 49 59 52 60 66 61 85 62 50 63 51 64 65 66 86 67
REMARK SMILES IDX 53 68 37 69 38 70 46 71 39 72 41 73 47 74 40 75 42 76 43 77
REMARK SMILES IDX 44 78 45 79 69 80 70 81 78 82 71 83 73 84 79 85 72 86 74 87
REMARK SMILES IDX 75 88 76 89 77 90 54 91 55 92 63 93 56 94 58 95 64 96 57 97
REMARK SMILES IDX 59 98 60 99 61 100 62 101
REMARK H PARENT 20 6 96 30 25 35 84 54 52 65
REMARK Flexibility Score: inf
ROOT
ATOM      1  C   UNL A   1      39.395  23.071  26.463  1.00  0.00     0.023 C 
ENDROOT
BRANCH   1   2
ATOM      2  C   UNL A   1      37.940  23.445  26.206  1.00  0.00     0.116 C 
BRANCH   2   3
ATOM      3  N   UNL A   1      37.566  23.262  24.825  1.00  0.00    -0.355 N 
ATOM      4  C   UNL A   1      36.713  22.351  24.275  1.00  0.00     0.239 C 
ATOM      5  O   UNL A   1      36.350  22.548  23.111  1.00  0.00    -0.273 OA
ATOM      6  H   UNL A   1      37.986  23.885  24.189  1.00  0.00     0.163 HD
BRANCH   4   7
ATOM      7  C   UNL A   1      36.062  21.255  25.130  1.00  0.00     0.219 C 
BRANCH   7   8
ATOM      8  N   UNL A   1      34.648  21.390  25.504  1.00  0.00    -0.333 N 
ATOM      9  C   UNL A   1      32.125  27.215  24.735  1.00  0.00     0.253 C 
ATOM     10  O   UNL A   1      31.909  27.584  23.580  1.00  0.00    -0.269 OA
ATOM     11  N   UNL A   1      32.061  25.872  25.095  1.00  0.00    -0.339 N 
ATOM     12  C   UNL A   1      32.269  24.876  24.056  1.00  0.00     0.120 C 
ATOM     13  C   UNL A   1      31.608  25.340  26.377  1.00  0.00     0.120 C 
ATOM     14  C   UNL A   1      33.346  23.904  24.522  1.00  0.00     0.030 C 
ATOM     15  C   UNL A   1      32.583  24.289  26.916  1.00  0.00     0.030 C 
ATOM     16  C   UNL A   1      32.996  23.217  25.868  1.00  0.00    -0.008 C 
ATOM     17  C   UNL A   1      31.888  22.156  25.732  1.00  0.00     0.019 C 
ATOM     18  C   UNL A   1      34.233  22.467  26.390  1.00  0.00     0.127 C 
ATOM     19  C   UNL A   1      32.288  20.991  24.836  1.00  0.00     0.101 C 
ATOM     20  C   UNL A   1      33.740  20.545  24.892  1.00  0.00     0.223 C 
ATOM     21  O   UNL A   1      34.089  19.533  24.286  1.00  0.00    -0.275 OA
BRANCH   9  22
ATOM     22  C   UNL A   1      32.600  28.241  25.710  1.00  0.00     0.043 A 
ATOM     23  C   UNL A   1      34.171  31.559  28.004  1.00  0.00     0.048 C 
ATOM     24  C   UNL A   1      33.590  30.412  27.232  1.00  0.00    -0.009 A 
ATOM     25  C   UNL A   1      34.345  29.244  27.072  1.00  0.00     0.008 A 
ATOM     26  C   UNL A   1      32.336  30.477  26.612  1.00  0.00     0.119 A 
ATOM     27  C   UNL A   1      33.865  28.181  26.301  1.00  0.00     0.014 A 
ATOM     28  C   UNL A   1      31.837  29.404  25.875  1.00  0.00     0.060 A 
BRANCH  26  29
ATOM     29  O   UNL A   1      31.550  31.593  26.661  1.00  0.00    -0.508 OA
ATOM     30  H   UNL A   1      31.122  31.830  27.460  1.00  0.00     0.293 HD
ENDBRANCH  26  29
ENDBRANCH   9  22
ENDBRANCH   7   8
ENDBRANCH   4   7
ENDBRANCH   2   3
ENDBRANCH   1   2
BRANCH   1  31
ATOM     31  C   UNL A   1      39.618  21.620  26.898  1.00  0.00     0.023 C 
BRANCH  31  32
ATOM     32  C   UNL A   1      39.621  20.586  25.775  1.00  0.00     0.116 C 
BRANCH  32  33
ATOM     33  N   UNL A   1      40.530  19.476  26.017  1.00  0.00    -0.352 N 
ATOM     34  C   UNL A   1      41.860  19.511  26.368  1.00  0.00     0.251 C 
ATOM     35  H   UNL A   1      40.141  18.577  25.915  1.00  0.00     0.163 HD
ATOM     36  O   UNL A   1      42.503  18.471  26.431  1.00  0.00    -0.269 OA
BRANCH  34  37
ATOM     37  C   UNL A   1      42.515  20.812  26.631  1.00  0.00     0.039 A 
ATOM     38  C   UNL A   1      42.884  21.612  25.546  1.00  0.00     0.014 A 
ATOM     39  C   UNL A   1      42.738  21.254  27.938  1.00  0.00     0.014 A 
ATOM     40  C   UNL A   1      43.413  22.884  25.771  1.00  0.00     0.010 A 
ATOM     41  C   UNL A   1      43.203  22.547  28.161  1.00  0.00     0.010 A 
ATOM     42  C   UNL A   1      43.543  23.376  27.081  1.00  0.00    -0.014 A 
BRANCH  42  43
ATOM     43  C   UNL A   1      43.994  24.768  27.338  1.00  0.00     0.031 A 
ATOM     44  C   UNL A   1      43.028  25.803  27.844  1.00  0.00     0.074 A 
ATOM     45  C   UNL A   1      45.251  25.127  27.011  1.00  0.00     0.049 A 
ATOM     46  N   UNL A   1      43.233  27.073  28.084  1.00  0.00    -0.248 NA
ATOM     47  C   UNL A   1      41.643  25.364  28.082  1.00  0.00     0.031 C 
ATOM     48  C   UNL A   1      46.251  24.242  26.411  1.00  0.00     0.029 A 
ATOM     49  N   UNL A   1      45.891  26.337  27.103  1.00  0.00    -0.354 N 
ATOM     50  C   UNL A   1      42.002  27.593  28.459  1.00  0.00     0.074 A 
ATOM     51  C   UNL A   1      41.047  26.507  28.389  1.00  0.00     0.031 C 
ATOM     52  C   UNL A   1      47.376  24.940  26.183  1.00  0.00     0.029 A 
ATOM     53  C   UNL A   1      47.171  26.324  26.603  1.00  0.00     0.049 A 
ATOM     54  H   UNL A   1      45.472  27.140  27.491  1.00  0.00     0.167 HD
ATOM     55  C   UNL A   1      41.696  28.852  28.856  1.00  0.00     0.034 A 
ATOM     56  C   UNL A   1      48.080  27.312  26.490  1.00  0.00     0.034 A 
ATOM     57  C   UNL A   1      42.659  29.914  28.977  1.00  0.00     0.049 A 
ATOM     58  C   UNL A   1      47.743  28.682  27.011  1.00  0.00     0.074 A 
ATOM     59  C   UNL A   1      42.476  31.185  29.493  1.00  0.00     0.029 A 
ATOM     60  N   UNL A   1      43.980  29.835  28.568  1.00  0.00    -0.354 N 
ATOM     61  N   UNL A   1      46.628  29.103  27.556  1.00  0.00    -0.248 NA
ATOM     62  C   UNL A   1      48.800  29.701  26.940  1.00  0.00     0.031 C 
ATOM     63  C   UNL A   1      43.686  31.880  29.381  1.00  0.00     0.029 A 
ATOM     64  C   UNL A   1      44.624  31.037  28.807  1.00  0.00     0.049 A 
ATOM     65  H   UNL A   1      44.401  29.039  28.167  1.00  0.00     0.167 HD
ATOM     66  C   UNL A   1      46.855  30.427  27.917  1.00  0.00     0.074 A 
ATOM     67  C   UNL A   1      48.224  30.729  27.551  1.00  0.00     0.031 C 
ATOM     68  C   UNL A   1      46.001  31.314  28.483  1.00  0.00     0.034 A 
BRANCH  55  69
ATOM     69  C   UNL A   1      40.270  29.133  29.248  1.00  0.00     0.023 A 
ATOM     70  C   UNL A   1      39.323  29.433  28.247  1.00  0.00     0.012 A 
ATOM     71  C   UNL A   1      39.855  29.055  30.591  1.00  0.00     0.148 A 
ATOM     72  C   UNL A   1      37.993  29.688  28.580  1.00  0.00     0.002 A 
ATOM     73  C   UNL A   1      38.518  29.271  30.912  1.00  0.00     0.091 A 
ATOM     74  F   UNL A   1      40.773  28.795  31.533  1.00  0.00    -0.205 F 
ATOM     75  C   UNL A   1      37.590  29.598  29.909  1.00  0.00     0.022 A 
BRANCH  73  76
ATOM     76  S   UNL A   1      37.891  29.101  32.586  1.00  0.00     0.127 S 
ATOM     77  O   UNL A   1      36.509  29.553  32.431  1.00  0.00    -0.237 OA
ATOM     78  O   UNL A   1      38.037  27.665  32.831  1.00  0.00    -0.237 OA
ATOM     79  O   UNL A   1      38.742  29.943  33.415  1.00  0.00    -0.744 OA
ENDBRANCH  73  76
ENDBRANCH  55  69
BRANCH  56  80
ATOM     80  C   UNL A   1      49.426  27.010  25.927  1.00  0.00     0.023 A 
ATOM     81  C   UNL A   1      50.361  26.309  26.714  1.00  0.00     0.012 A 
ATOM     82  C   UNL A   1      49.760  27.353  24.603  1.00  0.00     0.148 A 
ATOM     83  C   UNL A   1      51.613  25.975  26.199  1.00  0.00     0.002 A 
ATOM     84  C   UNL A   1      50.989  26.968  24.079  1.00  0.00     0.091 A 
ATOM     85  F   UNL A   1      48.860  28.027  23.875  1.00  0.00    -0.205 F 
ATOM     86  C   UNL A   1      51.923  26.292  24.879  1.00  0.00     0.022 A 
BRANCH  84  87
ATOM     87  S   UNL A   1      51.418  27.210  22.351  1.00  0.00     0.127 S 
ATOM     88  O   UNL A   1      50.270  26.617  21.672  1.00  0.00    -0.237 OA
ATOM     89  O   UNL A   1      51.502  28.669  22.264  1.00  0.00    -0.237 OA
ATOM     90  O   UNL A   1      52.689  26.525  22.163  1.00  0.00    -0.744 OA
ENDBRANCH  84  87
ENDBRANCH  56  80
BRANCH  68  91
ATOM     91  C   UNL A   1      46.518  32.701  28.759  1.00  0.00     0.023 A 
ATOM     92  C   UNL A   1      47.178  32.969  29.975  1.00  0.00     0.012 A 
ATOM     93  C   UNL A   1      46.420  33.717  27.788  1.00  0.00     0.148 A 
ATOM     94  C   UNL A   1      47.708  34.232  30.232  1.00  0.00     0.002 A 
ATOM     95  C   UNL A   1      46.991  34.962  28.032  1.00  0.00     0.091 A 
ATOM     96  F   UNL A   1      45.770  33.451  26.646  1.00  0.00    -0.205 F 
ATOM     97  C   UNL A   1      47.626  35.224  29.257  1.00  0.00     0.022 A 
BRANCH  95  98
ATOM     98  S   UNL A   1      47.011  36.265  26.797  1.00  0.00     0.127 S 
ATOM     99  O   UNL A   1      47.747  37.322  27.487  1.00  0.00    -0.237 OA
ATOM    100  O   UNL A   1      47.738  35.639  25.691  1.00  0.00    -0.237 OA
ATOM    101  O   UNL A   1      45.614  36.558  26.506  1.00  0.00    -0.744 OA
ENDBRANCH  95  98
ENDBRANCH  68  91
ENDBRANCH  42  43
ENDBRANCH  34  37
ENDBRANCH  32  33
ENDBRANCH  31  32
ENDBRANCH   1  31
TORSDOF 17
ENDMDL
MODEL 3
REMARK VINA RESULT:     -12.5      1.024      7.528
REMARK SMILES Cc1ccc(C(=O)N2CCC3(CCC(=O)N(CC(=O)NCCCCNC(=O)c4ccc(-c5c6nc(c(-c7cccc(S(=O)(=O)[O-])c7F)c7ccc([nH]7)c(-c7cccc(S(=O)(=O)[O-])c7F)c7nc(c(-c8cccc(S(=O)(=O)[O-])c8F)c8ccc5[nH]8)C=C7)C=C6)cc4)C3)CC2)cc1O
REMARK SMILES IDX 22 1 21 2 20 3 18 4 19 5 17 7 16 8 6 9 7 10 8 11 9 12 93 13
REMARK SMILES IDX 10 14 92 15 11 16 12 17 91 18 13 19 14 20 15 21 5 22 1 23
REMARK SMILES IDX 2 24 3 25 95 26 4 27 94 28 96 29 23 31 24 32 25 33 26 34
REMARK SMILES IDX 27 36 28 37 29 38 90 39 30 40 89 41 31 42 32 43 33 44 83 45
REMARK SMILES IDX 34 46 88 47 82 48 84 49 35 50 87 51 81 52 80 53 36 55 68 56
REMARK SMILES IDX 48 57 67 58 49 59 52 60 66 61 85 62 50 63 51 64 65 66 86 67
REMARK SMILES IDX 53 68 37 69 38 70 46 71 39 72 41 73 47 74 40 75 42 76 43 77
REMARK SMILES IDX 44 78 45 79 69 80 70 81 78 82 71 83 73 84 79 85 72 86 74 87
REMARK SMILES IDX 75 88 76 89 77 90 54 91 55 92 63 93 56 94 58 95 64 96 57 97
REMARK SMILES IDX 59 98 60 99 61 100 62 101
REMARK H PARENT 20 6 96 30 25 35 84 54 52 65
REMARK Flexibility Score: inf
ROOT
ATOM      1  C   UNL A   1      34.830  31.234  27.968  1.00  0.00     0.023 C 
ENDROOT
BRANCH   1   2
ATOM      2  C   UNL A   1      34.646  29.905  27.244  1.00  0.00     0.116 C 
BRANCH   2   3
ATOM      3  N   UNL A   1      33.412  29.253  27.610  1.00  0.00    -0.355 N 
ATOM      4  C   UNL A   1      32.242  29.166  26.914  1.00  0.00     0.239 C 
ATOM      5  O   UNL A   1      31.410  28.343  27.307  1.00  0.00    -0.273 OA
ATOM      6  H   UNL A   1      33.415  28.806  28.487  1.00  0.00     0.163 HD
BRANCH   4   7
ATOM      7  C   UNL A   1      32.056  29.898  25.577  1.00  0.00     0.219 C 
BRANCH   7   8
ATOM      8  N   UNL A   1      31.965  29.110  24.341  1.00  0.00    -0.333 N 
ATOM      9  C   UNL A   1      33.732  22.984  24.826  1.00  0.00     0.253 C 
ATOM     10  O   UNL A   1      32.970  22.227  25.428  1.00  0.00    -0.269 OA
ATOM     11  N   UNL A   1      33.259  24.088  24.122  1.00  0.00    -0.339 N 
ATOM     12  C   UNL A   1      31.979  24.652  24.519  1.00  0.00     0.120 C 
ATOM     13  C   UNL A   1      33.816  24.630  22.887  1.00  0.00     0.120 C 
ATOM     14  C   UNL A   1      32.156  26.147  24.749  1.00  0.00     0.030 C 
ATOM     15  C   UNL A   1      33.974  26.152  22.972  1.00  0.00     0.030 C 
ATOM     16  C   UNL A   1      32.711  26.887  23.503  1.00  0.00    -0.008 C 
ATOM     17  C   UNL A   1      31.671  27.033  22.377  1.00  0.00     0.019 C 
ATOM     18  C   UNL A   1      33.105  28.320  23.899  1.00  0.00     0.127 C 
ATOM     19  C   UNL A   1      30.471  27.879  22.783  1.00  0.00     0.101 C 
ATOM     20  C   UNL A   1      30.738  29.058  23.704  1.00  0.00     0.223 C 
ATOM     21  O   UNL A   1      29.830  29.846  23.961  1.00  0.00    -0.275 OA
BRANCH   9  22
ATOM     22  C   UNL A   1      35.200  22.763  24.994  1.00  0.00     0.043 A 
ATOM     23  C   UNL A   1      39.291  21.822  26.051  1.00  0.00     0.048 C 
ATOM     24  C   UNL A   1      37.880  22.132  25.646  1.00  0.00    -0.009 A 
ATOM     25  C   UNL A   1      37.368  23.413  25.878  1.00  0.00     0.008 A 
ATOM     26  C   UNL A   1      37.027  21.171  25.089  1.00  0.00     0.119 A 
ATOM     27  C   UNL A   1      36.037  23.718  25.577  1.00  0.00     0.014 A 
ATOM     28  C   UNL A   1      35.710  21.482  24.752  1.00  0.00     0.060 A 
BRANCH  26  29
ATOM     29  O   UNL A   1      37.415  19.878  24.878  1.00  0.00    -0.508 OA
ATOM     30  H   UNL A   1      37.177  19.212  25.493  1.00  0.00     0.293 HD
ENDBRANCH  26  29
ENDBRANCH   9  22
ENDBRANCH   7   8
ENDBRANCH   4   7
ENDBRANCH   2   3
ENDBRANCH   1   2
BRANCH   1  31
ATOM     31  C   UNL A   1      33.624  32.174  27.902  1.00  0.00     0.023 C 
BRANCH  31  32
ATOM     32  C   UNL A   1      33.948  33.658  27.752  1.00  0.00     0.116 C 
BRANCH  32  33
ATOM     33  N   UNL A   1      33.210  34.505  28.676  1.00  0.00    -0.352 N 
ATOM     34  C   UNL A   1      33.431  34.715  30.018  1.00  0.00     0.251 C 
ATOM     35  H   UNL A   1      32.449  34.996  28.289  1.00  0.00     0.163 HD
ATOM     36  O   UNL A   1      32.642  35.389  30.669  1.00  0.00    -0.269 OA
BRANCH  34  37
ATOM     37  C   UNL A   1      34.603  34.093  30.674  1.00  0.00     0.039 A 
ATOM     38  C   UNL A   1      34.400  32.990  31.508  1.00  0.00     0.014 A 
ATOM     39  C   UNL A   1      35.894  34.575  30.447  1.00  0.00     0.014 A 
ATOM     40  C   UNL A   1      35.499  32.327  32.060  1.00  0.00     0.010 A 
ATOM     41  C   UNL A   1      36.991  33.875  30.943  1.00  0.00     0.010 A 
ATOM     42  C   UNL A   1      36.806  32.743  31.752  1.00  0.00    -0.014 A 
BRANCH  42  43
ATOM     43  C   UNL A   1      37.987  31.983  32.232  1.00  0.00     0.031 A 
ATOM     44  C   UNL A   1      38.674  32.366  33.514  1.00  0.00     0.074 A 
ATOM     45  C   UNL A   1      38.509  31.013  31.455  1.00  0.00     0.049 A 
ATOM     46  N   UNL A   1      39.740  31.845  34.064  1.00  0.00    -0.248 NA
ATOM     47  C   UNL A   1      38.110  33.503  34.259  1.00  0.00     0.031 C 
ATOM     48  C   UNL A   1      38.000  30.620  30.141  1.00  0.00     0.029 A 
ATOM     49  N   UNL A   1      39.604  30.206  31.643  1.00  0.00    -0.354 N 
ATOM     50  C   UNL A   1      39.999  32.610  35.193  1.00  0.00     0.074 A 
ATOM     51  C   UNL A   1      38.995  33.652  35.235  1.00  0.00     0.031 C 
ATOM     52  C   UNL A   1      38.783  29.652  29.636  1.00  0.00     0.029 A 
ATOM     53  C   UNL A   1      39.859  29.369  30.583  1.00  0.00     0.049 A 
ATOM     54  H   UNL A   1      40.154  30.225  32.459  1.00  0.00     0.167 HD
ATOM     55  C   UNL A   1      40.966  32.446  36.127  1.00  0.00     0.034 A 
ATOM     56  C   UNL A   1      40.848  28.475  30.388  1.00  0.00     0.034 A 
ATOM     57  C   UNL A   1      41.929  31.378  36.111  1.00  0.00     0.049 A 
ATOM     58  C   UNL A   1      41.863  28.257  31.476  1.00  0.00     0.074 A 
ATOM     59  C   UNL A   1      42.864  31.048  37.077  1.00  0.00     0.029 A 
ATOM     60  N   UNL A   1      42.089  30.472  35.075  1.00  0.00    -0.354 N 
ATOM     61  N   UNL A   1      41.968  28.858  32.636  1.00  0.00    -0.248 NA
ATOM     62  C   UNL A   1      42.870  27.211  31.248  1.00  0.00     0.031 C 
ATOM     63  C   UNL A   1      43.601  29.951  36.616  1.00  0.00     0.029 A 
ATOM     64  C   UNL A   1      43.115  29.590  35.369  1.00  0.00     0.049 A 
ATOM     65  H   UNL A   1      41.551  30.457  34.250  1.00  0.00     0.167 HD
ATOM     66  C   UNL A   1      43.034  28.248  33.288  1.00  0.00     0.074 A 
ATOM     67  C   UNL A   1      43.526  27.211  32.402  1.00  0.00     0.031 C 
ATOM     68  C   UNL A   1      43.567  28.531  34.501  1.00  0.00     0.034 A 
BRANCH  55  69
ATOM     69  C   UNL A   1      40.991  33.413  37.282  1.00  0.00     0.023 A 
ATOM     70  C   UNL A   1      41.943  34.453  37.293  1.00  0.00     0.012 A 
ATOM     71  C   UNL A   1      40.052  33.324  38.327  1.00  0.00     0.148 A 
ATOM     72  C   UNL A   1      41.984  35.368  38.345  1.00  0.00     0.002 A 
ATOM     73  C   UNL A   1      40.072  34.265  39.351  1.00  0.00     0.091 A 
ATOM     74  F   UNL A   1      39.170  32.314  38.314  1.00  0.00    -0.205 F 
ATOM     75  C   UNL A   1      41.044  35.280  39.367  1.00  0.00     0.022 A 
BRANCH  73  76
ATOM     76  S   UNL A   1      38.853  34.277  40.670  1.00  0.00     0.127 S 
ATOM     77  O   UNL A   1      39.597  33.657  41.766  1.00  0.00    -0.237 OA
ATOM     78  O   UNL A   1      38.593  35.707  40.844  1.00  0.00    -0.237 OA
ATOM     79  O   UNL A   1      37.718  33.515  40.167  1.00  0.00    -0.744 OA
ENDBRANCH  73  76
ENDBRANCH  55  69
BRANCH  56  80
ATOM     80  C   UNL A   1      40.870  27.666  29.137  1.00  0.00     0.023 A 
ATOM     81  C   UNL A   1      39.945  26.616  28.979  1.00  0.00     0.012 A 
ATOM     82  C   UNL A   1      41.754  27.969  28.084  1.00  0.00     0.148 A 
ATOM     83  C   UNL A   1      39.913  25.868  27.802  1.00  0.00     0.002 A 
ATOM     84  C   UNL A   1      41.680  27.256  26.893  1.00  0.00     0.091 A 
ATOM     85  F   UNL A   1      42.633  28.966  28.259  1.00  0.00    -0.205 F 
ATOM     86  C   UNL A   1      40.770  26.196  26.755  1.00  0.00     0.022 A 
BRANCH  84  87
ATOM     87  S   UNL A   1      42.646  27.697  25.444  1.00  0.00     0.127 S 
ATOM     88  O   UNL A   1      42.593  26.464  24.664  1.00  0.00    -0.237 OA
ATOM     89  O   UNL A   1      41.873  28.811  24.894  1.00  0.00    -0.237 OA
ATOM     90  O   UNL A   1      43.960  28.071  25.949  1.00  0.00    -0.744 OA
ENDBRANCH  84  87
ENDBRANCH  56  80
BRANCH  68  91
ATOM     91  C   UNL A   1      44.740  27.706  34.960  1.00  0.00     0.023 A 
ATOM     92  C   UNL A   1      46.050  28.178  34.741  1.00  0.00     0.012 A 
ATOM     93  C   UNL A   1      44.548  26.507  35.673  1.00  0.00     0.148 A 
ATOM     94  C   UNL A   1      47.150  27.455  35.200  1.00  0.00     0.002 A 
ATOM     95  C   UNL A   1      45.648  25.815  36.168  1.00  0.00     0.091 A 
ATOM     96  F   UNL A   1      43.295  26.062  35.853  1.00  0.00    -0.205 F 
ATOM     97  C   UNL A   1      46.949  26.282  35.924  1.00  0.00     0.022 A 
BRANCH  95  98
ATOM     98  S   UNL A   1      45.475  24.345  37.186  1.00  0.00     0.127 S 
ATOM     99  O   UNL A   1      44.659  24.841  38.292  1.00  0.00    -0.237 OA
ATOM    100  O   UNL A   1      44.786  23.419  36.288  1.00  0.00    -0.237 OA
ATOM    101  O   UNL A   1      46.831  23.943  37.537  1.00  0.00    -0.744 OA
ENDBRANCH  95  98
ENDBRANCH  68  91
ENDBRANCH  42  43
ENDBRANCH  34  37
ENDBRANCH  32  33
ENDBRANCH  31  32
ENDBRANCH   1  31
TORSDOF 17
ENDMDL
