MODEL 1
REMARK VINA RESULT:     -11.3      0.000      0.000
REMARK SMILES Cc1nn(C)c(OCC(C)(C)[NH+](C)C)c1C(=O)NCCCCNC(=O)c1ccc(-c2c3nc(c(-c4cccc(S(=O)(=O)[O-])c4F)c4ccc([nH]4)c(-c4cccc(S(=O)(=O)[O-])c4F)c4nc(c(-c5cccc(S(=O)(=O)[O-])c5F)c5ccc2[nH]5)C=C4)C=C3)cc1
REMARK SMILES IDX 20 1 19 2 18 3 16 4 17 5 15 7 1 8 2 9 3 10 4 11 6 12 5 13
REMARK SMILES IDX 7 14 8 15 9 16 10 17 11 18 12 19 13 20 14 21 21 23 22 24
REMARK SMILES IDX 23 25 24 26 25 28 26 29 27 30 88 31 28 32 87 33 29 34 30 35
REMARK SMILES IDX 31 36 81 37 32 38 86 39 80 40 82 41 33 42 85 43 79 44 78 45
REMARK SMILES IDX 34 47 66 48 46 49 65 50 47 51 50 52 64 53 83 54 48 55 49 56
REMARK SMILES IDX 63 58 84 59 51 60 35 61 36 62 44 63 37 64 39 65 45 66 38 67
REMARK SMILES IDX 40 68 41 69 42 70 43 71 67 72 68 73 76 74 69 75 71 76 77 77
REMARK SMILES IDX 70 78 72 79 73 80 74 81 75 82 52 83 53 84 61 85 54 86 56 87
REMARK SMILES IDX 62 88 55 89 57 90 58 91 59 92 60 93
REMARK H PARENT 18 6 12 22 23 27 82 46 50 57
REMARK Flexibility Score: inf
ROOT
ATOM      1  C   UNL A   1      31.523  30.848  26.139  1.00  0.00     0.023 C 
ENDROOT
BRANCH   1   2
ATOM      2  C   UNL A   1      32.907  30.235  26.363  1.00  0.00     0.116 C 
BRANCH   2   3
ATOM      3  N   UNL A   1      33.397  29.715  25.104  1.00  0.00    -0.352 N 
ATOM      4  C   UNL A   1      33.013  28.631  24.362  1.00  0.00     0.258 C 
ATOM      5  O   UNL A   1      33.702  28.349  23.385  1.00  0.00    -0.269 OA
ATOM      6  H   UNL A   1      34.139  30.231  24.714  1.00  0.00     0.163 HD
BRANCH   4   7
ATOM      7  C   UNL A   1      31.810  27.883  24.676  1.00  0.00     0.124 A 
ATOM      8  C   UNL A   1      32.483  26.213  26.625  1.00  0.00     0.070 C 
ATOM      9  C   UNL A   1      31.590  26.812  25.604  1.00  0.00     0.076 A 
ATOM     10  N   UNL A   1      30.380  26.261  25.456  1.00  0.00    -0.174 NA
ATOM     11  N   UNL A   1      29.876  26.892  24.388  1.00  0.00    -0.236 N 
ATOM     12  C   UNL A   1      30.603  27.984  23.985  1.00  0.00     0.225 A 
ATOM     13  C   UNL A   1      28.699  26.344  23.756  1.00  0.00     0.178 C 
BRANCH  12  14
ATOM     14  O   UNL A   1      30.062  28.773  23.052  1.00  0.00    -0.471 OA
BRANCH  14  15
ATOM     15  C   UNL A   1      29.865  30.168  23.269  1.00  0.00     0.299 C 
BRANCH  15  16
ATOM     16  C   UNL A   1      28.613  30.853  22.584  1.00  0.00     0.126 C 
ATOM     17  C   UNL A   1      27.897  29.855  21.651  1.00  0.00     0.082 C 
ATOM     18  C   UNL A   1      27.644  31.138  23.769  1.00  0.00     0.082 C 
BRANCH  16  19
ATOM     19  N   UNL A   1      28.911  32.163  21.913  1.00  0.00    -0.333 N 
ATOM     20  C   UNL A   1      28.127  32.414  20.702  1.00  0.00     0.333 C 
ATOM     21  C   UNL A   1      28.802  33.336  22.789  1.00  0.00     0.333 C 
ATOM     22  H   UNL A   1      29.889  32.044  21.650  1.00  0.00     0.348 HD
ENDBRANCH  16  19
ENDBRANCH  15  16
ENDBRANCH  14  15
ENDBRANCH  12  14
ENDBRANCH   4   7
ENDBRANCH   2   3
ENDBRANCH   1   2
BRANCH   1  23
ATOM     23  C   UNL A   1      31.370  32.242  26.749  1.00  0.00     0.023 C 
BRANCH  23  24
ATOM     24  C   UNL A   1      32.681  32.839  27.242  1.00  0.00     0.116 C 
BRANCH  24  25
ATOM     25  N   UNL A   1      32.500  34.163  27.822  1.00  0.00    -0.352 N 
ATOM     26  C   UNL A   1      33.173  34.738  28.871  1.00  0.00     0.251 C 
ATOM     27  H   UNL A   1      31.803  34.719  27.406  1.00  0.00     0.163 HD
ATOM     28  O   UNL A   1      32.806  35.813  29.329  1.00  0.00    -0.269 OA
BRANCH  26  29
ATOM     29  C   UNL A   1      34.325  34.026  29.457  1.00  0.00     0.039 A 
ATOM     30  C   UNL A   1      35.612  34.349  29.021  1.00  0.00     0.014 A 
ATOM     31  C   UNL A   1      34.130  33.079  30.466  1.00  0.00     0.014 A 
ATOM     32  C   UNL A   1      36.713  33.758  29.640  1.00  0.00     0.010 A 
ATOM     33  C   UNL A   1      35.228  32.544  31.126  1.00  0.00     0.010 A 
ATOM     34  C   UNL A   1      36.529  32.874  30.715  1.00  0.00    -0.014 A 
BRANCH  34  35
ATOM     35  C   UNL A   1      37.683  32.278  31.427  1.00  0.00     0.031 A 
ATOM     36  C   UNL A   1      38.441  31.139  30.804  1.00  0.00     0.074 A 
ATOM     37  C   UNL A   1      37.984  32.696  32.672  1.00  0.00     0.049 A 
ATOM     38  N   UNL A   1      39.439  30.450  31.291  1.00  0.00    -0.248 NA
ATOM     39  C   UNL A   1      37.999  30.696  29.470  1.00  0.00     0.031 C 
ATOM     40  C   UNL A   1      37.260  33.730  33.415  1.00  0.00     0.029 A 
ATOM     41  N   UNL A   1      38.961  32.284  33.542  1.00  0.00    -0.354 N 
ATOM     42  C   UNL A   1      39.718  29.470  30.347  1.00  0.00     0.074 A 
ATOM     43  C   UNL A   1      38.763  29.631  29.273  1.00  0.00     0.031 C 
ATOM     44  C   UNL A   1      37.819  33.872  34.628  1.00  0.00     0.029 A 
ATOM     45  C   UNL A   1      38.928  32.932  34.755  1.00  0.00     0.049 A 
ATOM     46  H   UNL A   1      39.623  31.590  33.320  1.00  0.00     0.167 HD
ATOM     47  C   UNL A   1      40.704  28.543  30.356  1.00  0.00     0.034 A 
ATOM     48  C   UNL A   1      39.708  32.785  35.843  1.00  0.00     0.034 A 
ATOM     49  C   UNL A   1      41.690  28.432  31.395  1.00  0.00     0.049 A 
ATOM     50  C   UNL A   1      40.844  31.800  35.796  1.00  0.00     0.074 A 
ATOM     51  C   UNL A   1      42.793  27.599  31.450  1.00  0.00     0.029 A 
ATOM     52  N   UNL A   1      41.693  29.180  32.561  1.00  0.00    -0.354 N 
ATOM     53  N   UNL A   1      41.201  31.001  34.820  1.00  0.00    -0.248 NA
ATOM     54  C   UNL A   1      41.708  31.723  36.982  1.00  0.00     0.031 C 
ATOM     55  C   UNL A   1      43.462  27.843  32.654  1.00  0.00     0.029 A 
ATOM     56  C   UNL A   1      42.778  28.831  33.345  1.00  0.00     0.049 A 
ATOM     57  H   UNL A   1      41.023  29.862  32.797  1.00  0.00     0.167 HD
ATOM     58  C   UNL A   1      42.347  30.350  35.259  1.00  0.00     0.074 A 
ATOM     59  C   UNL A   1      42.637  30.864  36.583  1.00  0.00     0.031 C 
ATOM     60  C   UNL A   1      43.082  29.397  34.634  1.00  0.00     0.034 A 
BRANCH  47  61
ATOM     61  C   UNL A   1      40.807  27.628  29.166  1.00  0.00     0.023 A 
ATOM     62  C   UNL A   1      40.037  26.446  29.137  1.00  0.00     0.012 A 
ATOM     63  C   UNL A   1      41.624  27.948  28.065  1.00  0.00     0.148 A 
ATOM     64  C   UNL A   1      40.106  25.579  28.047  1.00  0.00     0.002 A 
ATOM     65  C   UNL A   1      41.657  27.097  26.965  1.00  0.00     0.091 A 
ATOM     66  F   UNL A   1      42.370  29.060  28.122  1.00  0.00    -0.205 F 
ATOM     67  C   UNL A   1      40.908  25.909  26.959  1.00  0.00     0.022 A 
BRANCH  65  68
ATOM     68  S   UNL A   1      42.608  27.473  25.487  1.00  0.00     0.127 S 
ATOM     69  O   UNL A   1      43.972  27.487  26.009  1.00  0.00    -0.237 OA
ATOM     70  O   UNL A   1      42.299  26.334  24.620  1.00  0.00    -0.237 OA
ATOM     71  O   UNL A   1      42.102  28.751  25.006  1.00  0.00    -0.744 OA
ENDBRANCH  65  68
ENDBRANCH  47  61
BRANCH  48  72
ATOM     72  C   UNL A   1      39.498  33.664  37.027  1.00  0.00     0.023 A 
ATOM     73  C   UNL A   1      39.891  35.014  36.957  1.00  0.00     0.012 A 
ATOM     74  C   UNL A   1      38.874  33.190  38.197  1.00  0.00     0.148 A 
ATOM     75  C   UNL A   1      39.689  35.873  38.039  1.00  0.00     0.002 A 
ATOM     76  C   UNL A   1      38.631  34.062  39.253  1.00  0.00     0.091 A 
ATOM     77  F   UNL A   1      38.520  31.898  38.251  1.00  0.00    -0.205 F 
ATOM     78  C   UNL A   1      39.050  35.400  39.181  1.00  0.00     0.022 A 
BRANCH  76  79
ATOM     79  S   UNL A   1      37.696  33.568  40.706  1.00  0.00     0.127 S 
ATOM     80  O   UNL A   1      38.593  32.594  41.322  1.00  0.00    -0.237 OA
ATOM     81  O   UNL A   1      37.566  34.833  41.431  1.00  0.00    -0.237 OA
ATOM     82  O   UNL A   1      36.437  33.043  40.196  1.00  0.00    -0.744 OA
ENDBRANCH  76  79
ENDBRANCH  48  72
BRANCH  60  83
ATOM     83  C   UNL A   1      44.285  28.858  35.360  1.00  0.00     0.023 A 
ATOM     84  C   UNL A   1      45.540  29.467  35.168  1.00  0.00     0.012 A 
ATOM     85  C   UNL A   1      44.156  27.811  36.294  1.00  0.00     0.148 A 
ATOM     86  C   UNL A   1      46.657  29.026  35.877  1.00  0.00     0.002 A 
ATOM     87  C   UNL A   1      45.265  27.405  37.027  1.00  0.00     0.091 A 
ATOM     88  F   UNL A   1      42.957  27.231  36.445  1.00  0.00    -0.205 F 
ATOM     89  C   UNL A   1      46.517  28.005  36.815  1.00  0.00     0.022 A 
BRANCH  87  90
ATOM     90  S   UNL A   1      45.151  26.161  38.319  1.00  0.00     0.127 S 
ATOM     91  O   UNL A   1      44.281  26.819  39.291  1.00  0.00    -0.237 OA
ATOM     92  O   UNL A   1      44.538  25.032  37.617  1.00  0.00    -0.237 OA
ATOM     93  O   UNL A   1      46.520  25.921  38.757  1.00  0.00    -0.744 OA
ENDBRANCH  87  90
ENDBRANCH  60  83
ENDBRANCH  34  35
ENDBRANCH  26  29
ENDBRANCH  24  25
ENDBRANCH  23  24
ENDBRANCH   1  23
TORSDOF 18
ENDMDL
MODEL 2
REMARK VINA RESULT:     -11.0      1.325      3.100
REMARK SMILES Cc1nn(C)c(OCC(C)(C)[NH+](C)C)c1C(=O)NCCCCNC(=O)c1ccc(-c2c3nc(c(-c4cccc(S(=O)(=O)[O-])c4F)c4ccc([nH]4)c(-c4cccc(S(=O)(=O)[O-])c4F)c4nc(c(-c5cccc(S(=O)(=O)[O-])c5F)c5ccc2[nH]5)C=C4)C=C3)cc1
REMARK SMILES IDX 20 1 19 2 18 3 16 4 17 5 15 7 1 8 2 9 3 10 4 11 6 12 5 13
REMARK SMILES IDX 7 14 8 15 9 16 10 17 11 18 12 19 13 20 14 21 21 23 22 24
REMARK SMILES IDX 23 25 24 26 25 28 26 29 27 30 88 31 28 32 87 33 29 34 30 35
REMARK SMILES IDX 31 36 81 37 32 38 86 39 80 40 82 41 33 42 85 43 79 44 78 45
REMARK SMILES IDX 34 47 66 48 46 49 65 50 47 51 50 52 64 53 83 54 48 55 49 56
REMARK SMILES IDX 63 58 84 59 51 60 35 61 36 62 44 63 37 64 39 65 45 66 38 67
REMARK SMILES IDX 40 68 41 69 42 70 43 71 67 72 68 73 76 74 69 75 71 76 77 77
REMARK SMILES IDX 70 78 72 79 73 80 74 81 75 82 52 83 53 84 61 85 54 86 56 87
REMARK SMILES IDX 62 88 55 89 57 90 58 91 59 92 60 93
REMARK H PARENT 18 6 12 22 23 27 82 46 50 57
REMARK Flexibility Score: inf
ROOT
ATOM      1  C   UNL A   1      31.806  30.221  26.643  1.00  0.00     0.023 C 
ENDROOT
BRANCH   1   2
ATOM      2  C   UNL A   1      33.166  29.589  26.342  1.00  0.00     0.116 C 
BRANCH   2   3
ATOM      3  N   UNL A   1      33.424  29.689  24.922  1.00  0.00    -0.352 N 
ATOM      4  C   UNL A   1      32.964  28.953  23.865  1.00  0.00     0.258 C 
ATOM      5  O   UNL A   1      33.459  29.183  22.763  1.00  0.00    -0.269 OA
ATOM      6  H   UNL A   1      34.042  30.415  24.673  1.00  0.00     0.163 HD
BRANCH   4   7
ATOM      7  C   UNL A   1      31.894  27.985  24.021  1.00  0.00     0.124 A 
ATOM      8  C   UNL A   1      29.675  29.230  23.267  1.00  0.00     0.070 C 
ATOM      9  C   UNL A   1      30.480  28.113  23.818  1.00  0.00     0.076 A 
ATOM     10  N   UNL A   1      29.812  27.041  24.257  1.00  0.00    -0.174 NA
ATOM     11  N   UNL A   1      30.763  26.288  24.824  1.00  0.00    -0.236 N 
ATOM     12  C   UNL A   1      32.043  26.710  24.566  1.00  0.00     0.225 A 
ATOM     13  C   UNL A   1      30.360  25.189  25.669  1.00  0.00     0.178 C 
BRANCH  12  14
ATOM     14  O   UNL A   1      33.043  25.904  24.935  1.00  0.00    -0.471 OA
BRANCH  14  15
ATOM     15  C   UNL A   1      33.607  24.948  24.041  1.00  0.00     0.299 C 
BRANCH  15  16
ATOM     16  C   UNL A   1      33.681  23.442  24.521  1.00  0.00     0.126 C 
ATOM     17  C   UNL A   1      35.000  22.792  24.053  1.00  0.00     0.082 C 
ATOM     18  C   UNL A   1      33.755  23.545  26.074  1.00  0.00     0.082 C 
BRANCH  16  19
ATOM     19  N   UNL A   1      32.474  22.618  24.175  1.00  0.00    -0.333 N 
ATOM     20  C   UNL A   1      32.396  22.222  22.769  1.00  0.00     0.333 C 
ATOM     21  C   UNL A   1      32.292  21.422  25.007  1.00  0.00     0.333 C 
ATOM     22  H   UNL A   1      31.715  23.270  24.374  1.00  0.00     0.348 HD
ENDBRANCH  16  19
ENDBRANCH  15  16
ENDBRANCH  14  15
ENDBRANCH  12  14
ENDBRANCH   4   7
ENDBRANCH   2   3
ENDBRANCH   1   2
BRANCH   1  23
ATOM     23  C   UNL A   1      31.804  31.746  26.522  1.00  0.00     0.023 C 
BRANCH  23  24
ATOM     24  C   UNL A   1      32.886  32.424  27.353  1.00  0.00     0.116 C 
BRANCH  24  25
ATOM     25  N   UNL A   1      32.576  33.821  27.625  1.00  0.00    -0.352 N 
ATOM     26  C   UNL A   1      33.119  34.649  28.576  1.00  0.00     0.251 C 
ATOM     27  H   UNL A   1      31.885  34.225  27.052  1.00  0.00     0.163 HD
ATOM     28  O   UNL A   1      32.650  35.764  28.770  1.00  0.00    -0.269 OA
BRANCH  26  29
ATOM     29  C   UNL A   1      34.256  34.163  29.381  1.00  0.00     0.039 A 
ATOM     30  C   UNL A   1      34.000  33.386  30.513  1.00  0.00     0.014 A 
ATOM     31  C   UNL A   1      35.569  34.440  28.988  1.00  0.00     0.014 A 
ATOM     32  C   UNL A   1      35.067  32.835  31.222  1.00  0.00     0.010 A 
ATOM     33  C   UNL A   1      36.626  33.835  29.654  1.00  0.00     0.010 A 
ATOM     34  C   UNL A   1      36.385  33.033  30.780  1.00  0.00    -0.014 A 
BRANCH  34  35
ATOM     35  C   UNL A   1      37.533  32.412  31.482  1.00  0.00     0.031 A 
ATOM     36  C   UNL A   1      38.273  31.271  30.841  1.00  0.00     0.074 A 
ATOM     37  C   UNL A   1      37.843  32.809  32.731  1.00  0.00     0.049 A 
ATOM     38  N   UNL A   1      39.263  30.562  31.317  1.00  0.00    -0.248 NA
ATOM     39  C   UNL A   1      37.822  30.852  29.503  1.00  0.00     0.031 C 
ATOM     40  C   UNL A   1      37.134  33.843  33.490  1.00  0.00     0.029 A 
ATOM     41  N   UNL A   1      38.816  32.372  33.593  1.00  0.00    -0.354 N 
ATOM     42  C   UNL A   1      39.525  29.591  30.358  1.00  0.00     0.074 A 
ATOM     43  C   UNL A   1      38.571  29.780  29.289  1.00  0.00     0.031 C 
ATOM     44  C   UNL A   1      37.698  33.961  34.703  1.00  0.00     0.029 A 
ATOM     45  C   UNL A   1      38.795  33.004  34.815  1.00  0.00     0.049 A 
ATOM     46  H   UNL A   1      39.467  31.672  33.360  1.00  0.00     0.167 HD
ATOM     47  C   UNL A   1      40.499  28.650  30.352  1.00  0.00     0.034 A 
ATOM     48  C   UNL A   1      39.576  32.832  35.899  1.00  0.00     0.034 A 
ATOM     49  C   UNL A   1      41.485  28.512  31.387  1.00  0.00     0.049 A 
ATOM     50  C   UNL A   1      40.698  31.831  35.836  1.00  0.00     0.074 A 
ATOM     51  C   UNL A   1      42.577  27.663  31.428  1.00  0.00     0.029 A 
ATOM     52  N   UNL A   1      41.502  29.244  32.563  1.00  0.00    -0.354 N 
ATOM     53  N   UNL A   1      41.041  31.040  34.847  1.00  0.00    -0.248 NA
ATOM     54  C   UNL A   1      41.563  31.726  37.018  1.00  0.00     0.031 C 
ATOM     55  C   UNL A   1      43.252  27.881  32.634  1.00  0.00     0.029 A 
ATOM     56  C   UNL A   1      42.584  28.869  33.339  1.00  0.00     0.049 A 
ATOM     57  H   UNL A   1      40.842  29.932  32.810  1.00  0.00     0.167 HD
ATOM     58  C   UNL A   1      42.179  30.367  35.275  1.00  0.00     0.074 A 
ATOM     59  C   UNL A   1      42.480  30.860  36.605  1.00  0.00     0.031 C 
ATOM     60  C   UNL A   1      42.899  29.413  34.635  1.00  0.00     0.034 A 
BRANCH  47  61
ATOM     61  C   UNL A   1      40.586  27.750  29.149  1.00  0.00     0.023 A 
ATOM     62  C   UNL A   1      39.730  26.632  29.063  1.00  0.00     0.012 A 
ATOM     63  C   UNL A   1      41.475  28.024  28.093  1.00  0.00     0.148 A 
ATOM     64  C   UNL A   1      39.782  25.781  27.960  1.00  0.00     0.002 A 
ATOM     65  C   UNL A   1      41.493  27.191  26.979  1.00  0.00     0.091 A 
ATOM     66  F   UNL A   1      42.300  29.073  28.205  1.00  0.00    -0.205 F 
ATOM     67  C   UNL A   1      40.656  26.065  26.915  1.00  0.00     0.022 A 
BRANCH  65  68
ATOM     68  S   UNL A   1      42.537  27.517  25.553  1.00  0.00     0.127 S 
ATOM     69  O   UNL A   1      43.866  27.544  26.159  1.00  0.00    -0.237 OA
ATOM     70  O   UNL A   1      42.278  26.353  24.704  1.00  0.00    -0.237 OA
ATOM     71  O   UNL A   1      42.069  28.781  25.001  1.00  0.00    -0.744 OA
ENDBRANCH  65  68
ENDBRANCH  47  61
BRANCH  48  72
ATOM     72  C   UNL A   1      39.380  33.697  37.095  1.00  0.00     0.023 A 
ATOM     73  C   UNL A   1      39.817  35.035  37.051  1.00  0.00     0.012 A 
ATOM     74  C   UNL A   1      38.730  33.224  38.250  1.00  0.00     0.148 A 
ATOM     75  C   UNL A   1      39.630  35.882  38.145  1.00  0.00     0.002 A 
ATOM     76  C   UNL A   1      38.503  34.086  39.318  1.00  0.00     0.091 A 
ATOM     77  F   UNL A   1      38.335  31.943  38.280  1.00  0.00    -0.205 F 
ATOM     78  C   UNL A   1      38.964  35.411  39.273  1.00  0.00     0.022 A 
BRANCH  76  79
ATOM     79  S   UNL A   1      37.538  33.599  40.754  1.00  0.00     0.127 S 
ATOM     80  O   UNL A   1      38.410  32.608  41.378  1.00  0.00    -0.237 OA
ATOM     81  O   UNL A   1      37.415  34.861  41.484  1.00  0.00    -0.237 OA
ATOM     82  O   UNL A   1      36.279  33.095  40.220  1.00  0.00    -0.744 OA
ENDBRANCH  76  79
ENDBRANCH  48  72
BRANCH  60  83
ATOM     83  C   UNL A   1      44.096  28.848  35.351  1.00  0.00     0.023 A 
ATOM     84  C   UNL A   1      45.357  29.448  35.171  1.00  0.00     0.012 A 
ATOM     85  C   UNL A   1      43.956  27.784  36.263  1.00  0.00     0.148 A 
ATOM     86  C   UNL A   1      46.469  28.982  35.872  1.00  0.00     0.002 A 
ATOM     87  C   UNL A   1      45.060  27.352  36.989  1.00  0.00     0.091 A 
ATOM     88  F   UNL A   1      42.751  27.213  36.403  1.00  0.00    -0.205 F 
ATOM     89  C   UNL A   1      46.319  27.944  36.789  1.00  0.00     0.022 A 
BRANCH  87  90
ATOM     90  S   UNL A   1      44.933  26.084  38.255  1.00  0.00     0.127 S 
ATOM     91  O   UNL A   1      46.313  25.994  38.727  1.00  0.00    -0.237 OA
ATOM     92  O   UNL A   1      44.001  26.685  39.211  1.00  0.00    -0.237 OA
ATOM     93  O   UNL A   1      44.418  24.901  37.579  1.00  0.00    -0.744 OA
ENDBRANCH  87  90
ENDBRANCH  60  83
ENDBRANCH  34  35
ENDBRANCH  26  29
ENDBRANCH  24  25
ENDBRANCH  23  24
ENDBRANCH   1  23
TORSDOF 18
ENDMDL
MODEL 3
REMARK VINA RESULT:     -10.7      3.061      5.106
REMARK SMILES Cc1nn(C)c(OCC(C)(C)[NH+](C)C)c1C(=O)NCCCCNC(=O)c1ccc(-c2c3nc(c(-c4cccc(S(=O)(=O)[O-])c4F)c4ccc([nH]4)c(-c4cccc(S(=O)(=O)[O-])c4F)c4nc(c(-c5cccc(S(=O)(=O)[O-])c5F)c5ccc2[nH]5)C=C4)C=C3)cc1
REMARK SMILES IDX 20 1 19 2 18 3 16 4 17 5 15 7 1 8 2 9 3 10 4 11 6 12 5 13
REMARK SMILES IDX 7 14 8 15 9 16 10 17 11 18 12 19 13 20 14 21 21 23 22 24
REMARK SMILES IDX 23 25 24 26 25 28 26 29 27 30 88 31 28 32 87 33 29 34 30 35
REMARK SMILES IDX 31 36 81 37 32 38 86 39 80 40 82 41 33 42 85 43 79 44 78 45
REMARK SMILES IDX 34 47 66 48 46 49 65 50 47 51 50 52 64 53 83 54 48 55 49 56
REMARK SMILES IDX 63 58 84 59 51 60 35 61 36 62 44 63 37 64 39 65 45 66 38 67
REMARK SMILES IDX 40 68 41 69 42 70 43 71 67 72 68 73 76 74 69 75 71 76 77 77
REMARK SMILES IDX 70 78 72 79 73 80 74 81 75 82 52 83 53 84 61 85 54 86 56 87
REMARK SMILES IDX 62 88 55 89 57 90 58 91 59 92 60 93
REMARK H PARENT 18 6 12 22 23 27 82 46 50 57
REMARK Flexibility Score: inf
ROOT
ATOM      1  C   UNL A   1      33.066  26.879  24.028  1.00  0.00     0.023 C 
ENDROOT
BRANCH   1   2
ATOM      2  C   UNL A   1      33.875  26.117  25.078  1.00  0.00     0.116 C 
BRANCH   2   3
ATOM      3  N   UNL A   1      32.976  25.639  26.107  1.00  0.00    -0.352 N 
ATOM      4  C   UNL A   1      32.151  24.548  26.152  1.00  0.00     0.258 C 
ATOM      5  O   UNL A   1      31.392  24.459  27.115  1.00  0.00    -0.269 OA
ATOM      6  H   UNL A   1      32.953  26.199  26.917  1.00  0.00     0.163 HD
BRANCH   4   7
ATOM      7  C   UNL A   1      32.209  23.509  25.141  1.00  0.00     0.124 A 
ATOM      8  C   UNL A   1      30.469  24.219  23.269  1.00  0.00     0.070 C 
ATOM      9  C   UNL A   1      31.456  23.334  23.934  1.00  0.00     0.076 A 
ATOM     10  N   UNL A   1      31.677  22.140  23.373  1.00  0.00    -0.174 NA
ATOM     11  N   UNL A   1      32.472  21.521  24.255  1.00  0.00    -0.236 N 
ATOM     12  C   UNL A   1      32.964  22.340  25.241  1.00  0.00     0.225 A 
ATOM     13  C   UNL A   1      32.672  20.097  24.121  1.00  0.00     0.178 C 
BRANCH  12  14
ATOM     14  O   UNL A   1      33.912  21.840  26.039  1.00  0.00    -0.471 OA
BRANCH  14  15
ATOM     15  C   UNL A   1      35.132  22.534  26.284  1.00  0.00     0.299 C 
BRANCH  15  16
ATOM     16  C   UNL A   1      36.420  22.064  25.495  1.00  0.00     0.126 C 
ATOM     17  C   UNL A   1      36.279  20.589  25.063  1.00  0.00     0.082 C 
ATOM     18  C   UNL A   1      36.400  22.920  24.194  1.00  0.00     0.082 C 
BRANCH  16  19
ATOM     19  N   UNL A   1      37.717  22.339  26.202  1.00  0.00    -0.333 N 
ATOM     20  C   UNL A   1      38.844  21.532  25.732  1.00  0.00     0.333 C 
ATOM     21  C   UNL A   1      38.124  23.750  26.204  1.00  0.00     0.333 C 
ATOM     22  H   UNL A   1      37.494  22.064  27.159  1.00  0.00     0.348 HD
ENDBRANCH  16  19
ENDBRANCH  15  16
ENDBRANCH  14  15
ENDBRANCH  12  14
ENDBRANCH   4   7
ENDBRANCH   2   3
ENDBRANCH   1   2
BRANCH   1  23
ATOM     23  C   UNL A   1      33.458  28.353  23.910  1.00  0.00     0.023 C 
BRANCH  23  24
ATOM     24  C   UNL A   1      33.903  28.972  25.228  1.00  0.00     0.116 C 
BRANCH  24  25
ATOM     25  N   UNL A   1      33.026  30.055  25.651  1.00  0.00    -0.352 N 
ATOM     26  C   UNL A   1      33.147  30.879  26.743  1.00  0.00     0.251 C 
ATOM     27  H   UNL A   1      32.242  30.219  25.078  1.00  0.00     0.163 HD
ATOM     28  O   UNL A   1      32.246  31.655  27.038  1.00  0.00    -0.269 OA
BRANCH  26  29
ATOM     29  C   UNL A   1      34.364  30.792  27.572  1.00  0.00     0.039 A 
ATOM     30  C   UNL A   1      34.684  29.574  28.176  1.00  0.00     0.014 A 
ATOM     31  C   UNL A   1      35.204  31.900  27.710  1.00  0.00     0.014 A 
ATOM     32  C   UNL A   1      35.884  29.451  28.876  1.00  0.00     0.010 A 
ATOM     33  C   UNL A   1      36.429  31.756  28.349  1.00  0.00     0.010 A 
ATOM     34  C   UNL A   1      36.777  30.533  28.943  1.00  0.00    -0.014 A 
BRANCH  34  35
ATOM     35  C   UNL A   1      38.083  30.411  29.630  1.00  0.00     0.031 A 
ATOM     36  C   UNL A   1      39.193  29.619  28.995  1.00  0.00     0.074 A 
ATOM     37  C   UNL A   1      38.236  30.929  30.864  1.00  0.00     0.049 A 
ATOM     38  N   UNL A   1      40.383  29.351  29.463  1.00  0.00    -0.248 NA
ATOM     39  C   UNL A   1      38.916  29.025  27.676  1.00  0.00     0.031 C 
ATOM     40  C   UNL A   1      37.199  31.638  31.619  1.00  0.00     0.029 A 
ATOM     41  N   UNL A   1      39.313  30.916  31.713  1.00  0.00    -0.354 N 
ATOM     42  C   UNL A   1      40.981  28.526  28.518  1.00  0.00     0.074 A 
ATOM     43  C   UNL A   1      40.012  28.311  27.466  1.00  0.00     0.031 C 
ATOM     44  C   UNL A   1      37.692  31.992  32.816  1.00  0.00     0.029 A 
ATOM     45  C   UNL A   1      39.071  31.525  32.922  1.00  0.00     0.049 A 
ATOM     46  H   UNL A   1      40.178  30.508  31.479  1.00  0.00     0.167 HD
ATOM     47  C   UNL A   1      42.238  28.024  28.508  1.00  0.00     0.034 A 
ATOM     48  C   UNL A   1      39.873  31.690  33.992  1.00  0.00     0.034 A 
ATOM     49  C   UNL A   1      43.218  28.297  29.524  1.00  0.00     0.049 A 
ATOM     50  C   UNL A   1      41.289  31.188  33.923  1.00  0.00     0.074 A 
ATOM     51  C   UNL A   1      44.550  27.926  29.556  1.00  0.00     0.029 A 
ATOM     52  N   UNL A   1      42.971  29.012  30.685  1.00  0.00    -0.354 N 
ATOM     53  N   UNL A   1      41.893  30.560  32.943  1.00  0.00    -0.248 NA
ATOM     54  C   UNL A   1      42.146  31.450  35.088  1.00  0.00     0.031 C 
ATOM     55  C   UNL A   1      45.108  28.415  30.743  1.00  0.00     0.029 A 
ATOM     56  C   UNL A   1      44.125  29.095  31.444  1.00  0.00     0.049 A 
ATOM     57  H   UNL A   1      42.103  29.405  30.933  1.00  0.00     0.167 HD
ATOM     58  C   UNL A   1      43.208  30.379  33.359  1.00  0.00     0.074 A 
ATOM     59  C   UNL A   1      43.316  30.984  34.671  1.00  0.00     0.031 C 
ATOM     60  C   UNL A   1      44.227  29.752  32.721  1.00  0.00     0.034 A 
BRANCH  47  61
ATOM     61  C   UNL A   1      42.644  27.192  27.322  1.00  0.00     0.023 A 
ATOM     62  C   UNL A   1      43.176  27.831  26.182  1.00  0.00     0.012 A 
ATOM     63  C   UNL A   1      42.540  25.789  27.343  1.00  0.00     0.148 A 
ATOM     64  C   UNL A   1      43.566  27.089  25.068  1.00  0.00     0.002 A 
ATOM     65  C   UNL A   1      42.967  25.053  26.242  1.00  0.00     0.091 A 
ATOM     66  F   UNL A   1      42.006  25.201  28.422  1.00  0.00    -0.205 F 
ATOM     67  C   UNL A   1      43.470  25.701  25.102  1.00  0.00     0.022 A 
BRANCH  65  68
ATOM     68  S   UNL A   1      42.947  23.256  26.220  1.00  0.00     0.127 S 
ATOM     69  O   UNL A   1      43.104  22.976  24.795  1.00  0.00    -0.237 OA
ATOM     70  O   UNL A   1      44.113  22.921  27.040  1.00  0.00    -0.237 OA
ATOM     71  O   UNL A   1      41.670  22.869  26.803  1.00  0.00    -0.744 OA
ENDBRANCH  65  68
ENDBRANCH  47  61
BRANCH  48  72
ATOM     72  C   UNL A   1      39.380  32.448  35.175  1.00  0.00     0.023 A 
ATOM     73  C   UNL A   1      39.494  33.852  35.185  1.00  0.00     0.012 A 
ATOM     74  C   UNL A   1      38.762  31.801  36.262  1.00  0.00     0.148 A 
ATOM     75  C   UNL A   1      39.022  34.597  36.267  1.00  0.00     0.002 A 
ATOM     76  C   UNL A   1      38.251  32.553  37.314  1.00  0.00     0.091 A 
ATOM     77  F   UNL A   1      38.677  30.463  36.242  1.00  0.00    -0.205 F 
ATOM     78  C   UNL A   1      38.392  33.950  37.325  1.00  0.00     0.022 A 
BRANCH  76  79
ATOM     79  S   UNL A   1      37.308  31.810  38.652  1.00  0.00     0.127 S 
ATOM     80  O   UNL A   1      38.213  31.979  39.786  1.00  0.00    -0.237 OA
ATOM     81  O   UNL A   1      36.111  32.651  38.687  1.00  0.00    -0.237 OA
ATOM     82  O   UNL A   1      37.060  30.437  38.233  1.00  0.00    -0.744 OA
ENDBRANCH  76  79
ENDBRANCH  48  72
BRANCH  60  83
ATOM     83  C   UNL A   1      45.559  29.702  33.421  1.00  0.00     0.023 A 
ATOM     84  C   UNL A   1      46.487  30.740  33.218  1.00  0.00     0.012 A 
ATOM     85  C   UNL A   1      45.852  28.677  34.342  1.00  0.00     0.148 A 
ATOM     86  C   UNL A   1      47.701  30.747  33.903  1.00  0.00     0.002 A 
ATOM     87  C   UNL A   1      47.046  28.713  35.052  1.00  0.00     0.091 A 
ATOM     88  F   UNL A   1      44.963  27.686  34.504  1.00  0.00    -0.205 F 
ATOM     89  C   UNL A   1      47.975  29.743  34.828  1.00  0.00     0.022 A 
BRANCH  87  90
ATOM     90  S   UNL A   1      47.435  27.509  36.327  1.00  0.00     0.127 S 
ATOM     91  O   UNL A   1      48.408  28.236  37.138  1.00  0.00    -0.237 OA
ATOM     92  O   UNL A   1      46.137  27.302  36.972  1.00  0.00    -0.237 OA
ATOM     93  O   UNL A   1      47.947  26.340  35.624  1.00  0.00    -0.744 OA
ENDBRANCH  87  90
ENDBRANCH  60  83
ENDBRANCH  34  35
ENDBRANCH  26  29
ENDBRANCH  24  25
ENDBRANCH  23  24
ENDBRANCH   1  23
TORSDOF 18
ENDMDL
