MODEL 1
REMARK VINA RESULT:     -10.0      0.000      0.000
REMARK SMILES CCCCOCc1cc(C(=O)NCCCCNC(=O)c2ccc(-c3c4nc(c(-c5cccc(S(=O)(=O)[O-])c5F)c5ccc([nH]5)c(-c5cccc(S(=O)(=O)[O-])c5F)c5nc(c(-c6cccc(S(=O)(=O)[O-])c6F)c6ccc3[nH]6)C=C5)C=C4)cc2)[nH]n1
REMARK SMILES IDX 13 1 12 2 10 3 11 4 9 6 7 7 8 8 84 9 83 10 6 12 5 13 4 14
REMARK SMILES IDX 3 15 2 16 1 17 14 18 15 19 16 20 17 21 18 22 19 24 20 25
REMARK SMILES IDX 21 26 82 27 22 28 81 29 23 30 24 31 25 32 75 33 26 34 80 35
REMARK SMILES IDX 74 36 76 37 27 38 79 39 73 40 72 41 28 43 60 44 40 45 59 46
REMARK SMILES IDX 41 47 44 48 58 49 77 50 42 51 43 52 57 54 78 55 45 56 29 57
REMARK SMILES IDX 30 58 38 59 31 60 33 61 39 62 32 63 34 64 35 65 36 66 37 67
REMARK SMILES IDX 61 68 62 69 70 70 63 71 65 72 71 73 64 74 66 75 67 76 68 77
REMARK SMILES IDX 69 78 46 79 47 80 55 81 48 82 50 83 56 84 49 85 51 86 52 87
REMARK SMILES IDX 53 88 54 89
REMARK H PARENT 12 5 83 11 17 23 76 42 44 53
REMARK Flexibility Score: inf
ROOT
ATOM      1  C   UNL A   1      34.570  23.266  23.447  1.00  0.00     0.116 C 
ENDROOT
BRANCH   1   2
ATOM      2  N   UNL A   1      33.883  23.464  24.707  1.00  0.00    -0.351 N 
ATOM      3  C   UNL A   1      33.146  22.587  25.461  1.00  0.00     0.269 C 
ATOM      4  O   UNL A   1      32.861  22.918  26.611  1.00  0.00    -0.268 OA
ATOM      5  H   UNL A   1      33.956  24.372  25.081  1.00  0.00     0.163 HD
BRANCH   3   6
ATOM      6  C   UNL A   1      32.774  21.297  24.945  1.00  0.00     0.123 A 
ATOM      7  C   UNL A   1      32.328  19.392  23.871  1.00  0.00     0.089 A 
ATOM      8  C   UNL A   1      32.521  20.784  23.690  1.00  0.00     0.061 A 
ATOM      9  N   UNL A   1      32.311  19.075  25.174  1.00  0.00    -0.178 NA
ATOM     10  N   UNL A   1      32.545  20.244  25.793  1.00  0.00    -0.273 N 
ATOM     11  H   UNL A   1      32.551  20.337  26.774  1.00  0.00     0.190 HD
BRANCH   7  12
ATOM     12  C   UNL A   1      32.182  18.355  22.799  1.00  0.00     0.218 C 
BRANCH  12  13
ATOM     13  O   UNL A   1      33.387  17.693  22.388  1.00  0.00    -0.375 OA
BRANCH  13  14
ATOM     14  C   UNL A   1      33.757  16.519  23.108  1.00  0.00     0.160 C 
BRANCH  14  15
ATOM     15  C   UNL A   1      34.712  16.793  24.271  1.00  0.00     0.028 C 
BRANCH  15  16
ATOM     16  C   UNL A   1      34.528  15.918  25.514  1.00  0.00    -0.001 C 
ATOM     17  C   UNL A   1      33.199  15.180  25.545  1.00  0.00     0.004 C 
ENDBRANCH  15  16
ENDBRANCH  14  15
ENDBRANCH  13  14
ENDBRANCH  12  13
ENDBRANCH   7  12
ENDBRANCH   3   6
ENDBRANCH   1   2
BRANCH   1  18
ATOM     18  C   UNL A   1      35.994  22.758  23.641  1.00  0.00     0.023 C 
BRANCH  18  19
ATOM     19  C   UNL A   1      36.836  23.606  24.600  1.00  0.00     0.023 C 
BRANCH  19  20
ATOM     20  C   UNL A   1      37.031  23.019  25.996  1.00  0.00     0.116 C 
BRANCH  20  21
ATOM     21  N   UNL A   1      38.237  22.213  26.121  1.00  0.00    -0.352 N 
ATOM     22  C   UNL A   1      39.506  22.600  26.482  1.00  0.00     0.251 C 
ATOM     23  H   UNL A   1      38.127  21.255  25.918  1.00  0.00     0.163 HD
ATOM     24  O   UNL A   1      40.429  21.791  26.422  1.00  0.00    -0.269 OA
BRANCH  22  25
ATOM     25  C   UNL A   1      39.765  23.993  26.909  1.00  0.00     0.039 A 
ATOM     26  C   UNL A   1      39.708  24.301  28.271  1.00  0.00     0.014 A 
ATOM     27  C   UNL A   1      40.073  24.991  25.980  1.00  0.00     0.014 A 
ATOM     28  C   UNL A   1      40.025  25.590  28.706  1.00  0.00     0.010 A 
ATOM     29  C   UNL A   1      40.459  26.255  26.420  1.00  0.00     0.010 A 
ATOM     30  C   UNL A   1      40.438  26.571  27.787  1.00  0.00    -0.014 A 
BRANCH  30  31
ATOM     31  C   UNL A   1      40.872  27.917  28.243  1.00  0.00     0.031 A 
ATOM     32  C   UNL A   1      42.332  28.285  28.264  1.00  0.00     0.074 A 
ATOM     33  C   UNL A   1      39.955  28.783  28.719  1.00  0.00     0.049 A 
ATOM     34  N   UNL A   1      42.894  29.400  28.655  1.00  0.00    -0.248 NA
ATOM     35  C   UNL A   1      43.287  27.259  27.817  1.00  0.00     0.031 C 
ATOM     36  C   UNL A   1      38.520  28.516  28.839  1.00  0.00     0.029 A 
ATOM     37  N   UNL A   1      40.096  30.057  29.212  1.00  0.00    -0.354 N 
ATOM     38  C   UNL A   1      44.263  29.201  28.532  1.00  0.00     0.074 A 
ATOM     39  C   UNL A   1      44.450  27.843  28.066  1.00  0.00     0.031 C 
ATOM     40  C   UNL A   1      37.913  29.593  29.363  1.00  0.00     0.029 A 
ATOM     41  C   UNL A   1      38.914  30.619  29.638  1.00  0.00     0.049 A 
ATOM     42  H   UNL A   1      40.961  30.525  29.257  1.00  0.00     0.167 HD
ATOM     43  C   UNL A   1      45.274  30.075  28.755  1.00  0.00     0.034 A 
ATOM     44  C   UNL A   1      38.663  31.824  30.186  1.00  0.00     0.034 A 
ATOM     45  C   UNL A   1      45.084  31.439  29.171  1.00  0.00     0.049 A 
ATOM     46  C   UNL A   1      39.796  32.798  30.366  1.00  0.00     0.074 A 
ATOM     47  C   UNL A   1      46.037  32.429  29.330  1.00  0.00     0.029 A 
ATOM     48  N   UNL A   1      43.862  32.003  29.499  1.00  0.00    -0.354 N 
ATOM     49  N   UNL A   1      41.066  32.647  30.078  1.00  0.00    -0.248 NA
ATOM     50  C   UNL A   1      39.456  34.121  30.909  1.00  0.00     0.031 C 
ATOM     51  C   UNL A   1      45.392  33.589  29.772  1.00  0.00     0.029 A 
ATOM     52  C   UNL A   1      44.035  33.327  29.867  1.00  0.00     0.049 A 
ATOM     53  H   UNL A   1      42.998  31.532  29.475  1.00  0.00     0.167 HD
ATOM     54  C   UNL A   1      41.670  33.866  30.369  1.00  0.00     0.074 A 
ATOM     55  C   UNL A   1      40.622  34.750  30.835  1.00  0.00     0.031 C 
ATOM     56  C   UNL A   1      42.977  34.215  30.276  1.00  0.00     0.034 A 
BRANCH  43  57
ATOM     57  C   UNL A   1      46.680  29.601  28.489  1.00  0.00     0.023 A 
ATOM     58  C   UNL A   1      47.275  29.869  27.239  1.00  0.00     0.012 A 
ATOM     59  C   UNL A   1      47.430  28.948  29.486  1.00  0.00     0.148 A 
ATOM     60  C   UNL A   1      48.582  29.464  26.973  1.00  0.00     0.002 A 
ATOM     61  C   UNL A   1      48.748  28.587  29.228  1.00  0.00     0.091 A 
ATOM     62  F   UNL A   1      46.841  28.682  30.660  1.00  0.00    -0.205 F 
ATOM     63  C   UNL A   1      49.321  28.834  27.969  1.00  0.00     0.022 A 
BRANCH  61  64
ATOM     64  S   UNL A   1      49.809  27.839  30.470  1.00  0.00     0.127 S 
ATOM     65  O   UNL A   1      51.099  27.815  29.782  1.00  0.00    -0.237 OA
ATOM     66  O   UNL A   1      49.722  28.802  31.569  1.00  0.00    -0.237 OA
ATOM     67  O   UNL A   1      49.229  26.535  30.760  1.00  0.00    -0.744 OA
ENDBRANCH  61  64
ENDBRANCH  43  57
BRANCH  44  68
ATOM     68  C   UNL A   1      37.265  32.208  30.528  1.00  0.00     0.023 A 
ATOM     69  C   UNL A   1      36.801  32.023  31.846  1.00  0.00     0.012 A 
ATOM     70  C   UNL A   1      36.404  32.783  29.573  1.00  0.00     0.148 A 
ATOM     71  C   UNL A   1      35.497  32.373  32.198  1.00  0.00     0.002 A 
ATOM     72  C   UNL A   1      35.125  33.181  29.944  1.00  0.00     0.091 A 
ATOM     73  F   UNL A   1      36.860  32.940  28.322  1.00  0.00    -0.205 F 
ATOM     74  C   UNL A   1      34.663  32.960  31.250  1.00  0.00     0.022 A 
BRANCH  72  75
ATOM     75  S   UNL A   1      34.032  34.067  28.826  1.00  0.00     0.127 S 
ATOM     76  O   UNL A   1      34.889  35.162  28.377  1.00  0.00    -0.237 OA
ATOM     77  O   UNL A   1      33.748  33.050  27.812  1.00  0.00    -0.237 OA
ATOM     78  O   UNL A   1      32.879  34.449  29.628  1.00  0.00    -0.744 OA
ENDBRANCH  72  75
ENDBRANCH  44  68
BRANCH  56  79
ATOM     79  C   UNL A   1      43.352  35.624  30.654  1.00  0.00     0.023 A 
ATOM     80  C   UNL A   1      43.768  35.908  31.971  1.00  0.00     0.012 A 
ATOM     81  C   UNL A   1      43.359  36.651  29.691  1.00  0.00     0.148 A 
ATOM     82  C   UNL A   1      44.150  37.200  32.330  1.00  0.00     0.002 A 
ATOM     83  C   UNL A   1      43.788  37.925  30.044  1.00  0.00     0.091 A 
ATOM     84  F   UNL A   1      42.941  36.367  28.448  1.00  0.00    -0.205 F 
ATOM     85  C   UNL A   1      44.172  38.204  31.365  1.00  0.00     0.022 A 
BRANCH  83  86
ATOM     86  S   UNL A   1      43.938  39.255  28.845  1.00  0.00     0.127 S 
ATOM     87  O   UNL A   1      42.562  39.381  28.365  1.00  0.00    -0.237 OA
ATOM     88  O   UNL A   1      44.401  40.370  29.670  1.00  0.00    -0.237 OA
ATOM     89  O   UNL A   1      44.907  38.793  27.859  1.00  0.00    -0.744 OA
ENDBRANCH  83  86
ENDBRANCH  56  79
ENDBRANCH  30  31
ENDBRANCH  22  25
ENDBRANCH  20  21
ENDBRANCH  19  20
ENDBRANCH  18  19
ENDBRANCH   1  18
TORSDOF 19
ENDMDL
MODEL 2
REMARK VINA RESULT:      -9.4      3.101      4.742
REMARK SMILES CCCCOCc1cc(C(=O)NCCCCNC(=O)c2ccc(-c3c4nc(c(-c5cccc(S(=O)(=O)[O-])c5F)c5ccc([nH]5)c(-c5cccc(S(=O)(=O)[O-])c5F)c5nc(c(-c6cccc(S(=O)(=O)[O-])c6F)c6ccc3[nH]6)C=C5)C=C4)cc2)[nH]n1
REMARK SMILES IDX 13 1 12 2 10 3 11 4 9 6 7 7 8 8 84 9 83 10 6 12 5 13 4 14
REMARK SMILES IDX 3 15 2 16 1 17 14 18 15 19 16 20 17 21 18 22 19 24 20 25
REMARK SMILES IDX 21 26 82 27 22 28 81 29 23 30 24 31 25 32 75 33 26 34 80 35
REMARK SMILES IDX 74 36 76 37 27 38 79 39 73 40 72 41 28 43 60 44 40 45 59 46
REMARK SMILES IDX 41 47 44 48 58 49 77 50 42 51 43 52 57 54 78 55 45 56 29 57
REMARK SMILES IDX 30 58 38 59 31 60 33 61 39 62 32 63 34 64 35 65 36 66 37 67
REMARK SMILES IDX 61 68 62 69 70 70 63 71 65 72 71 73 64 74 66 75 67 76 68 77
REMARK SMILES IDX 69 78 46 79 47 80 55 81 48 82 50 83 56 84 49 85 51 86 52 87
REMARK SMILES IDX 53 88 54 89
REMARK H PARENT 12 5 83 11 17 23 76 42 44 53
REMARK Flexibility Score: inf
ROOT
ATOM      1  C   UNL A   1      33.457  23.325  26.295  1.00  0.00     0.116 C 
ENDROOT
BRANCH   1   2
ATOM      2  N   UNL A   1      32.268  23.099  27.091  1.00  0.00    -0.351 N 
ATOM      3  C   UNL A   1      30.965  23.457  26.856  1.00  0.00     0.269 C 
ATOM      4  O   UNL A   1      30.095  22.946  27.559  1.00  0.00    -0.268 OA
ATOM      5  H   UNL A   1      32.418  22.613  27.933  1.00  0.00     0.163 HD
BRANCH   3   6
ATOM      6  C   UNL A   1      30.623  24.351  25.782  1.00  0.00     0.123 A 
ATOM      7  C   UNL A   1      30.207  25.970  24.304  1.00  0.00     0.089 A 
ATOM      8  C   UNL A   1      30.327  25.696  25.689  1.00  0.00     0.061 A 
ATOM      9  N   UNL A   1      30.272  24.842  23.583  1.00  0.00    -0.178 NA
ATOM     10  N   UNL A   1      30.486  23.885  24.501  1.00  0.00    -0.273 N 
ATOM     11  H   UNL A   1      30.540  22.928  24.272  1.00  0.00     0.190 HD
BRANCH   7  12
ATOM     12  C   UNL A   1      30.051  27.316  23.662  1.00  0.00     0.218 C 
BRANCH  12  13
ATOM     13  O   UNL A   1      31.054  28.292  23.980  1.00  0.00    -0.375 OA
BRANCH  13  14
ATOM     14  C   UNL A   1      30.604  29.620  24.240  1.00  0.00     0.160 C 
BRANCH  14  15
ATOM     15  C   UNL A   1      29.818  30.234  23.080  1.00  0.00     0.028 C 
BRANCH  15  16
ATOM     16  C   UNL A   1      28.772  31.286  23.458  1.00  0.00    -0.001 C 
ATOM     17  C   UNL A   1      27.355  30.740  23.512  1.00  0.00     0.004 C 
ENDBRANCH  15  16
ENDBRANCH  14  15
ENDBRANCH  13  14
ENDBRANCH  12  13
ENDBRANCH   7  12
ENDBRANCH   3   6
ENDBRANCH   1   2
BRANCH   1  18
ATOM     18  C   UNL A   1      34.450  22.172  26.402  1.00  0.00     0.023 C 
BRANCH  18  19
ATOM     19  C   UNL A   1      35.919  22.606  26.363  1.00  0.00     0.023 C 
BRANCH  19  20
ATOM     20  C   UNL A   1      36.714  22.118  25.154  1.00  0.00     0.116 C 
BRANCH  20  21
ATOM     21  N   UNL A   1      37.674  21.071  25.477  1.00  0.00    -0.352 N 
ATOM     22  C   UNL A   1      38.933  21.186  26.018  1.00  0.00     0.251 C 
ATOM     23  H   UNL A   1      37.379  20.153  25.280  1.00  0.00     0.163 HD
ATOM     24  O   UNL A   1      39.645  20.190  26.116  1.00  0.00    -0.269 OA
BRANCH  22  25
ATOM     25  C   UNL A   1      39.438  22.508  26.451  1.00  0.00     0.039 A 
ATOM     26  C   UNL A   1      40.337  22.568  27.519  1.00  0.00     0.014 A 
ATOM     27  C   UNL A   1      39.042  23.682  25.805  1.00  0.00     0.014 A 
ATOM     28  C   UNL A   1      40.889  23.796  27.895  1.00  0.00     0.010 A 
ATOM     29  C   UNL A   1      39.647  24.894  26.132  1.00  0.00     0.010 A 
ATOM     30  C   UNL A   1      40.576  24.966  27.181  1.00  0.00    -0.014 A 
BRANCH  30  31
ATOM     31  C   UNL A   1      41.228  26.261  27.505  1.00  0.00     0.031 A 
ATOM     32  C   UNL A   1      42.647  26.531  27.082  1.00  0.00     0.074 A 
ATOM     33  C   UNL A   1      40.568  27.166  28.257  1.00  0.00     0.049 A 
ATOM     34  N   UNL A   1      43.383  27.591  27.300  1.00  0.00    -0.248 NA
ATOM     35  C   UNL A   1      43.340  25.464  26.343  1.00  0.00     0.031 C 
ATOM     36  C   UNL A   1      39.223  26.988  28.809  1.00  0.00     0.029 A 
ATOM     37  N   UNL A   1      40.948  28.407  28.705  1.00  0.00    -0.354 N 
ATOM     38  C   UNL A   1      44.630  27.307  26.757  1.00  0.00     0.074 A 
ATOM     39  C   UNL A   1      44.563  25.960  26.232  1.00  0.00     0.031 C 
ATOM     40  C   UNL A   1      38.889  28.081  29.514  1.00  0.00     0.029 A 
ATOM     41  C   UNL A   1      40.000  29.027  29.486  1.00  0.00     0.049 A 
ATOM     42  H   UNL A   1      41.818  28.815  28.490  1.00  0.00     0.167 HD
ATOM     43  C   UNL A   1      45.723  28.104  26.673  1.00  0.00     0.034 A 
ATOM     44  C   UNL A   1      40.019  30.223  30.106  1.00  0.00     0.034 A 
ATOM     45  C   UNL A   1      45.772  29.459  27.152  1.00  0.00     0.049 A 
ATOM     46  C   UNL A   1      41.223  31.112  29.945  1.00  0.00     0.074 A 
ATOM     47  C   UNL A   1      46.799  30.378  27.027  1.00  0.00     0.029 A 
ATOM     48  N   UNL A   1      44.756  30.089  27.851  1.00  0.00    -0.354 N 
ATOM     49  N   UNL A   1      42.328  30.891  29.276  1.00  0.00    -0.248 NA
ATOM     50  C   UNL A   1      41.165  32.432  30.590  1.00  0.00     0.031 C 
ATOM     51  C   UNL A   1      46.410  31.559  27.667  1.00  0.00     0.029 A 
ATOM     52  C   UNL A   1      45.132  31.382  28.172  1.00  0.00     0.049 A 
ATOM     53  H   UNL A   1      43.893  29.677  28.087  1.00  0.00     0.167 HD
ATOM     54  C   UNL A   1      43.081  32.054  29.389  1.00  0.00     0.074 A 
ATOM     55  C   UNL A   1      42.296  32.985  30.171  1.00  0.00     0.031 C 
ATOM     56  C   UNL A   1      44.319  32.320  28.904  1.00  0.00     0.034 A 
BRANCH  43  57
ATOM     57  C   UNL A   1      46.940  27.550  25.977  1.00  0.00     0.023 A 
ATOM     58  C   UNL A   1      47.064  27.695  24.580  1.00  0.00     0.012 A 
ATOM     59  C   UNL A   1      47.983  26.944  26.704  1.00  0.00     0.148 A 
ATOM     60  C   UNL A   1      48.190  27.214  23.912  1.00  0.00     0.002 A 
ATOM     61  C   UNL A   1      49.122  26.506  26.036  1.00  0.00     0.091 A 
ATOM     62  F   UNL A   1      47.839  26.794  28.028  1.00  0.00    -0.205 F 
ATOM     63  C   UNL A   1      49.222  26.630  24.641  1.00  0.00     0.022 A 
BRANCH  61  64
ATOM     64  S   UNL A   1      50.540  25.810  26.894  1.00  0.00     0.127 S 
ATOM     65  O   UNL A   1      51.582  25.915  25.873  1.00  0.00    -0.237 OA
ATOM     66  O   UNL A   1      50.698  26.728  28.023  1.00  0.00    -0.237 OA
ATOM     67  O   UNL A   1      50.159  24.454  27.263  1.00  0.00    -0.744 OA
ENDBRANCH  61  64
ENDBRANCH  43  57
BRANCH  44  68
ATOM     68  C   UNL A   1      38.826  30.684  30.870  1.00  0.00     0.023 A 
ATOM     69  C   UNL A   1      38.662  30.273  32.208  1.00  0.00     0.012 A 
ATOM     70  C   UNL A   1      37.874  31.548  30.297  1.00  0.00     0.148 A 
ATOM     71  C   UNL A   1      37.556  30.687  32.950  1.00  0.00     0.002 A 
ATOM     72  C   UNL A   1      36.803  32.002  31.059  1.00  0.00     0.091 A 
ATOM     73  F   UNL A   1      38.040  31.918  29.019  1.00  0.00    -0.205 F 
ATOM     74  C   UNL A   1      36.632  31.558  32.379  1.00  0.00     0.022 A 
BRANCH  72  75
ATOM     75  S   UNL A   1      35.642  33.230  30.449  1.00  0.00     0.127 S 
ATOM     76  O   UNL A   1      34.450  32.420  30.205  1.00  0.00    -0.237 OA
ATOM     77  O   UNL A   1      35.544  34.145  31.586  1.00  0.00    -0.237 OA
ATOM     78  O   UNL A   1      36.269  33.808  29.269  1.00  0.00    -0.744 OA
ENDBRANCH  72  75
ENDBRANCH  44  68
BRANCH  56  79
ATOM     79  C   UNL A   1      44.896  33.685  29.173  1.00  0.00     0.023 A 
ATOM     80  C   UNL A   1      45.591  33.926  30.375  1.00  0.00     0.012 A 
ATOM     81  C   UNL A   1      44.811  34.708  28.208  1.00  0.00     0.148 A 
ATOM     82  C   UNL A   1      46.160  35.174  30.628  1.00  0.00     0.002 A 
ATOM     83  C   UNL A   1      45.423  35.933  28.445  1.00  0.00     0.091 A 
ATOM     84  F   UNL A   1      44.129  34.467  27.078  1.00  0.00    -0.205 F 
ATOM     85  C   UNL A   1      46.086  36.172  29.658  1.00  0.00     0.022 A 
BRANCH  83  86
ATOM     86  S   UNL A   1      45.459  37.242  27.214  1.00  0.00     0.127 S 
ATOM     87  O   UNL A   1      46.177  36.598  26.115  1.00  0.00    -0.237 OA
ATOM     88  O   UNL A   1      44.038  37.473  26.962  1.00  0.00    -0.237 OA
ATOM     89  O   UNL A   1      46.148  38.361  27.845  1.00  0.00    -0.744 OA
ENDBRANCH  83  86
ENDBRANCH  56  79
ENDBRANCH  30  31
ENDBRANCH  22  25
ENDBRANCH  20  21
ENDBRANCH  19  20
ENDBRANCH  18  19
ENDBRANCH   1  18
TORSDOF 19
ENDMDL
MODEL 3
REMARK VINA RESULT:      -9.4      2.014      3.494
REMARK SMILES CCCCOCc1cc(C(=O)NCCCCNC(=O)c2ccc(-c3c4nc(c(-c5cccc(S(=O)(=O)[O-])c5F)c5ccc([nH]5)c(-c5cccc(S(=O)(=O)[O-])c5F)c5nc(c(-c6cccc(S(=O)(=O)[O-])c6F)c6ccc3[nH]6)C=C5)C=C4)cc2)[nH]n1
REMARK SMILES IDX 13 1 12 2 10 3 11 4 9 6 7 7 8 8 84 9 83 10 6 12 5 13 4 14
REMARK SMILES IDX 3 15 2 16 1 17 14 18 15 19 16 20 17 21 18 22 19 24 20 25
REMARK SMILES IDX 21 26 82 27 22 28 81 29 23 30 24 31 25 32 75 33 26 34 80 35
REMARK SMILES IDX 74 36 76 37 27 38 79 39 73 40 72 41 28 43 60 44 40 45 59 46
REMARK SMILES IDX 41 47 44 48 58 49 77 50 42 51 43 52 57 54 78 55 45 56 29 57
REMARK SMILES IDX 30 58 38 59 31 60 33 61 39 62 32 63 34 64 35 65 36 66 37 67
REMARK SMILES IDX 61 68 62 69 70 70 63 71 65 72 71 73 64 74 66 75 67 76 68 77
REMARK SMILES IDX 69 78 46 79 47 80 55 81 48 82 50 83 56 84 49 85 51 86 52 87
REMARK SMILES IDX 53 88 54 89
REMARK H PARENT 12 5 83 11 17 23 76 42 44 53
REMARK Flexibility Score: inf
ROOT
ATOM      1  C   UNL A   1      35.109  21.647  25.166  1.00  0.00     0.116 C 
ENDROOT
BRANCH   1   2
ATOM      2  N   UNL A   1      34.072  20.638  25.237  1.00  0.00    -0.351 N 
ATOM      3  C   UNL A   1      32.714  20.774  25.372  1.00  0.00     0.269 C 
ATOM      4  O   UNL A   1      32.016  19.782  25.167  1.00  0.00    -0.268 OA
ATOM      5  H   UNL A   1      34.392  19.709  25.180  1.00  0.00     0.163 HD
BRANCH   3   6
ATOM      6  C   UNL A   1      32.123  22.048  25.681  1.00  0.00     0.123 A 
ATOM      7  C   UNL A   1      31.103  24.025  25.858  1.00  0.00     0.089 A 
ATOM      8  C   UNL A   1      31.747  23.153  24.945  1.00  0.00     0.061 A 
ATOM      9  N   UNL A   1      31.202  23.565  27.113  1.00  0.00    -0.178 NA
ATOM     10  N   UNL A   1      31.850  22.396  26.979  1.00  0.00    -0.273 N 
ATOM     11  H   UNL A   1      32.108  21.837  27.747  1.00  0.00     0.190 HD
BRANCH   7  12
ATOM     12  C   UNL A   1      30.370  25.291  25.531  1.00  0.00     0.218 C 
BRANCH  12  13
ATOM     13  O   UNL A   1      29.915  25.430  24.177  1.00  0.00    -0.375 OA
BRANCH  13  14
ATOM     14  C   UNL A   1      30.508  26.468  23.400  1.00  0.00     0.160 C 
BRANCH  14  15
ATOM     15  C   UNL A   1      30.194  27.873  23.917  1.00  0.00     0.028 C 
BRANCH  15  16
ATOM     16  C   UNL A   1      29.229  28.703  23.067  1.00  0.00    -0.001 C 
ATOM     17  C   UNL A   1      29.926  29.568  22.029  1.00  0.00     0.004 C 
ENDBRANCH  15  16
ENDBRANCH  14  15
ENDBRANCH  13  14
ENDBRANCH  12  13
ENDBRANCH   7  12
ENDBRANCH   3   6
ENDBRANCH   1   2
BRANCH   1  18
ATOM     18  C   UNL A   1      36.506  21.035  25.133  1.00  0.00     0.023 C 
BRANCH  18  19
ATOM     19  C   UNL A   1      37.627  22.049  24.881  1.00  0.00     0.023 C 
BRANCH  19  20
ATOM     20  C   UNL A   1      38.541  22.325  26.073  1.00  0.00     0.116 C 
BRANCH  20  21
ATOM     21  N   UNL A   1      39.854  21.708  25.950  1.00  0.00    -0.352 N 
ATOM     22  C   UNL A   1      41.095  22.260  26.166  1.00  0.00     0.251 C 
ATOM     23  H   UNL A   1      39.852  20.763  25.673  1.00  0.00     0.163 HD
ATOM     24  O   UNL A   1      42.103  21.610  25.900  1.00  0.00    -0.269 OA
BRANCH  22  25
ATOM     25  C   UNL A   1      41.215  23.640  26.685  1.00  0.00     0.039 A 
ATOM     26  C   UNL A   1      41.495  23.826  28.042  1.00  0.00     0.014 A 
ATOM     27  C   UNL A   1      41.065  24.746  25.845  1.00  0.00     0.014 A 
ATOM     28  C   UNL A   1      41.691  25.117  28.540  1.00  0.00     0.010 A 
ATOM     29  C   UNL A   1      41.332  26.026  26.327  1.00  0.00     0.010 A 
ATOM     30  C   UNL A   1      41.646  26.227  27.679  1.00  0.00    -0.014 A 
BRANCH  30  31
ATOM     31  C   UNL A   1      41.948  27.596  28.174  1.00  0.00     0.031 A 
ATOM     32  C   UNL A   1      43.367  28.096  28.225  1.00  0.00     0.074 A 
ATOM     33  C   UNL A   1      40.949  28.362  28.657  1.00  0.00     0.049 A 
ATOM     34  N   UNL A   1      43.818  29.248  28.651  1.00  0.00    -0.248 NA
ATOM     35  C   UNL A   1      44.419  27.175  27.768  1.00  0.00     0.031 C 
ATOM     36  C   UNL A   1      39.543  27.960  28.750  1.00  0.00     0.029 A 
ATOM     37  N   UNL A   1      40.965  29.630  29.183  1.00  0.00    -0.354 N 
ATOM     38  C   UNL A   1      45.201  29.179  28.543  1.00  0.00     0.074 A 
ATOM     39  C   UNL A   1      45.519  27.857  28.048  1.00  0.00     0.031 C 
ATOM     40  C   UNL A   1      38.833  28.963  29.291  1.00  0.00     0.029 A 
ATOM     41  C   UNL A   1      39.731  30.069  29.605  1.00  0.00     0.049 A 
ATOM     42  H   UNL A   1      41.782  30.174  29.252  1.00  0.00     0.167 HD
ATOM     43  C   UNL A   1      46.124  30.137  28.802  1.00  0.00     0.034 A 
ATOM     44  C   UNL A   1      39.362  31.231  30.178  1.00  0.00     0.034 A 
ATOM     45  C   UNL A   1      45.804  31.466  29.248  1.00  0.00     0.049 A 
ATOM     46  C   UNL A   1      40.398  32.301  30.399  1.00  0.00     0.074 A 
ATOM     47  C   UNL A   1      46.658  32.537  29.445  1.00  0.00     0.029 A 
ATOM     48  N   UNL A   1      44.531  31.907  29.572  1.00  0.00    -0.354 N 
ATOM     49  N   UNL A   1      41.681  32.276  30.125  1.00  0.00    -0.248 NA
ATOM     50  C   UNL A   1      39.931  33.573  30.968  1.00  0.00     0.031 C 
ATOM     51  C   UNL A   1      45.904  33.621  29.905  1.00  0.00     0.029 A 
ATOM     52  C   UNL A   1      44.576  33.232  29.974  1.00  0.00     0.049 A 
ATOM     53  H   UNL A   1      43.714  31.360  29.524  1.00  0.00     0.167 HD
ATOM     54  C   UNL A   1      42.165  33.537  30.454  1.00  0.00     0.074 A 
ATOM     55  C   UNL A   1      41.034  34.308  30.926  1.00  0.00     0.031 C 
ATOM     56  C   UNL A   1      43.435  34.007  30.389  1.00  0.00     0.034 A 
BRANCH  43  57
ATOM     57  C   UNL A   1      47.571  29.802  28.545  1.00  0.00     0.023 A 
ATOM     58  C   UNL A   1      48.137  30.099  27.288  1.00  0.00     0.012 A 
ATOM     59  C   UNL A   1      48.383  29.253  29.556  1.00  0.00     0.148 A 
ATOM     60  C   UNL A   1      49.479  29.822  27.029  1.00  0.00     0.002 A 
ATOM     61  C   UNL A   1      49.731  29.021  29.304  1.00  0.00     0.091 A 
ATOM     62  F   UNL A   1      47.823  28.956  30.737  1.00  0.00    -0.205 F 
ATOM     63  C   UNL A   1      50.277  29.294  28.040  1.00  0.00     0.022 A 
BRANCH  61  64
ATOM     64  S   UNL A   1      50.861  28.414  30.563  1.00  0.00     0.127 S 
ATOM     65  O   UNL A   1      50.313  27.087  30.837  1.00  0.00    -0.237 OA
ATOM     66  O   UNL A   1      52.141  28.411  29.852  1.00  0.00    -0.237 OA
ATOM     67  O   UNL A   1      50.782  29.364  31.664  1.00  0.00    -0.744 OA
ENDBRANCH  61  64
ENDBRANCH  43  57
BRANCH  44  68
ATOM     68  C   UNL A   1      37.930  31.477  30.509  1.00  0.00     0.023 A 
ATOM     69  C   UNL A   1      37.428  31.053  31.756  1.00  0.00     0.012 A 
ATOM     70  C   UNL A   1      37.074  32.151  29.618  1.00  0.00     0.148 A 
ATOM     71  C   UNL A   1      36.092  31.267  32.095  1.00  0.00     0.002 A 
ATOM     72  C   UNL A   1      35.758  32.411  29.986  1.00  0.00     0.091 A 
ATOM     73  F   UNL A   1      37.567  32.536  28.433  1.00  0.00    -0.205 F 
ATOM     74  C   UNL A   1      35.260  31.954  31.215  1.00  0.00     0.022 A 
BRANCH  72  75
ATOM     75  S   UNL A   1      34.657  33.406  28.973  1.00  0.00     0.127 S 
ATOM     76  O   UNL A   1      35.530  34.508  28.576  1.00  0.00    -0.237 OA
ATOM     77  O   UNL A   1      34.311  32.475  27.899  1.00  0.00    -0.237 OA
ATOM     78  O   UNL A   1      33.542  33.759  29.840  1.00  0.00    -0.744 OA
ENDBRANCH  72  75
ENDBRANCH  44  68
BRANCH  56  79
ATOM     79  C   UNL A   1      43.673  35.435  30.807  1.00  0.00     0.023 A 
ATOM     80  C   UNL A   1      44.068  35.720  32.129  1.00  0.00     0.012 A 
ATOM     81  C   UNL A   1      43.574  36.485  29.874  1.00  0.00     0.148 A 
ATOM     82  C   UNL A   1      44.325  37.033  32.525  1.00  0.00     0.002 A 
ATOM     83  C   UNL A   1      43.879  37.785  30.262  1.00  0.00     0.091 A 
ATOM     84  F   UNL A   1      43.177  36.198  28.625  1.00  0.00    -0.205 F 
ATOM     85  C   UNL A   1      44.242  38.062  31.589  1.00  0.00     0.022 A 
BRANCH  83  86
ATOM     86  S   UNL A   1      43.890  39.156  29.101  1.00  0.00     0.127 S 
ATOM     87  O   UNL A   1      44.900  38.723  28.137  1.00  0.00    -0.237 OA
ATOM     88  O   UNL A   1      42.519  39.148  28.594  1.00  0.00    -0.237 OA
ATOM     89  O   UNL A   1      44.235  40.336  29.884  1.00  0.00    -0.744 OA
ENDBRANCH  83  86
ENDBRANCH  56  79
ENDBRANCH  30  31
ENDBRANCH  22  25
ENDBRANCH  20  21
ENDBRANCH  19  20
ENDBRANCH  18  19
ENDBRANCH   1  18
TORSDOF 19
ENDMDL
