MODEL 1
REMARK VINA RESULT:     -11.7      0.000      0.000
REMARK SMILES C[C@H](CC(=O)NCCCCNC(=O)c1ccc(-c2c3nc(c(-c4cccc(S(=O)(=O)[O-])c4F)c4ccc([nH]4)c(-c4cccc(S(=O)(=O)[O-])c4F)c4nc(c(-c5cccc(S(=O)(=O)[O-])c5F)c5ccc2[nH]5)C=C4)C=C3)cc1)NC(=O)Cn1nc2ccccn2c1=O
REMARK SMILES IDX 8 1 7 2 6 3 4 4 5 5 3 7 2 8 1 9 77 10 78 11 79 13 80 14
REMARK SMILES IDX 81 15 82 16 89 17 83 18 88 19 90 20 84 21 87 22 85 23 86 24
REMARK SMILES IDX 9 25 10 26 11 27 12 28 13 30 14 31 15 32 76 33 16 34 75 35
REMARK SMILES IDX 17 36 18 37 19 38 69 39 20 40 74 41 68 42 70 43 21 44 73 45
REMARK SMILES IDX 67 46 66 47 22 49 54 50 34 51 53 52 35 53 38 54 52 55 71 56
REMARK SMILES IDX 36 57 37 58 51 60 72 61 39 62 23 63 24 64 32 65 25 66 27 67
REMARK SMILES IDX 33 68 26 69 28 70 29 71 30 72 31 73 55 74 56 75 64 76 57 77
REMARK SMILES IDX 59 78 65 79 58 80 60 81 61 82 62 83 63 84 40 85 41 86 49 87
REMARK SMILES IDX 42 88 44 89 50 90 43 91 45 92 46 93 47 94 48 95
REMARK H PARENT 6 6 77 12 11 29 70 48 38 59
REMARK Flexibility Score: inf
ROOT
ATOM      1  C   UNL A   1      31.311  31.059  25.797  1.00  0.00     0.023 C 
ENDROOT
BRANCH   1   2
ATOM      2  C   UNL A   1      32.410  30.011  25.982  1.00  0.00     0.116 C 
BRANCH   2   3
ATOM      3  N   UNL A   1      32.995  29.593  24.724  1.00  0.00    -0.356 N 
ATOM      4  C   UNL A   1      33.712  28.476  24.429  1.00  0.00     0.222 C 
ATOM      5  O   UNL A   1      34.118  28.316  23.277  1.00  0.00    -0.275 OA
ATOM      6  H   UNL A   1      32.852  30.211  23.970  1.00  0.00     0.163 HD
BRANCH   4   7
ATOM      7  C   UNL A   1      33.997  27.445  25.496  1.00  0.00     0.124 C 
BRANCH   7   8
ATOM      8  C   UNL A   1      33.351  26.066  25.293  1.00  0.00     0.088 C 
ATOM      9  C   UNL A   1      34.278  24.862  25.452  1.00  0.00     0.031 C 
BRANCH   8  10
ATOM     10  N   UNL A   1      32.154  25.908  26.122  1.00  0.00    -0.352 N 
ATOM     11  C   UNL A   1      30.863  25.683  25.734  1.00  0.00     0.242 C 
ATOM     12  H   UNL A   1      32.298  25.974  27.094  1.00  0.00     0.163 HD
ATOM     13  O   UNL A   1      30.010  25.534  26.614  1.00  0.00    -0.273 OA
BRANCH  11  14
ATOM     14  C   UNL A   1      30.530  25.473  24.263  1.00  0.00     0.249 C 
BRANCH  14  15
ATOM     15  N   UNL A   1      29.959  26.628  23.615  1.00  0.00    -0.203 N 
ATOM     16  N   UNL A   1      30.711  27.601  22.987  1.00  0.00    -0.149 NA
ATOM     17  C   UNL A   1      28.613  27.017  23.691  1.00  0.00     0.350 A 
ATOM     18  C   UNL A   1      29.840  28.515  22.692  1.00  0.00     0.161 A 
ATOM     19  N   UNL A   1      28.571  28.250  23.089  1.00  0.00    -0.250 N 
ATOM     20  O   UNL A   1      27.696  26.404  24.220  1.00  0.00    -0.246 OA
ATOM     21  C   UNL A   1      30.102  29.798  21.988  1.00  0.00     0.050 A 
ATOM     22  C   UNL A   1      27.529  29.123  22.967  1.00  0.00     0.098 A 
ATOM     23  C   UNL A   1      29.150  30.735  22.175  1.00  0.00     0.005 A 
ATOM     24  C   UNL A   1      27.786  30.361  22.526  1.00  0.00     0.019 A 
ENDBRANCH  14  15
ENDBRANCH  11  14
ENDBRANCH   8  10
ENDBRANCH   7   8
ENDBRANCH   4   7
ENDBRANCH   2   3
ENDBRANCH   1   2
BRANCH   1  25
ATOM     25  C   UNL A   1      31.289  32.166  26.848  1.00  0.00     0.023 C 
BRANCH  25  26
ATOM     26  C   UNL A   1      32.635  32.827  27.098  1.00  0.00     0.116 C 
BRANCH  26  27
ATOM     27  N   UNL A   1      32.503  34.167  27.648  1.00  0.00    -0.352 N 
ATOM     28  C   UNL A   1      33.174  34.738  28.699  1.00  0.00     0.251 C 
ATOM     29  H   UNL A   1      31.839  34.744  27.205  1.00  0.00     0.163 HD
ATOM     30  O   UNL A   1      32.820  35.832  29.129  1.00  0.00    -0.269 OA
BRANCH  28  31
ATOM     31  C   UNL A   1      34.306  34.020  29.322  1.00  0.00     0.039 A 
ATOM     32  C   UNL A   1      35.608  34.382  28.968  1.00  0.00     0.014 A 
ATOM     33  C   UNL A   1      34.085  33.005  30.256  1.00  0.00     0.014 A 
ATOM     34  C   UNL A   1      36.688  33.756  29.590  1.00  0.00     0.010 A 
ATOM     35  C   UNL A   1      35.160  32.445  30.936  1.00  0.00     0.010 A 
ATOM     36  C   UNL A   1      36.473  32.802  30.600  1.00  0.00    -0.014 A 
BRANCH  36  37
ATOM     37  C   UNL A   1      37.613  32.177  31.313  1.00  0.00     0.031 A 
ATOM     38  C   UNL A   1      38.387  31.055  30.675  1.00  0.00     0.074 A 
ATOM     39  C   UNL A   1      37.909  32.574  32.567  1.00  0.00     0.049 A 
ATOM     40  N   UNL A   1      39.405  30.383  31.148  1.00  0.00    -0.248 NA
ATOM     41  C   UNL A   1      37.944  30.607  29.343  1.00  0.00     0.031 C 
ATOM     42  C   UNL A   1      37.174  33.589  33.326  1.00  0.00     0.029 A 
ATOM     43  N   UNL A   1      38.893  32.161  33.428  1.00  0.00    -0.354 N 
ATOM     44  C   UNL A   1      39.703  29.420  30.192  1.00  0.00     0.074 A 
ATOM     45  C   UNL A   1      38.732  29.564  29.130  1.00  0.00     0.031 C 
ATOM     46  C   UNL A   1      37.744  33.731  34.534  1.00  0.00     0.029 A 
ATOM     47  C   UNL A   1      38.863  32.800  34.646  1.00  0.00     0.049 A 
ATOM     48  H   UNL A   1      39.556  31.473  33.197  1.00  0.00     0.167 HD
ATOM     49  C   UNL A   1      40.713  28.517  30.181  1.00  0.00     0.034 A 
ATOM     50  C   UNL A   1      39.649  32.655  35.730  1.00  0.00     0.034 A 
ATOM     51  C   UNL A   1      41.699  28.403  31.222  1.00  0.00     0.049 A 
ATOM     52  C   UNL A   1      40.794  31.680  35.672  1.00  0.00     0.074 A 
ATOM     53  C   UNL A   1      42.811  27.581  31.269  1.00  0.00     0.029 A 
ATOM     54  N   UNL A   1      41.686  29.125  32.406  1.00  0.00    -0.354 N 
ATOM     55  N   UNL A   1      41.158  30.890  34.690  1.00  0.00    -0.248 NA
ATOM     56  C   UNL A   1      41.661  31.607  36.856  1.00  0.00     0.031 C 
ATOM     57  C   UNL A   1      43.455  27.787  32.494  1.00  0.00     0.029 A 
ATOM     58  C   UNL A   1      42.766  28.763  33.194  1.00  0.00     0.049 A 
ATOM     59  H   UNL A   1      41.010  29.798  32.650  1.00  0.00     0.167 HD
ATOM     60  C   UNL A   1      42.316  30.255  35.122  1.00  0.00     0.074 A 
ATOM     61  C   UNL A   1      42.606  30.773  36.444  1.00  0.00     0.031 C 
ATOM     62  C   UNL A   1      43.066  29.320  34.489  1.00  0.00     0.034 A 
BRANCH  49  63
ATOM     63  C   UNL A   1      40.832  27.615  28.979  1.00  0.00     0.023 A 
ATOM     64  C   UNL A   1      39.935  26.538  28.824  1.00  0.00     0.012 A 
ATOM     65  C   UNL A   1      41.794  27.859  27.980  1.00  0.00     0.148 A 
ATOM     66  C   UNL A   1      40.017  25.695  27.716  1.00  0.00     0.002 A 
ATOM     67  C   UNL A   1      41.839  27.044  26.855  1.00  0.00     0.091 A 
ATOM     68  F   UNL A   1      42.653  28.874  28.153  1.00  0.00    -0.205 F 
ATOM     69  C   UNL A   1      40.961  25.955  26.727  1.00  0.00     0.022 A 
BRANCH  67  70
ATOM     70  S   UNL A   1      42.963  27.342  25.486  1.00  0.00     0.127 S 
ATOM     71  O   UNL A   1      43.073  26.007  24.899  1.00  0.00    -0.237 OA
ATOM     72  O   UNL A   1      42.214  28.304  24.676  1.00  0.00    -0.237 OA
ATOM     73  O   UNL A   1      44.187  27.867  26.076  1.00  0.00    -0.744 OA
ENDBRANCH  67  70
ENDBRANCH  49  63
BRANCH  50  74
ATOM     74  C   UNL A   1      39.425  33.505  36.932  1.00  0.00     0.023 A 
ATOM     75  C   UNL A   1      39.886  34.837  36.934  1.00  0.00     0.012 A 
ATOM     76  C   UNL A   1      38.740  33.014  38.060  1.00  0.00     0.148 A 
ATOM     77  C   UNL A   1      39.700  35.652  38.051  1.00  0.00     0.002 A 
ATOM     78  C   UNL A   1      38.509  33.849  39.146  1.00  0.00     0.091 A 
ATOM     79  F   UNL A   1      38.318  31.742  38.042  1.00  0.00    -0.205 F 
ATOM     80  C   UNL A   1      39.004  35.162  39.152  1.00  0.00     0.022 A 
BRANCH  78  81
ATOM     81  S   UNL A   1      37.509  33.346  40.551  1.00  0.00     0.127 S 
ATOM     82  O   UNL A   1      36.277  32.911  39.900  1.00  0.00    -0.237 OA
ATOM     83  O   UNL A   1      38.318  32.269  41.125  1.00  0.00    -0.237 OA
ATOM     84  O   UNL A   1      37.396  34.527  41.397  1.00  0.00    -0.744 OA
ENDBRANCH  78  81
ENDBRANCH  50  74
BRANCH  62  85
ATOM     85  C   UNL A   1      44.298  28.819  35.200  1.00  0.00     0.023 A 
ATOM     86  C   UNL A   1      45.554  29.395  34.926  1.00  0.00     0.012 A 
ATOM     87  C   UNL A   1      44.200  27.809  36.178  1.00  0.00     0.148 A 
ATOM     88  C   UNL A   1      46.700  28.943  35.579  1.00  0.00     0.002 A 
ATOM     89  C   UNL A   1      45.337  27.401  36.863  1.00  0.00     0.091 A 
ATOM     90  F   UNL A   1      43.000  27.259  36.414  1.00  0.00    -0.205 F 
ATOM     91  C   UNL A   1      46.590  27.955  36.554  1.00  0.00     0.022 A 
BRANCH  89  92
ATOM     92  S   UNL A   1      45.273  26.207  38.203  1.00  0.00     0.127 S 
ATOM     93  O   UNL A   1      44.862  24.992  37.502  1.00  0.00    -0.237 OA
ATOM     94  O   UNL A   1      46.656  26.198  38.679  1.00  0.00    -0.237 OA
ATOM     95  O   UNL A   1      44.310  26.734  39.162  1.00  0.00    -0.744 OA
ENDBRANCH  89  92
ENDBRANCH  62  85
ENDBRANCH  36  37
ENDBRANCH  28  31
ENDBRANCH  26  27
ENDBRANCH  25  26
ENDBRANCH   1  25
TORSDOF 18
ENDMDL
MODEL 2
REMARK VINA RESULT:     -11.6      6.568     11.815
REMARK SMILES C[C@H](CC(=O)NCCCCNC(=O)c1ccc(-c2c3nc(c(-c4cccc(S(=O)(=O)[O-])c4F)c4ccc([nH]4)c(-c4cccc(S(=O)(=O)[O-])c4F)c4nc(c(-c5cccc(S(=O)(=O)[O-])c5F)c5ccc2[nH]5)C=C4)C=C3)cc1)NC(=O)Cn1nc2ccccn2c1=O
REMARK SMILES IDX 8 1 7 2 6 3 4 4 5 5 3 7 2 8 1 9 77 10 78 11 79 13 80 14
REMARK SMILES IDX 81 15 82 16 89 17 83 18 88 19 90 20 84 21 87 22 85 23 86 24
REMARK SMILES IDX 9 25 10 26 11 27 12 28 13 30 14 31 15 32 76 33 16 34 75 35
REMARK SMILES IDX 17 36 18 37 19 38 69 39 20 40 74 41 68 42 70 43 21 44 73 45
REMARK SMILES IDX 67 46 66 47 22 49 54 50 34 51 53 52 35 53 38 54 52 55 71 56
REMARK SMILES IDX 36 57 37 58 51 60 72 61 39 62 23 63 24 64 32 65 25 66 27 67
REMARK SMILES IDX 33 68 26 69 28 70 29 71 30 72 31 73 55 74 56 75 64 76 57 77
REMARK SMILES IDX 59 78 65 79 58 80 60 81 61 82 62 83 63 84 40 85 41 86 49 87
REMARK SMILES IDX 42 88 44 89 50 90 43 91 45 92 46 93 47 94 48 95
REMARK H PARENT 6 6 77 12 11 29 70 48 38 59
REMARK Flexibility Score: inf
ROOT
ATOM      1  C   UNL A   1      36.536  19.950  24.992  1.00  0.00     0.023 C 
ENDROOT
BRANCH   1   2
ATOM      2  C   UNL A   1      36.458  21.395  25.487  1.00  0.00     0.116 C 
BRANCH   2   3
ATOM      3  N   UNL A   1      35.411  21.588  26.471  1.00  0.00    -0.356 N 
ATOM      4  C   UNL A   1      34.757  22.725  26.831  1.00  0.00     0.222 C 
ATOM      5  O   UNL A   1      33.887  22.662  27.701  1.00  0.00    -0.275 OA
ATOM      6  H   UNL A   1      35.131  20.774  26.950  1.00  0.00     0.163 HD
BRANCH   4   7
ATOM      7  C   UNL A   1      35.091  24.042  26.169  1.00  0.00     0.124 C 
BRANCH   7   8
ATOM      8  C   UNL A   1      33.996  24.643  25.275  1.00  0.00     0.088 C 
ATOM      9  C   UNL A   1      33.722  26.134  25.462  1.00  0.00     0.031 C 
BRANCH   8  10
ATOM     10  N   UNL A   1      34.230  24.336  23.861  1.00  0.00    -0.352 N 
ATOM     11  C   UNL A   1      33.492  23.553  23.018  1.00  0.00     0.242 C 
ATOM     12  H   UNL A   1      35.030  24.750  23.463  1.00  0.00     0.163 HD
ATOM     13  O   UNL A   1      33.854  23.470  21.840  1.00  0.00    -0.273 OA
BRANCH  11  14
ATOM     14  C   UNL A   1      32.186  22.933  23.493  1.00  0.00     0.249 C 
BRANCH  14  15
ATOM     15  N   UNL A   1      32.237  21.502  23.666  1.00  0.00    -0.203 N 
ATOM     16  N   UNL A   1      32.600  20.888  24.848  1.00  0.00    -0.149 NA
ATOM     17  C   UNL A   1      32.116  20.558  22.636  1.00  0.00     0.350 A 
ATOM     18  C   UNL A   1      32.672  19.634  24.529  1.00  0.00     0.161 A 
ATOM     19  N   UNL A   1      32.412  19.355  23.228  1.00  0.00    -0.250 N 
ATOM     20  O   UNL A   1      31.849  20.775  21.462  1.00  0.00    -0.246 OA
ATOM     21  C   UNL A   1      33.016  18.505  25.433  1.00  0.00     0.050 A 
ATOM     22  C   UNL A   1      32.531  18.116  22.668  1.00  0.00     0.098 A 
ATOM     23  C   UNL A   1      33.430  17.391  24.794  1.00  0.00     0.005 A 
ATOM     24  C   UNL A   1      33.040  17.128  23.415  1.00  0.00     0.019 A 
ENDBRANCH  14  15
ENDBRANCH  11  14
ENDBRANCH   8  10
ENDBRANCH   7   8
ENDBRANCH   4   7
ENDBRANCH   2   3
ENDBRANCH   1   2
BRANCH   1  25
ATOM     25  C   UNL A   1      37.947  19.375  24.892  1.00  0.00     0.023 C 
BRANCH  25  26
ATOM     26  C   UNL A   1      38.983  20.094  25.740  1.00  0.00     0.116 C 
BRANCH  26  27
ATOM     27  N   UNL A   1      40.107  19.239  26.088  1.00  0.00    -0.352 N 
ATOM     28  C   UNL A   1      41.382  19.594  26.449  1.00  0.00     0.251 C 
ATOM     29  H   UNL A   1      39.928  18.271  26.059  1.00  0.00     0.163 HD
ATOM     30  O   UNL A   1      42.251  18.733  26.553  1.00  0.00    -0.269 OA
BRANCH  28  31
ATOM     31  C   UNL A   1      41.706  21.016  26.687  1.00  0.00     0.039 A 
ATOM     32  C   UNL A   1      42.026  21.425  27.983  1.00  0.00     0.014 A 
ATOM     33  C   UNL A   1      41.705  21.938  25.636  1.00  0.00     0.014 A 
ATOM     34  C   UNL A   1      42.392  22.751  28.214  1.00  0.00     0.010 A 
ATOM     35  C   UNL A   1      42.154  23.235  25.853  1.00  0.00     0.010 A 
ATOM     36  C   UNL A   1      42.487  23.660  27.147  1.00  0.00    -0.014 A 
BRANCH  36  37
ATOM     37  C   UNL A   1      42.938  25.056  27.371  1.00  0.00     0.031 A 
ATOM     38  C   UNL A   1      42.019  26.057  28.018  1.00  0.00     0.074 A 
ATOM     39  C   UNL A   1      44.152  25.439  26.929  1.00  0.00     0.049 A 
ATOM     40  N   UNL A   1      42.235  27.319  28.287  1.00  0.00    -0.248 NA
ATOM     41  C   UNL A   1      40.671  25.591  28.385  1.00  0.00     0.031 C 
ATOM     42  C   UNL A   1      45.097  24.584  26.207  1.00  0.00     0.029 A 
ATOM     43  N   UNL A   1      44.792  26.649  27.007  1.00  0.00    -0.354 N 
ATOM     44  C   UNL A   1      41.048  27.803  28.824  1.00  0.00     0.074 A 
ATOM     45  C   UNL A   1      40.100  26.711  28.803  1.00  0.00     0.031 C 
ATOM     46  C   UNL A   1      46.201  25.291  25.923  1.00  0.00     0.029 A 
ATOM     47  C   UNL A   1      46.034  26.655  26.416  1.00  0.00     0.049 A 
ATOM     48  H   UNL A   1      44.400  27.439  27.444  1.00  0.00     0.167 HD
ATOM     49  C   UNL A   1      40.779  29.034  29.320  1.00  0.00     0.034 A 
ATOM     50  C   UNL A   1      46.937  27.646  26.287  1.00  0.00     0.034 A 
ATOM     51  C   UNL A   1      41.738  30.105  29.372  1.00  0.00     0.049 A 
ATOM     52  C   UNL A   1      46.632  28.990  26.891  1.00  0.00     0.074 A 
ATOM     53  C   UNL A   1      41.594  31.363  29.931  1.00  0.00     0.029 A 
ATOM     54  N   UNL A   1      43.016  30.049  28.838  1.00  0.00    -0.354 N 
ATOM     55  N   UNL A   1      45.562  29.381  27.541  1.00  0.00    -0.248 NA
ATOM     56  C   UNL A   1      47.677  30.017  26.780  1.00  0.00     0.031 C 
ATOM     57  C   UNL A   1      42.777  32.077  29.710  1.00  0.00     0.029 A 
ATOM     58  C   UNL A   1      43.670  31.252  29.046  1.00  0.00     0.049 A 
ATOM     59  H   UNL A   1      43.403  29.269  28.380  1.00  0.00     0.167 HD
ATOM     60  C   UNL A   1      45.819  30.684  27.949  1.00  0.00     0.074 A 
ATOM     61  C   UNL A   1      47.157  31.006  27.494  1.00  0.00     0.031 C 
ATOM     62  C   UNL A   1      45.018  31.542  28.627  1.00  0.00     0.034 A 
BRANCH  49  63
ATOM     63  C   UNL A   1      39.405  29.272  29.893  1.00  0.00     0.023 A 
ATOM     64  C   UNL A   1      39.079  28.748  31.161  1.00  0.00     0.012 A 
ATOM     65  C   UNL A   1      38.455  30.051  29.205  1.00  0.00     0.148 A 
ATOM     66  C   UNL A   1      37.819  28.962  31.718  1.00  0.00     0.002 A 
ATOM     67  C   UNL A   1      37.218  30.301  29.787  1.00  0.00     0.091 A 
ATOM     68  F   UNL A   1      38.774  30.523  27.991  1.00  0.00    -0.205 F 
ATOM     69  C   UNL A   1      36.893  29.747  31.037  1.00  0.00     0.022 A 
BRANCH  67  70
ATOM     70  S   UNL A   1      35.986  31.366  29.029  1.00  0.00     0.127 S 
ATOM     71  O   UNL A   1      34.982  31.455  30.088  1.00  0.00    -0.237 OA
ATOM     72  O   UNL A   1      36.742  32.597  28.801  1.00  0.00    -0.237 OA
ATOM     73  O   UNL A   1      35.555  30.684  27.817  1.00  0.00    -0.744 OA
ENDBRANCH  67  70
ENDBRANCH  49  63
BRANCH  50  74
ATOM     74  C   UNL A   1      48.243  27.382  25.622  1.00  0.00     0.023 A 
ATOM     75  C   UNL A   1      49.333  26.926  26.391  1.00  0.00     0.012 A 
ATOM     76  C   UNL A   1      48.407  27.555  24.234  1.00  0.00     0.148 A 
ATOM     77  C   UNL A   1      50.570  26.681  25.796  1.00  0.00     0.002 A 
ATOM     78  C   UNL A   1      49.628  27.255  23.640  1.00  0.00     0.091 A 
ATOM     79  F   UNL A   1      47.362  27.998  23.522  1.00  0.00    -0.205 F 
ATOM     80  C   UNL A   1      50.715  26.836  24.421  1.00  0.00     0.022 A 
BRANCH  78  81
ATOM     81  S   UNL A   1      49.867  27.299  21.860  1.00  0.00     0.127 S 
ATOM     82  O   UNL A   1      49.675  28.717  21.568  1.00  0.00    -0.237 OA
ATOM     83  O   UNL A   1      51.246  26.824  21.731  1.00  0.00    -0.237 OA
ATOM     84  O   UNL A   1      48.868  26.397  21.306  1.00  0.00    -0.744 OA
ENDBRANCH  78  81
ENDBRANCH  50  74
BRANCH  62  85
ATOM     85  C   UNL A   1      45.578  32.903  28.955  1.00  0.00     0.023 A 
ATOM     86  C   UNL A   1      46.417  33.070  30.075  1.00  0.00     0.012 A 
ATOM     87  C   UNL A   1      45.311  34.008  28.123  1.00  0.00     0.148 A 
ATOM     88  C   UNL A   1      46.943  34.322  30.387  1.00  0.00     0.002 A 
ATOM     89  C   UNL A   1      45.882  35.241  28.409  1.00  0.00     0.091 A 
ATOM     90  F   UNL A   1      44.496  33.836  27.072  1.00  0.00    -0.205 F 
ATOM     91  C   UNL A   1      46.685  35.404  29.550  1.00  0.00     0.022 A 
BRANCH  89  92
ATOM     92  S   UNL A   1      45.685  36.664  27.331  1.00  0.00     0.127 S 
ATOM     93  O   UNL A   1      46.368  37.710  28.090  1.00  0.00    -0.237 OA
ATOM     94  O   UNL A   1      46.383  36.236  26.119  1.00  0.00    -0.237 OA
ATOM     95  O   UNL A   1      44.248  36.844  27.167  1.00  0.00    -0.744 OA
ENDBRANCH  89  92
ENDBRANCH  62  85
ENDBRANCH  36  37
ENDBRANCH  28  31
ENDBRANCH  26  27
ENDBRANCH  25  26
ENDBRANCH   1  25
TORSDOF 18
ENDMDL
MODEL 3
REMARK VINA RESULT:     -11.5      2.565      8.390
REMARK SMILES C[C@H](CC(=O)NCCCCNC(=O)c1ccc(-c2c3nc(c(-c4cccc(S(=O)(=O)[O-])c4F)c4ccc([nH]4)c(-c4cccc(S(=O)(=O)[O-])c4F)c4nc(c(-c5cccc(S(=O)(=O)[O-])c5F)c5ccc2[nH]5)C=C4)C=C3)cc1)NC(=O)Cn1nc2ccccn2c1=O
REMARK SMILES IDX 8 1 7 2 6 3 4 4 5 5 3 7 2 8 1 9 77 10 78 11 79 13 80 14
REMARK SMILES IDX 81 15 82 16 89 17 83 18 88 19 90 20 84 21 87 22 85 23 86 24
REMARK SMILES IDX 9 25 10 26 11 27 12 28 13 30 14 31 15 32 76 33 16 34 75 35
REMARK SMILES IDX 17 36 18 37 19 38 69 39 20 40 74 41 68 42 70 43 21 44 73 45
REMARK SMILES IDX 67 46 66 47 22 49 54 50 34 51 53 52 35 53 38 54 52 55 71 56
REMARK SMILES IDX 36 57 37 58 51 60 72 61 39 62 23 63 24 64 32 65 25 66 27 67
REMARK SMILES IDX 33 68 26 69 28 70 29 71 30 72 31 73 55 74 56 75 64 76 57 77
REMARK SMILES IDX 59 78 65 79 58 80 60 81 61 82 62 83 63 84 40 85 41 86 49 87
REMARK SMILES IDX 42 88 44 89 50 90 43 91 45 92 46 93 47 94 48 95
REMARK H PARENT 6 6 77 12 11 29 70 48 38 59
REMARK Flexibility Score: inf
ROOT
ATOM      1  C   UNL A   1      31.508  29.396  23.552  1.00  0.00     0.023 C 
ENDROOT
BRANCH   1   2
ATOM      2  C   UNL A   1      30.544  28.483  22.794  1.00  0.00     0.116 C 
BRANCH   2   3
ATOM      3  N   UNL A   1      31.198  27.299  22.273  1.00  0.00    -0.356 N 
ATOM      4  C   UNL A   1      31.296  26.053  22.811  1.00  0.00     0.222 C 
ATOM      5  O   UNL A   1      31.903  25.181  22.188  1.00  0.00    -0.275 OA
ATOM      6  H   UNL A   1      31.637  27.413  21.398  1.00  0.00     0.163 HD
BRANCH   4   7
ATOM      7  C   UNL A   1      30.663  25.745  24.147  1.00  0.00     0.124 C 
BRANCH   7   8
ATOM      8  C   UNL A   1      31.590  25.132  25.208  1.00  0.00     0.088 C 
ATOM      9  C   UNL A   1      32.712  26.034  25.719  1.00  0.00     0.031 C 
BRANCH   8  10
ATOM     10  N   UNL A   1      30.827  24.573  26.328  1.00  0.00    -0.352 N 
ATOM     11  C   UNL A   1      30.533  23.267  26.600  1.00  0.00     0.242 C 
ATOM     12  H   UNL A   1      30.478  25.229  26.973  1.00  0.00     0.163 HD
ATOM     13  O   UNL A   1      29.909  23.017  27.636  1.00  0.00    -0.273 OA
BRANCH  11  14
ATOM     14  C   UNL A   1      31.094  22.155  25.724  1.00  0.00     0.249 C 
BRANCH  14  15
ATOM     15  N   UNL A   1      32.507  22.269  25.455  1.00  0.00    -0.203 N 
ATOM     16  N   UNL A   1      33.440  22.621  26.411  1.00  0.00    -0.149 NA
ATOM     17  C   UNL A   1      33.095  22.227  24.183  1.00  0.00     0.350 A 
ATOM     18  C   UNL A   1      34.532  22.762  25.729  1.00  0.00     0.161 A 
ATOM     19  N   UNL A   1      34.410  22.559  24.395  1.00  0.00    -0.250 N 
ATOM     20  O   UNL A   1      32.538  21.990  23.120  1.00  0.00    -0.246 OA
ATOM     21  C   UNL A   1      35.871  23.130  26.262  1.00  0.00     0.050 A 
ATOM     22  C   UNL A   1      35.413  22.757  23.490  1.00  0.00     0.098 A 
ATOM     23  C   UNL A   1      36.721  23.617  25.335  1.00  0.00     0.005 A 
ATOM     24  C   UNL A   1      36.564  23.287  23.925  1.00  0.00     0.019 A 
ENDBRANCH  14  15
ENDBRANCH  11  14
ENDBRANCH   8  10
ENDBRANCH   7   8
ENDBRANCH   4   7
ENDBRANCH   2   3
ENDBRANCH   1   2
BRANCH   1  25
ATOM     25  C   UNL A   1      31.592  29.143  25.056  1.00  0.00     0.023 C 
BRANCH  25  26
ATOM     26  C   UNL A   1      32.785  29.791  25.739  1.00  0.00     0.116 C 
BRANCH  26  27
ATOM     27  N   UNL A   1      32.514  31.159  26.153  1.00  0.00    -0.352 N 
ATOM     28  C   UNL A   1      33.164  31.922  27.090  1.00  0.00     0.251 C 
ATOM     29  H   UNL A   1      31.758  31.597  25.700  1.00  0.00     0.163 HD
ATOM     30  O   UNL A   1      32.697  33.006  27.427  1.00  0.00    -0.269 OA
BRANCH  28  31
ATOM     31  C   UNL A   1      34.412  31.421  27.704  1.00  0.00     0.039 A 
ATOM     32  C   UNL A   1      35.479  32.306  27.874  1.00  0.00     0.014 A 
ATOM     33  C   UNL A   1      34.524  30.091  28.117  1.00  0.00     0.014 A 
ATOM     34  C   UNL A   1      36.642  31.865  28.506  1.00  0.00     0.010 A 
ATOM     35  C   UNL A   1      35.649  29.679  28.822  1.00  0.00     0.010 A 
ATOM     36  C   UNL A   1      36.726  30.557  29.011  1.00  0.00    -0.014 A 
BRANCH  36  37
ATOM     37  C   UNL A   1      37.933  30.097  29.741  1.00  0.00     0.031 A 
ATOM     38  C   UNL A   1      38.207  30.581  31.139  1.00  0.00     0.074 A 
ATOM     39  C   UNL A   1      38.819  29.295  29.117  1.00  0.00     0.049 A 
ATOM     40  N   UNL A   1      39.211  30.295  31.927  1.00  0.00    -0.248 NA
ATOM     41  C   UNL A   1      37.245  31.534  31.719  1.00  0.00     0.031 C 
ATOM     42  C   UNL A   1      38.709  28.831  27.732  1.00  0.00     0.029 A 
ATOM     43  N   UNL A   1      39.993  28.742  29.561  1.00  0.00    -0.354 N 
ATOM     44  C   UNL A   1      39.019  31.050  33.078  1.00  0.00     0.074 A 
ATOM     45  C   UNL A   1      37.827  31.841  32.869  1.00  0.00     0.031 C 
ATOM     46  C   UNL A   1      39.764  28.052  27.445  1.00  0.00     0.029 A 
ATOM     47  C   UNL A   1      40.637  27.982  28.612  1.00  0.00     0.049 A 
ATOM     48  H   UNL A   1      40.341  28.877  30.471  1.00  0.00     0.167 HD
ATOM     49  C   UNL A   1      39.750  31.062  34.219  1.00  0.00     0.034 A 
ATOM     50  C   UNL A   1      41.799  27.304  28.676  1.00  0.00     0.034 A 
ATOM     51  C   UNL A   1      40.913  30.245  34.435  1.00  0.00     0.049 A 
ATOM     52  C   UNL A   1      42.565  27.294  29.972  1.00  0.00     0.074 A 
ATOM     53  C   UNL A   1      41.675  30.118  35.583  1.00  0.00     0.029 A 
ATOM     54  N   UNL A   1      41.491  29.423  33.480  1.00  0.00    -0.354 N 
ATOM     55  N   UNL A   1      42.279  27.889  31.105  1.00  0.00    -0.248 NA
ATOM     56  C   UNL A   1      43.791  26.487  30.009  1.00  0.00     0.031 C 
ATOM     57  C   UNL A   1      42.729  29.240  35.313  1.00  0.00     0.029 A 
ATOM     58  C   UNL A   1      42.604  28.791  34.008  1.00  0.00     0.049 A 
ATOM     59  H   UNL A   1      41.158  29.304  32.561  1.00  0.00     0.167 HD
ATOM     60  C   UNL A   1      43.267  27.497  32.000  1.00  0.00     0.074 A 
ATOM     61  C   UNL A   1      44.144  26.594  31.282  1.00  0.00     0.031 C 
ATOM     62  C   UNL A   1      43.442  27.860  33.295  1.00  0.00     0.034 A 
BRANCH  49  63
ATOM     63  C   UNL A   1      39.278  31.952  35.341  1.00  0.00     0.023 A 
ATOM     64  C   UNL A   1      38.373  31.446  36.297  1.00  0.00     0.012 A 
ATOM     65  C   UNL A   1      39.764  33.266  35.480  1.00  0.00     0.148 A 
ATOM     66  C   UNL A   1      37.929  32.246  37.350  1.00  0.00     0.002 A 
ATOM     67  C   UNL A   1      39.355  34.040  36.559  1.00  0.00     0.091 A 
ATOM     68  F   UNL A   1      40.607  33.737  34.550  1.00  0.00    -0.205 F 
ATOM     69  C   UNL A   1      38.428  33.537  37.487  1.00  0.00     0.022 A 
BRANCH  67  70
ATOM     70  S   UNL A   1      40.001  35.687  36.872  1.00  0.00     0.127 S 
ATOM     71  O   UNL A   1      39.336  36.031  38.128  1.00  0.00    -0.237 OA
ATOM     72  O   UNL A   1      41.438  35.437  36.991  1.00  0.00    -0.237 OA
ATOM     73  O   UNL A   1      39.619  36.495  35.722  1.00  0.00    -0.744 OA
ENDBRANCH  67  70
ENDBRANCH  49  63
BRANCH  50  74
ATOM     74  C   UNL A   1      42.270  26.519  27.501  1.00  0.00     0.023 A 
ATOM     75  C   UNL A   1      43.064  27.147  26.520  1.00  0.00     0.012 A 
ATOM     76  C   UNL A   1      41.958  25.153  27.362  1.00  0.00     0.148 A 
ATOM     77  C   UNL A   1      43.508  26.438  25.405  1.00  0.00     0.002 A 
ATOM     78  C   UNL A   1      42.453  24.439  26.276  1.00  0.00     0.091 A 
ATOM     79  F   UNL A   1      41.196  24.577  28.300  1.00  0.00    -0.205 F 
ATOM     80  C   UNL A   1      43.212  25.083  25.287  1.00  0.00     0.022 A 
BRANCH  78  81
ATOM     81  S   UNL A   1      42.232  22.664  26.111  1.00  0.00     0.127 S 
ATOM     82  O   UNL A   1      42.879  22.401  24.828  1.00  0.00    -0.237 OA
ATOM     83  O   UNL A   1      42.954  22.162  27.281  1.00  0.00    -0.237 OA
ATOM     84  O   UNL A   1      40.794  22.441  26.152  1.00  0.00    -0.744 OA
ENDBRANCH  78  81
ENDBRANCH  50  74
BRANCH  62  85
ATOM     85  C   UNL A   1      44.605  27.252  34.036  1.00  0.00     0.023 A 
ATOM     86  C   UNL A   1      45.862  27.890  34.022  1.00  0.00     0.012 A 
ATOM     87  C   UNL A   1      44.440  26.071  34.786  1.00  0.00     0.148 A 
ATOM     88  C   UNL A   1      46.945  27.339  34.706  1.00  0.00     0.002 A 
ATOM     89  C   UNL A   1      45.508  25.557  35.508  1.00  0.00     0.091 A 
ATOM     90  F   UNL A   1      43.242  25.466  34.774  1.00  0.00    -0.205 F 
ATOM     91  C   UNL A   1      46.766  26.180  35.456  1.00  0.00     0.022 A 
BRANCH  89  92
ATOM     92  S   UNL A   1      45.343  24.126  36.581  1.00  0.00     0.127 S 
ATOM     93  O   UNL A   1      44.377  24.603  37.569  1.00  0.00    -0.237 OA
ATOM     94  O   UNL A   1      44.827  23.107  35.666  1.00  0.00    -0.237 OA
ATOM     95  O   UNL A   1      46.681  23.854  37.092  1.00  0.00    -0.744 OA
ENDBRANCH  89  92
ENDBRANCH  62  85
ENDBRANCH  36  37
ENDBRANCH  28  31
ENDBRANCH  26  27
ENDBRANCH  25  26
ENDBRANCH   1  25
TORSDOF 18
ENDMDL
