MODEL 1
REMARK VINA RESULT:     -12.3      0.000      0.000
REMARK SMILES O=C(NCCCCNC(=O)c1cc(Br)n(Cc2ccn(C3CCCC3)n2)c1)c1ccc(-c2c3nc(c(-c4cccc(S(=O)(=O)[O-])c4F)c4ccc([nH]4)c(-c4cccc(S(=O)(=O)[O-])c4F)c4nc(c(-c5cccc(S(=O)(=O)[O-])c5F)c5ccc2[nH]5)C=C4)C=C3)cc1
REMARK SMILES IDX 5 1 4 2 3 3 1 4 2 5 28 7 29 8 90 9 30 10 89 11 31 12 32 13
REMARK SMILES IDX 33 14 83 15 34 16 88 17 82 18 84 19 35 20 87 21 81 22 80 23
REMARK SMILES IDX 36 25 68 26 48 27 67 28 49 29 52 30 66 31 85 32 50 33 51 34
REMARK SMILES IDX 65 36 86 37 53 38 37 39 38 40 46 41 39 42 41 43 47 44 40 45
REMARK SMILES IDX 42 46 43 47 44 48 45 49 69 50 70 51 78 52 71 53 73 54 79 55
REMARK SMILES IDX 72 56 74 57 75 58 76 59 77 60 54 61 55 62 63 63 56 64 58 65
REMARK SMILES IDX 64 66 57 67 59 68 60 69 61 70 62 71 6 72 7 73 8 74 9 75
REMARK SMILES IDX 10 77 11 78 12 79 27 80 13 81 15 82 14 83 16 84 17 85 18 86
REMARK SMILES IDX 26 87 19 88 20 89 21 90 22 91 25 92 23 93 24 94
REMARK H PARENT 3 6 84 24 52 35 8 76
REMARK Flexibility Score: inf
ROOT
ATOM      1  C   UNL A   1      32.347  30.491  26.974  1.00  0.00     0.023 C 
ENDROOT
BRANCH   1   2
ATOM      2  C   UNL A   1      33.760  31.013  27.228  1.00  0.00     0.116 C 
BRANCH   2   3
ATOM      3  N   UNL A   1      33.902  31.737  28.475  1.00  0.00    -0.352 N 
ATOM      4  O   UNL A   1      34.653  32.658  30.327  1.00  0.00    -0.269 OA
ATOM      5  C   UNL A   1      34.887  31.855  29.418  1.00  0.00     0.251 C 
ATOM      6  H   UNL A   1      33.103  32.267  28.694  1.00  0.00     0.163 HD
BRANCH   5   7
ATOM      7  C   UNL A   1      36.163  31.085  29.445  1.00  0.00     0.039 A 
ATOM      8  C   UNL A   1      36.276  29.693  29.453  1.00  0.00     0.014 A 
ATOM      9  C   UNL A   1      37.347  31.848  29.466  1.00  0.00     0.014 A 
ATOM     10  C   UNL A   1      37.527  29.083  29.533  1.00  0.00     0.010 A 
ATOM     11  C   UNL A   1      38.601  31.242  29.531  1.00  0.00     0.010 A 
ATOM     12  C   UNL A   1      38.690  29.854  29.589  1.00  0.00    -0.014 A 
BRANCH  12  13
ATOM     13  C   UNL A   1      39.972  29.153  29.612  1.00  0.00     0.031 A 
ATOM     14  C   UNL A   1      40.595  28.957  30.955  1.00  0.00     0.074 A 
ATOM     15  C   UNL A   1      40.535  28.577  28.531  1.00  0.00     0.049 A 
ATOM     16  N   UNL A   1      41.749  29.370  31.378  1.00  0.00    -0.248 NA
ATOM     17  C   UNL A   1      39.801  28.251  31.970  1.00  0.00     0.031 C 
ATOM     18  C   UNL A   1      39.935  28.361  27.212  1.00  0.00     0.029 A 
ATOM     19  N   UNL A   1      41.737  27.937  28.438  1.00  0.00    -0.354 N 
ATOM     20  C   UNL A   1      41.907  28.824  32.653  1.00  0.00     0.074 A 
ATOM     21  C   UNL A   1      40.637  28.242  33.009  1.00  0.00     0.031 C 
ATOM     22  C   UNL A   1      40.664  27.439  26.544  1.00  0.00     0.029 A 
ATOM     23  C   UNL A   1      41.844  27.116  27.325  1.00  0.00     0.049 A 
ATOM     24  H   UNL A   1      42.458  28.046  29.099  1.00  0.00     0.167 HD
ATOM     25  C   UNL A   1      43.115  28.736  33.275  1.00  0.00     0.034 A 
ATOM     26  C   UNL A   1      42.797  26.182  27.099  1.00  0.00     0.034 A 
ATOM     27  C   UNL A   1      44.111  29.572  32.667  1.00  0.00     0.049 A 
ATOM     28  C   UNL A   1      43.957  26.489  27.964  1.00  0.00     0.074 A 
ATOM     29  C   UNL A   1      44.262  30.926  32.451  1.00  0.00     0.029 A 
ATOM     30  N   UNL A   1      45.058  28.962  31.885  1.00  0.00    -0.354 N 
ATOM     31  N   UNL A   1      44.731  27.525  27.809  1.00  0.00    -0.248 NA
ATOM     32  C   UNL A   1      44.071  25.807  29.241  1.00  0.00     0.031 C 
ATOM     33  C   UNL A   1      44.952  31.026  31.207  1.00  0.00     0.029 A 
ATOM     34  C   UNL A   1      45.191  29.726  30.756  1.00  0.00     0.049 A 
ATOM     35  H   UNL A   1      45.549  28.134  32.093  1.00  0.00     0.167 HD
ATOM     36  C   UNL A   1      45.102  27.880  29.098  1.00  0.00     0.074 A 
ATOM     37  C   UNL A   1      44.781  26.713  29.916  1.00  0.00     0.031 C 
ATOM     38  C   UNL A   1      45.364  29.180  29.427  1.00  0.00     0.034 A 
BRANCH  25  39
ATOM     39  C   UNL A   1      43.492  27.688  34.294  1.00  0.00     0.023 A 
ATOM     40  C   UNL A   1      43.920  28.121  35.570  1.00  0.00     0.012 A 
ATOM     41  C   UNL A   1      43.683  26.323  33.983  1.00  0.00     0.148 A 
ATOM     42  C   UNL A   1      44.526  27.246  36.479  1.00  0.00     0.002 A 
ATOM     43  C   UNL A   1      44.210  25.440  34.921  1.00  0.00     0.091 A 
ATOM     44  F   UNL A   1      43.477  25.892  32.733  1.00  0.00    -0.205 F 
ATOM     45  C   UNL A   1      44.658  25.901  36.161  1.00  0.00     0.022 A 
BRANCH  43  46
ATOM     46  S   UNL A   1      44.329  23.680  34.580  1.00  0.00     0.127 S 
ATOM     47  O   UNL A   1      45.128  23.214  35.708  1.00  0.00    -0.237 OA
ATOM     48  O   UNL A   1      42.924  23.270  34.605  1.00  0.00    -0.237 OA
ATOM     49  O   UNL A   1      44.947  23.594  33.263  1.00  0.00    -0.744 OA
ENDBRANCH  43  46
ENDBRANCH  25  39
BRANCH  26  50
ATOM     50  C   UNL A   1      42.699  24.908  26.354  1.00  0.00     0.023 A 
ATOM     51  C   UNL A   1      43.700  24.561  25.426  1.00  0.00     0.012 A 
ATOM     52  C   UNL A   1      41.772  23.916  26.745  1.00  0.00     0.148 A 
ATOM     53  C   UNL A   1      43.789  23.258  24.922  1.00  0.00     0.002 A 
ATOM     54  C   UNL A   1      41.862  22.626  26.235  1.00  0.00     0.091 A 
ATOM     55  F   UNL A   1      40.866  24.217  27.685  1.00  0.00    -0.205 F 
ATOM     56  C   UNL A   1      42.876  22.290  25.331  1.00  0.00     0.022 A 
BRANCH  54  57
ATOM     57  S   UNL A   1      40.729  21.320  26.733  1.00  0.00     0.127 S 
ATOM     58  O   UNL A   1      40.880  21.328  28.188  1.00  0.00    -0.237 OA
ATOM     59  O   UNL A   1      39.450  21.831  26.247  1.00  0.00    -0.237 OA
ATOM     60  O   UNL A   1      41.214  20.107  26.087  1.00  0.00    -0.744 OA
ENDBRANCH  54  57
ENDBRANCH  26  50
BRANCH  38  61
ATOM     61  C   UNL A   1      45.511  30.183  28.308  1.00  0.00     0.023 A 
ATOM     62  C   UNL A   1      44.388  30.721  27.643  1.00  0.00     0.012 A 
ATOM     63  C   UNL A   1      46.778  30.733  28.043  1.00  0.00     0.148 A 
ATOM     64  C   UNL A   1      44.526  31.753  26.714  1.00  0.00     0.002 A 
ATOM     65  C   UNL A   1      46.905  31.796  27.154  1.00  0.00     0.091 A 
ATOM     66  F   UNL A   1      47.840  30.225  28.688  1.00  0.00    -0.205 F 
ATOM     67  C   UNL A   1      45.784  32.301  26.479  1.00  0.00     0.022 A 
BRANCH  65  68
ATOM     68  S   UNL A   1      48.473  32.639  26.914  1.00  0.00     0.127 S 
ATOM     69  O   UNL A   1      48.762  33.137  28.257  1.00  0.00    -0.237 OA
ATOM     70  O   UNL A   1      49.349  31.555  26.464  1.00  0.00    -0.237 OA
ATOM     71  O   UNL A   1      48.225  33.659  25.902  1.00  0.00    -0.744 OA
ENDBRANCH  65  68
ENDBRANCH  38  61
ENDBRANCH  12  13
ENDBRANCH   5   7
ENDBRANCH   2   3
ENDBRANCH   1   2
BRANCH   1  72
ATOM     72  C   UNL A   1      32.241  29.401  25.897  1.00  0.00     0.023 C 
BRANCH  72  73
ATOM     73  C   UNL A   1      33.548  28.695  25.534  1.00  0.00     0.116 C 
BRANCH  73  74
ATOM     74  N   UNL A   1      33.516  28.152  24.186  1.00  0.00    -0.352 N 
ATOM     75  C   UNL A   1      33.494  26.846  23.789  1.00  0.00     0.252 C 
ATOM     76  H   UNL A   1      33.510  28.816  23.460  1.00  0.00     0.163 HD
ATOM     77  O   UNL A   1      33.693  26.576  22.595  1.00  0.00    -0.269 OA
BRANCH  75  78
ATOM     78  C   UNL A   1      33.213  25.808  24.764  1.00  0.00     0.058 A 
ATOM     79  C   UNL A   1      31.945  25.329  25.208  1.00  0.00     0.049 A 
ATOM     80  C   UNL A   1      34.163  25.011  25.378  1.00  0.00     0.101 A 
ATOM     81  C   UNL A   1      32.172  24.254  26.038  1.00  0.00     0.086 A 
ATOM     82  N   UNL A   1      33.527  24.107  26.200  1.00  0.00    -0.335 N 
ATOM     83  Br  UNL A   1      30.797  23.194  26.730  1.00  0.00    -0.031 Br
BRANCH  82  84
ATOM     84  C   UNL A   1      34.218  23.074  26.969  1.00  0.00     0.180 C 
BRANCH  84  85
ATOM     85  C   UNL A   1      34.611  21.899  26.131  1.00  0.00     0.082 A 
ATOM     86  C   UNL A   1      35.899  21.557  25.651  1.00  0.00     0.047 A 
ATOM     87  N   UNL A   1      33.714  20.949  25.810  1.00  0.00    -0.176 NA
ATOM     88  C   UNL A   1      35.741  20.365  24.990  1.00  0.00     0.109 A 
ATOM     89  N   UNL A   1      34.419  20.043  25.102  1.00  0.00    -0.269 N 
BRANCH  89  90
ATOM     90  C   UNL A   1      33.799  18.845  24.582  1.00  0.00     0.107 C 
ATOM     91  C   UNL A   1      34.774  17.722  24.238  1.00  0.00     0.027 C 
ATOM     92  C   UNL A   1      32.816  18.169  25.535  1.00  0.00     0.027 C 
ATOM     93  C   UNL A   1      33.862  16.516  24.056  1.00  0.00     0.002 C 
ATOM     94  C   UNL A   1      32.680  16.742  25.001  1.00  0.00     0.002 C 
ENDBRANCH  89  90
ENDBRANCH  84  85
ENDBRANCH  82  84
ENDBRANCH  75  78
ENDBRANCH  73  74
ENDBRANCH  72  73
ENDBRANCH   1  72
TORSDOF 17
ENDMDL
MODEL 2
REMARK VINA RESULT:     -12.1      1.576      2.370
REMARK SMILES O=C(NCCCCNC(=O)c1cc(Br)n(Cc2ccn(C3CCCC3)n2)c1)c1ccc(-c2c3nc(c(-c4cccc(S(=O)(=O)[O-])c4F)c4ccc([nH]4)c(-c4cccc(S(=O)(=O)[O-])c4F)c4nc(c(-c5cccc(S(=O)(=O)[O-])c5F)c5ccc2[nH]5)C=C4)C=C3)cc1
REMARK SMILES IDX 5 1 4 2 3 3 1 4 2 5 28 7 29 8 90 9 30 10 89 11 31 12 32 13
REMARK SMILES IDX 33 14 83 15 34 16 88 17 82 18 84 19 35 20 87 21 81 22 80 23
REMARK SMILES IDX 36 25 68 26 48 27 67 28 49 29 52 30 66 31 85 32 50 33 51 34
REMARK SMILES IDX 65 36 86 37 53 38 37 39 38 40 46 41 39 42 41 43 47 44 40 45
REMARK SMILES IDX 42 46 43 47 44 48 45 49 69 50 70 51 78 52 71 53 73 54 79 55
REMARK SMILES IDX 72 56 74 57 75 58 76 59 77 60 54 61 55 62 63 63 56 64 58 65
REMARK SMILES IDX 64 66 57 67 59 68 60 69 61 70 62 71 6 72 7 73 8 74 9 75
REMARK SMILES IDX 10 77 11 78 12 79 27 80 13 81 15 82 14 83 16 84 17 85 18 86
REMARK SMILES IDX 26 87 19 88 20 89 21 90 22 91 25 92 23 93 24 94
REMARK H PARENT 3 6 84 24 52 35 8 76
REMARK Flexibility Score: inf
ROOT
ATOM      1  C   UNL A   1      34.130  30.421  27.343  1.00  0.00     0.023 C 
ENDROOT
BRANCH   1   2
ATOM      2  C   UNL A   1      34.210  31.903  27.706  1.00  0.00     0.116 C 
BRANCH   2   3
ATOM      3  N   UNL A   1      34.145  32.161  29.129  1.00  0.00    -0.352 N 
ATOM      4  O   UNL A   1      34.599  32.431  31.266  1.00  0.00    -0.269 OA
ATOM      5  C   UNL A   1      35.007  32.003  30.181  1.00  0.00     0.251 C 
ATOM      6  H   UNL A   1      33.279  32.540  29.404  1.00  0.00     0.163 HD
BRANCH   5   7
ATOM      7  C   UNL A   1      36.341  31.341  30.120  1.00  0.00     0.039 A 
ATOM      8  C   UNL A   1      37.569  31.990  29.981  1.00  0.00     0.014 A 
ATOM      9  C   UNL A   1      36.340  29.935  30.211  1.00  0.00     0.014 A 
ATOM     10  C   UNL A   1      38.752  31.259  29.883  1.00  0.00     0.010 A 
ATOM     11  C   UNL A   1      37.521  29.199  30.128  1.00  0.00     0.010 A 
ATOM     12  C   UNL A   1      38.730  29.864  29.938  1.00  0.00    -0.014 A 
BRANCH  12  13
ATOM     13  C   UNL A   1      40.010  29.160  29.889  1.00  0.00     0.031 A 
ATOM     14  C   UNL A   1      40.692  28.937  31.199  1.00  0.00     0.074 A 
ATOM     15  C   UNL A   1      40.522  28.604  28.774  1.00  0.00     0.049 A 
ATOM     16  N   UNL A   1      41.865  29.340  31.577  1.00  0.00    -0.248 NA
ATOM     17  C   UNL A   1      39.943  28.214  32.236  1.00  0.00     0.031 C 
ATOM     18  C   UNL A   1      39.862  28.413  27.479  1.00  0.00     0.029 A 
ATOM     19  N   UNL A   1      41.717  27.962  28.615  1.00  0.00    -0.354 N 
ATOM     20  C   UNL A   1      42.080  28.770  32.833  1.00  0.00     0.074 A 
ATOM     21  C   UNL A   1      40.825  28.184  33.236  1.00  0.00     0.031 C 
ATOM     22  C   UNL A   1      40.557  27.503  26.762  1.00  0.00     0.029 A 
ATOM     23  C   UNL A   1      41.771  27.163  27.482  1.00  0.00     0.049 A 
ATOM     24  H   UNL A   1      42.467  28.058  29.245  1.00  0.00     0.167 HD
ATOM     25  C   UNL A   1      43.314  28.669  33.399  1.00  0.00     0.034 A 
ATOM     26  C   UNL A   1      42.711  26.231  27.196  1.00  0.00     0.034 A 
ATOM     27  C   UNL A   1      44.284  29.514  32.761  1.00  0.00     0.049 A 
ATOM     28  C   UNL A   1      43.909  26.520  28.014  1.00  0.00     0.074 A 
ATOM     29  C   UNL A   1      44.429  30.871  32.564  1.00  0.00     0.029 A 
ATOM     30  N   UNL A   1      45.193  28.916  31.926  1.00  0.00    -0.354 N 
ATOM     31  N   UNL A   1      44.678  27.558  27.843  1.00  0.00    -0.248 NA
ATOM     32  C   UNL A   1      44.079  25.814  29.271  1.00  0.00     0.031 C 
ATOM     33  C   UNL A   1      45.061  30.994  31.293  1.00  0.00     0.029 A 
ATOM     34  C   UNL A   1      45.276  29.702  30.807  1.00  0.00     0.049 A 
ATOM     35  H   UNL A   1      45.690  28.084  32.097  1.00  0.00     0.167 HD
ATOM     36  C   UNL A   1      45.107  27.887  29.121  1.00  0.00     0.074 A 
ATOM     37  C   UNL A   1      44.821  26.706  29.930  1.00  0.00     0.031 C 
ATOM     38  C   UNL A   1      45.388  29.180  29.462  1.00  0.00     0.034 A 
BRANCH  25  39
ATOM     39  C   UNL A   1      43.734  27.600  34.380  1.00  0.00     0.023 A 
ATOM     40  C   UNL A   1      44.306  28.009  35.606  1.00  0.00     0.012 A 
ATOM     41  C   UNL A   1      43.823  26.228  34.056  1.00  0.00     0.148 A 
ATOM     42  C   UNL A   1      44.951  27.102  36.455  1.00  0.00     0.002 A 
ATOM     43  C   UNL A   1      44.393  25.318  34.942  1.00  0.00     0.091 A 
ATOM     44  F   UNL A   1      43.475  25.810  32.834  1.00  0.00    -0.205 F 
ATOM     45  C   UNL A   1      44.982  25.753  36.130  1.00  0.00     0.022 A 
BRANCH  43  46
ATOM     46  S   UNL A   1      44.387  23.555  34.597  1.00  0.00     0.127 S 
ATOM     47  O   UNL A   1      42.961  23.290  34.439  1.00  0.00    -0.237 OA
ATOM     48  O   UNL A   1      45.171  23.484  33.363  1.00  0.00    -0.237 OA
ATOM     49  O   UNL A   1      45.039  22.944  35.748  1.00  0.00    -0.744 OA
ENDBRANCH  43  46
ENDBRANCH  25  39
BRANCH  26  50
ATOM     50  C   UNL A   1      42.576  24.972  26.433  1.00  0.00     0.023 A 
ATOM     51  C   UNL A   1      43.517  24.653  25.435  1.00  0.00     0.012 A 
ATOM     52  C   UNL A   1      41.685  23.963  26.862  1.00  0.00     0.148 A 
ATOM     53  C   UNL A   1      43.585  23.362  24.900  1.00  0.00     0.002 A 
ATOM     54  C   UNL A   1      41.752  22.684  26.321  1.00  0.00     0.091 A 
ATOM     55  F   UNL A   1      40.838  24.235  27.865  1.00  0.00    -0.205 F 
ATOM     56  C   UNL A   1      42.709  22.377  25.347  1.00  0.00     0.022 A 
BRANCH  54  57
ATOM     57  S   UNL A   1      40.665  21.358  26.863  1.00  0.00     0.127 S 
ATOM     58  O   UNL A   1      40.939  21.311  28.299  1.00  0.00    -0.237 OA
ATOM     59  O   UNL A   1      39.350  21.883  26.507  1.00  0.00    -0.237 OA
ATOM     60  O   UNL A   1      41.093  20.171  26.134  1.00  0.00    -0.744 OA
ENDBRANCH  54  57
ENDBRANCH  26  50
BRANCH  38  61
ATOM     61  C   UNL A   1      45.487  30.204  28.355  1.00  0.00     0.023 A 
ATOM     62  C   UNL A   1      44.336  30.749  27.746  1.00  0.00     0.012 A 
ATOM     63  C   UNL A   1      46.740  30.763  28.051  1.00  0.00     0.148 A 
ATOM     64  C   UNL A   1      44.434  31.799  26.831  1.00  0.00     0.002 A 
ATOM     65  C   UNL A   1      46.829  31.843  27.177  1.00  0.00     0.091 A 
ATOM     66  F   UNL A   1      47.829  30.248  28.643  1.00  0.00    -0.205 F 
ATOM     67  C   UNL A   1      45.680  32.356  26.557  1.00  0.00     0.022 A 
BRANCH  65  68
ATOM     68  S   UNL A   1      48.383  32.696  26.890  1.00  0.00     0.127 S 
ATOM     69  O   UNL A   1      48.007  33.687  25.885  1.00  0.00    -0.237 OA
ATOM     70  O   UNL A   1      48.688  33.251  28.211  1.00  0.00    -0.237 OA
ATOM     71  O   UNL A   1      49.323  31.673  26.447  1.00  0.00    -0.744 OA
ENDBRANCH  65  68
ENDBRANCH  38  61
ENDBRANCH  12  13
ENDBRANCH   5   7
ENDBRANCH   2   3
ENDBRANCH   1   2
BRANCH   1  72
ATOM     72  C   UNL A   1      32.729  29.921  26.957  1.00  0.00     0.023 C 
BRANCH  72  73
ATOM     73  C   UNL A   1      32.498  29.676  25.466  1.00  0.00     0.116 C 
BRANCH  73  74
ATOM     74  N   UNL A   1      31.212  30.191  25.024  1.00  0.00    -0.352 N 
ATOM     75  C   UNL A   1      30.394  29.720  24.038  1.00  0.00     0.252 C 
ATOM     76  H   UNL A   1      30.887  30.988  25.500  1.00  0.00     0.163 HD
ATOM     77  O   UNL A   1      29.445  30.421  23.657  1.00  0.00    -0.269 OA
BRANCH  75  78
ATOM     78  C   UNL A   1      30.636  28.403  23.477  1.00  0.00     0.058 A 
ATOM     79  C   UNL A   1      31.436  28.053  22.349  1.00  0.00     0.049 A 
ATOM     80  C   UNL A   1      30.195  27.210  24.022  1.00  0.00     0.101 A 
ATOM     81  C   UNL A   1      31.474  26.678  22.274  1.00  0.00     0.086 A 
ATOM     82  N   UNL A   1      30.657  26.166  23.250  1.00  0.00    -0.335 N 
ATOM     83  Br  UNL A   1      32.541  25.755  21.049  1.00  0.00    -0.031 Br
BRANCH  82  84
ATOM     84  C   UNL A   1      30.424  24.757  23.558  1.00  0.00     0.180 C 
BRANCH  84  85
ATOM     85  C   UNL A   1      31.568  24.132  24.292  1.00  0.00     0.082 A 
ATOM     86  C   UNL A   1      31.792  24.087  25.690  1.00  0.00     0.047 A 
ATOM     87  N   UNL A   1      32.510  23.432  23.635  1.00  0.00    -0.176 NA
ATOM     88  C   UNL A   1      32.938  23.351  25.856  1.00  0.00     0.109 A 
ATOM     89  N   UNL A   1      33.338  22.988  24.603  1.00  0.00    -0.269 N 
BRANCH  89  90
ATOM     90  C   UNL A   1      34.489  22.169  24.292  1.00  0.00     0.107 C 
ATOM     91  C   UNL A   1      35.774  22.951  24.031  1.00  0.00     0.027 C 
ATOM     92  C   UNL A   1      34.896  21.193  25.394  1.00  0.00     0.027 C 
ATOM     93  C   UNL A   1      36.849  21.873  24.077  1.00  0.00     0.002 C 
ATOM     94  C   UNL A   1      36.342  20.821  25.065  1.00  0.00     0.002 C 
ENDBRANCH  89  90
ENDBRANCH  84  85
ENDBRANCH  82  84
ENDBRANCH  75  78
ENDBRANCH  73  74
ENDBRANCH  72  73
ENDBRANCH   1  72
TORSDOF 17
ENDMDL
MODEL 3
REMARK VINA RESULT:     -12.0      1.303      1.646
REMARK SMILES O=C(NCCCCNC(=O)c1cc(Br)n(Cc2ccn(C3CCCC3)n2)c1)c1ccc(-c2c3nc(c(-c4cccc(S(=O)(=O)[O-])c4F)c4ccc([nH]4)c(-c4cccc(S(=O)(=O)[O-])c4F)c4nc(c(-c5cccc(S(=O)(=O)[O-])c5F)c5ccc2[nH]5)C=C4)C=C3)cc1
REMARK SMILES IDX 5 1 4 2 3 3 1 4 2 5 28 7 29 8 90 9 30 10 89 11 31 12 32 13
REMARK SMILES IDX 33 14 83 15 34 16 88 17 82 18 84 19 35 20 87 21 81 22 80 23
REMARK SMILES IDX 36 25 68 26 48 27 67 28 49 29 52 30 66 31 85 32 50 33 51 34
REMARK SMILES IDX 65 36 86 37 53 38 37 39 38 40 46 41 39 42 41 43 47 44 40 45
REMARK SMILES IDX 42 46 43 47 44 48 45 49 69 50 70 51 78 52 71 53 73 54 79 55
REMARK SMILES IDX 72 56 74 57 75 58 76 59 77 60 54 61 55 62 63 63 56 64 58 65
REMARK SMILES IDX 64 66 57 67 59 68 60 69 61 70 62 71 6 72 7 73 8 74 9 75
REMARK SMILES IDX 10 77 11 78 12 79 27 80 13 81 15 82 14 83 16 84 17 85 18 86
REMARK SMILES IDX 26 87 19 88 20 89 21 90 22 91 25 92 23 93 24 94
REMARK H PARENT 3 6 84 24 52 35 8 76
REMARK Flexibility Score: inf
ROOT
ATOM      1  C   UNL A   1      32.757  30.414  26.649  1.00  0.00     0.023 C 
ENDROOT
BRANCH   1   2
ATOM      2  C   UNL A   1      34.190  30.506  27.171  1.00  0.00     0.116 C 
BRANCH   2   3
ATOM      3  N   UNL A   1      34.508  31.778  27.787  1.00  0.00    -0.352 N 
ATOM      4  O   UNL A   1      35.517  33.501  28.712  1.00  0.00    -0.269 OA
ATOM      5  C   UNL A   1      35.623  32.319  28.366  1.00  0.00     0.251 C 
ATOM      6  H   UNL A   1      33.743  32.396  27.789  1.00  0.00     0.163 HD
BRANCH   5   7
ATOM      7  C   UNL A   1      36.901  31.600  28.633  1.00  0.00     0.039 A 
ATOM      8  C   UNL A   1      38.018  32.132  29.281  1.00  0.00     0.014 A 
ATOM      9  C   UNL A   1      36.968  30.267  28.182  1.00  0.00     0.014 A 
ATOM     10  C   UNL A   1      39.181  31.378  29.427  1.00  0.00     0.010 A 
ATOM     11  C   UNL A   1      38.124  29.503  28.339  1.00  0.00     0.010 A 
ATOM     12  C   UNL A   1      39.243  30.070  28.942  1.00  0.00    -0.014 A 
BRANCH  12  13
ATOM     13  C   UNL A   1      40.471  29.312  29.180  1.00  0.00     0.031 A 
ATOM     14  C   UNL A   1      40.788  28.999  30.605  1.00  0.00     0.074 A 
ATOM     15  C   UNL A   1      41.233  28.787  28.201  1.00  0.00     0.049 A 
ATOM     16  N   UNL A   1      41.837  29.331  31.291  1.00  0.00    -0.248 NA
ATOM     17  C   UNL A   1      39.776  28.262  31.376  1.00  0.00     0.031 C 
ATOM     18  C   UNL A   1      40.921  28.687  26.773  1.00  0.00     0.029 A 
ATOM     19  N   UNL A   1      42.409  28.101  28.315  1.00  0.00    -0.354 N 
ATOM     20  C   UNL A   1      41.705  28.694  32.527  1.00  0.00     0.074 A 
ATOM     21  C   UNL A   1      40.372  28.146  32.563  1.00  0.00     0.031 C 
ATOM     22  C   UNL A   1      41.749  27.781  26.206  1.00  0.00     0.029 A 
ATOM     23  C   UNL A   1      42.727  27.354  27.191  1.00  0.00     0.049 A 
ATOM     24  H   UNL A   1      42.976  28.134  29.120  1.00  0.00     0.167 HD
ATOM     25  C   UNL A   1      42.750  28.512  33.380  1.00  0.00     0.034 A 
ATOM     26  C   UNL A   1      43.678  26.396  27.100  1.00  0.00     0.034 A 
ATOM     27  C   UNL A   1      43.876  29.342  33.059  1.00  0.00     0.049 A 
ATOM     28  C   UNL A   1      44.636  26.592  28.210  1.00  0.00     0.074 A 
ATOM     29  C   UNL A   1      44.108  30.699  32.982  1.00  0.00     0.029 A 
ATOM     30  N   UNL A   1      44.950  28.744  32.449  1.00  0.00    -0.354 N 
ATOM     31  N   UNL A   1      45.455  27.602  28.300  1.00  0.00    -0.248 NA
ATOM     32  C   UNL A   1      44.456  25.821  29.428  1.00  0.00     0.031 C 
ATOM     33  C   UNL A   1      45.049  30.853  31.922  1.00  0.00     0.029 A 
ATOM     34  C   UNL A   1      45.341  29.576  31.434  1.00  0.00     0.049 A 
ATOM     35  H   UNL A   1      45.361  27.884  32.694  1.00  0.00     0.167 HD
ATOM     36  C   UNL A   1      45.553  27.852  29.661  1.00  0.00     0.074 A 
ATOM     37  C   UNL A   1      45.033  26.648  30.303  1.00  0.00     0.031 C 
ATOM     38  C   UNL A   1      45.777  29.114  30.134  1.00  0.00     0.034 A 
BRANCH  25  39
ATOM     39  C   UNL A   1      42.871  27.381  34.373  1.00  0.00     0.023 A 
ATOM     40  C   UNL A   1      42.671  27.672  35.742  1.00  0.00     0.012 A 
ATOM     41  C   UNL A   1      43.411  26.114  34.060  1.00  0.00     0.148 A 
ATOM     42  C   UNL A   1      43.010  26.757  36.746  1.00  0.00     0.002 A 
ATOM     43  C   UNL A   1      43.670  25.178  35.056  1.00  0.00     0.091 A 
ATOM     44  F   UNL A   1      43.800  25.850  32.807  1.00  0.00    -0.205 F 
ATOM     45  C   UNL A   1      43.496  25.503  36.403  1.00  0.00     0.022 A 
BRANCH  43  46
ATOM     46  S   UNL A   1      44.227  23.518  34.653  1.00  0.00     0.127 S 
ATOM     47  O   UNL A   1      44.381  22.928  35.978  1.00  0.00    -0.237 OA
ATOM     48  O   UNL A   1      43.103  23.001  33.871  1.00  0.00    -0.237 OA
ATOM     49  O   UNL A   1      45.447  23.709  33.879  1.00  0.00    -0.744 OA
ENDBRANCH  43  46
ENDBRANCH  25  39
BRANCH  26  50
ATOM     50  C   UNL A   1      43.704  25.181  26.258  1.00  0.00     0.023 A 
ATOM     51  C   UNL A   1      44.742  24.998  25.323  1.00  0.00     0.012 A 
ATOM     52  C   UNL A   1      42.868  24.082  26.555  1.00  0.00     0.148 A 
ATOM     53  C   UNL A   1      44.955  23.752  24.722  1.00  0.00     0.002 A 
ATOM     54  C   UNL A   1      43.079  22.849  25.949  1.00  0.00     0.091 A 
ATOM     55  F   UNL A   1      41.928  24.225  27.500  1.00  0.00    -0.205 F 
ATOM     56  C   UNL A   1      44.130  22.677  25.040  1.00  0.00     0.022 A 
BRANCH  54  57
ATOM     57  S   UNL A   1      42.065  21.412  26.325  1.00  0.00     0.127 S 
ATOM     58  O   UNL A   1      42.670  20.385  25.476  1.00  0.00    -0.237 OA
ATOM     59  O   UNL A   1      42.303  21.243  27.755  1.00  0.00    -0.237 OA
ATOM     60  O   UNL A   1      40.706  21.775  25.945  1.00  0.00    -0.744 OA
ENDBRANCH  54  57
ENDBRANCH  26  50
BRANCH  38  61
ATOM     61  C   UNL A   1      46.188  30.183  29.149  1.00  0.00     0.023 A 
ATOM     62  C   UNL A   1      47.544  30.433  28.852  1.00  0.00     0.012 A 
ATOM     63  C   UNL A   1      45.200  30.818  28.376  1.00  0.00     0.148 A 
ATOM     64  C   UNL A   1      47.908  31.318  27.835  1.00  0.00     0.002 A 
ATOM     65  C   UNL A   1      45.566  31.660  27.331  1.00  0.00     0.091 A 
ATOM     66  F   UNL A   1      43.912  30.566  28.657  1.00  0.00    -0.205 F 
ATOM     67  C   UNL A   1      46.919  31.921  27.065  1.00  0.00     0.022 A 
BRANCH  65  68
ATOM     68  S   UNL A   1      44.346  32.357  26.212  1.00  0.00     0.127 S 
ATOM     69  O   UNL A   1      43.482  31.210  25.947  1.00  0.00    -0.237 OA
ATOM     70  O   UNL A   1      43.733  33.408  27.028  1.00  0.00    -0.237 OA
ATOM     71  O   UNL A   1      45.097  32.859  25.068  1.00  0.00    -0.744 OA
ENDBRANCH  65  68
ENDBRANCH  38  61
ENDBRANCH  12  13
ENDBRANCH   5   7
ENDBRANCH   2   3
ENDBRANCH   1   2
BRANCH   1  72
ATOM     72  C   UNL A   1      32.566  29.491  25.436  1.00  0.00     0.023 C 
BRANCH  72  73
ATOM     73  C   UNL A   1      33.762  28.609  25.076  1.00  0.00     0.116 C 
BRANCH  73  74
ATOM     74  N   UNL A   1      33.615  28.004  23.762  1.00  0.00    -0.352 N 
ATOM     75  C   UNL A   1      33.493  26.684  23.435  1.00  0.00     0.252 C 
ATOM     76  H   UNL A   1      33.603  28.632  23.004  1.00  0.00     0.163 HD
ATOM     77  O   UNL A   1      33.602  26.346  22.246  1.00  0.00    -0.269 OA
BRANCH  75  78
ATOM     78  C   UNL A   1      33.213  25.714  24.477  1.00  0.00     0.058 A 
ATOM     79  C   UNL A   1      31.946  25.282  24.970  1.00  0.00     0.049 A 
ATOM     80  C   UNL A   1      34.162  24.942  25.125  1.00  0.00     0.101 A 
ATOM     81  C   UNL A   1      32.172  24.258  25.862  1.00  0.00     0.086 A 
ATOM     82  N   UNL A   1      33.527  24.100  26.012  1.00  0.00    -0.335 N 
ATOM     83  Br  UNL A   1      30.793  23.264  26.639  1.00  0.00    -0.031 Br
BRANCH  82  84
ATOM     84  C   UNL A   1      34.215  23.107  26.832  1.00  0.00     0.180 C 
BRANCH  84  85
ATOM     85  C   UNL A   1      34.636  21.905  26.049  1.00  0.00     0.082 A 
ATOM     86  C   UNL A   1      35.947  21.519  25.672  1.00  0.00     0.047 A 
ATOM     87  N   UNL A   1      33.740  20.972  25.681  1.00  0.00    -0.176 NA
ATOM     88  C   UNL A   1      35.805  20.318  25.025  1.00  0.00     0.109 A 
ATOM     89  N   UNL A   1      34.470  20.033  25.044  1.00  0.00    -0.269 N 
BRANCH  89  90
ATOM     90  C   UNL A   1      33.857  18.840  24.504  1.00  0.00     0.107 C 
ATOM     91  C   UNL A   1      34.829  17.697  24.223  1.00  0.00     0.027 C 
ATOM     92  C   UNL A   1      32.813  18.192  25.409  1.00  0.00     0.027 C 
ATOM     93  C   UNL A   1      33.906  16.505  24.004  1.00  0.00     0.002 C 
ATOM     94  C   UNL A   1      32.680  16.762  24.882  1.00  0.00     0.002 C 
ENDBRANCH  89  90
ENDBRANCH  84  85
ENDBRANCH  82  84
ENDBRANCH  75  78
ENDBRANCH  73  74
ENDBRANCH  72  73
ENDBRANCH   1  72
TORSDOF 17
ENDMDL
