MODEL 1
REMARK VINA RESULT:     -10.8      0.000      0.000
REMARK SMILES Cc1ccc(N2C(=O)[NH+]=C(NCCCCNC(=O)c3ccc(-c4c5nc(c(-c6cccc(S(=O)(=O)[O-])c6F)c6ccc([nH]6)c(-c6cccc(S(=O)(=O)[O-])c6F)c6nc(c(-c7cccc(S(=O)(=O)[O-])c7F)c7ccc4[nH]7)C=C6)C=C5)cc3)/C(=C\c3ccccc3OCc3cccc(C(=O)[O-])c3)C2=O)cc1
REMARK SMILES IDX 13 1 12 2 11 3 6 4 7 5 101 6 8 7 9 8 82 9 102 10 10 11 83 13
REMARK SMILES IDX 5 15 1 16 2 17 3 18 104 19 4 20 103 21 84 22 85 23 89 24
REMARK SMILES IDX 86 25 88 26 87 27 90 28 91 29 92 30 93 31 100 32 94 33 96 34
REMARK SMILES IDX 95 35 97 36 98 37 99 38 14 39 15 40 16 41 17 42 18 44 19 45
REMARK SMILES IDX 20 46 81 47 21 48 80 49 22 50 23 51 24 52 74 53 25 54 79 55
REMARK SMILES IDX 73 56 75 57 26 58 78 59 72 60 71 61 27 63 59 64 39 65 58 66
REMARK SMILES IDX 40 67 43 68 57 69 76 70 41 71 42 72 56 74 77 75 44 76 28 77
REMARK SMILES IDX 29 78 37 79 30 80 32 81 38 82 31 83 33 84 34 85 35 86 36 87
REMARK SMILES IDX 60 88 61 89 69 90 62 91 64 92 70 93 63 94 65 95 66 96 67 97
REMARK SMILES IDX 68 98 45 99 46 100 54 101 47 102 49 103 55 104 48 105 50 106
REMARK SMILES IDX 51 107 52 108 53 109
REMARK H PARENT 9 12 11 14 16 43 75 62 43 73
REMARK Flexibility Score: inf
ROOT
ATOM      1  C   UNL A   1      37.804  28.842  28.948  1.00  0.00     0.039 C 
ENDROOT
BRANCH   1   2
ATOM      2  C   UNL A   1      38.686  27.978  28.045  1.00  0.00     0.194 C 
BRANCH   2   3
ATOM      3  N   UNL A   1      39.712  27.271  28.802  1.00  0.00    -0.305 N 
ATOM      4  N   UNL A   1      41.175  23.513  27.728  1.00  0.00    -0.155 N 
ATOM      5  C   UNL A   1      39.960  24.038  27.257  1.00  0.00     0.448 C 
ATOM      6  C   UNL A   1      41.966  24.198  28.643  1.00  0.00     0.328 C 
ATOM      7  O   UNL A   1      39.224  23.400  26.499  1.00  0.00    -0.212 OA
ATOM      8  N   UNL A   1      39.515  25.252  27.705  1.00  0.00    -0.209 N 
ATOM      9  C   UNL A   1      41.628  25.637  28.778  1.00  0.00     0.129 C 
ATOM     10  O   UNL A   1      42.953  23.751  29.231  1.00  0.00    -0.249 OA
ATOM     11  C   UNL A   1      40.250  26.059  28.405  1.00  0.00     0.236 C 
ATOM     12  H   UNL A   1      38.594  25.524  27.487  1.00  0.00     0.270 HD
ATOM     13  C   UNL A   1      42.683  26.436  29.045  1.00  0.00     0.034 C 
ATOM     14  H   UNL A   1      40.039  27.676  29.638  1.00  0.00     0.256 HD
BRANCH   4  15
ATOM     15  C   UNL A   1      41.614  22.219  27.259  1.00  0.00     0.111 A 
ATOM     16  C   UNL A   1      42.987  18.344  25.874  1.00  0.00     0.044 C 
ATOM     17  C   UNL A   1      42.510  19.680  26.357  1.00  0.00    -0.051 A 
ATOM     18  C   UNL A   1      43.029  20.854  25.806  1.00  0.00     0.007 A 
ATOM     19  C   UNL A   1      41.559  19.778  27.373  1.00  0.00     0.007 A 
ATOM     20  C   UNL A   1      42.580  22.104  26.246  1.00  0.00     0.044 A 
ATOM     21  C   UNL A   1      41.121  21.031  27.819  1.00  0.00     0.044 A 
ENDBRANCH   4  15
BRANCH  13  22
ATOM     22  C   UNL A   1      42.790  27.890  28.895  1.00  0.00     0.018 A 
ATOM     23  C   UNL A   1      42.984  28.400  27.602  1.00  0.00     0.012 A 
ATOM     24  C   UNL A   1      42.629  28.787  29.963  1.00  0.00     0.127 A 
ATOM     25  C   UNL A   1      43.092  29.773  27.390  1.00  0.00     0.001 A 
ATOM     26  C   UNL A   1      42.776  30.155  29.755  1.00  0.00     0.047 A 
ATOM     27  C   UNL A   1      42.996  30.646  28.467  1.00  0.00     0.004 A 
BRANCH  24  28
ATOM     28  O   UNL A   1      42.460  28.385  31.263  1.00  0.00    -0.488 OA
BRANCH  28  29
ATOM     29  C   UNL A   1      41.112  28.501  31.725  1.00  0.00     0.265 C 
BRANCH  29  30
ATOM     30  C   UNL A   1      41.070  29.445  32.906  1.00  0.00    -0.010 A 
ATOM     31  C   UNL A   1      42.251  29.989  33.436  1.00  0.00     0.007 A 
ATOM     32  C   UNL A   1      39.856  29.707  33.557  1.00  0.00     0.017 A 
ATOM     33  C   UNL A   1      42.221  30.768  34.596  1.00  0.00     0.001 A 
ATOM     34  C   UNL A   1      39.828  30.465  34.735  1.00  0.00    -0.002 A 
ATOM     35  C   UNL A   1      41.013  30.994  35.254  1.00  0.00     0.010 A 
BRANCH  34  36
ATOM     36  C   UNL A   1      38.577  30.637  35.492  1.00  0.00     0.071 C 
ATOM     37  O   UNL A   1      38.395  30.297  36.663  1.00  0.00    -0.545 OA
ATOM     38  O   UNL A   1      37.615  31.200  34.760  1.00  0.00    -0.545 OA
ENDBRANCH  34  36
ENDBRANCH  29  30
ENDBRANCH  28  29
ENDBRANCH  24  28
ENDBRANCH  13  22
ENDBRANCH   2   3
ENDBRANCH   1   2
BRANCH   1  39
ATOM     39  C   UNL A   1      36.474  29.308  28.354  1.00  0.00     0.024 C 
BRANCH  39  40
ATOM     40  C   UNL A   1      36.577  30.542  27.456  1.00  0.00     0.116 C 
BRANCH  40  41
ATOM     41  N   UNL A   1      35.761  31.654  27.946  1.00  0.00    -0.352 N 
ATOM     42  C   UNL A   1      36.006  32.600  28.925  1.00  0.00     0.251 C 
ATOM     43  H   UNL A   1      34.887  31.743  27.502  1.00  0.00     0.163 HD
ATOM     44  O   UNL A   1      35.117  33.386  29.237  1.00  0.00    -0.269 OA
BRANCH  42  45
ATOM     45  C   UNL A   1      37.359  32.711  29.510  1.00  0.00     0.039 A 
ATOM     46  C   UNL A   1      37.800  31.732  30.409  1.00  0.00     0.014 A 
ATOM     47  C   UNL A   1      38.106  33.863  29.322  1.00  0.00     0.014 A 
ATOM     48  C   UNL A   1      38.821  32.033  31.312  1.00  0.00     0.010 A 
ATOM     49  C   UNL A   1      39.062  34.186  30.256  1.00  0.00     0.010 A 
ATOM     50  C   UNL A   1      39.359  33.313  31.297  1.00  0.00    -0.014 A 
BRANCH  50  51
ATOM     51  C   UNL A   1      40.279  33.862  32.277  1.00  0.00     0.031 A 
ATOM     52  C   UNL A   1      39.738  34.494  33.491  1.00  0.00     0.074 A 
ATOM     53  C   UNL A   1      41.598  33.592  32.158  1.00  0.00     0.049 A 
ATOM     54  N   UNL A   1      40.390  35.312  34.239  1.00  0.00    -0.248 NA
ATOM     55  C   UNL A   1      38.388  34.216  33.964  1.00  0.00     0.031 C 
ATOM     56  C   UNL A   1      42.645  33.789  33.152  1.00  0.00     0.029 A 
ATOM     57  N   UNL A   1      42.306  33.265  31.000  1.00  0.00    -0.354 N 
ATOM     58  C   UNL A   1      39.689  35.430  35.419  1.00  0.00     0.074 A 
ATOM     59  C   UNL A   1      38.416  34.791  35.169  1.00  0.00     0.031 C 
ATOM     60  C   UNL A   1      43.821  33.922  32.515  1.00  0.00     0.029 A 
ATOM     61  C   UNL A   1      43.521  33.962  31.091  1.00  0.00     0.049 A 
ATOM     62  H   UNL A   1      42.013  32.670  30.272  1.00  0.00     0.167 HD
ATOM     63  C   UNL A   1      40.333  35.896  36.528  1.00  0.00     0.034 A 
ATOM     64  C   UNL A   1      43.897  34.948  30.218  1.00  0.00     0.034 A 
ATOM     65  C   UNL A   1      41.719  36.277  36.201  1.00  0.00     0.049 A 
ATOM     66  C   UNL A   1      44.130  36.261  30.944  1.00  0.00     0.074 A 
ATOM     67  C   UNL A   1      42.927  35.609  36.335  1.00  0.00     0.029 A 
ATOM     68  N   UNL A   1      41.959  37.340  35.331  1.00  0.00    -0.354 N 
ATOM     69  N   UNL A   1      43.728  36.468  32.167  1.00  0.00    -0.248 NA
ATOM     70  C   UNL A   1      44.829  37.419  30.393  1.00  0.00     0.031 C 
ATOM     71  C   UNL A   1      43.858  36.201  35.437  1.00  0.00     0.029 A 
ATOM     72  C   UNL A   1      43.233  37.251  34.785  1.00  0.00     0.049 A 
ATOM     73  H   UNL A   1      41.314  38.057  35.131  1.00  0.00     0.167 HD
ATOM     74  C   UNL A   1      44.059  37.726  32.568  1.00  0.00     0.074 A 
ATOM     75  C   UNL A   1      44.773  38.279  31.427  1.00  0.00     0.031 C 
ATOM     76  C   UNL A   1      43.699  38.217  33.793  1.00  0.00     0.034 A 
BRANCH  63  77
ATOM     77  C   UNL A   1      39.827  35.651  37.943  1.00  0.00     0.023 A 
ATOM     78  C   UNL A   1      39.507  36.777  38.733  1.00  0.00     0.012 A 
ATOM     79  C   UNL A   1      39.705  34.394  38.581  1.00  0.00     0.148 A 
ATOM     80  C   UNL A   1      39.196  36.681  40.095  1.00  0.00     0.002 A 
ATOM     81  C   UNL A   1      39.472  34.300  39.959  1.00  0.00     0.091 A 
ATOM     82  F   UNL A   1      39.731  33.276  37.847  1.00  0.00    -0.205 F 
ATOM     83  C   UNL A   1      39.219  35.444  40.721  1.00  0.00     0.022 A 
BRANCH  81  84
ATOM     84  S   UNL A   1      39.589  32.740  40.858  1.00  0.00     0.127 S 
ATOM     85  O   UNL A   1      39.402  33.166  42.247  1.00  0.00    -0.237 OA
ATOM     86  O   UNL A   1      38.477  31.974  40.302  1.00  0.00    -0.237 OA
ATOM     87  O   UNL A   1      40.922  32.222  40.575  1.00  0.00    -0.744 OA
ENDBRANCH  81  84
ENDBRANCH  63  77
BRANCH  64  88
ATOM     88  C   UNL A   1      43.317  34.769  28.849  1.00  0.00     0.023 A 
ATOM     89  C   UNL A   1      42.282  35.676  28.499  1.00  0.00     0.012 A 
ATOM     90  C   UNL A   1      44.029  34.134  27.819  1.00  0.00     0.148 A 
ATOM     91  C   UNL A   1      42.163  36.150  27.193  1.00  0.00     0.002 A 
ATOM     92  C   UNL A   1      43.858  34.573  26.504  1.00  0.00     0.091 A 
ATOM     93  F   UNL A   1      44.903  33.170  28.130  1.00  0.00    -0.205 F 
ATOM     94  C   UNL A   1      42.992  35.636  26.205  1.00  0.00     0.022 A 
BRANCH  92  95
ATOM     95  S   UNL A   1      44.808  33.835  25.168  1.00  0.00     0.127 S 
ATOM     96  O   UNL A   1      46.161  34.282  25.485  1.00  0.00    -0.237 OA
ATOM     97  O   UNL A   1      44.583  32.403  25.359  1.00  0.00    -0.237 OA
ATOM     98  O   UNL A   1      44.206  34.381  23.961  1.00  0.00    -0.744 OA
ENDBRANCH  92  95
ENDBRANCH  64  88
BRANCH  76  99
ATOM     99  C   UNL A   1      43.811  39.669  34.169  1.00  0.00     0.023 A 
ATOM    100  C   UNL A   1      42.942  40.635  33.625  1.00  0.00     0.012 A 
ATOM    101  C   UNL A   1      44.685  40.087  35.200  1.00  0.00     0.148 A 
ATOM    102  C   UNL A   1      42.994  41.973  34.021  1.00  0.00     0.002 A 
ATOM    103  C   UNL A   1      44.655  41.394  35.669  1.00  0.00     0.091 A 
ATOM    104  F   UNL A   1      45.564  39.217  35.719  1.00  0.00    -0.205 F 
ATOM    105  C   UNL A   1      43.838  42.349  35.057  1.00  0.00     0.022 A 
BRANCH 103 106
ATOM    106  S   UNL A   1      45.532  41.864  37.165  1.00  0.00     0.127 S 
ATOM    107  O   UNL A   1      46.922  41.861  36.713  1.00  0.00    -0.237 OA
ATOM    108  O   UNL A   1      44.984  43.192  37.445  1.00  0.00    -0.237 OA
ATOM    109  O   UNL A   1      45.178  40.854  38.154  1.00  0.00    -0.744 OA
ENDBRANCH 103 106
ENDBRANCH  76  99
ENDBRANCH  50  51
ENDBRANCH  42  45
ENDBRANCH  40  41
ENDBRANCH  39  40
ENDBRANCH   1  39
TORSDOF 19
ENDMDL
MODEL 2
REMARK VINA RESULT:     -10.4      3.096      6.130
REMARK SMILES Cc1ccc(N2C(=O)[NH+]=C(NCCCCNC(=O)c3ccc(-c4c5nc(c(-c6cccc(S(=O)(=O)[O-])c6F)c6ccc([nH]6)c(-c6cccc(S(=O)(=O)[O-])c6F)c6nc(c(-c7cccc(S(=O)(=O)[O-])c7F)c7ccc4[nH]7)C=C6)C=C5)cc3)/C(=C\c3ccccc3OCc3cccc(C(=O)[O-])c3)C2=O)cc1
REMARK SMILES IDX 13 1 12 2 11 3 6 4 7 5 101 6 8 7 9 8 82 9 102 10 10 11 83 13
REMARK SMILES IDX 5 15 1 16 2 17 3 18 104 19 4 20 103 21 84 22 85 23 89 24
REMARK SMILES IDX 86 25 88 26 87 27 90 28 91 29 92 30 93 31 100 32 94 33 96 34
REMARK SMILES IDX 95 35 97 36 98 37 99 38 14 39 15 40 16 41 17 42 18 44 19 45
REMARK SMILES IDX 20 46 81 47 21 48 80 49 22 50 23 51 24 52 74 53 25 54 79 55
REMARK SMILES IDX 73 56 75 57 26 58 78 59 72 60 71 61 27 63 59 64 39 65 58 66
REMARK SMILES IDX 40 67 43 68 57 69 76 70 41 71 42 72 56 74 77 75 44 76 28 77
REMARK SMILES IDX 29 78 37 79 30 80 32 81 38 82 31 83 33 84 34 85 35 86 36 87
REMARK SMILES IDX 60 88 61 89 69 90 62 91 64 92 70 93 63 94 65 95 66 96 67 97
REMARK SMILES IDX 68 98 45 99 46 100 54 101 47 102 49 103 55 104 48 105 50 106
REMARK SMILES IDX 51 107 52 108 53 109
REMARK H PARENT 9 12 11 14 16 43 75 62 43 73
REMARK Flexibility Score: inf
ROOT
ATOM      1  C   UNL A   1      41.482  28.311  27.043  1.00  0.00     0.039 C 
ENDROOT
BRANCH   1   2
ATOM      2  C   UNL A   1      42.924  27.967  27.419  1.00  0.00     0.194 C 
BRANCH   2   3
ATOM      3  N   UNL A   1      43.449  26.870  26.613  1.00  0.00    -0.305 N 
ATOM      4  N   UNL A   1      47.053  27.081  24.521  1.00  0.00    -0.155 N 
ATOM      5  C   UNL A   1      46.354  28.210  24.982  1.00  0.00     0.448 C 
ATOM      6  C   UNL A   1      46.560  25.793  24.687  1.00  0.00     0.328 C 
ATOM      7  O   UNL A   1      46.758  29.358  24.773  1.00  0.00    -0.212 OA
ATOM      8  N   UNL A   1      45.145  28.064  25.604  1.00  0.00    -0.209 N 
ATOM      9  C   UNL A   1      45.470  25.687  25.689  1.00  0.00     0.129 C 
ATOM     10  O   UNL A   1      47.016  24.767  24.178  1.00  0.00    -0.249 OA
ATOM     11  C   UNL A   1      44.679  26.913  25.981  1.00  0.00     0.236 C 
ATOM     12  H   UNL A   1      44.603  28.868  25.773  1.00  0.00     0.270 HD
ATOM     13  C   UNL A   1      45.449  24.520  26.369  1.00  0.00     0.034 C 
ATOM     14  H   UNL A   1      42.901  26.058  26.515  1.00  0.00     0.256 HD
BRANCH   4  15
ATOM     15  C   UNL A   1      48.318  27.262  23.845  1.00  0.00     0.111 A 
ATOM     16  C   UNL A   1      52.127  27.744  21.826  1.00  0.00     0.044 C 
ATOM     17  C   UNL A   1      50.808  27.577  22.518  1.00  0.00    -0.051 A 
ATOM     18  C   UNL A   1      50.762  27.304  23.888  1.00  0.00     0.007 A 
ATOM     19  C   UNL A   1      49.609  27.671  21.811  1.00  0.00     0.007 A 
ATOM     20  C   UNL A   1      49.533  27.159  24.542  1.00  0.00     0.044 A 
ATOM     21  C   UNL A   1      48.383  27.512  22.466  1.00  0.00     0.044 A 
ENDBRANCH   4  15
BRANCH  13  22
ATOM     22  C   UNL A   1      44.773  24.210  27.632  1.00  0.00     0.018 A 
ATOM     23  C   UNL A   1      45.402  24.603  28.823  1.00  0.00     0.012 A 
ATOM     24  C   UNL A   1      43.502  23.616  27.698  1.00  0.00     0.127 A 
ATOM     25  C   UNL A   1      44.811  24.340  30.057  1.00  0.00     0.001 A 
ATOM     26  C   UNL A   1      42.932  23.320  28.931  1.00  0.00     0.047 A 
ATOM     27  C   UNL A   1      43.582  23.692  30.109  1.00  0.00     0.004 A 
BRANCH  24  28
ATOM     28  O   UNL A   1      42.820  23.176  26.593  1.00  0.00    -0.488 OA
BRANCH  28  29
ATOM     29  C   UNL A   1      41.986  22.044  26.851  1.00  0.00     0.265 C 
BRANCH  29  30
ATOM     30  C   UNL A   1      42.624  20.809  26.253  1.00  0.00    -0.010 A 
ATOM     31  C   UNL A   1      42.073  19.536  26.471  1.00  0.00     0.007 A 
ATOM     32  C   UNL A   1      43.839  20.908  25.561  1.00  0.00     0.017 A 
ATOM     33  C   UNL A   1      42.726  18.387  26.016  1.00  0.00     0.001 A 
ATOM     34  C   UNL A   1      44.508  19.755  25.128  1.00  0.00    -0.002 A 
ATOM     35  C   UNL A   1      43.950  18.495  25.358  1.00  0.00     0.010 A 
BRANCH  34  36
ATOM     36  C   UNL A   1      45.844  19.844  24.514  1.00  0.00     0.071 C 
ATOM     37  O   UNL A   1      46.627  20.789  24.633  1.00  0.00    -0.545 OA
ATOM     38  O   UNL A   1      46.132  18.774  23.773  1.00  0.00    -0.545 OA
ENDBRANCH  34  36
ENDBRANCH  29  30
ENDBRANCH  28  29
ENDBRANCH  24  28
ENDBRANCH  13  22
ENDBRANCH   2   3
ENDBRANCH   1   2
BRANCH   1  39
ATOM     39  C   UNL A   1      40.911  29.596  27.647  1.00  0.00     0.024 C 
BRANCH  39  40
ATOM     40  C   UNL A   1      39.729  29.381  28.593  1.00  0.00     0.116 C 
BRANCH  40  41
ATOM     41  N   UNL A   1      38.453  29.752  27.981  1.00  0.00    -0.352 N 
ATOM     42  C   UNL A   1      37.477  30.647  28.382  1.00  0.00     0.251 C 
ATOM     43  H   UNL A   1      38.255  29.283  27.138  1.00  0.00     0.163 HD
ATOM     44  O   UNL A   1      36.428  30.716  27.749  1.00  0.00    -0.269 OA
BRANCH  42  45
ATOM     45  C   UNL A   1      37.750  31.569  29.506  1.00  0.00     0.039 A 
ATOM     46  C   UNL A   1      38.039  32.911  29.235  1.00  0.00     0.014 A 
ATOM     47  C   UNL A   1      37.905  31.074  30.790  1.00  0.00     0.014 A 
ATOM     48  C   UNL A   1      38.743  33.669  30.173  1.00  0.00     0.010 A 
ATOM     49  C   UNL A   1      38.660  31.794  31.685  1.00  0.00     0.010 A 
ATOM     50  C   UNL A   1      39.150  33.052  31.348  1.00  0.00    -0.014 A 
BRANCH  50  51
ATOM     51  C   UNL A   1      40.048  33.615  32.340  1.00  0.00     0.031 A 
ATOM     52  C   UNL A   1      39.480  34.282  33.522  1.00  0.00     0.074 A 
ATOM     53  C   UNL A   1      41.367  33.328  32.265  1.00  0.00     0.049 A 
ATOM     54  N   UNL A   1      40.121  35.112  34.268  1.00  0.00    -0.248 NA
ATOM     55  C   UNL A   1      38.114  34.031  33.963  1.00  0.00     0.031 C 
ATOM     56  C   UNL A   1      42.387  33.539  33.283  1.00  0.00     0.029 A 
ATOM     57  N   UNL A   1      42.103  32.965  31.135  1.00  0.00    -0.354 N 
ATOM     58  C   UNL A   1      39.388  35.266  35.425  1.00  0.00     0.074 A 
ATOM     59  C   UNL A   1      38.116  34.636  35.155  1.00  0.00     0.031 C 
ATOM     60  C   UNL A   1      43.582  33.642  32.677  1.00  0.00     0.029 A 
ATOM     61  C   UNL A   1      43.323  33.650  31.244  1.00  0.00     0.049 A 
ATOM     62  H   UNL A   1      41.824  32.356  30.414  1.00  0.00     0.167 HD
ATOM     63  C   UNL A   1      40.006  35.752  36.540  1.00  0.00     0.034 A 
ATOM     64  C   UNL A   1      43.735  34.611  30.358  1.00  0.00     0.034 A 
ATOM     65  C   UNL A   1      41.405  36.110  36.243  1.00  0.00     0.049 A 
ATOM     66  C   UNL A   1      43.963  35.939  31.059  1.00  0.00     0.074 A 
ATOM     67  C   UNL A   1      42.601  35.433  36.428  1.00  0.00     0.029 A 
ATOM     68  N   UNL A   1      41.681  37.149  35.354  1.00  0.00    -0.354 N 
ATOM     69  N   UNL A   1      43.528  36.180  32.264  1.00  0.00    -0.248 NA
ATOM     70  C   UNL A   1      44.690  37.075  30.500  1.00  0.00     0.031 C 
ATOM     71  C   UNL A   1      43.563  35.992  35.542  1.00  0.00     0.029 A 
ATOM     72  C   UNL A   1      42.969  37.033  34.847  1.00  0.00     0.049 A 
ATOM     73  H   UNL A   1      41.050  37.867  35.119  1.00  0.00     0.167 HD
ATOM     74  C   UNL A   1      43.862  37.445  32.644  1.00  0.00     0.074 A 
ATOM     75  C   UNL A   1      44.614  37.961  31.511  1.00  0.00     0.031 C 
ATOM     76  C   UNL A   1      43.475  37.968  33.846  1.00  0.00     0.034 A 
BRANCH  63  77
ATOM     77  C   UNL A   1      39.458  35.547  37.945  1.00  0.00     0.023 A 
ATOM     78  C   UNL A   1      39.324  36.684  38.773  1.00  0.00     0.012 A 
ATOM     79  C   UNL A   1      39.126  34.307  38.541  1.00  0.00     0.148 A 
ATOM     80  C   UNL A   1      38.993  36.596  40.130  1.00  0.00     0.002 A 
ATOM     81  C   UNL A   1      38.871  34.208  39.915  1.00  0.00     0.091 A 
ATOM     82  F   UNL A   1      38.971  33.226  37.770  1.00  0.00    -0.205 F 
ATOM     83  C   UNL A   1      38.807  35.352  40.714  1.00  0.00     0.022 A 
BRANCH  81  84
ATOM     84  S   UNL A   1      38.723  32.622  40.760  1.00  0.00     0.127 S 
ATOM     85  O   UNL A   1      40.123  32.218  40.914  1.00  0.00    -0.237 OA
ATOM     86  O   UNL A   1      38.057  32.991  42.006  1.00  0.00    -0.237 OA
ATOM     87  O   UNL A   1      37.959  31.765  39.860  1.00  0.00    -0.744 OA
ENDBRANCH  81  84
ENDBRANCH  63  77
BRANCH  64  88
ATOM     88  C   UNL A   1      43.192  34.405  28.978  1.00  0.00     0.023 A 
ATOM     89  C   UNL A   1      42.326  35.425  28.502  1.00  0.00     0.012 A 
ATOM     90  C   UNL A   1      43.837  33.582  28.042  1.00  0.00     0.148 A 
ATOM     91  C   UNL A   1      42.338  35.797  27.158  1.00  0.00     0.002 A 
ATOM     92  C   UNL A   1      43.792  33.926  26.689  1.00  0.00     0.091 A 
ATOM     93  F   UNL A   1      44.536  32.526  28.476  1.00  0.00    -0.205 F 
ATOM     94  C   UNL A   1      43.117  35.079  26.260  1.00  0.00     0.022 A 
BRANCH  92  95
ATOM     95  S   UNL A   1      44.669  32.939  25.470  1.00  0.00     0.127 S 
ATOM     96  O   UNL A   1      44.163  31.599  25.753  1.00  0.00    -0.237 OA
ATOM     97  O   UNL A   1      44.213  33.503  24.201  1.00  0.00    -0.237 OA
ATOM     98  O   UNL A   1      46.075  33.180  25.763  1.00  0.00    -0.744 OA
ENDBRANCH  92  95
ENDBRANCH  64  88
BRANCH  76  99
ATOM     99  C   UNL A   1      43.592  39.429  34.189  1.00  0.00     0.023 A 
ATOM    100  C   UNL A   1      42.786  40.396  33.559  1.00  0.00     0.012 A 
ATOM    101  C   UNL A   1      44.401  39.857  35.268  1.00  0.00     0.148 A 
ATOM    102  C   UNL A   1      42.841  41.744  33.922  1.00  0.00     0.002 A 
ATOM    103  C   UNL A   1      44.367  41.177  35.698  1.00  0.00     0.091 A 
ATOM    104  F   UNL A   1      45.221  38.984  35.872  1.00  0.00    -0.205 F 
ATOM    105  C   UNL A   1      43.617  42.132  35.005  1.00  0.00     0.022 A 
BRANCH 103 106
ATOM    106  S   UNL A   1      45.147  41.672  37.240  1.00  0.00     0.127 S 
ATOM    107  O   UNL A   1      46.380  40.888  37.219  1.00  0.00    -0.237 OA
ATOM    108  O   UNL A   1      45.335  43.111  37.048  1.00  0.00    -0.237 OA
ATOM    109  O   UNL A   1      44.190  41.331  38.284  1.00  0.00    -0.744 OA
ENDBRANCH 103 106
ENDBRANCH  76  99
ENDBRANCH  50  51
ENDBRANCH  42  45
ENDBRANCH  40  41
ENDBRANCH  39  40
ENDBRANCH   1  39
TORSDOF 19
ENDMDL
MODEL 3
REMARK VINA RESULT:     -10.3      2.738      5.798
REMARK SMILES Cc1ccc(N2C(=O)[NH+]=C(NCCCCNC(=O)c3ccc(-c4c5nc(c(-c6cccc(S(=O)(=O)[O-])c6F)c6ccc([nH]6)c(-c6cccc(S(=O)(=O)[O-])c6F)c6nc(c(-c7cccc(S(=O)(=O)[O-])c7F)c7ccc4[nH]7)C=C6)C=C5)cc3)/C(=C\c3ccccc3OCc3cccc(C(=O)[O-])c3)C2=O)cc1
REMARK SMILES IDX 13 1 12 2 11 3 6 4 7 5 101 6 8 7 9 8 82 9 102 10 10 11 83 13
REMARK SMILES IDX 5 15 1 16 2 17 3 18 104 19 4 20 103 21 84 22 85 23 89 24
REMARK SMILES IDX 86 25 88 26 87 27 90 28 91 29 92 30 93 31 100 32 94 33 96 34
REMARK SMILES IDX 95 35 97 36 98 37 99 38 14 39 15 40 16 41 17 42 18 44 19 45
REMARK SMILES IDX 20 46 81 47 21 48 80 49 22 50 23 51 24 52 74 53 25 54 79 55
REMARK SMILES IDX 73 56 75 57 26 58 78 59 72 60 71 61 27 63 59 64 39 65 58 66
REMARK SMILES IDX 40 67 43 68 57 69 76 70 41 71 42 72 56 74 77 75 44 76 28 77
REMARK SMILES IDX 29 78 37 79 30 80 32 81 38 82 31 83 33 84 34 85 35 86 36 87
REMARK SMILES IDX 60 88 61 89 69 90 62 91 64 92 70 93 63 94 65 95 66 96 67 97
REMARK SMILES IDX 68 98 45 99 46 100 54 101 47 102 49 103 55 104 48 105 50 106
REMARK SMILES IDX 51 107 52 108 53 109
REMARK H PARENT 9 12 11 14 16 43 75 62 43 73
REMARK Flexibility Score: inf
ROOT
ATOM      1  C   UNL A   1      42.340  29.227  27.430  1.00  0.00     0.039 C 
ENDROOT
BRANCH   1   2
ATOM      2  C   UNL A   1      43.250  28.921  26.238  1.00  0.00     0.194 C 
BRANCH   2   3
ATOM      3  N   UNL A   1      43.752  27.552  26.276  1.00  0.00    -0.305 N 
ATOM      4  N   UNL A   1      46.926  26.339  28.697  1.00  0.00    -0.155 N 
ATOM      5  C   UNL A   1      46.672  27.680  28.363  1.00  0.00     0.448 C 
ATOM      6  C   UNL A   1      46.156  25.297  28.195  1.00  0.00     0.328 C 
ATOM      7  O   UNL A   1      47.398  28.599  28.752  1.00  0.00    -0.212 OA
ATOM      8  N   UNL A   1      45.650  27.994  27.510  1.00  0.00    -0.209 N 
ATOM      9  C   UNL A   1      44.861  25.729  27.611  1.00  0.00     0.129 C 
ATOM     10  O   UNL A   1      46.401  24.094  28.300  1.00  0.00    -0.249 OA
ATOM     11  C   UNL A   1      44.755  27.134  27.133  1.00  0.00     0.236 C 
ATOM     12  H   UNL A   1      45.590  28.915  27.166  1.00  0.00     0.270 HD
ATOM     13  C   UNL A   1      43.857  24.838  27.761  1.00  0.00     0.034 C 
ATOM     14  H   UNL A   1      43.357  26.892  25.660  1.00  0.00     0.256 HD
BRANCH   4  15
ATOM     15  C   UNL A   1      48.027  26.028  29.581  1.00  0.00     0.111 A 
ATOM     16  C   UNL A   1      51.302  25.045  32.250  1.00  0.00     0.044 C 
ATOM     17  C   UNL A   1      50.174  25.383  31.323  1.00  0.00    -0.051 A 
ATOM     18  C   UNL A   1      48.902  25.655  31.833  1.00  0.00     0.007 A 
ATOM     19  C   UNL A   1      50.364  25.415  29.942  1.00  0.00     0.007 A 
ATOM     20  C   UNL A   1      47.847  25.982  30.973  1.00  0.00     0.044 A 
ATOM     21  C   UNL A   1      49.304  25.730  29.084  1.00  0.00     0.044 A 
ENDBRANCH   4  15
BRANCH  13  22
ATOM     22  C   UNL A   1      42.413  25.059  27.640  1.00  0.00     0.018 A 
ATOM     23  C   UNL A   1      41.752  25.661  28.721  1.00  0.00     0.012 A 
ATOM     24  C   UNL A   1      41.688  24.772  26.472  1.00  0.00     0.127 A 
ATOM     25  C   UNL A   1      40.381  25.901  28.668  1.00  0.00     0.001 A 
ATOM     26  C   UNL A   1      40.312  24.977  26.436  1.00  0.00     0.047 A 
ATOM     27  C   UNL A   1      39.662  25.551  27.531  1.00  0.00     0.004 A 
BRANCH  24  28
ATOM     28  O   UNL A   1      42.239  24.163  25.375  1.00  0.00    -0.488 OA
BRANCH  28  29
ATOM     29  C   UNL A   1      42.330  22.741  25.497  1.00  0.00     0.265 C 
BRANCH  29  30
ATOM     30  C   UNL A   1      43.750  22.306  25.208  1.00  0.00    -0.010 A 
ATOM     31  C   UNL A   1      44.664  23.185  24.606  1.00  0.00     0.007 A 
ATOM     32  C   UNL A   1      44.142  20.981  25.441  1.00  0.00     0.017 A 
ATOM     33  C   UNL A   1      45.938  22.746  24.235  1.00  0.00     0.001 A 
ATOM     34  C   UNL A   1      45.410  20.533  25.046  1.00  0.00    -0.002 A 
ATOM     35  C   UNL A   1      46.306  21.418  24.442  1.00  0.00     0.010 A 
BRANCH  34  36
ATOM     36  C   UNL A   1      45.782  19.113  25.171  1.00  0.00     0.071 C 
ATOM     37  O   UNL A   1      46.846  18.688  25.627  1.00  0.00    -0.545 OA
ATOM     38  O   UNL A   1      44.833  18.299  24.710  1.00  0.00    -0.545 OA
ENDBRANCH  34  36
ENDBRANCH  29  30
ENDBRANCH  28  29
ENDBRANCH  24  28
ENDBRANCH  13  22
ENDBRANCH   2   3
ENDBRANCH   1   2
BRANCH   1  39
ATOM     39  C   UNL A   1      40.844  28.986  27.222  1.00  0.00     0.024 C 
BRANCH  39  40
ATOM     40  C   UNL A   1      39.950  29.561  28.321  1.00  0.00     0.116 C 
BRANCH  40  41
ATOM     41  N   UNL A   1      38.575  29.772  27.864  1.00  0.00    -0.352 N 
ATOM     42  C   UNL A   1      37.554  30.549  28.381  1.00  0.00     0.251 C 
ATOM     43  H   UNL A   1      38.336  29.274  27.049  1.00  0.00     0.163 HD
ATOM     44  O   UNL A   1      36.437  30.488  27.876  1.00  0.00    -0.269 OA
BRANCH  42  45
ATOM     45  C   UNL A   1      37.846  31.510  29.467  1.00  0.00     0.039 A 
ATOM     46  C   UNL A   1      38.157  32.836  29.144  1.00  0.00     0.014 A 
ATOM     47  C   UNL A   1      37.998  31.062  30.769  1.00  0.00     0.014 A 
ATOM     48  C   UNL A   1      38.876  33.617  30.050  1.00  0.00     0.010 A 
ATOM     49  C   UNL A   1      38.767  31.804  31.634  1.00  0.00     0.010 A 
ATOM     50  C   UNL A   1      39.277  33.039  31.246  1.00  0.00    -0.014 A 
BRANCH  50  51
ATOM     51  C   UNL A   1      40.187  33.626  32.213  1.00  0.00     0.031 A 
ATOM     52  C   UNL A   1      39.636  34.283  33.408  1.00  0.00     0.074 A 
ATOM     53  C   UNL A   1      41.511  33.369  32.105  1.00  0.00     0.049 A 
ATOM     54  N   UNL A   1      40.277  35.129  34.136  1.00  0.00    -0.248 NA
ATOM     55  C   UNL A   1      38.288  34.002  33.886  1.00  0.00     0.031 C 
ATOM     56  C   UNL A   1      42.552  33.605  33.095  1.00  0.00     0.029 A 
ATOM     57  N   UNL A   1      42.225  33.019  30.956  1.00  0.00    -0.354 N 
ATOM     58  C   UNL A   1      39.571  35.270  35.311  1.00  0.00     0.074 A 
ATOM     59  C   UNL A   1      38.307  34.609  35.075  1.00  0.00     0.031 C 
ATOM     60  C   UNL A   1      43.728  33.734  32.457  1.00  0.00     0.029 A 
ATOM     61  C   UNL A   1      43.432  33.732  31.032  1.00  0.00     0.049 A 
ATOM     62  H   UNL A   1      41.941  32.402  30.244  1.00  0.00     0.167 HD
ATOM     63  C   UNL A   1      40.207  35.772  36.408  1.00  0.00     0.034 A 
ATOM     64  C   UNL A   1      43.798  34.699  30.133  1.00  0.00     0.034 A 
ATOM     65  C   UNL A   1      41.589  36.161  36.074  1.00  0.00     0.049 A 
ATOM     66  C   UNL A   1      44.014  36.034  30.825  1.00  0.00     0.074 A 
ATOM     67  C   UNL A   1      42.805  35.512  36.229  1.00  0.00     0.029 A 
ATOM     68  N   UNL A   1      41.818  37.204  35.176  1.00  0.00    -0.354 N 
ATOM     69  N   UNL A   1      43.605  36.269  32.041  1.00  0.00    -0.248 NA
ATOM     70  C   UNL A   1      44.700  37.185  30.245  1.00  0.00     0.031 C 
ATOM     71  C   UNL A   1      43.730  36.091  35.318  1.00  0.00     0.029 A 
ATOM     72  C   UNL A   1      43.094  37.116  34.636  1.00  0.00     0.049 A 
ATOM     73  H   UNL A   1      41.165  37.907  34.956  1.00  0.00     0.167 HD
ATOM     74  C   UNL A   1      43.921  37.542  32.409  1.00  0.00     0.074 A 
ATOM     75  C   UNL A   1      44.631  38.072  31.256  1.00  0.00     0.031 C 
ATOM     76  C   UNL A   1      43.552  38.060  33.620  1.00  0.00     0.034 A 
BRANCH  63  77
ATOM     77  C   UNL A   1      39.701  35.559  37.828  1.00  0.00     0.023 A 
ATOM     78  C   UNL A   1      39.390  36.703  38.597  1.00  0.00     0.012 A 
ATOM     79  C   UNL A   1      39.569  34.316  38.491  1.00  0.00     0.148 A 
ATOM     80  C   UNL A   1      39.080  36.636  39.960  1.00  0.00     0.002 A 
ATOM     81  C   UNL A   1      39.336  34.251  39.871  1.00  0.00     0.091 A 
ATOM     82  F   UNL A   1      39.585  33.184  37.779  1.00  0.00    -0.205 F 
ATOM     83  C   UNL A   1      39.094  35.412  40.610  1.00  0.00     0.022 A 
BRANCH  81  84
ATOM     84  S   UNL A   1      39.442  32.708  40.799  1.00  0.00     0.127 S 
ATOM     85  O   UNL A   1      40.760  32.200  40.412  1.00  0.00    -0.237 OA
ATOM     86  O   UNL A   1      39.350  33.168  42.183  1.00  0.00    -0.237 OA
ATOM     87  O   UNL A   1      38.333  31.887  40.327  1.00  0.00    -0.744 OA
ENDBRANCH  81  84
ENDBRANCH  63  77
BRANCH  64  88
ATOM     88  C   UNL A   1      43.224  34.477  28.769  1.00  0.00     0.023 A 
ATOM     89  C   UNL A   1      42.205  35.386  28.377  1.00  0.00     0.012 A 
ATOM     90  C   UNL A   1      43.931  33.792  27.769  1.00  0.00     0.148 A 
ATOM     91  C   UNL A   1      42.102  35.812  27.053  1.00  0.00     0.002 A 
ATOM     92  C   UNL A   1      43.775  34.181  26.436  1.00  0.00     0.091 A 
ATOM     93  F   UNL A   1      44.787  32.826  28.123  1.00  0.00    -0.205 F 
ATOM     94  C   UNL A   1      42.929  35.247  26.091  1.00  0.00     0.022 A 
BRANCH  92  95
ATOM     95  S   UNL A   1      44.721  33.377  25.137  1.00  0.00     0.127 S 
ATOM     96  O   UNL A   1      43.777  33.403  24.024  1.00  0.00    -0.237 OA
ATOM     97  O   UNL A   1      45.873  34.262  24.975  1.00  0.00    -0.237 OA
ATOM     98  O   UNL A   1      45.042  32.069  25.689  1.00  0.00    -0.744 OA
ENDBRANCH  92  95
ENDBRANCH  64  88
BRANCH  76  99
ATOM     99  C   UNL A   1      43.645  39.523  33.956  1.00  0.00     0.023 A 
ATOM    100  C   UNL A   1      42.730  40.456  33.431  1.00  0.00     0.012 A 
ATOM    101  C   UNL A   1      44.555  39.985  34.938  1.00  0.00     0.148 A 
ATOM    102  C   UNL A   1      42.768  41.804  33.794  1.00  0.00     0.002 A 
ATOM    103  C   UNL A   1      44.514  41.302  35.377  1.00  0.00     0.091 A 
ATOM    104  F   UNL A   1      45.477  39.148  35.436  1.00  0.00    -0.205 F 
ATOM    105  C   UNL A   1      43.648  42.223  34.781  1.00  0.00     0.022 A 
BRANCH 103 106
ATOM    106  S   UNL A   1      45.446  41.828  36.821  1.00  0.00     0.127 S 
ATOM    107  O   UNL A   1      46.823  41.739  36.340  1.00  0.00    -0.237 OA
ATOM    108  O   UNL A   1      44.959  43.192  37.028  1.00  0.00    -0.237 OA
ATOM    109  O   UNL A   1      45.076  40.897  37.879  1.00  0.00    -0.744 OA
ENDBRANCH 103 106
ENDBRANCH  76  99
ENDBRANCH  50  51
ENDBRANCH  42  45
ENDBRANCH  40  41
ENDBRANCH  39  40
ENDBRANCH   1  39
TORSDOF 19
ENDMDL
