MODEL 1
REMARK VINA RESULT:     -11.9      0.000      0.000
REMARK SMILES Cc1ccc(CNc2nc(OCC(=O)NCCCCNC(=O)c3ccc(-c4c5nc(c(-c6cccc(S(=O)(=O)[O-])c6F)c6ccc([nH]6)c(-c6cccc(S(=O)(=O)[O-])c6F)c6nc(c(-c7cccc(S(=O)(=O)[O-])c7F)c7ccc4[nH]7)C=C6)C=C5)cc3)cc(C(F)(F)F)n2)cc1
REMARK SMILES IDX 16 1 15 2 13 3 14 4 12 6 11 7 10 8 8 9 9 10 92 11 87 12
REMARK SMILES IDX 86 13 7 14 6 16 5 17 1 18 2 19 3 20 94 21 4 22 93 23 88 24
REMARK SMILES IDX 89 25 90 26 91 27 17 28 18 29 19 30 20 31 21 32 22 34 23 35
REMARK SMILES IDX 24 36 85 37 25 38 84 39 26 40 27 41 28 42 78 43 29 44 83 45
REMARK SMILES IDX 77 46 79 47 30 48 82 49 76 50 75 51 31 53 63 54 43 55 62 56
REMARK SMILES IDX 44 57 47 58 61 59 80 60 45 61 46 62 60 64 81 65 48 66 32 67
REMARK SMILES IDX 33 68 41 69 34 70 36 71 42 72 35 73 37 74 38 75 39 76 40 77
REMARK SMILES IDX 64 78 65 79 73 80 66 81 68 82 74 83 67 84 69 85 70 86 71 87
REMARK SMILES IDX 72 88 49 89 50 90 58 91 51 92 53 93 59 94 52 95 54 96 55 97
REMARK SMILES IDX 56 98 57 99
REMARK H PARENT 15 5 7 15 20 33 79 52 47 63
REMARK Flexibility Score: inf
ROOT
ATOM      1  C   UNL A   1      35.614  22.076  24.473  1.00  0.00     0.116 C 
ENDROOT
BRANCH   1   2
ATOM      2  N   UNL A   1      35.149  22.834  23.323  1.00  0.00    -0.353 N 
ATOM      3  C   UNL A   1      33.942  23.430  23.113  1.00  0.00     0.258 C 
ATOM      4  O   UNL A   1      33.735  24.007  22.043  1.00  0.00    -0.271 OA
ATOM      5  H   UNL A   1      35.799  22.932  22.591  1.00  0.00     0.163 HD
BRANCH   3   6
ATOM      6  C   UNL A   1      32.856  23.375  24.192  1.00  0.00     0.331 C 
BRANCH   6   7
ATOM      7  O   UNL A   1      33.018  24.192  25.334  1.00  0.00    -0.467 OA
BRANCH   7   8
ATOM      8  C   UNL A   1      32.753  25.524  25.220  1.00  0.00     0.219 A 
ATOM      9  C   UNL A   1      31.534  27.037  24.002  1.00  0.00     0.226 A 
ATOM     10  N   UNL A   1      31.824  25.769  24.285  1.00  0.00    -0.177 NA
ATOM     11  N   UNL A   1      32.087  28.079  24.626  1.00  0.00    -0.208 NA
ATOM     12  C   UNL A   1      32.991  27.820  25.606  1.00  0.00     0.153 A 
ATOM     13  C   UNL A   1      33.350  26.527  25.942  1.00  0.00     0.102 A 
BRANCH   9  14
ATOM     14  N   UNL A   1      30.641  27.223  22.985  1.00  0.00    -0.350 N 
ATOM     15  H   UNL A   1      30.951  27.184  22.051  1.00  0.00     0.164 HD
BRANCH  14  16
ATOM     16  C   UNL A   1      29.252  27.475  23.265  1.00  0.00     0.152 C 
BRANCH  16  17
ATOM     17  C   UNL A   1      28.914  28.894  22.859  1.00  0.00    -0.029 A 
ATOM     18  C   UNL A   1      27.972  32.920  21.609  1.00  0.00     0.044 C 
ATOM     19  C   UNL A   1      28.300  31.529  22.061  1.00  0.00    -0.051 A 
ATOM     20  C   UNL A   1      29.320  30.817  21.423  1.00  0.00     0.004 A 
ATOM     21  C   UNL A   1      27.593  30.918  23.104  1.00  0.00     0.004 A 
ATOM     22  C   UNL A   1      29.628  29.516  21.822  1.00  0.00     0.006 A 
ATOM     23  C   UNL A   1      27.898  29.612  23.500  1.00  0.00     0.006 A 
ENDBRANCH  16  17
ENDBRANCH  14  16
ENDBRANCH   9  14
BRANCH  12  24
ATOM     24  C   UNL A   1      33.601  28.993  26.352  1.00  0.00     0.433 C 
ATOM     25  F   UNL A   1      33.311  30.200  25.788  1.00  0.00    -0.165 F 
ATOM     26  F   UNL A   1      33.173  29.072  27.646  1.00  0.00    -0.165 F 
ATOM     27  F   UNL A   1      34.963  28.942  26.428  1.00  0.00    -0.165 F 
ENDBRANCH  12  24
ENDBRANCH   7   8
ENDBRANCH   6   7
ENDBRANCH   3   6
ENDBRANCH   1   2
BRANCH   1  28
ATOM     28  C   UNL A   1      37.093  21.677  24.379  1.00  0.00     0.023 C 
BRANCH  28  29
ATOM     29  C   UNL A   1      38.080  22.601  25.096  1.00  0.00     0.023 C 
BRANCH  29  30
ATOM     30  C   UNL A   1      38.709  22.015  26.353  1.00  0.00     0.116 C 
BRANCH  30  31
ATOM     31  N   UNL A   1      40.148  22.175  26.432  1.00  0.00    -0.352 N 
ATOM     32  C   UNL A   1      40.915  23.325  26.504  1.00  0.00     0.251 C 
ATOM     33  H   UNL A   1      40.661  21.334  26.437  1.00  0.00     0.163 HD
ATOM     34  O   UNL A   1      42.133  23.207  26.376  1.00  0.00    -0.269 OA
BRANCH  32  35
ATOM     35  C   UNL A   1      40.310  24.644  26.846  1.00  0.00     0.039 A 
ATOM     36  C   UNL A   1      40.770  25.781  26.161  1.00  0.00     0.014 A 
ATOM     37  C   UNL A   1      39.449  24.808  27.928  1.00  0.00     0.014 A 
ATOM     38  C   UNL A   1      40.591  27.051  26.715  1.00  0.00     0.010 A 
ATOM     39  C   UNL A   1      39.331  26.048  28.519  1.00  0.00     0.010 A 
ATOM     40  C   UNL A   1      39.976  27.152  27.958  1.00  0.00    -0.014 A 
BRANCH  40  41
ATOM     41  C   UNL A   1      40.127  28.283  28.864  1.00  0.00     0.031 A 
ATOM     42  C   UNL A   1      39.245  29.460  28.816  1.00  0.00     0.074 A 
ATOM     43  C   UNL A   1      40.921  28.083  29.940  1.00  0.00     0.049 A 
ATOM     44  N   UNL A   1      39.511  30.580  29.397  1.00  0.00    -0.248 NA
ATOM     45  C   UNL A   1      37.973  29.452  28.110  1.00  0.00     0.031 C 
ATOM     46  C   UNL A   1      40.896  28.794  31.212  1.00  0.00     0.029 A 
ATOM     47  N   UNL A   1      42.060  27.276  30.022  1.00  0.00    -0.354 N 
ATOM     48  C   UNL A   1      38.348  31.321  29.405  1.00  0.00     0.074 A 
ATOM     49  C   UNL A   1      37.449  30.612  28.521  1.00  0.00     0.031 C 
ATOM     50  C   UNL A   1      42.076  28.617  31.824  1.00  0.00     0.029 A 
ATOM     51  C   UNL A   1      42.950  27.946  30.877  1.00  0.00     0.049 A 
ATOM     52  H   UNL A   1      42.208  26.414  29.572  1.00  0.00     0.167 HD
ATOM     53  C   UNL A   1      38.212  32.348  30.294  1.00  0.00     0.034 A 
ATOM     54  C   UNL A   1      44.188  28.373  30.493  1.00  0.00     0.034 A 
ATOM     55  C   UNL A   1      39.421  32.508  31.117  1.00  0.00     0.049 A 
ATOM     56  C   UNL A   1      44.392  29.866  30.685  1.00  0.00     0.074 A 
ATOM     57  C   UNL A   1      39.743  32.095  32.400  1.00  0.00     0.029 A 
ATOM     58  N   UNL A   1      40.607  32.939  30.537  1.00  0.00    -0.354 N 
ATOM     59  N   UNL A   1      43.456  30.695  31.053  1.00  0.00    -0.248 NA
ATOM     60  C   UNL A   1      45.660  30.547  30.435  1.00  0.00     0.031 C 
ATOM     61  C   UNL A   1      41.147  32.222  32.568  1.00  0.00     0.029 A 
ATOM     62  C   UNL A   1      41.678  32.726  31.393  1.00  0.00     0.049 A 
ATOM     63  H   UNL A   1      40.678  33.340  29.641  1.00  0.00     0.167 HD
ATOM     64  C   UNL A   1      43.899  31.987  30.917  1.00  0.00     0.074 A 
ATOM     65  C   UNL A   1      45.315  31.833  30.632  1.00  0.00     0.031 C 
ATOM     66  C   UNL A   1      43.038  33.052  30.972  1.00  0.00     0.034 A 
BRANCH  53  67
ATOM     67  C   UNL A   1      36.879  32.975  30.673  1.00  0.00     0.023 A 
ATOM     68  C   UNL A   1      36.375  32.714  31.970  1.00  0.00     0.012 A 
ATOM     69  C   UNL A   1      36.047  33.750  29.837  1.00  0.00     0.148 A 
ATOM     70  C   UNL A   1      35.085  33.075  32.367  1.00  0.00     0.002 A 
ATOM     71  C   UNL A   1      34.728  34.044  30.201  1.00  0.00     0.091 A 
ATOM     72  F   UNL A   1      36.549  34.287  28.718  1.00  0.00    -0.205 F 
ATOM     73  C   UNL A   1      34.241  33.701  31.466  1.00  0.00     0.022 A 
BRANCH  71  74
ATOM     74  S   UNL A   1      33.548  34.761  29.043  1.00  0.00     0.127 S 
ATOM     75  O   UNL A   1      34.292  35.903  28.508  1.00  0.00    -0.237 OA
ATOM     76  O   UNL A   1      33.337  33.674  28.091  1.00  0.00    -0.237 OA
ATOM     77  O   UNL A   1      32.389  35.138  29.844  1.00  0.00    -0.744 OA
ENDBRANCH  71  74
ENDBRANCH  53  67
BRANCH  54  78
ATOM     78  C   UNL A   1      44.787  27.558  29.393  1.00  0.00     0.023 A 
ATOM     79  C   UNL A   1      45.164  26.230  29.709  1.00  0.00     0.012 A 
ATOM     80  C   UNL A   1      44.613  27.909  28.043  1.00  0.00     0.148 A 
ATOM     81  C   UNL A   1      45.230  25.248  28.720  1.00  0.00     0.002 A 
ATOM     82  C   UNL A   1      44.684  26.921  27.060  1.00  0.00     0.091 A 
ATOM     83  F   UNL A   1      44.299  29.175  27.743  1.00  0.00    -0.205 F 
ATOM     84  C   UNL A   1      44.955  25.586  27.400  1.00  0.00     0.022 A 
BRANCH  82  85
ATOM     85  S   UNL A   1      44.295  27.292  25.343  1.00  0.00     0.127 S 
ATOM     86  O   UNL A   1      43.985  25.964  24.821  1.00  0.00    -0.237 OA
ATOM     87  O   UNL A   1      43.148  28.191  25.463  1.00  0.00    -0.237 OA
ATOM     88  O   UNL A   1      45.497  27.931  24.828  1.00  0.00    -0.744 OA
ENDBRANCH  82  85
ENDBRANCH  54  78
BRANCH  66  89
ATOM     89  C   UNL A   1      43.371  34.492  30.609  1.00  0.00     0.023 A 
ATOM     90  C   UNL A   1      43.841  35.426  31.551  1.00  0.00     0.012 A 
ATOM     91  C   UNL A   1      43.359  34.922  29.253  1.00  0.00     0.148 A 
ATOM     92  C   UNL A   1      44.228  36.722  31.190  1.00  0.00     0.002 A 
ATOM     93  C   UNL A   1      43.852  36.173  28.885  1.00  0.00     0.091 A 
ATOM     94  F   UNL A   1      42.846  34.128  28.302  1.00  0.00    -0.205 F 
ATOM     95  C   UNL A   1      44.260  37.089  29.854  1.00  0.00     0.022 A 
BRANCH  93  96
ATOM     96  S   UNL A   1      44.130  36.573  27.152  1.00  0.00     0.127 S 
ATOM     97  O   UNL A   1      42.766  36.704  26.644  1.00  0.00    -0.237 OA
ATOM     98  O   UNL A   1      44.872  37.833  27.229  1.00  0.00    -0.237 OA
ATOM     99  O   UNL A   1      44.910  35.455  26.638  1.00  0.00    -0.744 OA
ENDBRANCH  93  96
ENDBRANCH  66  89
ENDBRANCH  40  41
ENDBRANCH  32  35
ENDBRANCH  30  31
ENDBRANCH  29  30
ENDBRANCH  28  29
ENDBRANCH   1  28
TORSDOF 20
ENDMDL
MODEL 2
REMARK VINA RESULT:     -11.7      2.405      3.562
REMARK SMILES Cc1ccc(CNc2nc(OCC(=O)NCCCCNC(=O)c3ccc(-c4c5nc(c(-c6cccc(S(=O)(=O)[O-])c6F)c6ccc([nH]6)c(-c6cccc(S(=O)(=O)[O-])c6F)c6nc(c(-c7cccc(S(=O)(=O)[O-])c7F)c7ccc4[nH]7)C=C6)C=C5)cc3)cc(C(F)(F)F)n2)cc1
REMARK SMILES IDX 16 1 15 2 13 3 14 4 12 6 11 7 10 8 8 9 9 10 92 11 87 12
REMARK SMILES IDX 86 13 7 14 6 16 5 17 1 18 2 19 3 20 94 21 4 22 93 23 88 24
REMARK SMILES IDX 89 25 90 26 91 27 17 28 18 29 19 30 20 31 21 32 22 34 23 35
REMARK SMILES IDX 24 36 85 37 25 38 84 39 26 40 27 41 28 42 78 43 29 44 83 45
REMARK SMILES IDX 77 46 79 47 30 48 82 49 76 50 75 51 31 53 63 54 43 55 62 56
REMARK SMILES IDX 44 57 47 58 61 59 80 60 45 61 46 62 60 64 81 65 48 66 32 67
REMARK SMILES IDX 33 68 41 69 34 70 36 71 42 72 35 73 37 74 38 75 39 76 40 77
REMARK SMILES IDX 64 78 65 79 73 80 66 81 68 82 74 83 67 84 69 85 70 86 71 87
REMARK SMILES IDX 72 88 49 89 50 90 58 91 51 92 53 93 59 94 52 95 54 96 55 97
REMARK SMILES IDX 56 98 57 99
REMARK H PARENT 15 5 7 15 20 33 79 52 47 63
REMARK Flexibility Score: inf
ROOT
ATOM      1  C   UNL A   1      35.506  23.427  23.799  1.00  0.00     0.116 C 
ENDROOT
BRANCH   1   2
ATOM      2  N   UNL A   1      34.607  24.508  23.430  1.00  0.00    -0.353 N 
ATOM      3  C   UNL A   1      33.614  24.526  22.497  1.00  0.00     0.258 C 
ATOM      4  O   UNL A   1      32.977  25.567  22.316  1.00  0.00    -0.271 OA
ATOM      5  H   UNL A   1      34.732  25.349  23.926  1.00  0.00     0.163 HD
BRANCH   3   6
ATOM      6  C   UNL A   1      33.300  23.268  21.681  1.00  0.00     0.331 C 
BRANCH   6   7
ATOM      7  O   UNL A   1      32.180  22.495  22.063  1.00  0.00    -0.467 OA
BRANCH   7   8
ATOM      8  C   UNL A   1      32.191  21.902  23.291  1.00  0.00     0.219 A 
ATOM      9  C   UNL A   1      31.969  22.350  25.528  1.00  0.00     0.226 A 
ATOM     10  N   UNL A   1      31.903  22.773  24.267  1.00  0.00    -0.177 NA
ATOM     11  N   UNL A   1      32.266  21.096  25.873  1.00  0.00    -0.208 NA
ATOM     12  C   UNL A   1      32.509  20.208  24.875  1.00  0.00     0.153 A 
ATOM     13  C   UNL A   1      32.471  20.582  23.543  1.00  0.00     0.102 A 
BRANCH   9  14
ATOM     14  N   UNL A   1      31.745  23.304  26.481  1.00  0.00    -0.350 N 
ATOM     15  H   UNL A   1      32.148  23.207  27.373  1.00  0.00     0.164 HD
BRANCH  14  16
ATOM     16  C   UNL A   1      30.925  24.452  26.191  1.00  0.00     0.152 C 
BRANCH  16  17
ATOM     17  C   UNL A   1      31.754  25.708  26.360  1.00  0.00    -0.029 A 
ATOM     18  C   UNL A   1      34.170  29.266  26.763  1.00  0.00     0.044 C 
ATOM     19  C   UNL A   1      33.325  28.034  26.641  1.00  0.00    -0.051 A 
ATOM     20  C   UNL A   1      33.892  26.853  26.153  1.00  0.00     0.004 A 
ATOM     21  C   UNL A   1      31.971  28.043  26.994  1.00  0.00     0.004 A 
ATOM     22  C   UNL A   1      33.116  25.701  26.020  1.00  0.00     0.006 A 
ATOM     23  C   UNL A   1      31.191  26.890  26.855  1.00  0.00     0.006 A 
ENDBRANCH  16  17
ENDBRANCH  14  16
ENDBRANCH   9  14
BRANCH  12  24
ATOM     24  C   UNL A   1      32.811  18.768  25.248  1.00  0.00     0.433 C 
ATOM     25  F   UNL A   1      34.115  18.422  25.045  1.00  0.00    -0.165 F 
ATOM     26  F   UNL A   1      32.554  18.501  26.561  1.00  0.00    -0.165 F 
ATOM     27  F   UNL A   1      32.077  17.857  24.546  1.00  0.00    -0.165 F 
ENDBRANCH  12  24
ENDBRANCH   7   8
ENDBRANCH   6   7
ENDBRANCH   3   6
ENDBRANCH   1   2
BRANCH   1  28
ATOM     28  C   UNL A   1      36.355  23.740  25.038  1.00  0.00     0.023 C 
BRANCH  28  29
ATOM     29  C   UNL A   1      37.826  23.327  24.961  1.00  0.00     0.023 C 
BRANCH  29  30
ATOM     30  C   UNL A   1      38.216  22.171  25.871  1.00  0.00     0.116 C 
BRANCH  30  31
ATOM     31  N   UNL A   1      39.613  22.160  26.261  1.00  0.00    -0.352 N 
ATOM     32  C   UNL A   1      40.456  23.209  26.584  1.00  0.00     0.251 C 
ATOM     33  H   UNL A   1      40.026  21.267  26.304  1.00  0.00     0.163 HD
ATOM     34  O   UNL A   1      41.656  22.960  26.703  1.00  0.00    -0.269 OA
BRANCH  32  35
ATOM     35  C   UNL A   1      39.926  24.566  26.898  1.00  0.00     0.039 A 
ATOM     36  C   UNL A   1      40.495  25.668  26.239  1.00  0.00     0.014 A 
ATOM     37  C   UNL A   1      39.025  24.789  27.936  1.00  0.00     0.014 A 
ATOM     38  C   UNL A   1      40.376  26.949  26.786  1.00  0.00     0.010 A 
ATOM     39  C   UNL A   1      38.962  26.036  28.523  1.00  0.00     0.010 A 
ATOM     40  C   UNL A   1      39.707  27.093  27.997  1.00  0.00    -0.014 A 
BRANCH  40  41
ATOM     41  C   UNL A   1      39.890  28.212  28.911  1.00  0.00     0.031 A 
ATOM     42  C   UNL A   1      39.029  29.405  28.884  1.00  0.00     0.074 A 
ATOM     43  C   UNL A   1      40.692  27.987  29.977  1.00  0.00     0.049 A 
ATOM     44  N   UNL A   1      39.323  30.516  29.472  1.00  0.00    -0.248 NA
ATOM     45  C   UNL A   1      37.750  29.428  28.192  1.00  0.00     0.031 C 
ATOM     46  C   UNL A   1      40.694  28.687  31.255  1.00  0.00     0.029 A 
ATOM     47  N   UNL A   1      41.816  27.158  30.039  1.00  0.00    -0.354 N 
ATOM     48  C   UNL A   1      38.174  31.278  29.500  1.00  0.00     0.074 A 
ATOM     49  C   UNL A   1      37.252  30.593  28.620  1.00  0.00     0.031 C 
ATOM     50  C   UNL A   1      41.878  28.483  31.853  1.00  0.00     0.029 A 
ATOM     51  C   UNL A   1      42.728  27.804  30.889  1.00  0.00     0.049 A 
ATOM     52  H   UNL A   1      41.943  26.298  29.579  1.00  0.00     0.167 HD
ATOM     53  C   UNL A   1      38.068  32.299  30.400  1.00  0.00     0.034 A 
ATOM     54  C   UNL A   1      43.970  28.211  30.495  1.00  0.00     0.034 A 
ATOM     55  C   UNL A   1      39.288  32.428  31.210  1.00  0.00     0.049 A 
ATOM     56  C   UNL A   1      44.204  29.698  30.699  1.00  0.00     0.074 A 
ATOM     57  C   UNL A   1      39.617  31.997  32.487  1.00  0.00     0.029 A 
ATOM     58  N   UNL A   1      40.476  32.843  30.622  1.00  0.00    -0.354 N 
ATOM     59  N   UNL A   1      43.287  30.541  31.084  1.00  0.00    -0.248 NA
ATOM     60  C   UNL A   1      45.481  30.358  30.441  1.00  0.00     0.031 C 
ATOM     61  C   UNL A   1      41.024  32.097  32.639  1.00  0.00     0.029 A 
ATOM     62  C   UNL A   1      41.551  32.602  31.464  1.00  0.00     0.049 A 
ATOM     63  H   UNL A   1      40.544  33.251  29.728  1.00  0.00     0.167 HD
ATOM     64  C   UNL A   1      43.753  31.826  30.956  1.00  0.00     0.074 A 
ATOM     65  C   UNL A   1      45.162  31.649  30.653  1.00  0.00     0.031 C 
ATOM     66  C   UNL A   1      42.913  32.907  31.030  1.00  0.00     0.034 A 
BRANCH  53  67
ATOM     67  C   UNL A   1      36.750  32.947  30.799  1.00  0.00     0.023 A 
ATOM     68  C   UNL A   1      36.124  32.487  31.983  1.00  0.00     0.012 A 
ATOM     69  C   UNL A   1      36.042  33.929  30.074  1.00  0.00     0.148 A 
ATOM     70  C   UNL A   1      34.831  32.868  32.352  1.00  0.00     0.002 A 
ATOM     71  C   UNL A   1      34.719  34.253  30.395  1.00  0.00     0.091 A 
ATOM     72  F   UNL A   1      36.670  34.625  29.118  1.00  0.00    -0.205 F 
ATOM     73  C   UNL A   1      34.108  33.717  31.532  1.00  0.00     0.022 A 
BRANCH  71  74
ATOM     74  S   UNL A   1      33.688  35.266  29.319  1.00  0.00     0.127 S 
ATOM     75  O   UNL A   1      32.598  34.349  28.981  1.00  0.00    -0.237 OA
ATOM     76  O   UNL A   1      33.303  36.368  30.196  1.00  0.00    -0.237 OA
ATOM     77  O   UNL A   1      34.532  35.621  28.184  1.00  0.00    -0.744 OA
ENDBRANCH  71  74
ENDBRANCH  53  67
BRANCH  54  78
ATOM     78  C   UNL A   1      44.541  27.396  29.381  1.00  0.00     0.023 A 
ATOM     79  C   UNL A   1      44.872  26.051  29.675  1.00  0.00     0.012 A 
ATOM     80  C   UNL A   1      44.380  27.776  28.037  1.00  0.00     0.148 A 
ATOM     81  C   UNL A   1      44.904  25.084  28.668  1.00  0.00     0.002 A 
ATOM     82  C   UNL A   1      44.419  26.804  27.038  1.00  0.00     0.091 A 
ATOM     83  F   UNL A   1      44.110  29.057  27.760  1.00  0.00    -0.205 F 
ATOM     84  C   UNL A   1      44.643  25.455  27.354  1.00  0.00     0.022 A 
BRANCH  82  85
ATOM     85  S   UNL A   1      44.044  27.218  25.328  1.00  0.00     0.127 S 
ATOM     86  O   UNL A   1      43.004  28.229  25.493  1.00  0.00    -0.237 OA
ATOM     87  O   UNL A   1      45.324  27.725  24.834  1.00  0.00    -0.237 OA
ATOM     88  O   UNL A   1      43.636  25.956  24.729  1.00  0.00    -0.744 OA
ENDBRANCH  82  85
ENDBRANCH  54  78
BRANCH  66  89
ATOM     89  C   UNL A   1      43.268  34.344  30.676  1.00  0.00     0.023 A 
ATOM     90  C   UNL A   1      43.725  35.271  31.631  1.00  0.00     0.012 A 
ATOM     91  C   UNL A   1      43.293  34.775  29.321  1.00  0.00     0.148 A 
ATOM     92  C   UNL A   1      44.134  36.565  31.280  1.00  0.00     0.002 A 
ATOM     93  C   UNL A   1      43.808  36.021  28.966  1.00  0.00     0.091 A 
ATOM     94  F   UNL A   1      42.796  33.986  28.357  1.00  0.00    -0.205 F 
ATOM     95  C   UNL A   1      44.201  36.932  29.945  1.00  0.00     0.022 A 
BRANCH  93  96
ATOM     96  S   UNL A   1      44.131  36.419  27.241  1.00  0.00     0.127 S 
ATOM     97  O   UNL A   1      44.924  37.642  27.350  1.00  0.00    -0.237 OA
ATOM     98  O   UNL A   1      44.880  35.250  26.777  1.00  0.00    -0.237 OA
ATOM     99  O   UNL A   1      42.809  36.553  26.642  1.00  0.00    -0.744 OA
ENDBRANCH  93  96
ENDBRANCH  66  89
ENDBRANCH  40  41
ENDBRANCH  32  35
ENDBRANCH  30  31
ENDBRANCH  29  30
ENDBRANCH  28  29
ENDBRANCH   1  28
TORSDOF 20
ENDMDL
MODEL 3
REMARK VINA RESULT:     -11.7      4.054      6.505
REMARK SMILES Cc1ccc(CNc2nc(OCC(=O)NCCCCNC(=O)c3ccc(-c4c5nc(c(-c6cccc(S(=O)(=O)[O-])c6F)c6ccc([nH]6)c(-c6cccc(S(=O)(=O)[O-])c6F)c6nc(c(-c7cccc(S(=O)(=O)[O-])c7F)c7ccc4[nH]7)C=C6)C=C5)cc3)cc(C(F)(F)F)n2)cc1
REMARK SMILES IDX 16 1 15 2 13 3 14 4 12 6 11 7 10 8 8 9 9 10 92 11 87 12
REMARK SMILES IDX 86 13 7 14 6 16 5 17 1 18 2 19 3 20 94 21 4 22 93 23 88 24
REMARK SMILES IDX 89 25 90 26 91 27 17 28 18 29 19 30 20 31 21 32 22 34 23 35
REMARK SMILES IDX 24 36 85 37 25 38 84 39 26 40 27 41 28 42 78 43 29 44 83 45
REMARK SMILES IDX 77 46 79 47 30 48 82 49 76 50 75 51 31 53 63 54 43 55 62 56
REMARK SMILES IDX 44 57 47 58 61 59 80 60 45 61 46 62 60 64 81 65 48 66 32 67
REMARK SMILES IDX 33 68 41 69 34 70 36 71 42 72 35 73 37 74 38 75 39 76 40 77
REMARK SMILES IDX 64 78 65 79 73 80 66 81 68 82 74 83 67 84 69 85 70 86 71 87
REMARK SMILES IDX 72 88 49 89 50 90 58 91 51 92 53 93 59 94 52 95 54 96 55 97
REMARK SMILES IDX 56 98 57 99
REMARK H PARENT 15 5 7 15 20 33 79 52 47 63
REMARK Flexibility Score: inf
ROOT
ATOM      1  C   UNL A   1      39.070  21.623  26.396  1.00  0.00     0.116 C 
ENDROOT
BRANCH   1   2
ATOM      2  N   UNL A   1      38.386  21.784  25.124  1.00  0.00    -0.353 N 
ATOM      3  C   UNL A   1      37.376  22.635  24.788  1.00  0.00     0.258 C 
ATOM      4  O   UNL A   1      36.910  22.593  23.647  1.00  0.00    -0.271 OA
ATOM      5  H   UNL A   1      38.697  21.194  24.400  1.00  0.00     0.163 HD
BRANCH   3   6
ATOM      6  C   UNL A   1      36.827  23.626  25.819  1.00  0.00     0.331 C 
BRANCH   6   7
ATOM      7  O   UNL A   1      35.684  23.244  26.558  1.00  0.00    -0.467 OA
BRANCH   7   8
ATOM      8  C   UNL A   1      34.455  23.551  26.053  1.00  0.00     0.219 A 
ATOM      9  C   UNL A   1      32.586  22.608  25.119  1.00  0.00     0.226 A 
ATOM     10  N   UNL A   1      33.768  22.452  25.711  1.00  0.00    -0.177 NA
ATOM     11  N   UNL A   1      32.028  23.796  24.883  1.00  0.00    -0.208 NA
ATOM     12  C   UNL A   1      32.709  24.902  25.278  1.00  0.00     0.153 A 
ATOM     13  C   UNL A   1      33.948  24.816  25.886  1.00  0.00     0.102 A 
BRANCH   9  14
ATOM     14  N   UNL A   1      31.972  21.454  24.720  1.00  0.00    -0.350 N 
ATOM     15  H   UNL A   1      31.173  21.135  25.199  1.00  0.00     0.164 HD
BRANCH  14  16
ATOM     16  C   UNL A   1      32.482  20.699  23.604  1.00  0.00     0.152 C 
BRANCH  16  17
ATOM     17  C   UNL A   1      32.673  19.259  24.027  1.00  0.00    -0.029 A 
ATOM     18  C   UNL A   1      33.150  15.158  25.301  1.00  0.00     0.044 C 
ATOM     19  C   UNL A   1      33.001  16.580  24.849  1.00  0.00    -0.051 A 
ATOM     20  C   UNL A   1      32.704  17.575  25.785  1.00  0.00     0.004 A 
ATOM     21  C   UNL A   1      33.139  16.933  23.501  1.00  0.00     0.004 A 
ATOM     22  C   UNL A   1      32.549  18.901  25.379  1.00  0.00     0.006 A 
ATOM     23  C   UNL A   1      32.978  18.260  23.093  1.00  0.00     0.006 A 
ENDBRANCH  16  17
ENDBRANCH  14  16
ENDBRANCH   9  14
BRANCH  12  24
ATOM     24  C   UNL A   1      32.071  26.261  25.052  1.00  0.00     0.433 C 
ATOM     25  F   UNL A   1      32.982  27.263  24.887  1.00  0.00    -0.165 F 
ATOM     26  F   UNL A   1      31.278  26.290  23.941  1.00  0.00    -0.165 F 
ATOM     27  F   UNL A   1      31.266  26.664  26.077  1.00  0.00    -0.165 F 
ENDBRANCH  12  24
ENDBRANCH   7   8
ENDBRANCH   6   7
ENDBRANCH   3   6
ENDBRANCH   1   2
BRANCH   1  28
ATOM     28  C   UNL A   1      40.223  22.617  26.595  1.00  0.00     0.023 C 
BRANCH  28  29
ATOM     29  C   UNL A   1      41.538  22.261  25.897  1.00  0.00     0.023 C 
BRANCH  29  30
ATOM     30  C   UNL A   1      42.154  20.938  26.328  1.00  0.00     0.116 C 
BRANCH  30  31
ATOM     31  N   UNL A   1      43.085  20.371  25.370  1.00  0.00    -0.352 N 
ATOM     32  C   UNL A   1      44.190  20.937  24.760  1.00  0.00     0.251 C 
ATOM     33  H   UNL A   1      42.902  19.437  25.115  1.00  0.00     0.163 HD
ATOM     34  O   UNL A   1      44.716  20.311  23.839  1.00  0.00    -0.269 OA
BRANCH  32  35
ATOM     35  C   UNL A   1      44.804  22.195  25.272  1.00  0.00     0.039 A 
ATOM     36  C   UNL A   1      45.229  22.227  26.611  1.00  0.00     0.014 A 
ATOM     37  C   UNL A   1      44.806  23.375  24.533  1.00  0.00     0.014 A 
ATOM     38  C   UNL A   1      45.388  23.451  27.266  1.00  0.00     0.010 A 
ATOM     39  C   UNL A   1      44.889  24.586  25.189  1.00  0.00     0.010 A 
ATOM     40  C   UNL A   1      45.093  24.618  26.570  1.00  0.00    -0.014 A 
BRANCH  40  41
ATOM     41  C   UNL A   1      44.752  25.888  27.197  1.00  0.00     0.031 A 
ATOM     42  C   UNL A   1      43.391  26.449  27.159  1.00  0.00     0.074 A 
ATOM     43  C   UNL A   1      45.660  26.389  28.064  1.00  0.00     0.049 A 
ATOM     44  N   UNL A   1      43.113  27.675  27.449  1.00  0.00    -0.248 NA
ATOM     45  C   UNL A   1      42.229  25.653  26.798  1.00  0.00     0.031 C 
ATOM     46  C   UNL A   1      45.428  27.324  29.157  1.00  0.00     0.029 A 
ATOM     47  N   UNL A   1      47.052  26.267  28.007  1.00  0.00    -0.354 N 
ATOM     48  C   UNL A   1      41.745  27.754  27.611  1.00  0.00     0.074 A 
ATOM     49  C   UNL A   1      41.238  26.494  27.113  1.00  0.00     0.031 C 
ATOM     50  C   UNL A   1      46.597  27.898  29.484  1.00  0.00     0.029 A 
ATOM     51  C   UNL A   1      47.567  27.482  28.485  1.00  0.00     0.049 A 
ATOM     52  H   UNL A   1      47.566  25.489  27.694  1.00  0.00     0.167 HD
ATOM     53  C   UNL A   1      41.211  28.798  28.310  1.00  0.00     0.034 A 
ATOM     54  C   UNL A   1      48.352  28.315  27.741  1.00  0.00     0.034 A 
ATOM     55  C   UNL A   1      42.256  29.725  28.770  1.00  0.00     0.049 A 
ATOM     56  C   UNL A   1      47.782  29.716  27.610  1.00  0.00     0.074 A 
ATOM     57  C   UNL A   1      42.899  29.883  29.988  1.00  0.00     0.029 A 
ATOM     58  N   UNL A   1      42.971  30.483  27.851  1.00  0.00    -0.354 N 
ATOM     59  N   UNL A   1      46.606  30.075  28.043  1.00  0.00    -0.248 NA
ATOM     60  C   UNL A   1      48.477  30.813  26.942  1.00  0.00     0.031 C 
ATOM     61  C   UNL A   1      44.046  30.693  29.782  1.00  0.00     0.029 A 
ATOM     62  C   UNL A   1      44.094  31.041  28.444  1.00  0.00     0.049 A 
ATOM     63  H   UNL A   1      42.715  30.605  26.909  1.00  0.00     0.167 HD
ATOM     64  C   UNL A   1      46.302  31.330  27.577  1.00  0.00     0.074 A 
ATOM     65  C   UNL A   1      47.547  31.785  26.986  1.00  0.00     0.031 C 
ATOM     66  C   UNL A   1      45.030  31.836  27.651  1.00  0.00     0.034 A 
BRANCH  53  67
ATOM     67  C   UNL A   1      39.803  28.804  28.886  1.00  0.00     0.023 A 
ATOM     68  C   UNL A   1      38.731  29.047  27.995  1.00  0.00     0.012 A 
ATOM     69  C   UNL A   1      39.450  28.653  30.244  1.00  0.00     0.148 A 
ATOM     70  C   UNL A   1      37.420  29.261  28.430  1.00  0.00     0.002 A 
ATOM     71  C   UNL A   1      38.156  28.944  30.692  1.00  0.00     0.091 A 
ATOM     72  F   UNL A   1      40.338  28.141  31.106  1.00  0.00    -0.205 F 
ATOM     73  C   UNL A   1      37.139  29.256  29.785  1.00  0.00     0.022 A 
BRANCH  71  74
ATOM     74  S   UNL A   1      37.747  29.059  32.443  1.00  0.00     0.127 S 
ATOM     75  O   UNL A   1      38.817  29.917  32.956  1.00  0.00    -0.237 OA
ATOM     76  O   UNL A   1      36.427  29.683  32.420  1.00  0.00    -0.237 OA
ATOM     77  O   UNL A   1      37.796  27.692  32.949  1.00  0.00    -0.744 OA
ENDBRANCH  71  74
ENDBRANCH  53  67
BRANCH  54  78
ATOM     78  C   UNL A   1      49.145  27.608  26.690  1.00  0.00     0.023 A 
ATOM     79  C   UNL A   1      48.591  27.569  25.386  1.00  0.00     0.012 A 
ATOM     80  C   UNL A   1      50.519  27.362  26.849  1.00  0.00     0.148 A 
ATOM     81  C   UNL A   1      49.409  27.427  24.264  1.00  0.00     0.002 A 
ATOM     82  C   UNL A   1      51.328  27.217  25.722  1.00  0.00     0.091 A 
ATOM     83  F   UNL A   1      51.032  27.356  28.085  1.00  0.00    -0.205 F 
ATOM     84  C   UNL A   1      50.782  27.286  24.430  1.00  0.00     0.022 A 
BRANCH  82  85
ATOM     85  S   UNL A   1      53.115  27.076  25.875  1.00  0.00     0.127 S 
ATOM     86  O   UNL A   1      53.246  25.843  26.645  1.00  0.00    -0.237 OA
ATOM     87  O   UNL A   1      53.549  26.981  24.481  1.00  0.00    -0.237 OA
ATOM     88  O   UNL A   1      53.520  28.306  26.538  1.00  0.00    -0.744 OA
ENDBRANCH  82  85
ENDBRANCH  54  78
BRANCH  66  89
ATOM     89  C   UNL A   1      44.528  33.100  26.969  1.00  0.00     0.023 A 
ATOM     90  C   UNL A   1      44.255  33.163  25.589  1.00  0.00     0.012 A 
ATOM     91  C   UNL A   1      44.170  34.246  27.731  1.00  0.00     0.148 A 
ATOM     92  C   UNL A   1      43.710  34.304  24.986  1.00  0.00     0.002 A 
ATOM     93  C   UNL A   1      43.523  35.333  27.145  1.00  0.00     0.091 A 
ATOM     94  F   UNL A   1      44.472  34.306  29.036  1.00  0.00    -0.205 F 
ATOM     95  C   UNL A   1      43.319  35.380  25.767  1.00  0.00     0.022 A 
BRANCH  93  96
ATOM     96  S   UNL A   1      42.791  36.622  28.167  1.00  0.00     0.127 S 
ATOM     97  O   UNL A   1      42.005  35.846  29.124  1.00  0.00    -0.237 OA
ATOM     98  O   UNL A   1      43.965  37.281  28.741  1.00  0.00    -0.237 OA
ATOM     99  O   UNL A   1      42.043  37.451  27.232  1.00  0.00    -0.744 OA
ENDBRANCH  93  96
ENDBRANCH  66  89
ENDBRANCH  40  41
ENDBRANCH  32  35
ENDBRANCH  30  31
ENDBRANCH  29  30
ENDBRANCH  28  29
ENDBRANCH   1  28
TORSDOF 20
ENDMDL
