MODEL 1
REMARK VINA RESULT:     -11.6      0.000      0.000
REMARK SMILES CCC[NH+]1CCC(NC(=O)NC2(CC(=O)NCCCCNC(=O)c3ccc(-c4c5nc(c(-c6cccc(S(=O)(=O)[O-])c6F)c6ccc([nH]6)c(-c6cccc(S(=O)(=O)[O-])c6F)c6nc(c(-c7cccc(S(=O)(=O)[O-])c7F)c7ccc4[nH]7)C=C6)C=C5)cc3)CCC2)CC1
REMARK SMILES IDX 17 1 16 2 14 3 15 4 13 6 12 7 87 8 89 9 88 10 11 11 8 12
REMARK SMILES IDX 9 13 10 15 7 17 4 18 5 19 91 20 6 22 90 23 3 24 2 25 1 26
REMARK SMILES IDX 18 27 19 28 20 29 21 30 22 31 23 33 24 34 25 35 86 36 26 37
REMARK SMILES IDX 85 38 27 39 28 40 29 41 79 42 30 43 84 44 78 45 80 46 31 47
REMARK SMILES IDX 83 48 77 49 76 50 32 52 64 53 44 54 63 55 45 56 48 57 62 58
REMARK SMILES IDX 81 59 46 60 47 61 61 63 82 64 49 65 33 66 34 67 42 68 35 69
REMARK SMILES IDX 37 70 43 71 36 72 38 73 39 74 40 75 41 76 65 77 66 78 74 79
REMARK SMILES IDX 67 80 69 81 75 82 68 83 70 84 71 85 72 86 73 87 50 88 51 89
REMARK SMILES IDX 59 90 52 91 54 92 60 93 53 94 55 95 56 96 57 97 58 98
REMARK H PARENT 16 5 8 14 11 16 4 21 21 32 80 51 48 62
REMARK Flexibility Score: inf
ROOT
ATOM      1  C   UNL A   1      33.436  29.387  25.680  1.00  0.00     0.116 C 
ENDROOT
BRANCH   1   2
ATOM      2  N   UNL A   1      32.498  29.652  24.610  1.00  0.00    -0.356 N 
ATOM      3  C   UNL A   1      31.370  28.988  24.248  1.00  0.00     0.222 C 
ATOM      4  O   UNL A   1      30.778  29.356  23.229  1.00  0.00    -0.275 OA
ATOM      5  H   UNL A   1      32.711  30.440  24.058  1.00  0.00     0.163 HD
BRANCH   3   6
ATOM      6  C   UNL A   1      30.846  27.796  25.026  1.00  0.00     0.128 C 
BRANCH   6   7
ATOM      7  C   UNL A   1      31.277  26.394  24.513  1.00  0.00     0.051 C 
ATOM      8  C   UNL A   1      30.262  25.267  24.860  1.00  0.00     0.029 C 
ATOM      9  C   UNL A   1      32.253  25.768  25.534  1.00  0.00     0.029 C 
ATOM     10  C   UNL A   1      31.136  24.852  26.050  1.00  0.00     0.005 C 
BRANCH   7  11
ATOM     11  N   UNL A   1      31.611  26.468  23.059  1.00  0.00    -0.332 N 
ATOM     12  N   UNL A   1      32.114  24.369  22.023  1.00  0.00    -0.335 N 
ATOM     13  C   UNL A   1      31.772  25.660  21.999  1.00  0.00     0.315 C 
ATOM     14  H   UNL A   1      31.910  23.884  21.191  1.00  0.00     0.165 HD
ATOM     15  O   UNL A   1      31.602  26.161  20.884  1.00  0.00    -0.249 OA
ATOM     16  H   UNL A   1      31.756  27.405  22.795  1.00  0.00     0.165 HD
BRANCH  12  17
ATOM     17  C   UNL A   1      32.724  23.555  23.042  1.00  0.00     0.095 C 
ATOM     18  N   UNL A   1      34.140  21.467  24.500  1.00  0.00    -0.335 N 
ATOM     19  C   UNL A   1      32.665  21.556  24.475  1.00  0.00     0.264 C 
ATOM     20  C   UNL A   1      34.832  22.672  24.024  1.00  0.00     0.264 C 
ATOM     21  H   UNL A   1      34.415  20.746  23.834  1.00  0.00     0.348 HD
ATOM     22  C   UNL A   1      32.082  22.187  23.208  1.00  0.00     0.086 C 
ATOM     23  C   UNL A   1      34.212  23.342  22.798  1.00  0.00     0.086 C 
BRANCH  18  24
ATOM     24  C   UNL A   1      34.567  21.097  25.871  1.00  0.00     0.261 C 
BRANCH  24  25
ATOM     25  C   UNL A   1      34.581  22.211  26.932  1.00  0.00     0.058 C 
ATOM     26  C   UNL A   1      33.320  22.298  27.785  1.00  0.00     0.010 C 
ENDBRANCH  24  25
ENDBRANCH  18  24
ENDBRANCH  12  17
ENDBRANCH   7  11
ENDBRANCH   6   7
ENDBRANCH   3   6
ENDBRANCH   1   2
BRANCH   1  27
ATOM     27  C   UNL A   1      32.889  29.835  27.040  1.00  0.00     0.023 C 
BRANCH  27  28
ATOM     28  C   UNL A   1      32.340  31.259  27.093  1.00  0.00     0.023 C 
BRANCH  28  29
ATOM     29  C   UNL A   1      33.359  32.323  27.474  1.00  0.00     0.116 C 
BRANCH  29  30
ATOM     30  N   UNL A   1      32.786  33.649  27.678  1.00  0.00    -0.352 N 
ATOM     31  C   UNL A   1      33.192  34.609  28.582  1.00  0.00     0.251 C 
ATOM     32  H   UNL A   1      32.022  33.885  27.106  1.00  0.00     0.163 HD
ATOM     33  O   UNL A   1      32.574  35.656  28.702  1.00  0.00    -0.269 OA
BRANCH  31  34
ATOM     34  C   UNL A   1      34.360  34.317  29.442  1.00  0.00     0.039 A 
ATOM     35  C   UNL A   1      34.154  33.683  30.669  1.00  0.00     0.014 A 
ATOM     36  C   UNL A   1      35.654  34.573  28.983  1.00  0.00     0.014 A 
ATOM     37  C   UNL A   1      35.254  33.216  31.393  1.00  0.00     0.010 A 
ATOM     38  C   UNL A   1      36.740  34.044  29.667  1.00  0.00     0.010 A 
ATOM     39  C   UNL A   1      36.552  33.347  30.871  1.00  0.00    -0.014 A 
BRANCH  39  40
ATOM     40  C   UNL A   1      37.728  32.730  31.534  1.00  0.00     0.031 A 
ATOM     41  C   UNL A   1      38.426  31.563  30.895  1.00  0.00     0.074 A 
ATOM     42  C   UNL A   1      38.084  33.138  32.769  1.00  0.00     0.049 A 
ATOM     43  N   UNL A   1      39.387  30.816  31.371  1.00  0.00    -0.248 NA
ATOM     44  C   UNL A   1      37.960  31.161  29.556  1.00  0.00     0.031 C 
ATOM     45  C   UNL A   1      37.429  34.202  33.533  1.00  0.00     0.029 A 
ATOM     46  N   UNL A   1      39.062  32.679  33.616  1.00  0.00    -0.354 N 
ATOM     47  C   UNL A   1      39.612  29.833  30.415  1.00  0.00     0.074 A 
ATOM     48  C   UNL A   1      38.667  30.060  29.343  1.00  0.00     0.031 C 
ATOM     49  C   UNL A   1      38.023  34.315  34.732  1.00  0.00     0.029 A 
ATOM     50  C   UNL A   1      39.080  33.315  34.836  1.00  0.00     0.049 A 
ATOM     51  H   UNL A   1      39.693  31.963  33.373  1.00  0.00     0.167 HD
ATOM     52  C   UNL A   1      40.543  28.850  30.413  1.00  0.00     0.034 A 
ATOM     53  C   UNL A   1      39.855  33.110  35.919  1.00  0.00     0.034 A 
ATOM     54  C   UNL A   1      41.524  28.668  31.447  1.00  0.00     0.049 A 
ATOM     55  C   UNL A   1      40.916  32.043  35.870  1.00  0.00     0.074 A 
ATOM     56  C   UNL A   1      42.576  27.772  31.484  1.00  0.00     0.029 A 
ATOM     57  N   UNL A   1      41.575  29.397  32.625  1.00  0.00    -0.354 N 
ATOM     58  N   UNL A   1      41.223  31.232  34.886  1.00  0.00    -0.248 NA
ATOM     59  C   UNL A   1      41.756  31.881  37.066  1.00  0.00     0.031 C 
ATOM     60  C   UNL A   1      43.263  27.956  32.689  1.00  0.00     0.029 A 
ATOM     61  C   UNL A   1      42.638  28.969  33.400  1.00  0.00     0.049 A 
ATOM     62  H   UNL A   1      40.947  30.114  32.873  1.00  0.00     0.167 HD
ATOM     63  C   UNL A   1      42.307  30.486  35.332  1.00  0.00     0.074 A 
ATOM     64  C   UNL A   1      42.619  30.956  36.666  1.00  0.00     0.031 C 
ATOM     65  C   UNL A   1      42.972  29.488  34.701  1.00  0.00     0.034 A 
BRANCH  52  66
ATOM     66  C   UNL A   1      40.596  27.944  29.213  1.00  0.00     0.023 A 
ATOM     67  C   UNL A   1      39.708  26.852  29.139  1.00  0.00     0.012 A 
ATOM     68  C   UNL A   1      41.475  28.196  28.143  1.00  0.00     0.148 A 
ATOM     69  C   UNL A   1      39.712  26.007  28.031  1.00  0.00     0.002 A 
ATOM     70  C   UNL A   1      41.448  27.371  27.025  1.00  0.00     0.091 A 
ATOM     71  F   UNL A   1      42.330  29.224  28.245  1.00  0.00    -0.205 F 
ATOM     72  C   UNL A   1      40.574  26.272  26.971  1.00  0.00     0.022 A 
BRANCH  70  73
ATOM     73  S   UNL A   1      42.473  27.669  25.579  1.00  0.00     0.127 S 
ATOM     74  O   UNL A   1      43.811  27.706  26.169  1.00  0.00    -0.237 OA
ATOM     75  O   UNL A   1      42.203  26.489  24.758  1.00  0.00    -0.237 OA
ATOM     76  O   UNL A   1      42.001  28.923  25.009  1.00  0.00    -0.744 OA
ENDBRANCH  70  73
ENDBRANCH  52  66
BRANCH  53  77
ATOM     77  C   UNL A   1      39.710  33.986  37.116  1.00  0.00     0.023 A 
ATOM     78  C   UNL A   1      40.166  35.317  37.049  1.00  0.00     0.012 A 
ATOM     79  C   UNL A   1      39.100  33.528  38.300  1.00  0.00     0.148 A 
ATOM     80  C   UNL A   1      40.041  36.169  38.146  1.00  0.00     0.002 A 
ATOM     81  C   UNL A   1      38.934  34.398  39.374  1.00  0.00     0.091 A 
ATOM     82  F   UNL A   1      38.689  32.253  38.354  1.00  0.00    -0.205 F 
ATOM     83  C   UNL A   1      39.416  35.714  39.304  1.00  0.00     0.022 A 
BRANCH  81  84
ATOM     84  S   UNL A   1      38.025  33.927  40.850  1.00  0.00     0.127 S 
ATOM     85  O   UNL A   1      38.926  32.954  41.459  1.00  0.00    -0.237 OA
ATOM     86  O   UNL A   1      37.916  35.200  41.564  1.00  0.00    -0.237 OA
ATOM     87  O   UNL A   1      36.753  33.407  40.365  1.00  0.00    -0.744 OA
ENDBRANCH  81  84
ENDBRANCH  53  77
BRANCH  65  88
ATOM     88  C   UNL A   1      44.118  28.840  35.429  1.00  0.00     0.023 A 
ATOM     89  C   UNL A   1      45.416  29.367  35.281  1.00  0.00     0.012 A 
ATOM     90  C   UNL A   1      43.897  27.779  36.327  1.00  0.00     0.148 A 
ATOM     91  C   UNL A   1      46.482  28.835  36.005  1.00  0.00     0.002 A 
ATOM     92  C   UNL A   1      44.957  27.280  37.076  1.00  0.00     0.091 A 
ATOM     93  F   UNL A   1      42.657  27.280  36.437  1.00  0.00    -0.205 F 
ATOM     94  C   UNL A   1      46.251  27.801  36.910  1.00  0.00     0.022 A 
BRANCH  92  95
ATOM     95  S   UNL A   1      44.737  26.011  38.329  1.00  0.00     0.127 S 
ATOM     96  O   UNL A   1      43.815  26.663  39.256  1.00  0.00    -0.237 OA
ATOM     97  O   UNL A   1      44.154  24.912  37.560  1.00  0.00    -0.237 OA
ATOM     98  O   UNL A   1      46.067  25.736  38.857  1.00  0.00    -0.744 OA
ENDBRANCH  92  95
ENDBRANCH  65  88
ENDBRANCH  39  40
ENDBRANCH  31  34
ENDBRANCH  29  30
ENDBRANCH  28  29
ENDBRANCH  27  28
ENDBRANCH   1  27
TORSDOF 19
ENDMDL
MODEL 2
REMARK VINA RESULT:     -11.6      1.162      1.858
REMARK SMILES CCC[NH+]1CCC(NC(=O)NC2(CC(=O)NCCCCNC(=O)c3ccc(-c4c5nc(c(-c6cccc(S(=O)(=O)[O-])c6F)c6ccc([nH]6)c(-c6cccc(S(=O)(=O)[O-])c6F)c6nc(c(-c7cccc(S(=O)(=O)[O-])c7F)c7ccc4[nH]7)C=C6)C=C5)cc3)CCC2)CC1
REMARK SMILES IDX 17 1 16 2 14 3 15 4 13 6 12 7 87 8 89 9 88 10 11 11 8 12
REMARK SMILES IDX 9 13 10 15 7 17 4 18 5 19 91 20 6 22 90 23 3 24 2 25 1 26
REMARK SMILES IDX 18 27 19 28 20 29 21 30 22 31 23 33 24 34 25 35 86 36 26 37
REMARK SMILES IDX 85 38 27 39 28 40 29 41 79 42 30 43 84 44 78 45 80 46 31 47
REMARK SMILES IDX 83 48 77 49 76 50 32 52 64 53 44 54 63 55 45 56 48 57 62 58
REMARK SMILES IDX 81 59 46 60 47 61 61 63 82 64 49 65 33 66 34 67 42 68 35 69
REMARK SMILES IDX 37 70 43 71 36 72 38 73 39 74 40 75 41 76 65 77 66 78 74 79
REMARK SMILES IDX 67 80 69 81 75 82 68 83 70 84 71 85 72 86 73 87 50 88 51 89
REMARK SMILES IDX 59 90 52 91 54 92 60 93 53 94 55 95 56 96 57 97 58 98
REMARK H PARENT 16 5 8 14 11 16 4 21 21 32 80 51 48 62
REMARK Flexibility Score: inf
ROOT
ATOM      1  C   UNL A   1      32.321  29.572  24.775  1.00  0.00     0.116 C 
ENDROOT
BRANCH   1   2
ATOM      2  N   UNL A   1      33.303  29.365  23.732  1.00  0.00    -0.356 N 
ATOM      3  C   UNL A   1      33.427  28.355  22.832  1.00  0.00     0.222 C 
ATOM      4  O   UNL A   1      34.414  28.352  22.091  1.00  0.00    -0.275 OA
ATOM      5  H   UNL A   1      33.989  30.069  23.663  1.00  0.00     0.163 HD
BRANCH   3   6
ATOM      6  C   UNL A   1      32.422  27.223  22.741  1.00  0.00     0.128 C 
BRANCH   6   7
ATOM      7  C   UNL A   1      32.547  26.101  23.808  1.00  0.00     0.051 C 
ATOM      8  C   UNL A   1      34.006  25.873  24.300  1.00  0.00     0.029 C 
ATOM      9  C   UNL A   1      32.623  24.736  23.090  1.00  0.00     0.029 C 
ATOM     10  C   UNL A   1      34.133  24.674  23.351  1.00  0.00     0.005 C 
BRANCH   7  11
ATOM     11  N   UNL A   1      31.577  26.348  24.916  1.00  0.00    -0.332 N 
ATOM     12  N   UNL A   1      31.773  24.865  26.787  1.00  0.00    -0.335 N 
ATOM     13  C   UNL A   1      31.360  25.988  26.192  1.00  0.00     0.315 C 
ATOM     14  H   UNL A   1      31.766  24.907  27.771  1.00  0.00     0.165 HD
ATOM     15  O   UNL A   1      30.702  26.767  26.887  1.00  0.00    -0.249 OA
ATOM     16  H   UNL A   1      30.876  26.971  24.618  1.00  0.00     0.165 HD
BRANCH  12  17
ATOM     17  C   UNL A   1      32.225  23.607  26.255  1.00  0.00     0.095 C 
ATOM     18  N   UNL A   1      32.761  20.781  25.788  1.00  0.00    -0.335 N 
ATOM     19  C   UNL A   1      33.772  21.696  26.356  1.00  0.00     0.264 C 
ATOM     20  C   UNL A   1      31.605  21.451  25.178  1.00  0.00     0.264 C 
ATOM     21  H   UNL A   1      32.359  20.250  26.560  1.00  0.00     0.348 HD
ATOM     22  C   UNL A   1      33.198  22.866  27.159  1.00  0.00     0.086 C 
ATOM     23  C   UNL A   1      31.072  22.661  25.945  1.00  0.00     0.086 C 
BRANCH  18  24
ATOM     24  C   UNL A   1      33.434  19.872  24.828  1.00  0.00     0.261 C 
BRANCH  24  25
ATOM     25  C   UNL A   1      32.561  19.215  23.746  1.00  0.00     0.058 C 
ATOM     26  C   UNL A   1      32.965  17.791  23.377  1.00  0.00     0.010 C 
ENDBRANCH  24  25
ENDBRANCH  18  24
ENDBRANCH  12  17
ENDBRANCH   7  11
ENDBRANCH   6   7
ENDBRANCH   3   6
ENDBRANCH   1   2
BRANCH   1  27
ATOM     27  C   UNL A   1      32.979  29.825  26.136  1.00  0.00     0.023 C 
BRANCH  27  28
ATOM     28  C   UNL A   1      32.401  30.987  26.941  1.00  0.00     0.023 C 
BRANCH  28  29
ATOM     29  C   UNL A   1      33.407  32.066  27.317  1.00  0.00     0.116 C 
BRANCH  29  30
ATOM     30  N   UNL A   1      32.818  33.387  27.508  1.00  0.00    -0.352 N 
ATOM     31  C   UNL A   1      33.179  34.342  28.435  1.00  0.00     0.251 C 
ATOM     32  H   UNL A   1      32.077  33.623  26.905  1.00  0.00     0.163 HD
ATOM     33  O   UNL A   1      32.550  35.385  28.537  1.00  0.00    -0.269 OA
BRANCH  31  34
ATOM     34  C   UNL A   1      34.312  34.050  29.341  1.00  0.00     0.039 A 
ATOM     35  C   UNL A   1      34.089  33.252  30.466  1.00  0.00     0.014 A 
ATOM     36  C   UNL A   1      35.601  34.474  29.016  1.00  0.00     0.014 A 
ATOM     37  C   UNL A   1      35.179  32.798  31.212  1.00  0.00     0.010 A 
ATOM     38  C   UNL A   1      36.687  33.962  29.714  1.00  0.00     0.010 A 
ATOM     39  C   UNL A   1      36.489  33.107  30.810  1.00  0.00    -0.014 A 
BRANCH  39  40
ATOM     40  C   UNL A   1      37.674  32.519  31.483  1.00  0.00     0.031 A 
ATOM     41  C   UNL A   1      38.408  31.371  30.849  1.00  0.00     0.074 A 
ATOM     42  C   UNL A   1      38.008  32.934  32.722  1.00  0.00     0.049 A 
ATOM     43  N   UNL A   1      39.383  30.647  31.334  1.00  0.00    -0.248 NA
ATOM     44  C   UNL A   1      37.965  30.959  29.506  1.00  0.00     0.031 C 
ATOM     45  C   UNL A   1      37.319  33.980  33.480  1.00  0.00     0.029 A 
ATOM     46  N   UNL A   1      38.989  32.498  33.578  1.00  0.00    -0.354 N 
ATOM     47  C   UNL A   1      39.641  29.672  30.379  1.00  0.00     0.074 A 
ATOM     48  C   UNL A   1      38.702  29.877  29.298  1.00  0.00     0.031 C 
ATOM     49  C   UNL A   1      37.898  34.106  34.685  1.00  0.00     0.029 A 
ATOM     50  C   UNL A   1      38.979  33.133  34.799  1.00  0.00     0.049 A 
ATOM     51  H   UNL A   1      39.640  31.799  33.340  1.00  0.00     0.167 HD
ATOM     52  C   UNL A   1      40.597  28.713  30.384  1.00  0.00     0.034 A 
ATOM     53  C   UNL A   1      39.749  32.946  35.889  1.00  0.00     0.034 A 
ATOM     54  C   UNL A   1      41.572  28.554  31.428  1.00  0.00     0.049 A 
ATOM     55  C   UNL A   1      40.837  31.906  35.849  1.00  0.00     0.074 A 
ATOM     56  C   UNL A   1      42.646  27.685  31.474  1.00  0.00     0.029 A 
ATOM     57  N   UNL A   1      41.593  29.282  32.607  1.00  0.00    -0.354 N 
ATOM     58  N   UNL A   1      41.173  31.105  34.867  1.00  0.00    -0.248 NA
ATOM     59  C   UNL A   1      41.669  31.763  37.052  1.00  0.00     0.031 C 
ATOM     60  C   UNL A   1      43.316  27.884  32.686  1.00  0.00     0.029 A 
ATOM     61  C   UNL A   1      42.659  28.880  33.392  1.00  0.00     0.049 A 
ATOM     62  H   UNL A   1      40.945  29.982  32.850  1.00  0.00     0.167 HD
ATOM     63  C   UNL A   1      42.272  30.386  35.322  1.00  0.00     0.074 A 
ATOM     64  C   UNL A   1      42.559  30.861  36.660  1.00  0.00     0.031 C 
ATOM     65  C   UNL A   1      42.968  29.405  34.696  1.00  0.00     0.034 A 
BRANCH  52  66
ATOM     66  C   UNL A   1      40.684  27.810  29.184  1.00  0.00     0.023 A 
ATOM     67  C   UNL A   1      39.830  26.691  29.104  1.00  0.00     0.012 A 
ATOM     68  C   UNL A   1      41.561  28.090  28.119  1.00  0.00     0.148 A 
ATOM     69  C   UNL A   1      39.866  25.848  27.995  1.00  0.00     0.002 A 
ATOM     70  C   UNL A   1      41.565  27.266  27.000  1.00  0.00     0.091 A 
ATOM     71  F   UNL A   1      42.383  29.143  28.226  1.00  0.00    -0.205 F 
ATOM     72  C   UNL A   1      40.725  26.140  26.940  1.00  0.00     0.022 A 
BRANCH  70  73
ATOM     73  S   UNL A   1      42.588  27.596  25.560  1.00  0.00     0.127 S 
ATOM     74  O   UNL A   1      43.926  27.624  26.150  1.00  0.00    -0.237 OA
ATOM     75  O   UNL A   1      42.321  26.433  24.715  1.00  0.00    -0.237 OA
ATOM     76  O   UNL A   1      42.113  28.861  25.017  1.00  0.00    -0.744 OA
ENDBRANCH  70  73
ENDBRANCH  52  66
BRANCH  53  77
ATOM     77  C   UNL A   1      39.570  33.816  37.085  1.00  0.00     0.023 A 
ATOM     78  C   UNL A   1      40.045  35.142  37.043  1.00  0.00     0.012 A 
ATOM     79  C   UNL A   1      38.912  33.359  38.243  1.00  0.00     0.148 A 
ATOM     80  C   UNL A   1      39.890  35.989  38.141  1.00  0.00     0.002 A 
ATOM     81  C   UNL A   1      38.717  34.224  39.315  1.00  0.00     0.091 A 
ATOM     82  F   UNL A   1      38.483  32.089  38.273  1.00  0.00    -0.205 F 
ATOM     83  C   UNL A   1      39.217  35.535  39.272  1.00  0.00     0.022 A 
BRANCH  81  84
ATOM     84  S   UNL A   1      37.747  33.755  40.753  1.00  0.00     0.127 S 
ATOM     85  O   UNL A   1      36.582  33.129  40.138  1.00  0.00    -0.237 OA
ATOM     86  O   UNL A   1      38.649  32.835  41.446  1.00  0.00    -0.237 OA
ATOM     87  O   UNL A   1      37.503  35.000  41.470  1.00  0.00    -0.744 OA
ENDBRANCH  81  84
ENDBRANCH  53  77
BRANCH  65  88
ATOM     88  C   UNL A   1      44.122  28.786  35.434  1.00  0.00     0.023 A 
ATOM     89  C   UNL A   1      45.414  29.321  35.270  1.00  0.00     0.012 A 
ATOM     90  C   UNL A   1      43.915  27.743  36.358  1.00  0.00     0.148 A 
ATOM     91  C   UNL A   1      46.489  28.816  36.001  1.00  0.00     0.002 A 
ATOM     92  C   UNL A   1      44.983  27.272  37.113  1.00  0.00     0.091 A 
ATOM     93  F   UNL A   1      42.680  27.235  36.484  1.00  0.00    -0.205 F 
ATOM     94  C   UNL A   1      46.271  27.802  36.931  1.00  0.00     0.022 A 
BRANCH  92  95
ATOM     95  S   UNL A   1      44.780  26.030  38.396  1.00  0.00     0.127 S 
ATOM     96  O   UNL A   1      43.833  26.683  39.298  1.00  0.00    -0.237 OA
ATOM     97  O   UNL A   1      44.230  24.898  37.650  1.00  0.00    -0.237 OA
ATOM     98  O   UNL A   1      46.110  25.800  38.944  1.00  0.00    -0.744 OA
ENDBRANCH  92  95
ENDBRANCH  65  88
ENDBRANCH  39  40
ENDBRANCH  31  34
ENDBRANCH  29  30
ENDBRANCH  28  29
ENDBRANCH  27  28
ENDBRANCH   1  27
TORSDOF 19
ENDMDL
MODEL 3
REMARK VINA RESULT:     -11.5      1.813      2.309
REMARK SMILES CCC[NH+]1CCC(NC(=O)NC2(CC(=O)NCCCCNC(=O)c3ccc(-c4c5nc(c(-c6cccc(S(=O)(=O)[O-])c6F)c6ccc([nH]6)c(-c6cccc(S(=O)(=O)[O-])c6F)c6nc(c(-c7cccc(S(=O)(=O)[O-])c7F)c7ccc4[nH]7)C=C6)C=C5)cc3)CCC2)CC1
REMARK SMILES IDX 17 1 16 2 14 3 15 4 13 6 12 7 87 8 89 9 88 10 11 11 8 12
REMARK SMILES IDX 9 13 10 15 7 17 4 18 5 19 91 20 6 22 90 23 3 24 2 25 1 26
REMARK SMILES IDX 18 27 19 28 20 29 21 30 22 31 23 33 24 34 25 35 86 36 26 37
REMARK SMILES IDX 85 38 27 39 28 40 29 41 79 42 30 43 84 44 78 45 80 46 31 47
REMARK SMILES IDX 83 48 77 49 76 50 32 52 64 53 44 54 63 55 45 56 48 57 62 58
REMARK SMILES IDX 81 59 46 60 47 61 61 63 82 64 49 65 33 66 34 67 42 68 35 69
REMARK SMILES IDX 37 70 43 71 36 72 38 73 39 74 40 75 41 76 65 77 66 78 74 79
REMARK SMILES IDX 67 80 69 81 75 82 68 83 70 84 71 85 72 86 73 87 50 88 51 89
REMARK SMILES IDX 59 90 52 91 54 92 60 93 53 94 55 95 56 96 57 97 58 98
REMARK H PARENT 16 5 8 14 11 16 4 21 21 32 80 51 48 62
REMARK Flexibility Score: inf
ROOT
ATOM      1  C   UNL A   1      32.211  29.341  25.649  1.00  0.00     0.116 C 
ENDROOT
BRANCH   1   2
ATOM      2  N   UNL A   1      31.609  28.234  26.362  1.00  0.00    -0.356 N 
ATOM      3  C   UNL A   1      31.543  26.916  26.039  1.00  0.00     0.222 C 
ATOM      4  O   UNL A   1      30.887  26.169  26.770  1.00  0.00    -0.275 OA
ATOM      5  H   UNL A   1      31.182  28.474  27.216  1.00  0.00     0.163 HD
BRANCH   3   6
ATOM      6  C   UNL A   1      32.208  26.351  24.799  1.00  0.00     0.128 C 
BRANCH   6   7
ATOM      7  C   UNL A   1      31.336  26.287  23.516  1.00  0.00     0.051 C 
ATOM      8  C   UNL A   1      30.212  27.364  23.474  1.00  0.00     0.029 C 
ATOM      9  C   UNL A   1      30.240  25.216  23.710  1.00  0.00     0.029 C 
ATOM     10  C   UNL A   1      29.197  26.317  23.946  1.00  0.00     0.005 C 
BRANCH   7  11
ATOM     11  N   UNL A   1      32.213  26.295  22.307  1.00  0.00    -0.332 N 
ATOM     12  N   UNL A   1      32.906  24.135  21.538  1.00  0.00    -0.335 N 
ATOM     13  C   UNL A   1      32.708  25.448  21.389  1.00  0.00     0.315 C 
ATOM     14  H   UNL A   1      33.003  23.645  20.690  1.00  0.00     0.165 HD
ATOM     15  O   UNL A   1      33.026  25.931  20.299  1.00  0.00    -0.249 OA
ATOM     16  H   UNL A   1      32.527  27.210  22.125  1.00  0.00     0.165 HD
BRANCH  12  17
ATOM     17  C   UNL A   1      33.003  23.305  22.710  1.00  0.00     0.095 C 
ATOM     18  N   UNL A   1      33.642  21.199  24.620  1.00  0.00    -0.335 N 
ATOM     19  C   UNL A   1      32.338  21.275  23.930  1.00  0.00     0.264 C 
ATOM     20  C   UNL A   1      34.452  22.421  24.529  1.00  0.00     0.264 C 
ATOM     21  H   UNL A   1      34.202  20.495  24.140  1.00  0.00     0.348 HD
ATOM     22  C   UNL A   1      32.381  21.928  22.546  1.00  0.00     0.086 C 
ATOM     23  C   UNL A   1      34.443  23.111  23.165  1.00  0.00     0.086 C 
BRANCH  18  24
ATOM     24  C   UNL A   1      33.407  20.803  26.030  1.00  0.00     0.261 C 
BRANCH  24  25
ATOM     25  C   UNL A   1      34.068  21.658  27.124  1.00  0.00     0.058 C 
ATOM     26  C   UNL A   1      33.098  22.483  27.963  1.00  0.00     0.010 C 
ENDBRANCH  24  25
ENDBRANCH  18  24
ENDBRANCH  12  17
ENDBRANCH   7  11
ENDBRANCH   6   7
ENDBRANCH   3   6
ENDBRANCH   1   2
BRANCH   1  27
ATOM     27  C   UNL A   1      31.161  30.350  25.172  1.00  0.00     0.023 C 
BRANCH  27  28
ATOM     28  C   UNL A   1      31.007  31.600  26.037  1.00  0.00     0.023 C 
BRANCH  28  29
ATOM     29  C   UNL A   1      32.271  32.030  26.767  1.00  0.00     0.116 C 
BRANCH  29  30
ATOM     30  N   UNL A   1      32.218  33.388  27.297  1.00  0.00    -0.352 N 
ATOM     31  C   UNL A   1      33.143  34.010  28.110  1.00  0.00     0.251 C 
ATOM     32  H   UNL A   1      31.431  33.922  27.046  1.00  0.00     0.163 HD
ATOM     33  O   UNL A   1      32.939  35.132  28.546  1.00  0.00    -0.269 OA
BRANCH  31  34
ATOM     34  C   UNL A   1      34.363  33.261  28.487  1.00  0.00     0.039 A 
ATOM     35  C   UNL A   1      35.613  33.820  28.205  1.00  0.00     0.014 A 
ATOM     36  C   UNL A   1      34.264  32.070  29.207  1.00  0.00     0.014 A 
ATOM     37  C   UNL A   1      36.762  33.229  28.735  1.00  0.00     0.010 A 
ATOM     38  C   UNL A   1      35.400  31.528  29.794  1.00  0.00     0.010 A 
ATOM     39  C   UNL A   1      36.659  32.109  29.577  1.00  0.00    -0.014 A 
BRANCH  39  40
ATOM     40  C   UNL A   1      37.839  31.548  30.281  1.00  0.00     0.031 A 
ATOM     41  C   UNL A   1      38.666  30.476  29.629  1.00  0.00     0.074 A 
ATOM     42  C   UNL A   1      38.086  31.910  31.557  1.00  0.00     0.049 A 
ATOM     43  N   UNL A   1      39.653  29.778  30.127  1.00  0.00    -0.248 NA
ATOM     44  C   UNL A   1      38.315  30.117  28.243  1.00  0.00     0.031 C 
ATOM     45  C   UNL A   1      37.303  32.876  32.331  1.00  0.00     0.029 A 
ATOM     46  N   UNL A   1      39.044  31.480  32.440  1.00  0.00    -0.354 N 
ATOM     47  C   UNL A   1      40.013  28.872  29.137  1.00  0.00     0.074 A 
ATOM     48  C   UNL A   1      39.120  29.087  28.020  1.00  0.00     0.031 C 
ATOM     49  C   UNL A   1      37.812  32.965  33.570  1.00  0.00     0.029 A 
ATOM     50  C   UNL A   1      38.937  32.044  33.690  1.00  0.00     0.049 A 
ATOM     51  H   UNL A   1      39.744  30.829  32.201  1.00  0.00     0.167 HD
ATOM     52  C   UNL A   1      41.018  27.965  29.144  1.00  0.00     0.034 A 
ATOM     53  C   UNL A   1      39.660  31.837  34.809  1.00  0.00     0.034 A 
ATOM     54  C   UNL A   1      41.946  27.800  30.229  1.00  0.00     0.049 A 
ATOM     55  C   UNL A   1      40.803  30.860  34.773  1.00  0.00     0.074 A 
ATOM     56  C   UNL A   1      43.062  26.986  30.287  1.00  0.00     0.029 A 
ATOM     57  N   UNL A   1      41.866  28.462  31.444  1.00  0.00    -0.354 N 
ATOM     58  N   UNL A   1      41.233  30.132  33.770  1.00  0.00    -0.248 NA
ATOM     59  C   UNL A   1      41.579  30.694  36.011  1.00  0.00     0.031 C 
ATOM     60  C   UNL A   1      43.657  27.153  31.542  1.00  0.00     0.029 A 
ATOM     61  C   UNL A   1      42.912  28.072  32.263  1.00  0.00     0.049 A 
ATOM     62  H   UNL A   1      41.170  29.113  31.688  1.00  0.00     0.167 HD
ATOM     63  C   UNL A   1      42.344  29.447  34.246  1.00  0.00     0.074 A 
ATOM     64  C   UNL A   1      42.536  29.862  35.620  1.00  0.00     0.031 C 
ATOM     65  C   UNL A   1      43.124  28.540  33.608  1.00  0.00     0.034 A 
BRANCH  52  66
ATOM     66  C   UNL A   1      41.216  27.135  27.904  1.00  0.00     0.023 A 
ATOM     67  C   UNL A   1      41.757  27.741  26.753  1.00  0.00     0.012 A 
ATOM     68  C   UNL A   1      40.920  25.759  27.890  1.00  0.00     0.148 A 
ATOM     69  C   UNL A   1      41.977  26.996  25.596  1.00  0.00     0.002 A 
ATOM     70  C   UNL A   1      41.177  25.015  26.745  1.00  0.00     0.091 A 
ATOM     71  F   UNL A   1      40.382  25.208  28.987  1.00  0.00    -0.205 F 
ATOM     72  C   UNL A   1      41.696  25.633  25.595  1.00  0.00     0.022 A 
BRANCH  70  73
ATOM     73  S   UNL A   1      40.912  23.239  26.667  1.00  0.00     0.127 S 
ATOM     74  O   UNL A   1      41.126  22.848  28.059  1.00  0.00    -0.237 OA
ATOM     75  O   UNL A   1      39.523  23.152  26.217  1.00  0.00    -0.237 OA
ATOM     76  O   UNL A   1      41.889  22.733  25.713  1.00  0.00    -0.744 OA
ENDBRANCH  70  73
ENDBRANCH  52  66
BRANCH  53  77
ATOM     77  C   UNL A   1      39.372  32.630  36.038  1.00  0.00     0.023 A 
ATOM     78  C   UNL A   1      39.977  33.893  36.195  1.00  0.00     0.012 A 
ATOM     79  C   UNL A   1      38.488  32.164  37.031  1.00  0.00     0.148 A 
ATOM     80  C   UNL A   1      39.727  34.667  37.328  1.00  0.00     0.002 A 
ATOM     81  C   UNL A   1      38.205  32.962  38.135  1.00  0.00     0.091 A 
ATOM     82  F   UNL A   1      37.937  30.952  36.875  1.00  0.00    -0.205 F 
ATOM     83  C   UNL A   1      38.834  34.207  38.293  1.00  0.00     0.022 A 
BRANCH  81  84
ATOM     84  S   UNL A   1      36.969  32.499  39.354  1.00  0.00     0.127 S 
ATOM     85  O   UNL A   1      35.731  32.646  38.595  1.00  0.00    -0.237 OA
ATOM     86  O   UNL A   1      37.344  31.119  39.663  1.00  0.00    -0.237 OA
ATOM     87  O   UNL A   1      37.158  33.428  40.460  1.00  0.00    -0.744 OA
ENDBRANCH  81  84
ENDBRANCH  53  77
BRANCH  65  88
ATOM     88  C   UNL A   1      44.271  27.942  34.374  1.00  0.00     0.023 A 
ATOM     89  C   UNL A   1      45.498  28.631  34.431  1.00  0.00     0.012 A 
ATOM     90  C   UNL A   1      44.108  26.753  35.112  1.00  0.00     0.148 A 
ATOM     91  C   UNL A   1      46.553  28.138  35.198  1.00  0.00     0.002 A 
ATOM     92  C   UNL A   1      45.150  26.288  35.906  1.00  0.00     0.091 A 
ATOM     93  F   UNL A   1      42.938  26.102  35.026  1.00  0.00    -0.205 F 
ATOM     94  C   UNL A   1      46.374  26.975  35.944  1.00  0.00     0.022 A 
BRANCH  92  95
ATOM     95  S   UNL A   1      44.981  24.849  36.969  1.00  0.00     0.127 S 
ATOM     96  O   UNL A   1      46.303  24.779  37.588  1.00  0.00    -0.237 OA
ATOM     97  O   UNL A   1      43.904  25.254  37.873  1.00  0.00    -0.237 OA
ATOM     98  O   UNL A   1      44.642  23.739  36.088  1.00  0.00    -0.744 OA
ENDBRANCH  92  95
ENDBRANCH  65  88
ENDBRANCH  39  40
ENDBRANCH  31  34
ENDBRANCH  29  30
ENDBRANCH  28  29
ENDBRANCH  27  28
ENDBRANCH   1  27
TORSDOF 19
ENDMDL
