MODEL 1
REMARK VINA RESULT:     -12.6      0.000      0.000
REMARK SMILES O=C(COc1ccccc1/C=C1/SC(=O)N(c2ccc(F)cc2)C1=O)NCCCCNC(=O)c1ccc(-c2c3nc(c(-c4cccc(S(=O)(=O)[O-])c4F)c4ccc([nH]4)c(-c4cccc(S(=O)(=O)[O-])c4F)c4nc(c(-c5cccc(S(=O)(=O)[O-])c5F)c5ccc2[nH]5)C=C4)C=C3)cc1
REMARK SMILES IDX 28 1 27 2 26 3 1 4 2 5 3 7 4 8 5 9 6 10 10 11 7 12 9 13 8 14
REMARK SMILES IDX 11 15 12 16 13 17 24 18 14 19 16 20 25 21 15 22 17 23 18 24
REMARK SMILES IDX 23 25 19 26 22 27 20 28 21 29 29 30 30 31 31 32 32 33 33 35
REMARK SMILES IDX 34 36 35 37 96 38 36 39 95 40 37 41 38 42 39 43 89 44 40 45
REMARK SMILES IDX 94 46 88 47 90 48 41 49 93 50 87 51 86 52 42 54 74 55 54 56
REMARK SMILES IDX 73 57 55 58 58 59 72 60 91 61 56 62 57 63 71 65 92 66 59 67
REMARK SMILES IDX 43 68 44 69 52 70 45 71 47 72 53 73 46 74 48 75 49 76 50 77
REMARK SMILES IDX 51 78 75 79 76 80 84 81 77 82 79 83 85 84 78 85 80 86 81 87
REMARK SMILES IDX 82 88 83 89 60 90 61 91 69 92 62 93 64 94 70 95 63 96 65 97
REMARK SMILES IDX 66 98 67 99 68 100
REMARK H PARENT 26 6 31 34 90 53 58 64
REMARK Flexibility Score: inf
ROOT
ATOM      1  C   UNL A   1      35.206  33.311  28.650  1.00  0.00     0.023 C 
ENDROOT
BRANCH   1   2
ATOM      2  C   UNL A   1      35.120  31.669  28.171  1.00  0.00     0.116 C 
BRANCH   2   3
ATOM      3  N   UNL A   1      33.462  30.496  27.598  1.00  0.00    -0.353 N 
ATOM      4  O   UNL A   1      31.421  31.119  26.357  1.00  0.00    -0.271 OA
ATOM      5  C   UNL A   1      32.214  30.299  26.808  1.00  0.00     0.257 C 
ATOM      6  H   UNL A   1      33.564  29.660  28.108  1.00  0.00     0.163 HD
BRANCH   5   7
ATOM      7  C   UNL A   1      31.981  28.820  26.491  1.00  0.00     0.329 C 
BRANCH   7   8
ATOM      8  O   UNL A   1      31.380  28.611  25.228  1.00  0.00    -0.483 OA
BRANCH   8   9
ATOM      9  C   UNL A   1      32.083  27.869  24.303  1.00  0.00     0.127 A 
ATOM     10  C   UNL A   1      32.818  28.683  23.432  1.00  0.00     0.047 A 
ATOM     11  C   UNL A   1      31.911  26.488  24.017  1.00  0.00     0.018 A 
ATOM     12  C   UNL A   1      33.355  28.163  22.260  1.00  0.00     0.004 A 
ATOM     13  C   UNL A   1      32.453  25.989  22.822  1.00  0.00     0.012 A 
ATOM     14  C   UNL A   1      33.154  26.824  21.945  1.00  0.00     0.001 A 
BRANCH  11  15
ATOM     15  C   UNL A   1      31.110  25.535  24.812  1.00  0.00     0.033 C 
ATOM     16  C   UNL A   1      31.734  24.682  25.646  1.00  0.00     0.084 C 
ATOM     17  S   UNL A   1      30.838  22.588  25.846  1.00  0.00    -0.022 SA
ATOM     18  C   UNL A   1      33.699  24.606  25.644  1.00  0.00     0.272 C 
ATOM     19  C   UNL A   1      32.949  21.583  25.626  1.00  0.00     0.298 C 
ATOM     20  N   UNL A   1      34.231  22.870  25.645  1.00  0.00    -0.236 N 
ATOM     21  O   UNL A   1      34.407  25.597  25.745  1.00  0.00    -0.268 OA
ATOM     22  O   UNL A   1      33.021  20.374  25.486  1.00  0.00    -0.260 OA
BRANCH  20  23
ATOM     23  C   UNL A   1      35.633  22.572  25.594  1.00  0.00     0.053 A 
ATOM     24  C   UNL A   1      36.555  23.397  26.265  1.00  0.00     0.030 A 
ATOM     25  C   UNL A   1      36.127  21.455  24.911  1.00  0.00     0.030 A 
ATOM     26  C   UNL A   1      37.923  23.115  26.266  1.00  0.00     0.041 A 
ATOM     27  C   UNL A   1      37.503  21.177  24.905  1.00  0.00     0.041 A 
ATOM     28  C   UNL A   1      38.386  22.006  25.585  1.00  0.00     0.123 A 
ATOM     29  F   UNL A   1      39.695  21.735  25.588  1.00  0.00    -0.207 F 
ENDBRANCH  20  23
ENDBRANCH  11  15
ENDBRANCH   8   9
ENDBRANCH   7   8
ENDBRANCH   5   7
ENDBRANCH   2   3
ENDBRANCH   1   2
BRANCH   1  30
ATOM     30  C   UNL A   1      33.910  34.132  28.680  1.00  0.00     0.023 C 
BRANCH  30  31
ATOM     31  C   UNL A   1      34.014  35.510  29.313  1.00  0.00     0.116 C 
BRANCH  31  32
ATOM     32  N   UNL A   1      32.999  35.748  30.323  1.00  0.00    -0.352 N 
ATOM     33  C   UNL A   1      32.998  35.260  31.610  1.00  0.00     0.251 C 
ATOM     34  H   UNL A   1      32.236  36.314  30.061  1.00  0.00     0.163 HD
ATOM     35  O   UNL A   1      32.026  35.401  32.340  1.00  0.00    -0.269 OA
BRANCH  33  36
ATOM     36  C   UNL A   1      34.197  34.529  32.074  1.00  0.00     0.039 A 
ATOM     37  C   UNL A   1      34.141  33.141  32.201  1.00  0.00     0.014 A 
ATOM     38  C   UNL A   1      35.399  35.217  32.272  1.00  0.00     0.014 A 
ATOM     39  C   UNL A   1      35.309  32.435  32.498  1.00  0.00     0.010 A 
ATOM     40  C   UNL A   1      36.573  34.501  32.478  1.00  0.00     0.010 A 
ATOM     41  C   UNL A   1      36.538  33.105  32.620  1.00  0.00    -0.014 A 
BRANCH  41  42
ATOM     42  C   UNL A   1      37.786  32.365  32.939  1.00  0.00     0.031 A 
ATOM     43  C   UNL A   1      38.537  32.676  34.209  1.00  0.00     0.074 A 
ATOM     44  C   UNL A   1      38.273  31.453  32.075  1.00  0.00     0.049 A 
ATOM     45  N   UNL A   1      39.637  32.142  34.669  1.00  0.00    -0.248 NA
ATOM     46  C   UNL A   1      37.995  33.748  35.061  1.00  0.00     0.031 C 
ATOM     47  C   UNL A   1      37.689  31.119  30.774  1.00  0.00     0.029 A 
ATOM     48  N   UNL A   1      39.382  30.646  32.155  1.00  0.00    -0.354 N 
ATOM     49  C   UNL A   1      39.940  32.839  35.833  1.00  0.00     0.074 A 
ATOM     50  C   UNL A   1      38.933  33.863  35.988  1.00  0.00     0.031 C 
ATOM     51  C   UNL A   1      38.431  30.163  30.190  1.00  0.00     0.029 A 
ATOM     52  C   UNL A   1      39.558  29.836  31.058  1.00  0.00     0.049 A 
ATOM     53  H   UNL A   1      39.993  30.646  32.928  1.00  0.00     0.167 HD
ATOM     54  C   UNL A   1      40.944  32.626  36.715  1.00  0.00     0.034 A 
ATOM     55  C   UNL A   1      40.519  28.930  30.785  1.00  0.00     0.034 A 
ATOM     56  C   UNL A   1      41.912  31.573  36.587  1.00  0.00     0.049 A 
ATOM     57  C   UNL A   1      41.597  28.678  31.805  1.00  0.00     0.074 A 
ATOM     58  C   UNL A   1      42.907  31.205  37.475  1.00  0.00     0.029 A 
ATOM     59  N   UNL A   1      42.015  30.722  35.496  1.00  0.00    -0.354 N 
ATOM     60  N   UNL A   1      41.766  29.231  32.981  1.00  0.00    -0.248 NA
ATOM     61  C   UNL A   1      42.597  27.651  31.476  1.00  0.00     0.031 C 
ATOM     62  C   UNL A   1      43.632  30.154  36.907  1.00  0.00     0.029 A 
ATOM     63  C   UNL A   1      43.065  29.841  35.681  1.00  0.00     0.049 A 
ATOM     64  H   UNL A   1      41.427  30.743  34.707  1.00  0.00     0.167 HD
ATOM     65  C   UNL A   1      42.865  28.594  33.549  1.00  0.00     0.074 A 
ATOM     66  C   UNL A   1      43.307  27.598  32.595  1.00  0.00     0.031 C 
ATOM     67  C   UNL A   1      43.461  28.820  34.746  1.00  0.00     0.034 A 
BRANCH  54  68
ATOM     68  C   UNL A   1      41.017  33.522  37.924  1.00  0.00     0.023 A 
ATOM     69  C   UNL A   1      40.304  33.182  39.093  1.00  0.00     0.012 A 
ATOM     70  C   UNL A   1      41.828  34.673  37.921  1.00  0.00     0.148 A 
ATOM     71  C   UNL A   1      40.364  33.994  40.225  1.00  0.00     0.002 A 
ATOM     72  C   UNL A   1      41.923  35.451  39.070  1.00  0.00     0.091 A 
ATOM     73  F   UNL A   1      42.482  34.993  36.796  1.00  0.00    -0.205 F 
ATOM     74  C   UNL A   1      41.181  35.120  40.217  1.00  0.00     0.022 A 
BRANCH  72  75
ATOM     75  S   UNL A   1      43.011  36.874  39.190  1.00  0.00     0.127 S 
ATOM     76  O   UNL A   1      42.431  37.594  40.322  1.00  0.00    -0.237 OA
ATOM     77  O   UNL A   1      44.305  36.247  39.465  1.00  0.00    -0.237 OA
ATOM     78  O   UNL A   1      42.926  37.556  37.906  1.00  0.00    -0.744 OA
ENDBRANCH  72  75
ENDBRANCH  54  68
BRANCH  55  79
ATOM     79  C   UNL A   1      40.467  28.141  29.519  1.00  0.00     0.023 A 
ATOM     80  C   UNL A   1      39.480  27.148  29.361  1.00  0.00     0.012 A 
ATOM     81  C   UNL A   1      41.374  28.379  28.469  1.00  0.00     0.148 A 
ATOM     82  C   UNL A   1      39.420  26.381  28.197  1.00  0.00     0.002 A 
ATOM     83  C   UNL A   1      41.274  27.650  27.290  1.00  0.00     0.091 A 
ATOM     84  F   UNL A   1      42.312  29.320  28.642  1.00  0.00    -0.205 F 
ATOM     85  C   UNL A   1      40.311  26.638  27.158  1.00  0.00     0.022 A 
BRANCH  83  86
ATOM     86  S   UNL A   1      42.293  28.001  25.852  1.00  0.00     0.127 S 
ATOM     87  O   UNL A   1      43.640  27.861  26.398  1.00  0.00    -0.237 OA
ATOM     88  O   UNL A   1      41.887  26.940  24.930  1.00  0.00    -0.237 OA
ATOM     89  O   UNL A   1      41.919  29.343  25.423  1.00  0.00    -0.744 OA
ENDBRANCH  83  86
ENDBRANCH  55  79
BRANCH  67  90
ATOM     90  C   UNL A   1      44.633  27.952  35.121  1.00  0.00     0.023 A 
ATOM     91  C   UNL A   1      45.947  28.395  34.876  1.00  0.00     0.012 A 
ATOM     92  C   UNL A   1      44.430  26.731  35.795  1.00  0.00     0.148 A 
ATOM     93  C   UNL A   1      47.040  27.620  35.263  1.00  0.00     0.002 A 
ATOM     94  C   UNL A   1      45.523  25.990  36.225  1.00  0.00     0.091 A 
ATOM     95  F   UNL A   1      43.171  26.319  36.006  1.00  0.00    -0.205 F 
ATOM     96  C   UNL A   1      46.829  26.427  35.948  1.00  0.00     0.022 A 
BRANCH  94  97
ATOM     97  S   UNL A   1      45.348  24.495  37.205  1.00  0.00     0.127 S 
ATOM     98  O   UNL A   1      46.737  24.206  37.557  1.00  0.00    -0.237 OA
ATOM     99  O   UNL A   1      44.518  24.950  38.320  1.00  0.00    -0.237 OA
ATOM    100  O   UNL A   1      44.709  23.516  36.336  1.00  0.00    -0.744 OA
ENDBRANCH  94  97
ENDBRANCH  67  90
ENDBRANCH  41  42
ENDBRANCH  33  36
ENDBRANCH  31  32
ENDBRANCH  30  31
ENDBRANCH   1  30
TORSDOF 18
ENDMDL
MODEL 2
REMARK VINA RESULT:     -12.4      7.384     13.980
REMARK SMILES O=C(COc1ccccc1/C=C1/SC(=O)N(c2ccc(F)cc2)C1=O)NCCCCNC(=O)c1ccc(-c2c3nc(c(-c4cccc(S(=O)(=O)[O-])c4F)c4ccc([nH]4)c(-c4cccc(S(=O)(=O)[O-])c4F)c4nc(c(-c5cccc(S(=O)(=O)[O-])c5F)c5ccc2[nH]5)C=C4)C=C3)cc1
REMARK SMILES IDX 28 1 27 2 26 3 1 4 2 5 3 7 4 8 5 9 6 10 10 11 7 12 9 13 8 14
REMARK SMILES IDX 11 15 12 16 13 17 24 18 14 19 16 20 25 21 15 22 17 23 18 24
REMARK SMILES IDX 23 25 19 26 22 27 20 28 21 29 29 30 30 31 31 32 32 33 33 35
REMARK SMILES IDX 34 36 35 37 96 38 36 39 95 40 37 41 38 42 39 43 89 44 40 45
REMARK SMILES IDX 94 46 88 47 90 48 41 49 93 50 87 51 86 52 42 54 74 55 54 56
REMARK SMILES IDX 73 57 55 58 58 59 72 60 91 61 56 62 57 63 71 65 92 66 59 67
REMARK SMILES IDX 43 68 44 69 52 70 45 71 47 72 53 73 46 74 48 75 49 76 50 77
REMARK SMILES IDX 51 78 75 79 76 80 84 81 77 82 79 83 85 84 78 85 80 86 81 87
REMARK SMILES IDX 82 88 83 89 60 90 61 91 69 92 62 93 64 94 70 95 63 96 65 97
REMARK SMILES IDX 66 98 67 99 68 100
REMARK H PARENT 26 6 31 34 90 53 58 64
REMARK Flexibility Score: inf
ROOT
ATOM      1  C   UNL A   1      48.046  37.146  26.970  1.00  0.00     0.023 C 
ENDROOT
BRANCH   1   2
ATOM      2  C   UNL A   1      48.465  38.796  26.778  1.00  0.00     0.116 C 
BRANCH   2   3
ATOM      3  N   UNL A   1      47.382  40.391  25.920  1.00  0.00    -0.353 N 
ATOM      4  O   UNL A   1      46.491  40.667  23.634  1.00  0.00    -0.271 OA
ATOM      5  C   UNL A   1      46.552  40.963  24.824  1.00  0.00     0.257 C 
ATOM      6  H   UNL A   1      47.468  41.125  26.572  1.00  0.00     0.163 HD
BRANCH   5   7
ATOM      7  C   UNL A   1      45.601  42.042  25.347  1.00  0.00     0.329 C 
BRANCH   7   8
ATOM      8  O   UNL A   1      44.848  41.623  26.469  1.00  0.00    -0.483 OA
BRANCH   8   9
ATOM      9  C   UNL A   1      43.768  40.800  26.239  1.00  0.00     0.127 A 
ATOM     10  C   UNL A   1      42.730  41.473  25.583  1.00  0.00     0.047 A 
ATOM     11  C   UNL A   1      43.539  39.521  26.814  1.00  0.00     0.018 A 
ATOM     12  C   UNL A   1      41.456  40.921  25.518  1.00  0.00     0.004 A 
ATOM     13  C   UNL A   1      42.241  38.989  26.745  1.00  0.00     0.012 A 
ATOM     14  C   UNL A   1      41.207  39.691  26.118  1.00  0.00     0.001 A 
BRANCH  11  15
ATOM     15  C   UNL A   1      44.521  38.733  27.586  1.00  0.00     0.033 C 
ATOM     16  C   UNL A   1      44.512  38.799  28.931  1.00  0.00     0.084 C 
ATOM     17  S   UNL A   1      46.539  38.715  29.985  1.00  0.00    -0.022 SA
ATOM     18  C   UNL A   1      43.313  40.080  29.818  1.00  0.00     0.272 C 
ATOM     19  C   UNL A   1      45.975  40.523  31.373  1.00  0.00     0.298 C 
ATOM     20  N   UNL A   1      44.224  40.942  31.131  1.00  0.00    -0.236 N 
ATOM     21  O   UNL A   1      42.119  40.164  29.568  1.00  0.00    -0.268 OA
ATOM     22  O   UNL A   1      46.838  41.032  32.068  1.00  0.00    -0.260 OA
BRANCH  20  23
ATOM     23  C   UNL A   1      43.557  41.964  31.884  1.00  0.00     0.053 A 
ATOM     24  C   UNL A   1      43.090  41.693  33.184  1.00  0.00     0.030 A 
ATOM     25  C   UNL A   1      43.372  43.255  31.376  1.00  0.00     0.030 A 
ATOM     26  C   UNL A   1      42.469  42.675  33.958  1.00  0.00     0.041 A 
ATOM     27  C   UNL A   1      42.740  44.240  32.151  1.00  0.00     0.041 A 
ATOM     28  C   UNL A   1      42.299  43.943  33.435  1.00  0.00     0.123 A 
ATOM     29  F   UNL A   1      41.707  44.884  34.177  1.00  0.00    -0.207 F 
ENDBRANCH  20  23
ENDBRANCH  11  15
ENDBRANCH   8   9
ENDBRANCH   7   8
ENDBRANCH   5   7
ENDBRANCH   2   3
ENDBRANCH   1   2
BRANCH   1  30
ATOM     30  C   UNL A   1      46.984  36.549  26.037  1.00  0.00     0.023 C 
BRANCH  30  31
ATOM     31  C   UNL A   1      46.837  35.036  26.083  1.00  0.00     0.116 C 
BRANCH  31  32
ATOM     32  N   UNL A   1      45.980  34.518  25.034  1.00  0.00    -0.352 N 
ATOM     33  C   UNL A   1      44.715  33.999  25.194  1.00  0.00     0.251 C 
ATOM     34  H   UNL A   1      46.339  34.539  24.116  1.00  0.00     0.163 HD
ATOM     35  O   UNL A   1      44.130  33.457  24.265  1.00  0.00    -0.269 OA
BRANCH  33  36
ATOM     36  C   UNL A   1      44.096  34.086  26.534  1.00  0.00     0.039 A 
ATOM     37  C   UNL A   1      44.311  33.057  27.451  1.00  0.00     0.014 A 
ATOM     38  C   UNL A   1      43.400  35.242  26.906  1.00  0.00     0.014 A 
ATOM     39  C   UNL A   1      43.851  33.203  28.761  1.00  0.00     0.010 A 
ATOM     40  C   UNL A   1      43.025  35.418  28.233  1.00  0.00     0.010 A 
ATOM     41  C   UNL A   1      43.221  34.392  29.170  1.00  0.00    -0.014 A 
BRANCH  41  42
ATOM     42  C   UNL A   1      42.724  34.557  30.560  1.00  0.00     0.031 A 
ATOM     43  C   UNL A   1      41.280  34.263  30.879  1.00  0.00     0.074 A 
ATOM     44  C   UNL A   1      43.547  35.013  31.525  1.00  0.00     0.049 A 
ATOM     45  N   UNL A   1      40.655  34.340  32.024  1.00  0.00    -0.248 NA
ATOM     46  C   UNL A   1      40.417  33.854  29.757  1.00  0.00     0.031 C 
ATOM     47  C   UNL A   1      44.942  35.414  31.331  1.00  0.00     0.029 A 
ATOM     48  N   UNL A   1      43.324  35.231  32.862  1.00  0.00    -0.354 N 
ATOM     49  C   UNL A   1      39.326  34.035  31.753  1.00  0.00     0.074 A 
ATOM     50  C   UNL A   1      39.224  33.813  30.329  1.00  0.00     0.031 C 
ATOM     51  C   UNL A   1      45.456  35.807  32.509  1.00  0.00     0.029 A 
ATOM     52  C   UNL A   1      44.423  35.715  33.535  1.00  0.00     0.049 A 
ATOM     53  H   UNL A   1      42.460  35.056  33.299  1.00  0.00     0.167 HD
ATOM     54  C   UNL A   1      38.289  33.914  32.614  1.00  0.00     0.034 A 
ATOM     55  C   UNL A   1      44.577  36.044  34.833  1.00  0.00     0.034 A 
ATOM     56  C   UNL A   1      38.405  34.082  34.035  1.00  0.00     0.049 A 
ATOM     57  C   UNL A   1      43.421  35.854  35.779  1.00  0.00     0.074 A 
ATOM     58  C   UNL A   1      37.440  33.882  35.007  1.00  0.00     0.029 A 
ATOM     59  N   UNL A   1      39.553  34.501  34.690  1.00  0.00    -0.354 N 
ATOM     60  N   UNL A   1      42.217  35.399  35.530  1.00  0.00    -0.248 NA
ATOM     61  C   UNL A   1      43.655  36.189  37.192  1.00  0.00     0.031 C 
ATOM     62  C   UNL A   1      37.996  34.211  36.246  1.00  0.00     0.029 A 
ATOM     63  C   UNL A   1      39.318  34.580  36.051  1.00  0.00     0.049 A 
ATOM     64  H   UNL A   1      40.409  34.710  34.252  1.00  0.00     0.167 HD
ATOM     65  C   UNL A   1      41.564  35.355  36.757  1.00  0.00     0.074 A 
ATOM     66  C   UNL A   1      42.514  35.810  37.751  1.00  0.00     0.031 C 
ATOM     67  C   UNL A   1      40.289  34.983  37.035  1.00  0.00     0.034 A 
BRANCH  54  68
ATOM     68  C   UNL A   1      36.947  33.537  32.044  1.00  0.00     0.023 A 
ATOM     69  C   UNL A   1      36.707  32.209  31.632  1.00  0.00     0.012 A 
ATOM     70  C   UNL A   1      35.905  34.482  31.962  1.00  0.00     0.148 A 
ATOM     71  C   UNL A   1      35.469  31.837  31.109  1.00  0.00     0.002 A 
ATOM     72  C   UNL A   1      34.659  34.092  31.487  1.00  0.00     0.091 A 
ATOM     73  F   UNL A   1      36.156  35.744  32.338  1.00  0.00    -0.205 F 
ATOM     74  C   UNL A   1      34.443  32.775  31.047  1.00  0.00     0.022 A 
BRANCH  72  75
ATOM     75  S   UNL A   1      33.247  35.202  31.445  1.00  0.00     0.127 S 
ATOM     76  O   UNL A   1      32.467  34.729  32.586  1.00  0.00    -0.237 OA
ATOM     77  O   UNL A   1      33.880  36.508  31.638  1.00  0.00    -0.237 OA
ATOM     78  O   UNL A   1      32.625  35.014  30.142  1.00  0.00    -0.744 OA
ENDBRANCH  72  75
ENDBRANCH  54  68
BRANCH  55  79
ATOM     79  C   UNL A   1      45.900  36.521  35.333  1.00  0.00     0.023 A 
ATOM     80  C   UNL A   1      46.957  35.601  35.481  1.00  0.00     0.012 A 
ATOM     81  C   UNL A   1      46.122  37.876  35.643  1.00  0.00     0.148 A 
ATOM     82  C   UNL A   1      48.200  36.015  35.966  1.00  0.00     0.002 A 
ATOM     83  C   UNL A   1      47.378  38.292  36.071  1.00  0.00     0.091 A 
ATOM     84  F   UNL A   1      45.102  38.734  35.505  1.00  0.00    -0.205 F 
ATOM     85  C   UNL A   1      48.412  37.361  36.251  1.00  0.00     0.022 A 
BRANCH  83  86
ATOM     86  S   UNL A   1      47.780  40.022  36.337  1.00  0.00     0.127 S 
ATOM     87  O   UNL A   1      46.951  40.348  37.494  1.00  0.00    -0.237 OA
ATOM     88  O   UNL A   1      49.216  39.959  36.605  1.00  0.00    -0.237 OA
ATOM     89  O   UNL A   1      47.431  40.703  35.097  1.00  0.00    -0.744 OA
ENDBRANCH  83  86
ENDBRANCH  55  79
BRANCH  67  90
ATOM     90  C   UNL A   1      39.850  35.009  38.475  1.00  0.00     0.023 A 
ATOM     91  C   UNL A   1      39.328  36.192  39.034  1.00  0.00     0.012 A 
ATOM     92  C   UNL A   1      39.876  33.832  39.250  1.00  0.00     0.148 A 
ATOM     93  C   UNL A   1      38.874  36.214  40.352  1.00  0.00     0.002 A 
ATOM     94  C   UNL A   1      39.373  33.847  40.544  1.00  0.00     0.091 A 
ATOM     95  F   UNL A   1      40.390  32.719  38.706  1.00  0.00    -0.205 F 
ATOM     96  C   UNL A   1      38.884  35.041  41.102  1.00  0.00     0.022 A 
BRANCH  94  97
ATOM     97  S   UNL A   1      39.249  32.362  41.547  1.00  0.00     0.127 S 
ATOM     98  O   UNL A   1      38.627  32.877  42.766  1.00  0.00    -0.237 OA
ATOM     99  O   UNL A   1      38.382  31.510  40.734  1.00  0.00    -0.237 OA
ATOM    100  O   UNL A   1      40.610  31.867  41.704  1.00  0.00    -0.744 OA
ENDBRANCH  94  97
ENDBRANCH  67  90
ENDBRANCH  41  42
ENDBRANCH  33  36
ENDBRANCH  31  32
ENDBRANCH  30  31
ENDBRANCH   1  30
TORSDOF 18
ENDMDL
MODEL 3
REMARK VINA RESULT:     -12.3      4.355      8.108
REMARK SMILES O=C(COc1ccccc1/C=C1/SC(=O)N(c2ccc(F)cc2)C1=O)NCCCCNC(=O)c1ccc(-c2c3nc(c(-c4cccc(S(=O)(=O)[O-])c4F)c4ccc([nH]4)c(-c4cccc(S(=O)(=O)[O-])c4F)c4nc(c(-c5cccc(S(=O)(=O)[O-])c5F)c5ccc2[nH]5)C=C4)C=C3)cc1
REMARK SMILES IDX 28 1 27 2 26 3 1 4 2 5 3 7 4 8 5 9 6 10 10 11 7 12 9 13 8 14
REMARK SMILES IDX 11 15 12 16 13 17 24 18 14 19 16 20 25 21 15 22 17 23 18 24
REMARK SMILES IDX 23 25 19 26 22 27 20 28 21 29 29 30 30 31 31 32 32 33 33 35
REMARK SMILES IDX 34 36 35 37 96 38 36 39 95 40 37 41 38 42 39 43 89 44 40 45
REMARK SMILES IDX 94 46 88 47 90 48 41 49 93 50 87 51 86 52 42 54 74 55 54 56
REMARK SMILES IDX 73 57 55 58 58 59 72 60 91 61 56 62 57 63 71 65 92 66 59 67
REMARK SMILES IDX 43 68 44 69 52 70 45 71 47 72 53 73 46 74 48 75 49 76 50 77
REMARK SMILES IDX 51 78 75 79 76 80 84 81 77 82 79 83 85 84 78 85 80 86 81 87
REMARK SMILES IDX 82 88 83 89 60 90 61 91 69 92 62 93 64 94 70 95 63 96 65 97
REMARK SMILES IDX 66 98 67 99 68 100
REMARK H PARENT 26 6 31 34 90 53 58 64
REMARK Flexibility Score: inf
ROOT
ATOM      1  C   UNL A   1      35.557  34.563  32.129  1.00  0.00     0.023 C 
ENDROOT
BRANCH   1   2
ATOM      2  C   UNL A   1      37.187  34.471  32.648  1.00  0.00     0.116 C 
BRANCH   2   3
ATOM      3  N   UNL A   1      38.982  34.525  31.539  1.00  0.00    -0.353 N 
ATOM      4  O   UNL A   1      41.325  34.657  32.303  1.00  0.00    -0.271 OA
ATOM      5  C   UNL A   1      40.466  34.437  31.455  1.00  0.00     0.257 C 
ATOM      6  H   UNL A   1      38.692  34.692  30.612  1.00  0.00     0.163 HD
BRANCH   5   7
ATOM      7  C   UNL A   1      40.919  33.921  30.087  1.00  0.00     0.329 C 
BRANCH   7   8
ATOM      8  O   UNL A   1      42.311  34.054  29.876  1.00  0.00    -0.483 OA
BRANCH   8   9
ATOM      9  C   UNL A   1      42.732  35.028  28.997  1.00  0.00     0.127 A 
ATOM     10  C   UNL A   1      41.676  35.520  28.219  1.00  0.00     0.047 A 
ATOM     11  C   UNL A   1      44.076  35.340  28.657  1.00  0.00     0.018 A 
ATOM     12  C   UNL A   1      41.927  36.284  27.085  1.00  0.00     0.004 A 
ATOM     13  C   UNL A   1      44.304  36.104  27.502  1.00  0.00     0.012 A 
ATOM     14  C   UNL A   1      43.240  36.557  26.715  1.00  0.00     0.001 A 
BRANCH  11  15
ATOM     15  C   UNL A   1      45.280  34.839  29.350  1.00  0.00     0.033 C 
ATOM     16  C   UNL A   1      45.839  33.681  28.950  1.00  0.00     0.084 C 
ATOM     17  S   UNL A   1      46.731  32.346  30.577  1.00  0.00    -0.022 SA
ATOM     18  C   UNL A   1      44.932  32.604  27.578  1.00  0.00     0.272 C 
ATOM     19  C   UNL A   1      45.698  30.436  29.680  1.00  0.00     0.298 C 
ATOM     20  N   UNL A   1      44.932  30.861  28.088  1.00  0.00    -0.236 N 
ATOM     21  O   UNL A   1      44.547  33.062  26.512  1.00  0.00    -0.268 OA
ATOM     22  O   UNL A   1      45.716  29.396  30.316  1.00  0.00    -0.260 OA
BRANCH  20  23
ATOM     23  C   UNL A   1      44.277  29.893  27.257  1.00  0.00     0.053 A 
ATOM     24  C   UNL A   1      42.898  30.003  26.997  1.00  0.00     0.030 A 
ATOM     25  C   UNL A   1      44.975  28.836  26.662  1.00  0.00     0.030 A 
ATOM     26  C   UNL A   1      42.236  29.098  26.165  1.00  0.00     0.041 A 
ATOM     27  C   UNL A   1      44.308  27.922  25.831  1.00  0.00     0.041 A 
ATOM     28  C   UNL A   1      42.948  28.064  25.587  1.00  0.00     0.123 A 
ATOM     29  F   UNL A   1      42.315  27.200  24.788  1.00  0.00    -0.207 F 
ENDBRANCH  20  23
ENDBRANCH  11  15
ENDBRANCH   8   9
ENDBRANCH   7   8
ENDBRANCH   5   7
ENDBRANCH   2   3
ENDBRANCH   1   2
BRANCH   1  30
ATOM     30  C   UNL A   1      35.192  33.970  30.762  1.00  0.00     0.023 C 
BRANCH  30  31
ATOM     31  C   UNL A   1      34.753  32.515  30.767  1.00  0.00     0.116 C 
BRANCH  31  32
ATOM     32  N   UNL A   1      34.355  32.038  29.456  1.00  0.00    -0.352 N 
ATOM     33  C   UNL A   1      35.111  31.263  28.605  1.00  0.00     0.251 C 
ATOM     34  H   UNL A   1      33.457  32.294  29.144  1.00  0.00     0.163 HD
ATOM     35  O   UNL A   1      34.740  31.032  27.462  1.00  0.00    -0.269 OA
BRANCH  33  36
ATOM     36  C   UNL A   1      36.403  30.745  29.104  1.00  0.00     0.039 A 
ATOM     37  C   UNL A   1      36.421  29.567  29.851  1.00  0.00     0.014 A 
ATOM     38  C   UNL A   1      37.596  31.374  28.732  1.00  0.00     0.014 A 
ATOM     39  C   UNL A   1      37.648  28.999  30.200  1.00  0.00     0.010 A 
ATOM     40  C   UNL A   1      38.811  30.756  29.006  1.00  0.00     0.010 A 
ATOM     41  C   UNL A   1      38.853  29.576  29.764  1.00  0.00    -0.014 A 
BRANCH  41  42
ATOM     42  C   UNL A   1      40.165  28.983  30.133  1.00  0.00     0.031 A 
ATOM     43  C   UNL A   1      40.966  29.580  31.260  1.00  0.00     0.074 A 
ATOM     44  C   UNL A   1      40.659  27.943  29.431  1.00  0.00     0.049 A 
ATOM     45  N   UNL A   1      42.125  29.208  31.737  1.00  0.00    -0.248 NA
ATOM     46  C   UNL A   1      40.405  30.770  31.923  1.00  0.00     0.031 C 
ATOM     47  C   UNL A   1      40.023  27.326  28.265  1.00  0.00     0.029 A 
ATOM     48  N   UNL A   1      41.822  27.230  29.589  1.00  0.00    -0.354 N 
ATOM     49  C   UNL A   1      42.449  30.138  32.718  1.00  0.00     0.074 A 
ATOM     50  C   UNL A   1      41.387  31.117  32.741  1.00  0.00     0.031 C 
ATOM     51  C   UNL A   1      40.791  26.314  27.828  1.00  0.00     0.029 A 
ATOM     52  C   UNL A   1      41.986  26.227  28.661  1.00  0.00     0.049 A 
ATOM     53  H   UNL A   1      42.476  27.417  30.300  1.00  0.00     0.167 HD
ATOM     54  C   UNL A   1      43.515  30.159  33.551  1.00  0.00     0.034 A 
ATOM     55  C   UNL A   1      42.988  25.339  28.502  1.00  0.00     0.034 A 
ATOM     56  C   UNL A   1      44.542  29.155  33.562  1.00  0.00     0.049 A 
ATOM     57  C   UNL A   1      44.139  25.353  29.473  1.00  0.00     0.074 A 
ATOM     58  C   UNL A   1      45.610  29.026  34.432  1.00  0.00     0.029 A 
ATOM     59  N   UNL A   1      44.637  28.112  32.654  1.00  0.00    -0.354 N 
ATOM     60  N   UNL A   1      44.340  26.137  30.503  1.00  0.00    -0.248 NA
ATOM     61  C   UNL A   1      45.184  24.336  29.281  1.00  0.00     0.031 C 
ATOM     62  C   UNL A   1      46.368  27.924  34.030  1.00  0.00     0.029 A 
ATOM     63  C   UNL A   1      45.752  27.343  32.933  1.00  0.00     0.049 A 
ATOM     64  H   UNL A   1      44.003  27.943  31.920  1.00  0.00     0.167 HD
ATOM     65  C   UNL A   1      45.510  25.686  31.105  1.00  0.00     0.074 A 
ATOM     66  C   UNL A   1      45.961  24.546  30.335  1.00  0.00     0.031 C 
ATOM     67  C   UNL A   1      46.159  26.178  32.190  1.00  0.00     0.034 A 
BRANCH  54  68
ATOM     68  C   UNL A   1      43.600  31.281  34.553  1.00  0.00     0.023 A 
ATOM     69  C   UNL A   1      44.378  32.422  34.264  1.00  0.00     0.012 A 
ATOM     70  C   UNL A   1      42.872  31.230  35.758  1.00  0.00     0.148 A 
ATOM     71  C   UNL A   1      44.463  33.475  35.175  1.00  0.00     0.002 A 
ATOM     72  C   UNL A   1      42.922  32.304  36.638  1.00  0.00     0.091 A 
ATOM     73  F   UNL A   1      42.155  30.130  36.025  1.00  0.00    -0.205 F 
ATOM     74  C   UNL A   1      43.727  33.420  36.355  1.00  0.00     0.022 A 
BRANCH  72  75
ATOM     75  S   UNL A   1      41.946  32.369  38.144  1.00  0.00     0.127 S 
ATOM     76  O   UNL A   1      40.629  31.961  37.660  1.00  0.00    -0.237 OA
ATOM     77  O   UNL A   1      42.619  31.379  38.986  1.00  0.00    -0.237 OA
ATOM     78  O   UNL A   1      42.038  33.740  38.625  1.00  0.00    -0.744 OA
ENDBRANCH  72  75
ENDBRANCH  54  68
BRANCH  55  79
ATOM     79  C   UNL A   1      42.914  24.312  27.422  1.00  0.00     0.023 A 
ATOM     80  C   UNL A   1      43.574  24.543  26.199  1.00  0.00     0.012 A 
ATOM     81  C   UNL A   1      42.213  23.105  27.605  1.00  0.00     0.148 A 
ATOM     82  C   UNL A   1      43.505  23.609  25.164  1.00  0.00     0.002 A 
ATOM     83  C   UNL A   1      42.196  22.153  26.591  1.00  0.00     0.091 A 
ATOM     84  F   UNL A   1      41.584  22.906  28.771  1.00  0.00    -0.205 F 
ATOM     85  C   UNL A   1      42.825  22.411  25.363  1.00  0.00     0.022 A 
BRANCH  83  86
ATOM     86  S   UNL A   1      41.457  20.531  26.806  1.00  0.00     0.127 S 
ATOM     87  O   UNL A   1      42.206  20.008  27.946  1.00  0.00    -0.237 OA
ATOM     88  O   UNL A   1      40.062  20.871  27.089  1.00  0.00    -0.237 OA
ATOM     89  O   UNL A   1      41.659  19.835  25.542  1.00  0.00    -0.744 OA
ENDBRANCH  83  86
ENDBRANCH  55  79
BRANCH  67  90
ATOM     90  C   UNL A   1      47.406  25.466  32.643  1.00  0.00     0.023 A 
ATOM     91  C   UNL A   1      48.663  25.852  32.137  1.00  0.00     0.012 A 
ATOM     92  C   UNL A   1      47.338  24.470  33.636  1.00  0.00     0.148 A 
ATOM     93  C   UNL A   1      49.829  25.232  32.585  1.00  0.00     0.002 A 
ATOM     94  C   UNL A   1      48.507  23.894  34.117  1.00  0.00     0.091 A 
ATOM     95  F   UNL A   1      46.131  24.105  34.095  1.00  0.00    -0.205 F 
ATOM     96  C   UNL A   1      49.752  24.264  33.583  1.00  0.00     0.022 A 
BRANCH  94  97
ATOM     97  S   UNL A   1      48.513  22.715  35.473  1.00  0.00     0.127 S 
ATOM     98  O   UNL A   1      49.933  22.383  35.572  1.00  0.00    -0.237 OA
ATOM     99  O   UNL A   1      47.996  23.516  36.583  1.00  0.00    -0.237 OA
ATOM    100  O   UNL A   1      47.644  21.621  35.060  1.00  0.00    -0.744 OA
ENDBRANCH  94  97
ENDBRANCH  67  90
ENDBRANCH  41  42
ENDBRANCH  33  36
ENDBRANCH  31  32
ENDBRANCH  30  31
ENDBRANCH   1  30
TORSDOF 18
ENDMDL
