MODEL 1
REMARK VINA RESULT:     -12.3      0.000      0.000
REMARK SMILES C[C@@H](C(=O)NCCCCNC(=O)c1ccc(-c2c3nc(c(-c4cccc(S(=O)(=O)[O-])c4F)c4ccc([nH]4)c(-c4cccc(S(=O)(=O)[O-])c4F)c4nc(c(-c5cccc(S(=O)(=O)[O-])c5F)c5ccc2[nH]5)C=C4)C=C3)cc1)c1ccc(-c2ccccc2)c(F)c1
REMARK SMILES IDX 8 1 7 2 6 3 5 4 3 5 4 6 2 8 1 9 76 10 77 11 88 12 78 13
REMARK SMILES IDX 86 14 79 15 87 16 80 17 81 18 85 19 82 20 84 21 83 22 9 23
REMARK SMILES IDX 10 24 11 25 12 27 13 28 14 29 75 30 15 31 74 32 16 33 17 34
REMARK SMILES IDX 18 35 68 36 19 37 73 38 67 39 69 40 20 41 72 42 66 43 65 44
REMARK SMILES IDX 21 46 53 47 33 48 52 49 34 50 37 51 51 52 70 53 35 54 36 55
REMARK SMILES IDX 50 57 71 58 38 59 22 60 23 61 31 62 24 63 26 64 32 65 25 66
REMARK SMILES IDX 27 67 28 68 29 69 30 70 54 71 55 72 63 73 56 74 58 75 64 76
REMARK SMILES IDX 57 77 59 78 60 79 61 80 62 81 39 82 40 83 48 84 41 85 43 86
REMARK SMILES IDX 49 87 42 88 44 89 45 90 46 91 47 92
REMARK H PARENT 5 7 10 26 69 45 37 56
REMARK Flexibility Score: inf
ROOT
ATOM      1  C   UNL A   1      31.681  28.801  26.161  1.00  0.00     0.023 C 
ENDROOT
BRANCH   1   2
ATOM      2  C   UNL A   1      32.084  27.518  26.890  1.00  0.00     0.023 C 
BRANCH   2   3
ATOM      3  C   UNL A   1      33.050  26.617  26.112  1.00  0.00     0.116 C 
BRANCH   3   4
ATOM      4  N   UNL A   1      32.578  25.248  26.109  1.00  0.00    -0.356 N 
ATOM      5  C   UNL A   1      32.088  24.489  25.085  1.00  0.00     0.227 C 
ATOM      6  O   UNL A   1      31.560  23.419  25.394  1.00  0.00    -0.274 OA
ATOM      7  H   UNL A   1      32.615  24.794  26.982  1.00  0.00     0.163 HD
BRANCH   5   8
ATOM      8  C   UNL A   1      32.257  24.951  23.621  1.00  0.00     0.105 C 
ATOM      9  C   UNL A   1      33.746  25.069  23.263  1.00  0.00     0.023 C 
BRANCH   8  10
ATOM     10  C   UNL A   1      31.475  26.239  23.322  1.00  0.00    -0.033 A 
ATOM     11  C   UNL A   1      32.088  27.384  22.791  1.00  0.00     0.005 A 
ATOM     12  C   UNL A   1      30.095  26.306  23.581  1.00  0.00     0.044 A 
ATOM     13  C   UNL A   1      31.363  28.556  22.563  1.00  0.00     0.012 A 
ATOM     14  C   UNL A   1      29.380  27.488  23.366  1.00  0.00     0.131 A 
ATOM     15  C   UNL A   1      29.997  28.635  22.856  1.00  0.00     0.017 A 
ATOM     16  F   UNL A   1      28.070  27.502  23.663  1.00  0.00    -0.206 F 
BRANCH  15  17
ATOM     17  C   UNL A   1      29.289  29.906  22.653  1.00  0.00    -0.015 A 
ATOM     18  C   UNL A   1      28.729  30.219  21.402  1.00  0.00     0.009 A 
ATOM     19  C   UNL A   1      29.224  30.870  23.668  1.00  0.00     0.009 A 
ATOM     20  C   UNL A   1      28.143  31.464  21.167  1.00  0.00     0.001 A 
ATOM     21  C   UNL A   1      28.641  32.118  23.435  1.00  0.00     0.001 A 
ATOM     22  C   UNL A   1      28.105  32.415  22.182  1.00  0.00     0.000 A 
ENDBRANCH  15  17
ENDBRANCH   8  10
ENDBRANCH   5   8
ENDBRANCH   3   4
ENDBRANCH   2   3
ENDBRANCH   1   2
BRANCH   1  23
ATOM     23  C   UNL A   1      32.828  29.753  25.845  1.00  0.00     0.116 C 
BRANCH  23  24
ATOM     24  N   UNL A   1      32.556  31.115  26.271  1.00  0.00    -0.352 N 
ATOM     25  C   UNL A   1      33.222  31.886  27.189  1.00  0.00     0.251 C 
ATOM     26  H   UNL A   1      31.784  31.547  25.839  1.00  0.00     0.163 HD
ATOM     27  O   UNL A   1      32.746  32.972  27.522  1.00  0.00    -0.269 OA
BRANCH  25  28
ATOM     28  C   UNL A   1      34.483  31.410  27.795  1.00  0.00     0.039 A 
ATOM     29  C   UNL A   1      35.538  32.314  27.933  1.00  0.00     0.014 A 
ATOM     30  C   UNL A   1      34.637  30.085  28.217  1.00  0.00     0.014 A 
ATOM     31  C   UNL A   1      36.726  31.903  28.537  1.00  0.00     0.010 A 
ATOM     32  C   UNL A   1      35.794  29.700  28.894  1.00  0.00     0.010 A 
ATOM     33  C   UNL A   1      36.855  30.600  29.051  1.00  0.00    -0.014 A 
BRANCH  33  34
ATOM     34  C   UNL A   1      38.091  30.198  29.770  1.00  0.00     0.031 A 
ATOM     35  C   UNL A   1      38.391  30.718  31.150  1.00  0.00     0.074 A 
ATOM     36  C   UNL A   1      38.969  29.379  29.156  1.00  0.00     0.049 A 
ATOM     37  N   UNL A   1      39.390  30.424  31.940  1.00  0.00    -0.248 NA
ATOM     38  C   UNL A   1      37.462  31.715  31.709  1.00  0.00     0.031 C 
ATOM     39  C   UNL A   1      38.848  28.890  27.781  1.00  0.00     0.029 A 
ATOM     40  N   UNL A   1      40.140  28.821  29.604  1.00  0.00    -0.354 N 
ATOM     41  C   UNL A   1      39.221  31.201  33.079  1.00  0.00     0.074 A 
ATOM     42  C   UNL A   1      38.050  32.021  32.857  1.00  0.00     0.031 C 
ATOM     43  C   UNL A   1      39.891  28.093  27.502  1.00  0.00     0.029 A 
ATOM     44  C   UNL A   1      40.767  28.030  28.669  1.00  0.00     0.049 A 
ATOM     45  H   UNL A   1      40.498  28.972  30.508  1.00  0.00     0.167 HD
ATOM     46  C   UNL A   1      39.949  31.208  34.222  1.00  0.00     0.034 A 
ATOM     47  C   UNL A   1      41.915  27.331  28.742  1.00  0.00     0.034 A 
ATOM     48  C   UNL A   1      41.101  30.376  34.448  1.00  0.00     0.049 A 
ATOM     49  C   UNL A   1      42.675  27.313  30.040  1.00  0.00     0.074 A 
ATOM     50  C   UNL A   1      41.868  30.259  35.595  1.00  0.00     0.029 A 
ATOM     51  N   UNL A   1      41.660  29.521  33.509  1.00  0.00    -0.354 N 
ATOM     52  N   UNL A   1      42.402  27.928  31.164  1.00  0.00    -0.248 NA
ATOM     53  C   UNL A   1      43.874  26.466  30.093  1.00  0.00     0.031 C 
ATOM     54  C   UNL A   1      42.903  29.352  35.340  1.00  0.00     0.029 A 
ATOM     55  C   UNL A   1      42.762  28.879  34.047  1.00  0.00     0.049 A 
ATOM     56  H   UNL A   1      41.321  29.392  32.593  1.00  0.00     0.167 HD
ATOM     57  C   UNL A   1      43.381  27.524  32.066  1.00  0.00     0.074 A 
ATOM     58  C   UNL A   1      44.227  26.580  31.365  1.00  0.00     0.031 C 
ATOM     59  C   UNL A   1      43.574  27.913  33.350  1.00  0.00     0.034 A 
BRANCH  46  60
ATOM     60  C   UNL A   1      39.479  32.098  35.345  1.00  0.00     0.023 A 
ATOM     61  C   UNL A   1      38.611  31.573  36.325  1.00  0.00     0.012 A 
ATOM     62  C   UNL A   1      39.941  33.423  35.473  1.00  0.00     0.148 A 
ATOM     63  C   UNL A   1      38.183  32.359  37.394  1.00  0.00     0.002 A 
ATOM     64  C   UNL A   1      39.547  34.186  36.566  1.00  0.00     0.091 A 
ATOM     65  F   UNL A   1      40.752  33.911  34.524  1.00  0.00    -0.205 F 
ATOM     66  C   UNL A   1      38.659  33.660  37.520  1.00  0.00     0.022 A 
BRANCH  64  67
ATOM     67  S   UNL A   1      40.163  35.847  36.868  1.00  0.00     0.127 S 
ATOM     68  O   UNL A   1      39.657  36.566  35.700  1.00  0.00    -0.237 OA
ATOM     69  O   UNL A   1      39.505  36.192  38.129  1.00  0.00    -0.237 OA
ATOM     70  O   UNL A   1      41.612  35.731  36.949  1.00  0.00    -0.744 OA
ENDBRANCH  64  67
ENDBRANCH  46  60
BRANCH  47  71
ATOM     71  C   UNL A   1      42.383  26.543  27.567  1.00  0.00     0.023 A 
ATOM     72  C   UNL A   1      43.189  27.155  26.587  1.00  0.00     0.012 A 
ATOM     73  C   UNL A   1      42.049  25.183  27.428  1.00  0.00     0.148 A 
ATOM     74  C   UNL A   1      43.618  26.438  25.469  1.00  0.00     0.002 A 
ATOM     75  C   UNL A   1      42.531  24.457  26.345  1.00  0.00     0.091 A 
ATOM     76  F   UNL A   1      41.271  24.620  28.364  1.00  0.00    -0.205 F 
ATOM     77  C   UNL A   1      43.298  25.088  25.354  1.00  0.00     0.022 A 
BRANCH  75  78
ATOM     78  S   UNL A   1      42.286  22.685  26.194  1.00  0.00     0.127 S 
ATOM     79  O   UNL A   1      40.828  22.585  26.174  1.00  0.00    -0.237 OA
ATOM     80  O   UNL A   1      42.941  22.397  24.918  1.00  0.00    -0.237 OA
ATOM     81  O   UNL A   1      42.948  22.099  27.352  1.00  0.00    -0.744 OA
ENDBRANCH  75  78
ENDBRANCH  47  71
BRANCH  59  82
ATOM     82  C   UNL A   1      44.736  27.299  34.089  1.00  0.00     0.023 A 
ATOM     83  C   UNL A   1      46.007  27.906  34.030  1.00  0.00     0.012 A 
ATOM     84  C   UNL A   1      44.563  26.138  34.869  1.00  0.00     0.148 A 
ATOM     85  C   UNL A   1      47.098  27.339  34.688  1.00  0.00     0.002 A 
ATOM     86  C   UNL A   1      45.643  25.609  35.565  1.00  0.00     0.091 A 
ATOM     87  F   UNL A   1      43.352  25.562  34.901  1.00  0.00    -0.205 F 
ATOM     88  C   UNL A   1      46.913  26.198  35.462  1.00  0.00     0.022 A 
BRANCH  86  89
ATOM     89  S   UNL A   1      45.478  24.196  36.663  1.00  0.00     0.127 S 
ATOM     90  O   UNL A   1      44.505  24.688  37.638  1.00  0.00    -0.237 OA
ATOM     91  O   UNL A   1      44.970  23.160  35.763  1.00  0.00    -0.237 OA
ATOM     92  O   UNL A   1      46.813  23.939  37.184  1.00  0.00    -0.744 OA
ENDBRANCH  86  89
ENDBRANCH  59  82
ENDBRANCH  33  34
ENDBRANCH  25  28
ENDBRANCH  23  24
ENDBRANCH   1  23
TORSDOF 16
ENDMDL
MODEL 2
REMARK VINA RESULT:     -12.2      4.074      7.178
REMARK SMILES C[C@@H](C(=O)NCCCCNC(=O)c1ccc(-c2c3nc(c(-c4cccc(S(=O)(=O)[O-])c4F)c4ccc([nH]4)c(-c4cccc(S(=O)(=O)[O-])c4F)c4nc(c(-c5cccc(S(=O)(=O)[O-])c5F)c5ccc2[nH]5)C=C4)C=C3)cc1)c1ccc(-c2ccccc2)c(F)c1
REMARK SMILES IDX 8 1 7 2 6 3 5 4 3 5 4 6 2 8 1 9 76 10 77 11 88 12 78 13
REMARK SMILES IDX 86 14 79 15 87 16 80 17 81 18 85 19 82 20 84 21 83 22 9 23
REMARK SMILES IDX 10 24 11 25 12 27 13 28 14 29 75 30 15 31 74 32 16 33 17 34
REMARK SMILES IDX 18 35 68 36 19 37 73 38 67 39 69 40 20 41 72 42 66 43 65 44
REMARK SMILES IDX 21 46 53 47 33 48 52 49 34 50 37 51 51 52 70 53 35 54 36 55
REMARK SMILES IDX 50 57 71 58 38 59 22 60 23 61 31 62 24 63 26 64 32 65 25 66
REMARK SMILES IDX 27 67 28 68 29 69 30 70 54 71 55 72 63 73 56 74 58 75 64 76
REMARK SMILES IDX 57 77 59 78 60 79 61 80 62 81 39 82 40 83 48 84 41 85 43 86
REMARK SMILES IDX 49 87 42 88 44 89 45 90 46 91 47 92
REMARK H PARENT 5 7 10 26 69 45 37 56
REMARK Flexibility Score: inf
ROOT
ATOM      1  C   UNL A   1      34.408  33.912  28.064  1.00  0.00     0.023 C 
ENDROOT
BRANCH   1   2
ATOM      2  C   UNL A   1      34.159  35.185  28.876  1.00  0.00     0.023 C 
BRANCH   2   3
ATOM      3  C   UNL A   1      33.448  34.961  30.214  1.00  0.00     0.116 C 
BRANCH   3   4
ATOM      4  N   UNL A   1      34.183  35.590  31.292  1.00  0.00    -0.356 N 
ATOM      5  C   UNL A   1      35.166  35.087  32.097  1.00  0.00     0.227 C 
ATOM      6  O   UNL A   1      35.480  35.767  33.075  1.00  0.00    -0.274 OA
ATOM      7  H   UNL A   1      33.935  36.525  31.474  1.00  0.00     0.163 HD
BRANCH   5   8
ATOM      8  C   UNL A   1      35.869  33.761  31.735  1.00  0.00     0.105 C 
ATOM      9  C   UNL A   1      35.867  32.805  32.936  1.00  0.00     0.023 C 
BRANCH   8  10
ATOM     10  C   UNL A   1      37.278  33.985  31.163  1.00  0.00    -0.033 A 
ATOM     11  C   UNL A   1      37.574  33.812  29.803  1.00  0.00     0.005 A 
ATOM     12  C   UNL A   1      38.331  34.377  32.009  1.00  0.00     0.044 A 
ATOM     13  C   UNL A   1      38.870  33.986  29.313  1.00  0.00     0.012 A 
ATOM     14  C   UNL A   1      39.630  34.532  31.515  1.00  0.00     0.131 A 
ATOM     15  C   UNL A   1      39.927  34.339  30.161  1.00  0.00     0.017 A 
ATOM     16  F   UNL A   1      40.601  34.875  32.377  1.00  0.00    -0.206 F 
BRANCH  15  17
ATOM     17  C   UNL A   1      41.284  34.455  29.612  1.00  0.00    -0.015 A 
ATOM     18  C   UNL A   1      42.250  33.470  29.884  1.00  0.00     0.009 A 
ATOM     19  C   UNL A   1      41.676  35.584  28.879  1.00  0.00     0.009 A 
ATOM     20  C   UNL A   1      43.569  33.619  29.454  1.00  0.00     0.001 A 
ATOM     21  C   UNL A   1      42.996  35.736  28.450  1.00  0.00     0.001 A 
ATOM     22  C   UNL A   1      43.943  34.756  28.743  1.00  0.00     0.000 A 
ENDBRANCH  15  17
ENDBRANCH   8  10
ENDBRANCH   5   8
ENDBRANCH   3   4
ENDBRANCH   2   3
ENDBRANCH   1   2
BRANCH   1  23
ATOM     23  C   UNL A   1      34.245  32.610  28.839  1.00  0.00     0.116 C 
BRANCH  23  24
ATOM     24  N   UNL A   1      33.746  31.526  28.009  1.00  0.00    -0.352 N 
ATOM     25  C   UNL A   1      34.392  30.397  27.575  1.00  0.00     0.251 C 
ATOM     26  H   UNL A   1      32.810  31.614  27.718  1.00  0.00     0.163 HD
ATOM     27  O   UNL A   1      33.839  29.665  26.754  1.00  0.00    -0.269 OA
BRANCH  25  28
ATOM     28  C   UNL A   1      35.748  30.074  28.066  1.00  0.00     0.039 A 
ATOM     29  C   UNL A   1      35.876  29.473  29.320  1.00  0.00     0.014 A 
ATOM     30  C   UNL A   1      36.888  30.363  27.310  1.00  0.00     0.014 A 
ATOM     31  C   UNL A   1      37.140  29.120  29.792  1.00  0.00     0.010 A 
ATOM     32  C   UNL A   1      38.141  29.936  27.747  1.00  0.00     0.010 A 
ATOM     33  C   UNL A   1      38.283  29.321  28.998  1.00  0.00    -0.014 A 
BRANCH  33  34
ATOM     34  C   UNL A   1      39.614  28.862  29.471  1.00  0.00     0.031 A 
ATOM     35  C   UNL A   1      40.335  29.582  30.579  1.00  0.00     0.074 A 
ATOM     36  C   UNL A   1      40.192  27.802  28.872  1.00  0.00     0.049 A 
ATOM     37  N   UNL A   1      41.472  29.282  31.150  1.00  0.00    -0.248 NA
ATOM     38  C   UNL A   1      39.713  30.812  31.098  1.00  0.00     0.031 C 
ATOM     39  C   UNL A   1      39.647  27.083  27.718  1.00  0.00     0.029 A 
ATOM     40  N   UNL A   1      41.370  27.152  29.140  1.00  0.00    -0.354 N 
ATOM     41  C   UNL A   1      41.709  30.283  32.084  1.00  0.00     0.074 A 
ATOM     42  C   UNL A   1      40.622  31.231  31.967  1.00  0.00     0.031 C 
ATOM     43  C   UNL A   1      40.478  26.082  27.389  1.00  0.00     0.029 A 
ATOM     44  C   UNL A   1      41.625  26.099  28.292  1.00  0.00     0.049 A 
ATOM     45  H   UNL A   1      41.976  27.413  29.871  1.00  0.00     0.167 HD
ATOM     46  C   UNL A   1      42.716  30.388  32.984  1.00  0.00     0.034 A 
ATOM     47  C   UNL A   1      42.663  25.242  28.246  1.00  0.00     0.034 A 
ATOM     48  C   UNL A   1      43.784  29.432  33.112  1.00  0.00     0.049 A 
ATOM     49  C   UNL A   1      43.741  25.348  29.290  1.00  0.00     0.074 A 
ATOM     50  C   UNL A   1      44.816  29.412  34.035  1.00  0.00     0.029 A 
ATOM     51  N   UNL A   1      43.965  28.329  32.291  1.00  0.00    -0.354 N 
ATOM     52  N   UNL A   1      43.856  26.208  30.273  1.00  0.00    -0.248 NA
ATOM     53  C   UNL A   1      44.805  24.337  29.248  1.00  0.00     0.031 C 
ATOM     54  C   UNL A   1      45.633  28.310  33.756  1.00  0.00     0.029 A 
ATOM     55  C   UNL A   1      45.092  27.626  32.681  1.00  0.00     0.049 A 
ATOM     56  H   UNL A   1      43.378  28.084  31.540  1.00  0.00     0.167 HD
ATOM     57  C   UNL A   1      44.991  25.827  30.980  1.00  0.00     0.074 A 
ATOM     58  C   UNL A   1      45.501  24.634  30.336  1.00  0.00     0.031 C 
ATOM     59  C   UNL A   1      45.569  26.420  32.054  1.00  0.00     0.034 A 
BRANCH  46  60
ATOM     60  C   UNL A   1      42.674  31.546  33.949  1.00  0.00     0.023 A 
ATOM     61  C   UNL A   1      43.158  32.805  33.538  1.00  0.00     0.012 A 
ATOM     62  C   UNL A   1      42.101  31.413  35.229  1.00  0.00     0.148 A 
ATOM     63  C   UNL A   1      43.105  33.904  34.395  1.00  0.00     0.002 A 
ATOM     64  C   UNL A   1      42.008  32.523  36.060  1.00  0.00     0.091 A 
ATOM     65  F   UNL A   1      41.661  30.205  35.610  1.00  0.00    -0.205 F 
ATOM     66  C   UNL A   1      42.520  33.766  35.650  1.00  0.00     0.022 A 
BRANCH  64  67
ATOM     67  S   UNL A   1      41.203  32.475  37.666  1.00  0.00     0.127 S 
ATOM     68  O   UNL A   1      39.884  31.950  37.319  1.00  0.00    -0.237 OA
ATOM     69  O   UNL A   1      42.054  31.544  38.406  1.00  0.00    -0.237 OA
ATOM     70  O   UNL A   1      41.218  33.842  38.165  1.00  0.00    -0.744 OA
ENDBRANCH  64  67
ENDBRANCH  46  60
BRANCH  47  71
ATOM     71  C   UNL A   1      42.701  24.173  27.209  1.00  0.00     0.023 A 
ATOM     72  C   UNL A   1      43.418  24.379  26.014  1.00  0.00     0.012 A 
ATOM     73  C   UNL A   1      42.045  22.944  27.413  1.00  0.00     0.148 A 
ATOM     74  C   UNL A   1      43.445  23.396  25.023  1.00  0.00     0.002 A 
ATOM     75  C   UNL A   1      42.129  21.946  26.449  1.00  0.00     0.091 A 
ATOM     76  F   UNL A   1      41.358  22.771  28.551  1.00  0.00    -0.205 F 
ATOM     77  C   UNL A   1      42.810  22.178  25.245  1.00  0.00     0.022 A 
BRANCH  75  78
ATOM     78  S   UNL A   1      41.462  20.300  26.715  1.00  0.00     0.127 S 
ATOM     79  O   UNL A   1      42.235  19.846  27.868  1.00  0.00    -0.237 OA
ATOM     80  O   UNL A   1      40.054  20.585  26.990  1.00  0.00    -0.237 OA
ATOM     81  O   UNL A   1      41.694  19.580  25.470  1.00  0.00    -0.744 OA
ENDBRANCH  75  78
ENDBRANCH  47  71
BRANCH  59  82
ATOM     82  C   UNL A   1      46.811  25.772  32.613  1.00  0.00     0.023 A 
ATOM     83  C   UNL A   1      48.080  26.155  32.132  1.00  0.00     0.012 A 
ATOM     84  C   UNL A   1      46.724  24.808  33.636  1.00  0.00     0.148 A 
ATOM     85  C   UNL A   1      49.238  25.551  32.621  1.00  0.00     0.002 A 
ATOM     86  C   UNL A   1      47.885  24.249  34.157  1.00  0.00     0.091 A 
ATOM     87  F   UNL A   1      45.509  24.441  34.070  1.00  0.00    -0.205 F 
ATOM     88  C   UNL A   1      49.141  24.606  33.638  1.00  0.00     0.022 A 
BRANCH  86  89
ATOM     89  S   UNL A   1      47.862  23.095  35.533  1.00  0.00     0.127 S 
ATOM     90  O   UNL A   1      47.271  21.908  34.917  1.00  0.00    -0.237 OA
ATOM     91  O   UNL A   1      49.283  22.971  35.860  1.00  0.00    -0.237 OA
ATOM     92  O   UNL A   1      47.059  23.729  36.571  1.00  0.00    -0.744 OA
ENDBRANCH  86  89
ENDBRANCH  59  82
ENDBRANCH  33  34
ENDBRANCH  25  28
ENDBRANCH  23  24
ENDBRANCH   1  23
TORSDOF 16
ENDMDL
MODEL 3
REMARK VINA RESULT:     -12.1      2.382      4.566
REMARK SMILES C[C@@H](C(=O)NCCCCNC(=O)c1ccc(-c2c3nc(c(-c4cccc(S(=O)(=O)[O-])c4F)c4ccc([nH]4)c(-c4cccc(S(=O)(=O)[O-])c4F)c4nc(c(-c5cccc(S(=O)(=O)[O-])c5F)c5ccc2[nH]5)C=C4)C=C3)cc1)c1ccc(-c2ccccc2)c(F)c1
REMARK SMILES IDX 8 1 7 2 6 3 5 4 3 5 4 6 2 8 1 9 76 10 77 11 88 12 78 13
REMARK SMILES IDX 86 14 79 15 87 16 80 17 81 18 85 19 82 20 84 21 83 22 9 23
REMARK SMILES IDX 10 24 11 25 12 27 13 28 14 29 75 30 15 31 74 32 16 33 17 34
REMARK SMILES IDX 18 35 68 36 19 37 73 38 67 39 69 40 20 41 72 42 66 43 65 44
REMARK SMILES IDX 21 46 53 47 33 48 52 49 34 50 37 51 51 52 70 53 35 54 36 55
REMARK SMILES IDX 50 57 71 58 38 59 22 60 23 61 31 62 24 63 26 64 32 65 25 66
REMARK SMILES IDX 27 67 28 68 29 69 30 70 54 71 55 72 63 73 56 74 58 75 64 76
REMARK SMILES IDX 57 77 59 78 60 79 61 80 62 81 39 82 40 83 48 84 41 85 43 86
REMARK SMILES IDX 49 87 42 88 44 89 45 90 46 91 47 92
REMARK H PARENT 5 7 10 26 69 45 37 56
REMARK Flexibility Score: inf
ROOT
ATOM      1  C   UNL A   1      31.760  28.792  24.900  1.00  0.00     0.023 C 
ENDROOT
BRANCH   1   2
ATOM      2  C   UNL A   1      31.954  28.337  23.452  1.00  0.00     0.023 C 
BRANCH   2   3
ATOM      3  C   UNL A   1      31.417  26.934  23.145  1.00  0.00     0.116 C 
BRANCH   3   4
ATOM      4  N   UNL A   1      32.424  26.141  22.470  1.00  0.00    -0.356 N 
ATOM      5  C   UNL A   1      33.285  25.205  22.967  1.00  0.00     0.227 C 
ATOM      6  O   UNL A   1      34.185  24.828  22.215  1.00  0.00    -0.274 OA
ATOM      7  H   UNL A   1      32.500  26.303  21.502  1.00  0.00     0.163 HD
BRANCH   5   8
ATOM      8  C   UNL A   1      33.076  24.627  24.384  1.00  0.00     0.105 C 
ATOM      9  C   UNL A   1      34.039  25.286  25.382  1.00  0.00     0.023 C 
BRANCH   8  10
ATOM     10  C   UNL A   1      33.165  23.092  24.406  1.00  0.00    -0.033 A 
ATOM     11  C   UNL A   1      32.141  22.273  23.909  1.00  0.00     0.005 A 
ATOM     12  C   UNL A   1      34.301  22.457  24.938  1.00  0.00     0.044 A 
ATOM     13  C   UNL A   1      32.229  20.881  23.973  1.00  0.00     0.012 A 
ATOM     14  C   UNL A   1      34.373  21.062  25.015  1.00  0.00     0.131 A 
ATOM     15  C   UNL A   1      33.342  20.247  24.537  1.00  0.00     0.017 A 
ATOM     16  F   UNL A   1      35.469  20.512  25.564  1.00  0.00    -0.206 F 
BRANCH  15  17
ATOM     17  C   UNL A   1      33.365  18.782  24.636  1.00  0.00    -0.015 A 
ATOM     18  C   UNL A   1      33.983  18.010  23.636  1.00  0.00     0.009 A 
ATOM     19  C   UNL A   1      32.703  18.114  25.676  1.00  0.00     0.009 A 
ATOM     20  C   UNL A   1      33.923  16.616  23.665  1.00  0.00     0.001 A 
ATOM     21  C   UNL A   1      32.640  16.719  25.705  1.00  0.00     0.001 A 
ATOM     22  C   UNL A   1      33.246  15.971  24.696  1.00  0.00     0.000 A 
ENDBRANCH  15  17
ENDBRANCH   8  10
ENDBRANCH   5   8
ENDBRANCH   3   4
ENDBRANCH   2   3
ENDBRANCH   1   2
BRANCH   1  23
ATOM     23  C   UNL A   1      32.942  29.535  25.507  1.00  0.00     0.116 C 
BRANCH  23  24
ATOM     24  N   UNL A   1      32.577  30.848  26.011  1.00  0.00    -0.352 N 
ATOM     25  C   UNL A   1      33.164  31.592  27.002  1.00  0.00     0.251 C 
ATOM     26  H   UNL A   1      31.797  31.264  25.578  1.00  0.00     0.163 HD
ATOM     27  O   UNL A   1      32.614  32.625  27.385  1.00  0.00    -0.269 OA
BRANCH  25  28
ATOM     28  C   UNL A   1      34.429  31.147  27.624  1.00  0.00     0.039 A 
ATOM     29  C   UNL A   1      35.448  32.085  27.802  1.00  0.00     0.014 A 
ATOM     30  C   UNL A   1      34.621  29.821  28.023  1.00  0.00     0.014 A 
ATOM     31  C   UNL A   1      36.638  31.703  28.422  1.00  0.00     0.010 A 
ATOM     32  C   UNL A   1      35.777  29.462  28.715  1.00  0.00     0.010 A 
ATOM     33  C   UNL A   1      36.803  30.395  28.912  1.00  0.00    -0.014 A 
BRANCH  33  34
ATOM     34  C   UNL A   1      38.038  30.022  29.648  1.00  0.00     0.031 A 
ATOM     35  C   UNL A   1      38.298  30.536  31.039  1.00  0.00     0.074 A 
ATOM     36  C   UNL A   1      38.949  29.234  29.042  1.00  0.00     0.049 A 
ATOM     37  N   UNL A   1      39.293  30.262  31.842  1.00  0.00    -0.248 NA
ATOM     38  C   UNL A   1      37.332  31.500  31.591  1.00  0.00     0.031 C 
ATOM     39  C   UNL A   1      38.865  28.756  27.659  1.00  0.00     0.029 A 
ATOM     40  N   UNL A   1      40.128  28.707  29.504  1.00  0.00    -0.354 N 
ATOM     41  C   UNL A   1      39.082  31.023  32.986  1.00  0.00     0.074 A 
ATOM     42  C   UNL A   1      37.891  31.811  32.752  1.00  0.00     0.031 C 
ATOM     43  C   UNL A   1      39.936  27.993  27.392  1.00  0.00     0.029 A 
ATOM     44  C   UNL A   1      40.793  27.944  28.572  1.00  0.00     0.049 A 
ATOM     45  H   UNL A   1      40.466  28.859  30.416  1.00  0.00     0.167 HD
ATOM     46  C   UNL A   1      39.790  31.039  34.141  1.00  0.00     0.034 A 
ATOM     47  C   UNL A   1      41.960  27.277  28.658  1.00  0.00     0.034 A 
ATOM     48  C   UNL A   1      40.962  30.238  34.379  1.00  0.00     0.049 A 
ATOM     49  C   UNL A   1      42.698  27.268  29.968  1.00  0.00     0.074 A 
ATOM     50  C   UNL A   1      41.712  30.132  35.538  1.00  0.00     0.029 A 
ATOM     51  N   UNL A   1      41.560  29.410  33.441  1.00  0.00    -0.354 N 
ATOM     52  N   UNL A   1      42.389  27.863  31.094  1.00  0.00    -0.248 NA
ATOM     53  C   UNL A   1      43.920  26.455  30.034  1.00  0.00     0.031 C 
ATOM     54  C   UNL A   1      42.777  29.257  35.291  1.00  0.00     0.029 A 
ATOM     55  C   UNL A   1      42.672  28.794  33.991  1.00  0.00     0.049 A 
ATOM     56  H   UNL A   1      41.242  29.281  32.519  1.00  0.00     0.167 HD
ATOM     57  C   UNL A   1      43.363  27.478  32.008  1.00  0.00     0.074 A 
ATOM     58  C   UNL A   1      44.248  26.566  31.313  1.00  0.00     0.031 C 
ATOM     59  C   UNL A   1      43.523  27.860  33.300  1.00  0.00     0.034 A 
BRANCH  46  60
ATOM     60  C   UNL A   1      39.275  31.903  35.265  1.00  0.00     0.023 A 
ATOM     61  C   UNL A   1      38.349  31.364  36.182  1.00  0.00     0.012 A 
ATOM     62  C   UNL A   1      39.750  33.216  35.457  1.00  0.00     0.148 A 
ATOM     63  C   UNL A   1      37.877  32.126  37.250  1.00  0.00     0.002 A 
ATOM     64  C   UNL A   1      39.311  33.953  36.551  1.00  0.00     0.091 A 
ATOM     65  F   UNL A   1      40.617  33.718  34.566  1.00  0.00    -0.205 F 
ATOM     66  C   UNL A   1      38.366  33.414  37.440  1.00  0.00     0.022 A 
BRANCH  64  67
ATOM     67  S   UNL A   1      39.935  35.593  36.935  1.00  0.00     0.127 S 
ATOM     68  O   UNL A   1      39.234  35.891  38.183  1.00  0.00    -0.237 OA
ATOM     69  O   UNL A   1      41.369  35.348  37.085  1.00  0.00    -0.237 OA
ATOM     70  O   UNL A   1      39.576  36.435  35.802  1.00  0.00    -0.744 OA
ENDBRANCH  64  67
ENDBRANCH  46  60
BRANCH  47  71
ATOM     71  C   UNL A   1      42.470  26.515  27.484  1.00  0.00     0.023 A 
ATOM     72  C   UNL A   1      43.310  27.149  26.546  1.00  0.00     0.012 A 
ATOM     73  C   UNL A   1      42.143  25.158  27.303  1.00  0.00     0.148 A 
ATOM     74  C   UNL A   1      43.779  26.456  25.430  1.00  0.00     0.002 A 
ATOM     75  C   UNL A   1      42.664  24.457  26.222  1.00  0.00     0.091 A 
ATOM     76  F   UNL A   1      41.332  24.575  28.198  1.00  0.00    -0.205 F 
ATOM     77  C   UNL A   1      43.465  25.109  25.273  1.00  0.00     0.022 A 
BRANCH  75  78
ATOM     78  S   UNL A   1      42.426  22.688  26.024  1.00  0.00     0.127 S 
ATOM     79  O   UNL A   1      40.973  22.569  26.117  1.00  0.00    -0.237 OA
ATOM     80  O   UNL A   1      42.979  22.457  24.690  1.00  0.00    -0.237 OA
ATOM     81  O   UNL A   1      43.185  22.069  27.102  1.00  0.00    -0.744 OA
ENDBRANCH  75  78
ENDBRANCH  47  71
BRANCH  59  82
ATOM     82  C   UNL A   1      44.690  27.271  34.053  1.00  0.00     0.023 A 
ATOM     83  C   UNL A   1      45.948  27.907  34.007  1.00  0.00     0.012 A 
ATOM     84  C   UNL A   1      44.534  26.107  34.831  1.00  0.00     0.148 A 
ATOM     85  C   UNL A   1      47.043  27.365  34.678  1.00  0.00     0.002 A 
ATOM     86  C   UNL A   1      45.617  25.602  35.540  1.00  0.00     0.091 A 
ATOM     87  F   UNL A   1      43.336  25.504  34.849  1.00  0.00    -0.205 F 
ATOM     88  C   UNL A   1      46.875  26.219  35.451  1.00  0.00     0.022 A 
BRANCH  86  89
ATOM     89  S   UNL A   1      45.470  24.187  36.637  1.00  0.00     0.127 S 
ATOM     90  O   UNL A   1      46.843  24.039  37.117  1.00  0.00    -0.237 OA
ATOM     91  O   UNL A   1      44.520  24.668  37.640  1.00  0.00    -0.237 OA
ATOM     92  O   UNL A   1      44.973  23.094  35.812  1.00  0.00    -0.744 OA
ENDBRANCH  86  89
ENDBRANCH  59  82
ENDBRANCH  33  34
ENDBRANCH  25  28
ENDBRANCH  23  24
ENDBRANCH   1  23
TORSDOF 16
ENDMDL
