MODEL 1
REMARK VINA RESULT:     -10.8      0.000      0.000
REMARK SMILES Cc1cccc(Nc2nc(C)c(CCO)c(OCC(=O)NCCCCNC(=O)c3ccc(-c4c5nc(c(-c6cccc(S(=O)(=O)[O-])c6F)c6ccc([nH]6)c(-c6cccc(S(=O)(=O)[O-])c6F)c6nc(c(-c7cccc(S(=O)(=O)[O-])c7F)c7ccc4[nH]7)C=C6)C=C5)cc3)n2)c1
REMARK SMILES IDX 22 1 21 2 19 3 20 4 18 6 17 7 16 8 8 9 9 10 92 11 10 12
REMARK SMILES IDX 11 13 12 14 7 15 6 17 1 18 2 19 3 20 93 21 4 22 5 23 13 24
REMARK SMILES IDX 14 25 15 26 23 28 24 29 25 30 26 31 27 32 28 34 29 35 30 36
REMARK SMILES IDX 91 37 31 38 90 39 32 40 33 41 34 42 84 43 35 44 89 45 83 46
REMARK SMILES IDX 85 47 36 48 88 49 82 50 81 51 37 53 69 54 49 55 68 56 50 57
REMARK SMILES IDX 53 58 67 59 86 60 51 61 52 62 66 64 87 65 54 66 38 67 39 68
REMARK SMILES IDX 47 69 40 70 42 71 48 72 41 73 43 74 44 75 45 76 46 77 70 78
REMARK SMILES IDX 71 79 79 80 72 81 74 82 80 83 73 84 75 85 76 86 77 87 78 88
REMARK SMILES IDX 55 89 56 90 64 91 57 92 59 93 65 94 58 95 60 96 61 97 62 98
REMARK SMILES IDX 63 99
REMARK H PARENT 21 5 7 16 15 27 26 33 85 52 53 63
REMARK Flexibility Score: inf
ROOT
ATOM      1  C   UNL A   1      34.066  29.121  25.898  1.00  0.00     0.116 C 
ENDROOT
BRANCH   1   2
ATOM      2  N   UNL A   1      32.680  28.803  25.619  1.00  0.00    -0.353 N 
ATOM      3  C   UNL A   1      32.134  27.612  25.272  1.00  0.00     0.258 C 
ATOM      4  O   UNL A   1      30.908  27.545  25.160  1.00  0.00    -0.271 OA
ATOM      5  H   UNL A   1      32.049  29.555  25.692  1.00  0.00     0.163 HD
BRANCH   3   6
ATOM      6  C   UNL A   1      33.029  26.382  25.090  1.00  0.00     0.331 C 
BRANCH   6   7
ATOM      7  O   UNL A   1      33.321  25.472  26.130  1.00  0.00    -0.467 OA
BRANCH   7   8
ATOM      8  C   UNL A   1      33.744  24.201  25.911  1.00  0.00     0.222 A 
ATOM      9  C   UNL A   1      35.623  23.074  25.179  1.00  0.00     0.230 A 
ATOM     10  N   UNL A   1      35.011  21.896  25.269  1.00  0.00    -0.218 NA
ATOM     11  N   UNL A   1      35.006  24.226  25.442  1.00  0.00    -0.177 NA
ATOM     12  C   UNL A   1      33.784  21.866  25.838  1.00  0.00     0.050 A 
ATOM     13  C   UNL A   1      33.283  20.468  26.065  1.00  0.00     0.067 C 
ATOM     14  C   UNL A   1      33.119  23.016  26.273  1.00  0.00     0.038 A 
BRANCH   9  15
ATOM     15  N   UNL A   1      36.991  23.033  24.901  1.00  0.00    -0.324 N 
ATOM     16  H   UNL A   1      37.235  22.952  23.951  1.00  0.00     0.170 HD
BRANCH  15  17
ATOM     17  C   UNL A   1      38.064  23.092  25.811  1.00  0.00     0.041 A 
ATOM     18  C   UNL A   1      40.881  20.802  27.035  1.00  0.00     0.044 C 
ATOM     19  C   UNL A   1      39.978  21.988  26.876  1.00  0.00    -0.049 A 
ATOM     20  C   UNL A   1      40.193  23.125  27.661  1.00  0.00     0.003 A 
ATOM     21  C   UNL A   1      38.918  21.984  25.950  1.00  0.00     0.029 A 
ATOM     22  C   UNL A   1      39.381  24.243  27.509  1.00  0.00     0.002 A 
ATOM     23  C   UNL A   1      38.337  24.228  26.583  1.00  0.00     0.026 A 
ENDBRANCH  15  17
ENDBRANCH   9  15
BRANCH  14  24
ATOM     24  C   UNL A   1      31.892  22.945  27.144  1.00  0.00     0.071 C 
BRANCH  24  25
ATOM     25  C   UNL A   1      30.545  23.144  26.431  1.00  0.00     0.161 C 
BRANCH  25  26
ATOM     26  O   UNL A   1      29.666  22.031  26.471  1.00  0.00    -0.396 OA
ATOM     27  H   UNL A   1      30.150  21.247  26.777  1.00  0.00     0.210 HD
ENDBRANCH  25  26
ENDBRANCH  24  25
ENDBRANCH  14  24
ENDBRANCH   7   8
ENDBRANCH   6   7
ENDBRANCH   3   6
ENDBRANCH   1   2
BRANCH   1  28
ATOM     28  C   UNL A   1      34.307  29.519  27.358  1.00  0.00     0.023 C 
BRANCH  28  29
ATOM     29  C   UNL A   1      35.179  30.758  27.584  1.00  0.00     0.023 C 
BRANCH  29  30
ATOM     30  C   UNL A   1      34.906  31.461  28.896  1.00  0.00     0.116 C 
BRANCH  30  31
ATOM     31  N   UNL A   1      34.686  32.878  28.755  1.00  0.00    -0.352 N 
ATOM     32  C   UNL A   1      35.094  33.878  29.610  1.00  0.00     0.251 C 
ATOM     33  H   UNL A   1      34.187  33.163  27.956  1.00  0.00     0.163 HD
ATOM     34  O   UNL A   1      34.391  34.887  29.678  1.00  0.00    -0.269 OA
BRANCH  32  35
ATOM     35  C   UNL A   1      36.432  33.824  30.264  1.00  0.00     0.039 A 
ATOM     36  C   UNL A   1      37.543  34.062  29.443  1.00  0.00     0.014 A 
ATOM     37  C   UNL A   1      36.625  33.245  31.515  1.00  0.00     0.014 A 
ATOM     38  C   UNL A   1      38.753  33.437  29.719  1.00  0.00     0.010 A 
ATOM     39  C   UNL A   1      37.780  32.557  31.754  1.00  0.00     0.010 A 
ATOM     40  C   UNL A   1      38.794  32.574  30.799  1.00  0.00    -0.014 A 
BRANCH  40  41
ATOM     41  C   UNL A   1      39.868  31.663  31.116  1.00  0.00     0.031 A 
ATOM     42  C   UNL A   1      39.880  30.369  30.417  1.00  0.00     0.074 A 
ATOM     43  C   UNL A   1      40.939  32.225  31.723  1.00  0.00     0.049 A 
ATOM     44  N   UNL A   1      40.691  29.409  30.668  1.00  0.00    -0.248 NA
ATOM     45  C   UNL A   1      38.938  30.064  29.342  1.00  0.00     0.031 C 
ATOM     46  C   UNL A   1      42.321  31.771  31.702  1.00  0.00     0.029 A 
ATOM     47  N   UNL A   1      40.999  33.346  32.563  1.00  0.00    -0.354 N 
ATOM     48  C   UNL A   1      40.608  28.520  29.612  1.00  0.00     0.074 A 
ATOM     49  C   UNL A   1      39.417  28.900  28.897  1.00  0.00     0.031 C 
ATOM     50  C   UNL A   1      42.988  32.380  32.701  1.00  0.00     0.029 A 
ATOM     51  C   UNL A   1      41.990  33.058  33.512  1.00  0.00     0.049 A 
ATOM     52  H   UNL A   1      40.458  34.167  32.499  1.00  0.00     0.167 HD
ATOM     53  C   UNL A   1      41.669  27.695  29.382  1.00  0.00     0.034 A 
ATOM     54  C   UNL A   1      41.698  32.735  34.816  1.00  0.00     0.034 A 
ATOM     55  C   UNL A   1      42.665  27.867  30.461  1.00  0.00     0.049 A 
ATOM     56  C   UNL A   1      42.091  31.296  35.159  1.00  0.00     0.074 A 
ATOM     57  C   UNL A   1      43.819  28.630  30.559  1.00  0.00     0.029 A 
ATOM     58  N   UNL A   1      42.319  27.524  31.766  1.00  0.00    -0.354 N 
ATOM     59  N   UNL A   1      42.457  30.411  34.270  1.00  0.00    -0.248 NA
ATOM     60  C   UNL A   1      42.114  30.741  36.512  1.00  0.00     0.031 C 
ATOM     61  C   UNL A   1      44.076  28.855  31.944  1.00  0.00     0.029 A 
ATOM     62  C   UNL A   1      43.109  28.200  32.688  1.00  0.00     0.049 A 
ATOM     63  H   UNL A   1      41.607  26.885  32.003  1.00  0.00     0.167 HD
ATOM     64  C   UNL A   1      42.646  29.190  34.853  1.00  0.00     0.074 A 
ATOM     65  C   UNL A   1      42.493  29.470  36.273  1.00  0.00     0.031 C 
ATOM     66  C   UNL A   1      42.854  28.049  34.124  1.00  0.00     0.034 A 
BRANCH  53  67
ATOM     67  C   UNL A   1      41.974  26.974  28.071  1.00  0.00     0.023 A 
ATOM     68  C   UNL A   1      41.255  27.398  26.929  1.00  0.00     0.012 A 
ATOM     69  C   UNL A   1      42.856  25.883  27.861  1.00  0.00     0.148 A 
ATOM     70  C   UNL A   1      41.345  26.750  25.690  1.00  0.00     0.002 A 
ATOM     71  C   UNL A   1      42.923  25.210  26.633  1.00  0.00     0.091 A 
ATOM     72  F   UNL A   1      43.697  25.506  28.820  1.00  0.00    -0.205 F 
ATOM     73  C   UNL A   1      42.163  25.641  25.545  1.00  0.00     0.022 A 
BRANCH  71  74
ATOM     74  S   UNL A   1      43.946  23.744  26.373  1.00  0.00     0.127 S 
ATOM     75  O   UNL A   1      43.475  23.267  25.072  1.00  0.00    -0.237 OA
ATOM     76  O   UNL A   1      45.296  24.305  26.361  1.00  0.00    -0.237 OA
ATOM     77  O   UNL A   1      43.661  22.840  27.480  1.00  0.00    -0.744 OA
ENDBRANCH  71  74
ENDBRANCH  53  67
BRANCH  54  78
ATOM     78  C   UNL A   1      40.501  33.469  35.342  1.00  0.00     0.023 A 
ATOM     79  C   UNL A   1      39.249  32.828  35.164  1.00  0.00     0.012 A 
ATOM     80  C   UNL A   1      40.622  34.442  36.349  1.00  0.00     0.148 A 
ATOM     81  C   UNL A   1      38.233  32.969  36.111  1.00  0.00     0.002 A 
ATOM     82  C   UNL A   1      39.591  34.596  37.278  1.00  0.00     0.091 A 
ATOM     83  F   UNL A   1      41.754  35.153  36.427  1.00  0.00    -0.205 F 
ATOM     84  C   UNL A   1      38.429  33.812  37.200  1.00  0.00     0.022 A 
BRANCH  82  85
ATOM     85  S   UNL A   1      39.758  35.719  38.675  1.00  0.00     0.127 S 
ATOM     86  O   UNL A   1      39.593  37.018  38.030  1.00  0.00    -0.237 OA
ATOM     87  O   UNL A   1      38.649  35.325  39.541  1.00  0.00    -0.237 OA
ATOM     88  O   UNL A   1      41.075  35.433  39.224  1.00  0.00    -0.744 OA
ENDBRANCH  82  85
ENDBRANCH  54  78
BRANCH  66  89
ATOM     89  C   UNL A   1      42.818  26.650  34.704  1.00  0.00     0.023 A 
ATOM     90  C   UNL A   1      41.630  26.068  35.187  1.00  0.00     0.012 A 
ATOM     91  C   UNL A   1      43.956  25.807  34.624  1.00  0.00     0.148 A 
ATOM     92  C   UNL A   1      41.589  24.747  35.644  1.00  0.00     0.002 A 
ATOM     93  C   UNL A   1      43.873  24.458  34.949  1.00  0.00     0.091 A 
ATOM     94  F   UNL A   1      45.139  26.314  34.247  1.00  0.00    -0.205 F 
ATOM     95  C   UNL A   1      42.703  23.934  35.501  1.00  0.00     0.022 A 
BRANCH  93  96
ATOM     96  S   UNL A   1      45.188  23.318  34.501  1.00  0.00     0.127 S 
ATOM     97  O   UNL A   1      46.282  23.762  35.360  1.00  0.00    -0.237 OA
ATOM     98  O   UNL A   1      44.614  22.020  34.864  1.00  0.00    -0.237 OA
ATOM     99  O   UNL A   1      45.380  23.501  33.068  1.00  0.00    -0.744 OA
ENDBRANCH  93  96
ENDBRANCH  66  89
ENDBRANCH  40  41
ENDBRANCH  32  35
ENDBRANCH  30  31
ENDBRANCH  29  30
ENDBRANCH  28  29
ENDBRANCH   1  28
TORSDOF 21
ENDMDL
MODEL 2
REMARK VINA RESULT:     -10.5      3.300      8.010
REMARK SMILES Cc1cccc(Nc2nc(C)c(CCO)c(OCC(=O)NCCCCNC(=O)c3ccc(-c4c5nc(c(-c6cccc(S(=O)(=O)[O-])c6F)c6ccc([nH]6)c(-c6cccc(S(=O)(=O)[O-])c6F)c6nc(c(-c7cccc(S(=O)(=O)[O-])c7F)c7ccc4[nH]7)C=C6)C=C5)cc3)n2)c1
REMARK SMILES IDX 22 1 21 2 19 3 20 4 18 6 17 7 16 8 8 9 9 10 92 11 10 12
REMARK SMILES IDX 11 13 12 14 7 15 6 17 1 18 2 19 3 20 93 21 4 22 5 23 13 24
REMARK SMILES IDX 14 25 15 26 23 28 24 29 25 30 26 31 27 32 28 34 29 35 30 36
REMARK SMILES IDX 91 37 31 38 90 39 32 40 33 41 34 42 84 43 35 44 89 45 83 46
REMARK SMILES IDX 85 47 36 48 88 49 82 50 81 51 37 53 69 54 49 55 68 56 50 57
REMARK SMILES IDX 53 58 67 59 86 60 51 61 52 62 66 64 87 65 54 66 38 67 39 68
REMARK SMILES IDX 47 69 40 70 42 71 48 72 41 73 43 74 44 75 45 76 46 77 70 78
REMARK SMILES IDX 71 79 79 80 72 81 74 82 80 83 73 84 75 85 76 86 77 87 78 88
REMARK SMILES IDX 55 89 56 90 64 91 57 92 59 93 65 94 58 95 60 96 61 97 62 98
REMARK SMILES IDX 63 99
REMARK H PARENT 21 5 7 16 15 27 26 33 85 52 53 63
REMARK Flexibility Score: inf
ROOT
ATOM      1  C   UNL A   1      34.834  29.896  27.888  1.00  0.00     0.116 C 
ENDROOT
BRANCH   1   2
ATOM      2  N   UNL A   1      33.780  30.831  27.550  1.00  0.00    -0.353 N 
ATOM      3  C   UNL A   1      32.582  30.587  26.963  1.00  0.00     0.258 C 
ATOM      4  O   UNL A   1      31.792  31.526  26.840  1.00  0.00    -0.271 OA
ATOM      5  H   UNL A   1      33.958  31.771  27.777  1.00  0.00     0.163 HD
BRANCH   3   6
ATOM      6  C   UNL A   1      32.217  29.163  26.529  1.00  0.00     0.331 C 
BRANCH   6   7
ATOM      7  O   UNL A   1      31.574  28.864  25.308  1.00  0.00    -0.467 OA
BRANCH   7   8
ATOM      8  C   UNL A   1      32.011  27.906  24.451  1.00  0.00     0.222 A 
ATOM      9  C   UNL A   1      33.592  26.225  24.351  1.00  0.00     0.230 A 
ATOM     10  N   UNL A   1      33.258  25.919  23.100  1.00  0.00    -0.218 NA
ATOM     11  N   UNL A   1      33.027  27.229  25.021  1.00  0.00    -0.177 NA
ATOM     12  C   UNL A   1      32.171  26.527  22.572  1.00  0.00     0.050 A 
ATOM     13  C   UNL A   1      31.778  25.958  21.238  1.00  0.00     0.067 C 
ATOM     14  C   UNL A   1      31.432  27.496  23.259  1.00  0.00     0.038 A 
BRANCH   9  15
ATOM     15  N   UNL A   1      34.494  25.358  24.972  1.00  0.00    -0.324 N 
ATOM     16  H   UNL A   1      35.368  25.743  25.207  1.00  0.00     0.170 HD
BRANCH  15  17
ATOM     17  C   UNL A   1      34.307  24.001  25.303  1.00  0.00     0.041 A 
ATOM     18  C   UNL A   1      36.246  20.710  25.008  1.00  0.00     0.044 C 
ATOM     19  C   UNL A   1      35.164  21.704  25.310  1.00  0.00    -0.049 A 
ATOM     20  C   UNL A   1      33.969  21.263  25.886  1.00  0.00     0.003 A 
ATOM     21  C   UNL A   1      35.327  23.073  25.031  1.00  0.00     0.029 A 
ATOM     22  C   UNL A   1      32.964  22.173  26.196  1.00  0.00     0.002 A 
ATOM     23  C   UNL A   1      33.141  23.529  25.919  1.00  0.00     0.026 A 
ENDBRANCH  15  17
ENDBRANCH   9  15
BRANCH  14  24
ATOM     24  C   UNL A   1      30.082  27.957  22.777  1.00  0.00     0.071 C 
BRANCH  24  25
ATOM     25  C   UNL A   1      29.922  29.471  22.565  1.00  0.00     0.161 C 
BRANCH  25  26
ATOM     26  O   UNL A   1      30.796  30.047  21.607  1.00  0.00    -0.396 OA
ATOM     27  H   UNL A   1      31.009  29.389  20.926  1.00  0.00     0.210 HD
ENDBRANCH  25  26
ENDBRANCH  24  25
ENDBRANCH  14  24
ENDBRANCH   7   8
ENDBRANCH   6   7
ENDBRANCH   3   6
ENDBRANCH   1   2
BRANCH   1  28
ATOM     28  C   UNL A   1      36.231  30.409  27.523  1.00  0.00     0.023 C 
BRANCH  28  29
ATOM     29  C   UNL A   1      37.378  29.939  28.422  1.00  0.00     0.023 C 
BRANCH  29  30
ATOM     30  C   UNL A   1      38.581  29.435  27.654  1.00  0.00     0.116 C 
BRANCH  30  31
ATOM     31  N   UNL A   1      38.561  28.013  27.424  1.00  0.00    -0.352 N 
ATOM     32  C   UNL A   1      39.422  27.068  27.940  1.00  0.00     0.251 C 
ATOM     33  H   UNL A   1      37.853  27.678  26.828  1.00  0.00     0.163 HD
ATOM     34  O   UNL A   1      39.644  26.069  27.254  1.00  0.00    -0.269 OA
BRANCH  32  35
ATOM     35  C   UNL A   1      39.896  27.158  29.350  1.00  0.00     0.039 A 
ATOM     36  C   UNL A   1      38.908  27.194  30.344  1.00  0.00     0.014 A 
ATOM     37  C   UNL A   1      41.198  27.526  29.673  1.00  0.00     0.014 A 
ATOM     38  C   UNL A   1      39.138  27.894  31.522  1.00  0.00     0.010 A 
ATOM     39  C   UNL A   1      41.412  28.289  30.787  1.00  0.00     0.010 A 
ATOM     40  C   UNL A   1      40.348  28.555  31.646  1.00  0.00    -0.014 A 
BRANCH  40  41
ATOM     41  C   UNL A   1      40.690  29.511  32.672  1.00  0.00     0.031 A 
ATOM     42  C   UNL A   1      41.261  28.981  33.919  1.00  0.00     0.074 A 
ATOM     43  C   UNL A   1      40.803  30.792  32.251  1.00  0.00     0.049 A 
ATOM     44  N   UNL A   1      41.507  29.679  34.966  1.00  0.00    -0.248 NA
ATOM     45  C   UNL A   1      41.608  27.569  34.071  1.00  0.00     0.031 C 
ATOM     46  C   UNL A   1      41.603  31.859  32.834  1.00  0.00     0.029 A 
ATOM     47  N   UNL A   1      40.156  31.441  31.190  1.00  0.00    -0.354 N 
ATOM     48  C   UNL A   1      42.323  28.915  35.781  1.00  0.00     0.074 A 
ATOM     49  C   UNL A   1      42.236  27.579  35.248  1.00  0.00     0.031 C 
ATOM     50  C   UNL A   1      41.164  33.036  32.349  1.00  0.00     0.029 A 
ATOM     51  C   UNL A   1      39.936  32.755  31.626  1.00  0.00     0.049 A 
ATOM     52  H   UNL A   1      39.908  31.054  30.319  1.00  0.00     0.167 HD
ATOM     53  C   UNL A   1      43.108  29.560  36.690  1.00  0.00     0.034 A 
ATOM     54  C   UNL A   1      38.695  33.218  31.992  1.00  0.00     0.034 A 
ATOM     55  C   UNL A   1      42.788  31.003  36.676  1.00  0.00     0.049 A 
ATOM     56  C   UNL A   1      38.624  33.573  33.479  1.00  0.00     0.074 A 
ATOM     57  C   UNL A   1      43.369  32.086  36.035  1.00  0.00     0.029 A 
ATOM     58  N   UNL A   1      41.514  31.420  37.058  1.00  0.00    -0.354 N 
ATOM     59  N   UNL A   1      39.556  33.271  34.344  1.00  0.00    -0.248 NA
ATOM     60  C   UNL A   1      37.520  34.295  34.110  1.00  0.00     0.031 C 
ATOM     61  C   UNL A   1      42.377  33.105  35.914  1.00  0.00     0.029 A 
ATOM     62  C   UNL A   1      41.210  32.663  36.514  1.00  0.00     0.049 A 
ATOM     63  H   UNL A   1      40.910  30.901  37.638  1.00  0.00     0.167 HD
ATOM     64  C   UNL A   1      39.173  33.619  35.608  1.00  0.00     0.074 A 
ATOM     65  C   UNL A   1      37.921  34.328  35.396  1.00  0.00     0.031 C 
ATOM     66  C   UNL A   1      39.883  33.249  36.721  1.00  0.00     0.034 A 
BRANCH  53  67
ATOM     67  C   UNL A   1      44.354  28.987  37.362  1.00  0.00     0.023 A 
ATOM     68  C   UNL A   1      45.487  29.831  37.427  1.00  0.00     0.012 A 
ATOM     69  C   UNL A   1      44.539  27.682  37.887  1.00  0.00     0.148 A 
ATOM     70  C   UNL A   1      46.730  29.398  37.907  1.00  0.00     0.002 A 
ATOM     71  C   UNL A   1      45.789  27.235  38.335  1.00  0.00     0.091 A 
ATOM     72  F   UNL A   1      43.501  26.861  38.024  1.00  0.00    -0.205 F 
ATOM     73  C   UNL A   1      46.890  28.093  38.342  1.00  0.00     0.022 A 
BRANCH  71  74
ATOM     74  S   UNL A   1      46.081  25.542  38.895  1.00  0.00     0.127 S 
ATOM     75  O   UNL A   1      47.474  25.601  39.339  1.00  0.00    -0.237 OA
ATOM     76  O   UNL A   1      45.106  25.399  39.975  1.00  0.00    -0.237 OA
ATOM     77  O   UNL A   1      45.858  24.681  37.741  1.00  0.00    -0.744 OA
ENDBRANCH  71  74
ENDBRANCH  53  67
BRANCH  54  78
ATOM     78  C   UNL A   1      37.587  32.619  31.177  1.00  0.00     0.023 A 
ATOM     79  C   UNL A   1      36.843  31.586  31.801  1.00  0.00     0.012 A 
ATOM     80  C   UNL A   1      37.001  33.320  30.109  1.00  0.00     0.148 A 
ATOM     81  C   UNL A   1      35.481  31.427  31.537  1.00  0.00     0.002 A 
ATOM     82  C   UNL A   1      35.644  33.137  29.834  1.00  0.00     0.091 A 
ATOM     83  F   UNL A   1      37.748  34.194  29.424  1.00  0.00    -0.205 F 
ATOM     84  C   UNL A   1      34.871  32.244  30.592  1.00  0.00     0.022 A 
BRANCH  82  85
ATOM     85  S   UNL A   1      34.809  34.120  28.578  1.00  0.00     0.127 S 
ATOM     86  O   UNL A   1      35.127  35.478  29.009  1.00  0.00    -0.237 OA
ATOM     87  O   UNL A   1      35.473  33.702  27.346  1.00  0.00    -0.237 OA
ATOM     88  O   UNL A   1      33.412  33.724  28.667  1.00  0.00    -0.744 OA
ENDBRANCH  82  85
ENDBRANCH  54  78
BRANCH  66  89
ATOM     89  C   UNL A   1      39.373  33.393  38.141  1.00  0.00     0.023 A 
ATOM     90  C   UNL A   1      39.875  34.368  39.023  1.00  0.00     0.012 A 
ATOM     91  C   UNL A   1      38.244  32.654  38.579  1.00  0.00     0.148 A 
ATOM     92  C   UNL A   1      39.342  34.548  40.303  1.00  0.00     0.002 A 
ATOM     93  C   UNL A   1      37.634  32.934  39.796  1.00  0.00     0.091 A 
ATOM     94  F   UNL A   1      37.762  31.658  37.822  1.00  0.00    -0.205 F 
ATOM     95  C   UNL A   1      38.204  33.850  40.680  1.00  0.00     0.022 A 
BRANCH  93  96
ATOM     96  S   UNL A   1      36.007  32.275  40.186  1.00  0.00     0.127 S 
ATOM     97  O   UNL A   1      35.689  32.968  41.430  1.00  0.00    -0.237 OA
ATOM     98  O   UNL A   1      35.214  32.698  39.030  1.00  0.00    -0.237 OA
ATOM     99  O   UNL A   1      36.193  30.833  40.281  1.00  0.00    -0.744 OA
ENDBRANCH  93  96
ENDBRANCH  66  89
ENDBRANCH  40  41
ENDBRANCH  32  35
ENDBRANCH  30  31
ENDBRANCH  29  30
ENDBRANCH  28  29
ENDBRANCH   1  28
TORSDOF 21
ENDMDL
MODEL 3
REMARK VINA RESULT:     -10.3      3.588      8.867
REMARK SMILES Cc1cccc(Nc2nc(C)c(CCO)c(OCC(=O)NCCCCNC(=O)c3ccc(-c4c5nc(c(-c6cccc(S(=O)(=O)[O-])c6F)c6ccc([nH]6)c(-c6cccc(S(=O)(=O)[O-])c6F)c6nc(c(-c7cccc(S(=O)(=O)[O-])c7F)c7ccc4[nH]7)C=C6)C=C5)cc3)n2)c1
REMARK SMILES IDX 22 1 21 2 19 3 20 4 18 6 17 7 16 8 8 9 9 10 92 11 10 12
REMARK SMILES IDX 11 13 12 14 7 15 6 17 1 18 2 19 3 20 93 21 4 22 5 23 13 24
REMARK SMILES IDX 14 25 15 26 23 28 24 29 25 30 26 31 27 32 28 34 29 35 30 36
REMARK SMILES IDX 91 37 31 38 90 39 32 40 33 41 34 42 84 43 35 44 89 45 83 46
REMARK SMILES IDX 85 47 36 48 88 49 82 50 81 51 37 53 69 54 49 55 68 56 50 57
REMARK SMILES IDX 53 58 67 59 86 60 51 61 52 62 66 64 87 65 54 66 38 67 39 68
REMARK SMILES IDX 47 69 40 70 42 71 48 72 41 73 43 74 44 75 45 76 46 77 70 78
REMARK SMILES IDX 71 79 79 80 72 81 74 82 80 83 73 84 75 85 76 86 77 87 78 88
REMARK SMILES IDX 55 89 56 90 64 91 57 92 59 93 65 94 58 95 60 96 61 97 62 98
REMARK SMILES IDX 63 99
REMARK H PARENT 21 5 7 16 15 27 26 33 85 52 53 63
REMARK Flexibility Score: inf
ROOT
ATOM      1  C   UNL A   1      35.575  29.701  27.765  1.00  0.00     0.116 C 
ENDROOT
BRANCH   1   2
ATOM      2  N   UNL A   1      34.309  30.355  27.505  1.00  0.00    -0.353 N 
ATOM      3  C   UNL A   1      33.317  29.982  26.658  1.00  0.00     0.258 C 
ATOM      4  O   UNL A   1      32.277  30.646  26.652  1.00  0.00    -0.271 OA
ATOM      5  H   UNL A   1      34.146  31.182  28.012  1.00  0.00     0.163 HD
BRANCH   3   6
ATOM      6  C   UNL A   1      33.480  28.731  25.789  1.00  0.00     0.331 C 
BRANCH   6   7
ATOM      7  O   UNL A   1      32.974  28.626  24.475  1.00  0.00    -0.467 OA
BRANCH   7   8
ATOM      8  C   UNL A   1      31.961  27.790  24.132  1.00  0.00     0.222 A 
ATOM      9  C   UNL A   1      29.748  27.884  23.478  1.00  0.00     0.230 A 
ATOM     10  N   UNL A   1      29.650  26.557  23.447  1.00  0.00    -0.218 NA
ATOM     11  N   UNL A   1      30.859  28.514  23.858  1.00  0.00    -0.177 NA
ATOM     12  C   UNL A   1      30.784  25.839  23.619  1.00  0.00     0.050 A 
ATOM     13  C   UNL A   1      30.584  24.371  23.366  1.00  0.00     0.067 C 
ATOM     14  C   UNL A   1      32.024  26.426  23.884  1.00  0.00     0.038 A 
BRANCH   9  15
ATOM     15  N   UNL A   1      28.651  28.589  22.977  1.00  0.00    -0.324 N 
ATOM     16  H   UNL A   1      27.855  28.052  22.763  1.00  0.00     0.170 HD
BRANCH  15  17
ATOM     17  C   UNL A   1      28.544  29.973  22.740  1.00  0.00     0.041 A 
ATOM     18  C   UNL A   1      28.005  32.312  19.754  1.00  0.00     0.044 C 
ATOM     19  C   UNL A   1      28.238  31.814  21.149  1.00  0.00    -0.049 A 
ATOM     20  C   UNL A   1      28.380  32.735  22.191  1.00  0.00     0.003 A 
ATOM     21  C   UNL A   1      28.313  30.438  21.434  1.00  0.00     0.029 A 
ATOM     22  C   UNL A   1      28.572  32.291  23.495  1.00  0.00     0.002 A 
ATOM     23  C   UNL A   1      28.638  30.924  23.765  1.00  0.00     0.026 A 
ENDBRANCH  15  17
ENDBRANCH   9  15
BRANCH  14  24
ATOM     24  C   UNL A   1      33.309  25.646  23.799  1.00  0.00     0.071 C 
BRANCH  24  25
ATOM     25  C   UNL A   1      33.838  25.069  25.122  1.00  0.00     0.161 C 
BRANCH  25  26
ATOM     26  O   UNL A   1      34.057  23.668  25.130  1.00  0.00    -0.396 OA
ATOM     27  H   UNL A   1      34.104  23.342  24.217  1.00  0.00     0.210 HD
ENDBRANCH  25  26
ENDBRANCH  24  25
ENDBRANCH  14  24
ENDBRANCH   7   8
ENDBRANCH   6   7
ENDBRANCH   3   6
ENDBRANCH   1   2
BRANCH   1  28
ATOM     28  C   UNL A   1      36.747  30.682  27.865  1.00  0.00     0.023 C 
BRANCH  28  29
ATOM     29  C   UNL A   1      38.029  30.139  28.503  1.00  0.00     0.023 C 
BRANCH  29  30
ATOM     30  C   UNL A   1      38.979  29.505  27.509  1.00  0.00     0.116 C 
BRANCH  30  31
ATOM     31  N   UNL A   1      38.770  28.090  27.337  1.00  0.00    -0.352 N 
ATOM     32  C   UNL A   1      39.469  27.062  27.932  1.00  0.00     0.251 C 
ATOM     33  H   UNL A   1      38.047  27.828  26.723  1.00  0.00     0.163 HD
ATOM     34  O   UNL A   1      39.578  26.010  27.299  1.00  0.00    -0.269 OA
BRANCH  32  35
ATOM     35  C   UNL A   1      39.895  27.153  29.357  1.00  0.00     0.039 A 
ATOM     36  C   UNL A   1      38.873  27.243  30.313  1.00  0.00     0.014 A 
ATOM     37  C   UNL A   1      41.198  27.473  29.724  1.00  0.00     0.014 A 
ATOM     38  C   UNL A   1      39.088  27.950  31.489  1.00  0.00     0.010 A 
ATOM     39  C   UNL A   1      41.401  28.242  30.835  1.00  0.00     0.010 A 
ATOM     40  C   UNL A   1      40.318  28.563  31.650  1.00  0.00    -0.014 A 
BRANCH  40  41
ATOM     41  C   UNL A   1      40.661  29.519  32.676  1.00  0.00     0.031 A 
ATOM     42  C   UNL A   1      41.244  28.990  33.918  1.00  0.00     0.074 A 
ATOM     43  C   UNL A   1      40.762  30.802  32.257  1.00  0.00     0.049 A 
ATOM     44  N   UNL A   1      41.493  29.688  34.965  1.00  0.00    -0.248 NA
ATOM     45  C   UNL A   1      41.602  27.580  34.064  1.00  0.00     0.031 C 
ATOM     46  C   UNL A   1      41.558  31.873  32.837  1.00  0.00     0.029 A 
ATOM     47  N   UNL A   1      40.103  31.448  31.202  1.00  0.00    -0.354 N 
ATOM     48  C   UNL A   1      42.319  28.927  35.772  1.00  0.00     0.074 A 
ATOM     49  C   UNL A   1      42.239  27.592  35.237  1.00  0.00     0.031 C 
ATOM     50  C   UNL A   1      41.108  33.048  32.358  1.00  0.00     0.029 A 
ATOM     51  C   UNL A   1      39.877  32.760  31.643  1.00  0.00     0.049 A 
ATOM     52  H   UNL A   1      39.852  31.062  30.332  1.00  0.00     0.167 HD
ATOM     53  C   UNL A   1      43.107  29.576  36.677  1.00  0.00     0.034 A 
ATOM     54  C   UNL A   1      38.636  33.214  32.019  1.00  0.00     0.034 A 
ATOM     55  C   UNL A   1      42.776  31.016  36.668  1.00  0.00     0.049 A 
ATOM     56  C   UNL A   1      38.573  33.565  33.507  1.00  0.00     0.074 A 
ATOM     57  C   UNL A   1      43.346  32.105  36.026  1.00  0.00     0.029 A 
ATOM     58  N   UNL A   1      41.503  31.424  37.060  1.00  0.00    -0.354 N 
ATOM     59  N   UNL A   1      39.513  33.267  34.365  1.00  0.00    -0.248 NA
ATOM     60  C   UNL A   1      37.468  34.278  34.148  1.00  0.00     0.031 C 
ATOM     61  C   UNL A   1      42.346  33.118  35.914  1.00  0.00     0.029 A 
ATOM     62  C   UNL A   1      41.187  32.666  36.522  1.00  0.00     0.049 A 
ATOM     63  H   UNL A   1      40.906  30.900  37.643  1.00  0.00     0.167 HD
ATOM     64  C   UNL A   1      39.137  33.610  35.632  1.00  0.00     0.074 A 
ATOM     65  C   UNL A   1      37.878  34.311  35.431  1.00  0.00     0.031 C 
ATOM     66  C   UNL A   1      39.857  33.243  36.739  1.00  0.00     0.034 A 
BRANCH  53  67
ATOM     67  C   UNL A   1      44.361  29.010  37.339  1.00  0.00     0.023 A 
ATOM     68  C   UNL A   1      45.488  29.862  37.399  1.00  0.00     0.012 A 
ATOM     69  C   UNL A   1      44.559  27.704  37.858  1.00  0.00     0.148 A 
ATOM     70  C   UNL A   1      46.738  29.437  37.870  1.00  0.00     0.002 A 
ATOM     71  C   UNL A   1      45.816  27.265  38.297  1.00  0.00     0.091 A 
ATOM     72  F   UNL A   1      43.528  26.875  37.999  1.00  0.00    -0.205 F 
ATOM     73  C   UNL A   1      46.910  28.131  38.299  1.00  0.00     0.022 A 
BRANCH  71  74
ATOM     74  S   UNL A   1      46.124  25.573  38.849  1.00  0.00     0.127 S 
ATOM     75  O   UNL A   1      45.235  25.460  40.006  1.00  0.00    -0.237 OA
ATOM     76  O   UNL A   1      45.710  24.787  37.688  1.00  0.00    -0.237 OA
ATOM     77  O   UNL A   1      47.543  25.496  39.176  1.00  0.00    -0.744 OA
ENDBRANCH  71  74
ENDBRANCH  53  67
BRANCH  54  78
ATOM     78  C   UNL A   1      37.526  32.609  31.210  1.00  0.00     0.023 A 
ATOM     79  C   UNL A   1      36.952  31.422  31.731  1.00  0.00     0.012 A 
ATOM     80  C   UNL A   1      36.778  33.377  30.303  1.00  0.00     0.148 A 
ATOM     81  C   UNL A   1      35.595  31.146  31.549  1.00  0.00     0.002 A 
ATOM     82  C   UNL A   1      35.427  33.080  30.106  1.00  0.00     0.091 A 
ATOM     83  F   UNL A   1      37.366  34.417  29.698  1.00  0.00    -0.205 F 
ATOM     84  C   UNL A   1      34.821  32.009  30.782  1.00  0.00     0.022 A 
BRANCH  82  85
ATOM     85  S   UNL A   1      34.386  34.123  29.073  1.00  0.00     0.127 S 
ATOM     86  O   UNL A   1      34.001  33.196  28.013  1.00  0.00    -0.237 OA
ATOM     87  O   UNL A   1      33.302  34.496  29.979  1.00  0.00    -0.237 OA
ATOM     88  O   UNL A   1      35.244  35.231  28.681  1.00  0.00    -0.744 OA
ENDBRANCH  82  85
ENDBRANCH  54  78
BRANCH  66  89
ATOM     89  C   UNL A   1      39.356  33.379  38.163  1.00  0.00     0.023 A 
ATOM     90  C   UNL A   1      39.868  34.347  39.049  1.00  0.00     0.012 A 
ATOM     91  C   UNL A   1      38.226  32.643  38.603  1.00  0.00     0.148 A 
ATOM     92  C   UNL A   1      39.343  34.521  40.333  1.00  0.00     0.002 A 
ATOM     93  C   UNL A   1      37.624  32.918  39.825  1.00  0.00     0.091 A 
ATOM     94  F   UNL A   1      37.735  31.654  37.843  1.00  0.00    -0.205 F 
ATOM     95  C   UNL A   1      38.204  33.826  40.712  1.00  0.00     0.022 A 
BRANCH  93  96
ATOM     96  S   UNL A   1      35.997  32.264  40.221  1.00  0.00     0.127 S 
ATOM     97  O   UNL A   1      35.689  32.951  41.471  1.00  0.00    -0.237 OA
ATOM     98  O   UNL A   1      35.199  32.698  39.072  1.00  0.00    -0.237 OA
ATOM     99  O   UNL A   1      36.177  30.821  40.306  1.00  0.00    -0.744 OA
ENDBRANCH  93  96
ENDBRANCH  66  89
ENDBRANCH  40  41
ENDBRANCH  32  35
ENDBRANCH  30  31
ENDBRANCH  29  30
ENDBRANCH  28  29
ENDBRANCH   1  28
TORSDOF 21
ENDMDL
