MODEL 1
REMARK VINA RESULT:     -12.9      0.000      0.000
REMARK SMILES Cc1ccccc1N[C@H](C(=O)NCCCCNC(=O)c1ccc(-c2c3nc(c(-c4cccc(S(=O)(=O)[O-])c4F)c4ccc([nH]4)c(-c4cccc(S(=O)(=O)[O-])c4F)c4nc(c(-c5cccc(S(=O)(=O)[O-])c5F)c5ccc2[nH]5)C=C4)C=C3)cc1)c1ccccc1
REMARK SMILES IDX 15 1 14 2 13 3 12 4 10 5 11 6 9 8 8 9 7 11 1 12 2 13 3 14
REMARK SMILES IDX 4 15 6 16 5 17 83 18 84 19 88 20 85 21 87 22 86 23 16 24
REMARK SMILES IDX 17 25 18 26 19 28 20 29 21 30 82 31 22 32 81 33 23 34 24 35
REMARK SMILES IDX 25 36 75 37 26 38 80 39 74 40 76 41 27 42 79 43 73 44 72 45
REMARK SMILES IDX 28 47 60 48 40 49 59 50 41 51 44 52 58 53 77 54 42 55 43 56
REMARK SMILES IDX 57 58 78 59 45 60 29 61 30 62 38 63 31 64 33 65 39 66 32 67
REMARK SMILES IDX 34 68 35 69 36 70 37 71 61 72 62 73 70 74 63 75 65 76 71 77
REMARK SMILES IDX 64 78 66 79 67 80 68 81 69 82 46 83 47 84 55 85 48 86 50 87
REMARK SMILES IDX 56 88 49 89 51 90 52 91 53 92 54 93
REMARK H PARENT 12 7 8 10 17 27 76 46 44 57
REMARK Flexibility Score: inf
ROOT
ATOM      1  C   UNL A   1      37.350  21.054  25.025  1.00  0.00     0.023 C 
ENDROOT
BRANCH   1   2
ATOM      2  C   UNL A   1      35.995  21.211  25.709  1.00  0.00     0.023 C 
BRANCH   2   3
ATOM      3  C   UNL A   1      35.813  22.532  26.445  1.00  0.00     0.116 C 
BRANCH   3   4
ATOM      4  N   UNL A   1      34.763  22.494  27.451  1.00  0.00    -0.354 N 
ATOM      5  C   UNL A   1      33.409  22.626  27.251  1.00  0.00     0.247 C 
ATOM      6  O   UNL A   1      32.666  22.483  28.229  1.00  0.00    -0.272 OA
ATOM      7  H   UNL A   1      35.055  22.357  28.381  1.00  0.00     0.163 HD
BRANCH   5   8
ATOM      8  C   UNL A   1      32.833  22.974  25.837  1.00  0.00     0.200 C 
BRANCH   8   9
ATOM      9  N   UNL A   1      32.093  21.772  25.351  1.00  0.00    -0.370 N 
ATOM     10  H   UNL A   1      31.121  21.901  25.439  1.00  0.00     0.161 HD
BRANCH   9  11
ATOM     11  C   UNL A   1      32.377  20.535  24.815  1.00  0.00     0.038 A 
ATOM     12  C   UNL A   1      32.157  21.434  22.415  1.00  0.00     0.046 C 
ATOM     13  C   UNL A   1      32.258  20.316  23.422  1.00  0.00    -0.028 A 
ATOM     14  C   UNL A   1      32.345  19.010  22.885  1.00  0.00     0.005 A 
ATOM     15  C   UNL A   1      32.641  17.919  23.689  1.00  0.00     0.000 A 
ATOM     16  C   UNL A   1      32.849  19.439  25.540  1.00  0.00     0.026 A 
ATOM     17  C   UNL A   1      32.941  18.144  25.017  1.00  0.00     0.002 A 
ENDBRANCH   9  11
ENDBRANCH   8   9
BRANCH   8  18
ATOM     18  C   UNL A   1      32.173  24.341  25.759  1.00  0.00    -0.016 A 
ATOM     19  C   UNL A   1      30.807  24.460  25.465  1.00  0.00     0.006 A 
ATOM     20  C   UNL A   1      32.893  25.522  26.009  1.00  0.00     0.006 A 
ATOM     21  C   UNL A   1      30.132  25.633  25.789  1.00  0.00     0.000 A 
ATOM     22  C   UNL A   1      32.227  26.696  26.326  1.00  0.00     0.000 A 
ATOM     23  C   UNL A   1      30.842  26.712  26.297  1.00  0.00     0.000 A 
ENDBRANCH   8  18
ENDBRANCH   5   8
ENDBRANCH   3   4
ENDBRANCH   2   3
ENDBRANCH   1   2
BRANCH   1  24
ATOM     24  C   UNL A   1      38.276  22.246  25.203  1.00  0.00     0.116 C 
BRANCH  24  25
ATOM     25  N   UNL A   1      39.392  21.983  26.083  1.00  0.00    -0.352 N 
ATOM     26  C   UNL A   1      40.333  22.861  26.576  1.00  0.00     0.251 C 
ATOM     27  H   UNL A   1      39.495  21.046  26.370  1.00  0.00     0.163 HD
ATOM     28  O   UNL A   1      41.434  22.407  26.884  1.00  0.00    -0.269 OA
BRANCH  26  29
ATOM     29  C   UNL A   1      39.978  24.278  26.884  1.00  0.00     0.039 A 
ATOM     30  C   UNL A   1      40.610  25.279  26.126  1.00  0.00     0.014 A 
ATOM     31  C   UNL A   1      39.256  24.641  28.016  1.00  0.00     0.014 A 
ATOM     32  C   UNL A   1      40.723  26.575  26.626  1.00  0.00     0.010 A 
ATOM     33  C   UNL A   1      39.430  25.891  28.555  1.00  0.00     0.010 A 
ATOM     34  C   UNL A   1      40.219  26.832  27.889  1.00  0.00    -0.014 A 
BRANCH  34  35
ATOM     35  C   UNL A   1      40.459  28.030  28.665  1.00  0.00     0.031 A 
ATOM     36  C   UNL A   1      39.485  29.129  28.643  1.00  0.00     0.074 A 
ATOM     37  C   UNL A   1      41.334  27.905  29.684  1.00  0.00     0.049 A 
ATOM     38  N   UNL A   1      39.704  30.282  29.174  1.00  0.00    -0.248 NA
ATOM     39  C   UNL A   1      38.174  29.007  28.017  1.00  0.00     0.031 C 
ATOM     40  C   UNL A   1      41.299  28.607  30.957  1.00  0.00     0.029 A 
ATOM     41  N   UNL A   1      42.531  27.187  29.713  1.00  0.00    -0.354 N 
ATOM     42  C   UNL A   1      38.491  30.927  29.236  1.00  0.00     0.074 A 
ATOM     43  C   UNL A   1      37.593  30.141  28.421  1.00  0.00     0.031 C 
ATOM     44  C   UNL A   1      42.505  28.515  31.528  1.00  0.00     0.029 A 
ATOM     45  C   UNL A   1      43.395  27.889  30.562  1.00  0.00     0.049 A 
ATOM     46  H   UNL A   1      42.728  26.351  29.232  1.00  0.00     0.167 HD
ATOM     47  C   UNL A   1      38.325  31.949  30.120  1.00  0.00     0.034 A 
ATOM     48  C   UNL A   1      44.645  28.319  30.237  1.00  0.00     0.034 A 
ATOM     49  C   UNL A   1      39.541  32.154  30.920  1.00  0.00     0.049 A 
ATOM     50  C   UNL A   1      44.753  29.820  30.380  1.00  0.00     0.074 A 
ATOM     51  C   UNL A   1      39.915  31.709  32.179  1.00  0.00     0.029 A 
ATOM     52  N   UNL A   1      40.698  32.634  30.317  1.00  0.00    -0.354 N 
ATOM     53  N   UNL A   1      43.731  30.579  30.664  1.00  0.00    -0.248 NA
ATOM     54  C   UNL A   1      45.975  30.598  30.219  1.00  0.00     0.031 C 
ATOM     55  C   UNL A   1      41.318  31.876  32.308  1.00  0.00     0.029 A 
ATOM     56  C   UNL A   1      41.800  32.442  31.138  1.00  0.00     0.049 A 
ATOM     57  H   UNL A   1      40.731  33.053  29.427  1.00  0.00     0.167 HD
ATOM     58  C   UNL A   1      44.079  31.895  30.623  1.00  0.00     0.074 A 
ATOM     59  C   UNL A   1      45.516  31.853  30.404  1.00  0.00     0.031 C 
ATOM     60  C   UNL A   1      43.131  32.880  30.719  1.00  0.00     0.034 A 
BRANCH  47  61
ATOM     61  C   UNL A   1      36.970  32.510  30.500  1.00  0.00     0.023 A 
ATOM     62  C   UNL A   1      36.451  32.161  31.768  1.00  0.00     0.012 A 
ATOM     63  C   UNL A   1      36.152  33.333  29.692  1.00  0.00     0.148 A 
ATOM     64  C   UNL A   1      35.168  32.526  32.181  1.00  0.00     0.002 A 
ATOM     65  C   UNL A   1      34.844  33.647  30.079  1.00  0.00     0.091 A 
ATOM     66  F   UNL A   1      36.656  33.869  28.574  1.00  0.00    -0.205 F 
ATOM     67  C   UNL A   1      34.349  33.242  31.324  1.00  0.00     0.022 A 
BRANCH  65  68
ATOM     68  S   UNL A   1      33.682  34.490  28.990  1.00  0.00     0.127 S 
ATOM     69  O   UNL A   1      34.499  35.579  28.446  1.00  0.00    -0.237 OA
ATOM     70  O   UNL A   1      33.340  33.450  28.023  1.00  0.00    -0.237 OA
ATOM     71  O   UNL A   1      32.593  34.945  29.846  1.00  0.00    -0.744 OA
ENDBRANCH  65  68
ENDBRANCH  47  61
BRANCH  48  72
ATOM     72  C   UNL A   1      45.345  27.429  29.270  1.00  0.00     0.023 A 
ATOM     73  C   UNL A   1      45.690  26.141  29.752  1.00  0.00     0.012 A 
ATOM     74  C   UNL A   1      45.195  27.618  27.885  1.00  0.00     0.148 A 
ATOM     75  C   UNL A   1      45.732  25.041  28.894  1.00  0.00     0.002 A 
ATOM     76  C   UNL A   1      45.203  26.507  27.041  1.00  0.00     0.091 A 
ATOM     77  F   UNL A   1      44.912  28.848  27.440  1.00  0.00    -0.205 F 
ATOM     78  C   UNL A   1      45.442  25.218  27.547  1.00  0.00     0.022 A 
BRANCH  76  79
ATOM     79  S   UNL A   1      44.678  26.623  25.323  1.00  0.00     0.127 S 
ATOM     80  O   UNL A   1      43.846  27.821  25.348  1.00  0.00    -0.237 OA
ATOM     81  O   UNL A   1      45.954  26.773  24.623  1.00  0.00    -0.237 OA
ATOM     82  O   UNL A   1      43.994  25.368  25.053  1.00  0.00    -0.744 OA
ENDBRANCH  76  79
ENDBRANCH  48  72
BRANCH  60  83
ATOM     83  C   UNL A   1      43.352  34.349  30.424  1.00  0.00     0.023 A 
ATOM     84  C   UNL A   1      43.756  35.264  31.413  1.00  0.00     0.012 A 
ATOM     85  C   UNL A   1      43.315  34.834  29.089  1.00  0.00     0.148 A 
ATOM     86  C   UNL A   1      44.063  36.595  31.110  1.00  0.00     0.002 A 
ATOM     87  C   UNL A   1      43.747  36.119  28.777  1.00  0.00     0.091 A 
ATOM     88  F   UNL A   1      42.841  34.058  28.103  1.00  0.00    -0.205 F 
ATOM     89  C   UNL A   1      44.089  37.015  29.788  1.00  0.00     0.022 A 
BRANCH  87  90
ATOM     90  S   UNL A   1      44.047  36.600  27.070  1.00  0.00     0.127 S 
ATOM     91  O   UNL A   1      44.701  37.896  27.230  1.00  0.00    -0.237 OA
ATOM     92  O   UNL A   1      44.925  35.529  26.593  1.00  0.00    -0.237 OA
ATOM     93  O   UNL A   1      42.730  36.612  26.448  1.00  0.00    -0.744 OA
ENDBRANCH  87  90
ENDBRANCH  60  83
ENDBRANCH  34  35
ENDBRANCH  26  29
ENDBRANCH  24  25
ENDBRANCH   1  24
TORSDOF 17
ENDMDL
MODEL 2
REMARK VINA RESULT:     -12.6      1.612      2.947
REMARK SMILES Cc1ccccc1N[C@H](C(=O)NCCCCNC(=O)c1ccc(-c2c3nc(c(-c4cccc(S(=O)(=O)[O-])c4F)c4ccc([nH]4)c(-c4cccc(S(=O)(=O)[O-])c4F)c4nc(c(-c5cccc(S(=O)(=O)[O-])c5F)c5ccc2[nH]5)C=C4)C=C3)cc1)c1ccccc1
REMARK SMILES IDX 15 1 14 2 13 3 12 4 10 5 11 6 9 8 8 9 7 11 1 12 2 13 3 14
REMARK SMILES IDX 4 15 6 16 5 17 83 18 84 19 88 20 85 21 87 22 86 23 16 24
REMARK SMILES IDX 17 25 18 26 19 28 20 29 21 30 82 31 22 32 81 33 23 34 24 35
REMARK SMILES IDX 25 36 75 37 26 38 80 39 74 40 76 41 27 42 79 43 73 44 72 45
REMARK SMILES IDX 28 47 60 48 40 49 59 50 41 51 44 52 58 53 77 54 42 55 43 56
REMARK SMILES IDX 57 58 78 59 45 60 29 61 30 62 38 63 31 64 33 65 39 66 32 67
REMARK SMILES IDX 34 68 35 69 36 70 37 71 61 72 62 73 70 74 63 75 65 76 71 77
REMARK SMILES IDX 64 78 66 79 67 80 68 81 69 82 46 83 47 84 55 85 48 86 50 87
REMARK SMILES IDX 56 88 49 89 51 90 52 91 53 92 54 93
REMARK H PARENT 12 7 8 10 17 27 76 46 44 57
REMARK Flexibility Score: inf
ROOT
ATOM      1  C   UNL A   1      36.713  22.540  25.962  1.00  0.00     0.023 C 
ENDROOT
BRANCH   1   2
ATOM      2  C   UNL A   1      35.936  23.833  25.731  1.00  0.00     0.023 C 
BRANCH   2   3
ATOM      3  C   UNL A   1      34.580  23.640  25.065  1.00  0.00     0.116 C 
BRANCH   3   4
ATOM      4  N   UNL A   1      33.467  23.666  26.001  1.00  0.00    -0.354 N 
ATOM      5  C   UNL A   1      32.518  24.651  26.144  1.00  0.00     0.247 C 
ATOM      6  O   UNL A   1      31.598  24.452  26.946  1.00  0.00    -0.272 OA
ATOM      7  H   UNL A   1      33.383  22.890  26.601  1.00  0.00     0.163 HD
BRANCH   5   8
ATOM      8  C   UNL A   1      32.617  25.990  25.337  1.00  0.00     0.200 C 
BRANCH   8   9
ATOM      9  N   UNL A   1      31.548  25.960  24.295  1.00  0.00    -0.370 N 
ATOM     10  H   UNL A   1      31.591  25.127  23.774  1.00  0.00     0.161 HD
BRANCH   9  11
ATOM     11  C   UNL A   1      30.519  26.762  23.853  1.00  0.00     0.038 A 
ATOM     12  C   UNL A   1      32.162  28.384  22.719  1.00  0.00     0.046 C 
ATOM     13  C   UNL A   1      30.797  28.005  23.236  1.00  0.00    -0.028 A 
ATOM     14  C   UNL A   1      29.759  28.927  22.964  1.00  0.00     0.005 A 
ATOM     15  C   UNL A   1      28.431  28.607  23.206  1.00  0.00     0.000 A 
ATOM     16  C   UNL A   1      29.165  26.427  23.905  1.00  0.00     0.026 A 
ATOM     17  C   UNL A   1      28.130  27.331  23.636  1.00  0.00     0.002 A 
ENDBRANCH   9  11
ENDBRANCH   8   9
BRANCH   8  18
ATOM     18  C   UNL A   1      32.779  27.224  26.208  1.00  0.00    -0.016 A 
ATOM     19  C   UNL A   1      34.024  27.860  26.322  1.00  0.00     0.006 A 
ATOM     20  C   UNL A   1      31.692  27.788  26.898  1.00  0.00     0.006 A 
ATOM     21  C   UNL A   1      34.087  29.179  26.765  1.00  0.00     0.000 A 
ATOM     22  C   UNL A   1      31.749  29.098  27.349  1.00  0.00     0.000 A 
ATOM     23  C   UNL A   1      32.929  29.809  27.196  1.00  0.00     0.000 A 
ENDBRANCH   8  18
ENDBRANCH   5   8
ENDBRANCH   3   4
ENDBRANCH   2   3
ENDBRANCH   1   2
BRANCH   1  24
ATOM     24  C   UNL A   1      38.058  22.491  25.257  1.00  0.00     0.116 C 
BRANCH  24  25
ATOM     25  N   UNL A   1      39.164  22.206  26.144  1.00  0.00    -0.352 N 
ATOM     26  C   UNL A   1      40.117  23.068  26.645  1.00  0.00     0.251 C 
ATOM     27  H   UNL A   1      39.249  21.268  26.430  1.00  0.00     0.163 HD
ATOM     28  O   UNL A   1      41.207  22.594  26.960  1.00  0.00    -0.269 OA
BRANCH  26  29
ATOM     29  C   UNL A   1      39.785  24.490  26.952  1.00  0.00     0.039 A 
ATOM     30  C   UNL A   1      40.443  25.480  26.203  1.00  0.00     0.014 A 
ATOM     31  C   UNL A   1      39.057  24.863  28.078  1.00  0.00     0.014 A 
ATOM     32  C   UNL A   1      40.574  26.774  26.707  1.00  0.00     0.010 A 
ATOM     33  C   UNL A   1      39.249  26.109  28.621  1.00  0.00     0.010 A 
ATOM     34  C   UNL A   1      40.062  27.037  27.966  1.00  0.00    -0.014 A 
BRANCH  34  35
ATOM     35  C   UNL A   1      40.316  28.229  28.746  1.00  0.00     0.031 A 
ATOM     36  C   UNL A   1      39.348  29.334  28.740  1.00  0.00     0.074 A 
ATOM     37  C   UNL A   1      41.199  28.092  29.758  1.00  0.00     0.049 A 
ATOM     38  N   UNL A   1      39.579  30.482  29.276  1.00  0.00    -0.248 NA
ATOM     39  C   UNL A   1      38.031  29.224  28.125  1.00  0.00     0.031 C 
ATOM     40  C   UNL A   1      41.179  28.786  31.035  1.00  0.00     0.029 A 
ATOM     41  N   UNL A   1      42.391  27.367  29.772  1.00  0.00    -0.354 N 
ATOM     42  C   UNL A   1      38.370  31.134  29.353  1.00  0.00     0.074 A 
ATOM     43  C   UNL A   1      37.460  30.358  28.540  1.00  0.00     0.031 C 
ATOM     44  C   UNL A   1      42.390  28.684  31.595  1.00  0.00     0.029 A 
ATOM     45  C   UNL A   1      43.268  28.059  30.617  1.00  0.00     0.049 A 
ATOM     46  H   UNL A   1      42.579  26.533  29.283  1.00  0.00     0.167 HD
ATOM     47  C   UNL A   1      38.218  32.151  30.245  1.00  0.00     0.034 A 
ATOM     48  C   UNL A   1      44.517  28.483  30.283  1.00  0.00     0.034 A 
ATOM     49  C   UNL A   1      39.442  32.344  31.035  1.00  0.00     0.049 A 
ATOM     50  C   UNL A   1      44.635  29.983  30.435  1.00  0.00     0.074 A 
ATOM     51  C   UNL A   1      39.824  31.889  32.288  1.00  0.00     0.029 A 
ATOM     52  N   UNL A   1      40.596  32.821  30.425  1.00  0.00    -0.354 N 
ATOM     53  N   UNL A   1      43.620  30.746  30.733  1.00  0.00    -0.248 NA
ATOM     54  C   UNL A   1      45.860  30.755  30.268  1.00  0.00     0.031 C 
ATOM     55  C   UNL A   1      41.230  32.047  32.405  1.00  0.00     0.029 A 
ATOM     56  C   UNL A   1      41.704  32.617  31.235  1.00  0.00     0.049 A 
ATOM     57  H   UNL A   1      40.623  33.245  29.537  1.00  0.00     0.167 HD
ATOM     58  C   UNL A   1      43.975  32.061  30.696  1.00  0.00     0.074 A 
ATOM     59  C   UNL A   1      45.410  32.011  30.465  1.00  0.00     0.031 C 
ATOM     60  C   UNL A   1      43.035  33.050  30.807  1.00  0.00     0.034 A 
BRANCH  47  61
ATOM     61  C   UNL A   1      36.869  32.717  30.640  1.00  0.00     0.023 A 
ATOM     62  C   UNL A   1      36.265  32.208  31.812  1.00  0.00     0.012 A 
ATOM     63  C   UNL A   1      36.135  33.695  29.930  1.00  0.00     0.148 A 
ATOM     64  C   UNL A   1      34.978  32.572  32.213  1.00  0.00     0.002 A 
ATOM     65  C   UNL A   1      34.822  34.014  30.296  1.00  0.00     0.091 A 
ATOM     66  F   UNL A   1      36.724  34.367  28.933  1.00  0.00    -0.205 F 
ATOM     67  C   UNL A   1      34.241  33.452  31.438  1.00  0.00     0.022 A 
BRANCH  65  68
ATOM     68  S   UNL A   1      33.761  35.072  29.295  1.00  0.00     0.127 S 
ATOM     69  O   UNL A   1      32.666  34.167  28.937  1.00  0.00    -0.237 OA
ATOM     70  O   UNL A   1      33.390  36.129  30.233  1.00  0.00    -0.237 OA
ATOM     71  O   UNL A   1      34.574  35.489  28.159  1.00  0.00    -0.744 OA
ENDBRANCH  65  68
ENDBRANCH  47  61
BRANCH  48  72
ATOM     72  C   UNL A   1      45.203  27.595  29.305  1.00  0.00     0.023 A 
ATOM     73  C   UNL A   1      45.505  26.288  29.762  1.00  0.00     0.012 A 
ATOM     74  C   UNL A   1      45.076  27.819  27.923  1.00  0.00     0.148 A 
ATOM     75  C   UNL A   1      45.527  25.206  28.880  1.00  0.00     0.002 A 
ATOM     76  C   UNL A   1      45.063  26.728  27.054  1.00  0.00     0.091 A 
ATOM     77  F   UNL A   1      44.833  29.066  27.503  1.00  0.00    -0.205 F 
ATOM     78  C   UNL A   1      45.259  25.422  27.534  1.00  0.00     0.022 A 
BRANCH  76  79
ATOM     79  S   UNL A   1      44.563  26.896  25.334  1.00  0.00     0.127 S 
ATOM     80  O   UNL A   1      43.553  27.946  25.421  1.00  0.00    -0.237 OA
ATOM     81  O   UNL A   1      45.813  27.297  24.690  1.00  0.00    -0.237 OA
ATOM     82  O   UNL A   1      44.089  25.576  24.947  1.00  0.00    -0.744 OA
ENDBRANCH  76  79
ENDBRANCH  48  72
BRANCH  60  83
ATOM     83  C   UNL A   1      43.261  34.520  30.518  1.00  0.00     0.023 A 
ATOM     84  C   UNL A   1      43.616  35.439  31.523  1.00  0.00     0.012 A 
ATOM     85  C   UNL A   1      43.283  35.002  29.182  1.00  0.00     0.148 A 
ATOM     86  C   UNL A   1      43.930  36.771  31.231  1.00  0.00     0.002 A 
ATOM     87  C   UNL A   1      43.721  36.288  28.887  1.00  0.00     0.091 A 
ATOM     88  F   UNL A   1      42.858  34.222  28.177  1.00  0.00    -0.205 F 
ATOM     89  C   UNL A   1      44.013  37.188  29.911  1.00  0.00     0.022 A 
BRANCH  87  90
ATOM     90  S   UNL A   1      44.097  36.767  27.195  1.00  0.00     0.127 S 
ATOM     91  O   UNL A   1      44.892  35.634  26.728  1.00  0.00    -0.237 OA
ATOM     92  O   UNL A   1      42.765  36.866  26.595  1.00  0.00    -0.237 OA
ATOM     93  O   UNL A   1      44.792  38.041  27.312  1.00  0.00    -0.744 OA
ENDBRANCH  87  90
ENDBRANCH  60  83
ENDBRANCH  34  35
ENDBRANCH  26  29
ENDBRANCH  24  25
ENDBRANCH   1  24
TORSDOF 17
ENDMDL
MODEL 3
REMARK VINA RESULT:     -12.5      1.125      2.965
REMARK SMILES Cc1ccccc1N[C@H](C(=O)NCCCCNC(=O)c1ccc(-c2c3nc(c(-c4cccc(S(=O)(=O)[O-])c4F)c4ccc([nH]4)c(-c4cccc(S(=O)(=O)[O-])c4F)c4nc(c(-c5cccc(S(=O)(=O)[O-])c5F)c5ccc2[nH]5)C=C4)C=C3)cc1)c1ccccc1
REMARK SMILES IDX 15 1 14 2 13 3 12 4 10 5 11 6 9 8 8 9 7 11 1 12 2 13 3 14
REMARK SMILES IDX 4 15 6 16 5 17 83 18 84 19 88 20 85 21 87 22 86 23 16 24
REMARK SMILES IDX 17 25 18 26 19 28 20 29 21 30 82 31 22 32 81 33 23 34 24 35
REMARK SMILES IDX 25 36 75 37 26 38 80 39 74 40 76 41 27 42 79 43 73 44 72 45
REMARK SMILES IDX 28 47 60 48 40 49 59 50 41 51 44 52 58 53 77 54 42 55 43 56
REMARK SMILES IDX 57 58 78 59 45 60 29 61 30 62 38 63 31 64 33 65 39 66 32 67
REMARK SMILES IDX 34 68 35 69 36 70 37 71 61 72 62 73 70 74 63 75 65 76 71 77
REMARK SMILES IDX 64 78 66 79 67 80 68 81 69 82 46 83 47 84 55 85 48 86 50 87
REMARK SMILES IDX 56 88 49 89 51 90 52 91 53 92 54 93
REMARK H PARENT 12 7 8 10 17 27 76 46 44 57
REMARK Flexibility Score: inf
ROOT
ATOM      1  C   UNL A   1      37.716  20.909  25.072  1.00  0.00     0.023 C 
ENDROOT
BRANCH   1   2
ATOM      2  C   UNL A   1      36.198  20.757  25.069  1.00  0.00     0.023 C 
BRANCH   2   3
ATOM      3  C   UNL A   1      35.435  22.075  25.038  1.00  0.00     0.116 C 
BRANCH   3   4
ATOM      4  N   UNL A   1      35.212  22.582  23.693  1.00  0.00    -0.354 N 
ATOM      5  C   UNL A   1      34.004  22.807  23.075  1.00  0.00     0.247 C 
ATOM      6  O   UNL A   1      34.019  23.320  21.950  1.00  0.00    -0.272 OA
ATOM      7  H   UNL A   1      36.016  22.788  23.165  1.00  0.00     0.163 HD
BRANCH   5   8
ATOM      8  C   UNL A   1      32.657  22.399  23.763  1.00  0.00     0.200 C 
BRANCH   8   9
ATOM      9  N   UNL A   1      31.605  23.337  23.271  1.00  0.00    -0.370 N 
ATOM     10  H   UNL A   1      31.055  22.911  22.575  1.00  0.00     0.161 HD
BRANCH   9  11
ATOM     11  C   UNL A   1      31.182  24.626  23.508  1.00  0.00     0.038 A 
ATOM     12  C   UNL A   1      30.653  24.087  25.967  1.00  0.00     0.046 C 
ATOM     13  C   UNL A   1      30.578  24.964  24.742  1.00  0.00    -0.028 A 
ATOM     14  C   UNL A   1      29.956  26.222  24.924  1.00  0.00     0.005 A 
ATOM     15  C   UNL A   1      29.999  27.196  23.937  1.00  0.00     0.000 A 
ATOM     16  C   UNL A   1      31.352  25.698  22.629  1.00  0.00     0.026 A 
ATOM     17  C   UNL A   1      30.743  26.947  22.801  1.00  0.00     0.002 A 
ENDBRANCH   9  11
ENDBRANCH   8   9
BRANCH   8  18
ATOM     18  C   UNL A   1      32.389  20.904  23.757  1.00  0.00    -0.016 A 
ATOM     19  C   UNL A   1      32.138  20.227  22.554  1.00  0.00     0.006 A 
ATOM     20  C   UNL A   1      32.416  20.145  24.940  1.00  0.00     0.006 A 
ATOM     21  C   UNL A   1      32.298  18.846  22.493  1.00  0.00     0.000 A 
ATOM     22  C   UNL A   1      32.569  18.768  24.887  1.00  0.00     0.000 A 
ATOM     23  C   UNL A   1      32.595  18.142  23.651  1.00  0.00     0.000 A 
ENDBRANCH   8  18
ENDBRANCH   5   8
ENDBRANCH   3   4
ENDBRANCH   2   3
ENDBRANCH   1   2
BRANCH   1  24
ATOM     24  C   UNL A   1      38.210  22.182  25.740  1.00  0.00     0.116 C 
BRANCH  24  25
ATOM     25  N   UNL A   1      39.492  22.031  26.392  1.00  0.00    -0.352 N 
ATOM     26  C   UNL A   1      40.448  22.988  26.657  1.00  0.00     0.251 C 
ATOM     27  H   UNL A   1      39.713  21.118  26.688  1.00  0.00     0.163 HD
ATOM     28  O   UNL A   1      41.616  22.617  26.759  1.00  0.00    -0.269 OA
BRANCH  26  29
ATOM     29  C   UNL A   1      40.063  24.395  26.974  1.00  0.00     0.039 A 
ATOM     30  C   UNL A   1      40.647  25.412  26.200  1.00  0.00     0.014 A 
ATOM     31  C   UNL A   1      39.361  24.738  28.125  1.00  0.00     0.014 A 
ATOM     32  C   UNL A   1      40.737  26.712  26.697  1.00  0.00     0.010 A 
ATOM     33  C   UNL A   1      39.515  25.993  28.659  1.00  0.00     0.010 A 
ATOM     34  C   UNL A   1      40.261  26.954  27.973  1.00  0.00    -0.014 A 
BRANCH  34  35
ATOM     35  C   UNL A   1      40.488  28.159  28.743  1.00  0.00     0.031 A 
ATOM     36  C   UNL A   1      39.505  29.250  28.712  1.00  0.00     0.074 A 
ATOM     37  C   UNL A   1      41.361  28.047  29.765  1.00  0.00     0.049 A 
ATOM     38  N   UNL A   1      39.713  30.407  29.237  1.00  0.00    -0.248 NA
ATOM     39  C   UNL A   1      38.196  29.113  28.084  1.00  0.00     0.031 C 
ATOM     40  C   UNL A   1      41.317  28.756  31.034  1.00  0.00     0.029 A 
ATOM     41  N   UNL A   1      42.564  27.340  29.801  1.00  0.00    -0.354 N 
ATOM     42  C   UNL A   1      38.494  31.043  29.292  1.00  0.00     0.074 A 
ATOM     43  C   UNL A   1      37.605  30.244  28.479  1.00  0.00     0.031 C 
ATOM     44  C   UNL A   1      42.523  28.678  31.608  1.00  0.00     0.029 A 
ATOM     45  C   UNL A   1      43.421  28.054  30.648  1.00  0.00     0.049 A 
ATOM     46  H   UNL A   1      42.769  26.503  29.325  1.00  0.00     0.167 HD
ATOM     47  C   UNL A   1      38.317  32.068  30.171  1.00  0.00     0.034 A 
ATOM     48  C   UNL A   1      44.667  28.493  30.323  1.00  0.00     0.034 A 
ATOM     49  C   UNL A   1      39.529  32.288  30.972  1.00  0.00     0.049 A 
ATOM     50  C   UNL A   1      44.762  29.996  30.458  1.00  0.00     0.074 A 
ATOM     51  C   UNL A   1      39.904  31.853  32.235  1.00  0.00     0.029 A 
ATOM     52  N   UNL A   1      40.683  32.774  30.369  1.00  0.00    -0.354 N 
ATOM     53  N   UNL A   1      43.733  30.747  30.736  1.00  0.00    -0.248 NA
ATOM     54  C   UNL A   1      45.977  30.784  30.296  1.00  0.00     0.031 C 
ATOM     55  C   UNL A   1      41.305  32.033  32.366  1.00  0.00     0.029 A 
ATOM     56  C   UNL A   1      41.785  32.596  31.195  1.00  0.00     0.049 A 
ATOM     57  H   UNL A   1      40.714  33.188  29.477  1.00  0.00     0.167 HD
ATOM     58  C   UNL A   1      44.070  32.067  30.688  1.00  0.00     0.074 A 
ATOM     59  C   UNL A   1      45.508  32.035  30.473  1.00  0.00     0.031 C 
ATOM     60  C   UNL A   1      43.114  33.043  30.776  1.00  0.00     0.034 A 
BRANCH  47  61
ATOM     61  C   UNL A   1      36.956  32.619  30.544  1.00  0.00     0.023 A 
ATOM     62  C   UNL A   1      36.442  32.282  31.816  1.00  0.00     0.012 A 
ATOM     63  C   UNL A   1      36.129  33.423  29.726  1.00  0.00     0.148 A 
ATOM     64  C   UNL A   1      35.154  32.638  32.226  1.00  0.00     0.002 A 
ATOM     65  C   UNL A   1      34.817  33.728  30.109  1.00  0.00     0.091 A 
ATOM     66  F   UNL A   1      36.627  33.950  28.600  1.00  0.00    -0.205 F 
ATOM     67  C   UNL A   1      34.328  33.335  31.360  1.00  0.00     0.022 A 
BRANCH  65  68
ATOM     68  S   UNL A   1      33.647  34.545  29.010  1.00  0.00     0.127 S 
ATOM     69  O   UNL A   1      34.439  35.660  28.484  1.00  0.00    -0.237 OA
ATOM     70  O   UNL A   1      33.348  33.502  28.032  1.00  0.00    -0.237 OA
ATOM     71  O   UNL A   1      32.533  34.962  29.854  1.00  0.00    -0.744 OA
ENDBRANCH  65  68
ENDBRANCH  47  61
BRANCH  48  72
ATOM     72  C   UNL A   1      45.377  27.603  29.363  1.00  0.00     0.023 A 
ATOM     73  C   UNL A   1      45.660  26.294  29.826  1.00  0.00     0.012 A 
ATOM     74  C   UNL A   1      45.291  27.831  27.979  1.00  0.00     0.148 A 
ATOM     75  C   UNL A   1      45.702  25.214  28.942  1.00  0.00     0.002 A 
ATOM     76  C   UNL A   1      45.298  26.741  27.107  1.00  0.00     0.091 A 
ATOM     77  F   UNL A   1      45.066  29.080  27.554  1.00  0.00    -0.205 F 
ATOM     78  C   UNL A   1      45.474  25.433  27.590  1.00  0.00     0.022 A 
BRANCH  76  79
ATOM     79  S   UNL A   1      44.849  26.915  25.374  1.00  0.00     0.127 S 
ATOM     80  O   UNL A   1      44.402  25.565  25.047  1.00  0.00    -0.237 OA
ATOM     81  O   UNL A   1      43.786  27.918  25.433  1.00  0.00    -0.237 OA
ATOM     82  O   UNL A   1      46.062  27.371  24.714  1.00  0.00    -0.744 OA
ENDBRANCH  76  79
ENDBRANCH  48  72
BRANCH  60  83
ATOM     83  C   UNL A   1      43.322  34.513  30.473  1.00  0.00     0.023 A 
ATOM     84  C   UNL A   1      43.676  35.445  31.466  1.00  0.00     0.012 A 
ATOM     85  C   UNL A   1      43.327  34.983  29.132  1.00  0.00     0.148 A 
ATOM     86  C   UNL A   1      43.973  36.777  31.160  1.00  0.00     0.002 A 
ATOM     87  C   UNL A   1      43.750  36.271  28.822  1.00  0.00     0.091 A 
ATOM     88  F   UNL A   1      42.902  34.190  28.138  1.00  0.00    -0.205 F 
ATOM     89  C   UNL A   1      44.041  37.183  29.835  1.00  0.00     0.022 A 
BRANCH  87  90
ATOM     90  S   UNL A   1      44.106  36.739  27.123  1.00  0.00     0.127 S 
ATOM     91  O   UNL A   1      45.046  35.700  26.712  1.00  0.00    -0.237 OA
ATOM     92  O   UNL A   1      42.787  36.652  26.491  1.00  0.00    -0.237 OA
ATOM     93  O   UNL A   1      44.636  38.093  27.210  1.00  0.00    -0.744 OA
ENDBRANCH  87  90
ENDBRANCH  60  83
ENDBRANCH  34  35
ENDBRANCH  26  29
ENDBRANCH  24  25
ENDBRANCH   1  24
TORSDOF 17
ENDMDL
