MODEL 1
REMARK VINA RESULT:     -11.9      0.000      0.000
REMARK SMILES O=C(Cn1cc(NC(=O)N2CC[N@H+]3CCC[C@@H]3C2)cn1)NCCCCNC(=O)c1ccc(-c2c3nc(c(-c4cccc(S(=O)(=O)[O-])c4F)c4ccc([nH]4)c(-c4cccc(S(=O)(=O)[O-])c4F)c4nc(c(-c5cccc(S(=O)(=O)[O-])c5F)c5ccc2[nH]5)C=C4)C=C3)cc1
REMARK SMILES IDX 23 1 22 2 21 3 1 4 2 5 3 7 4 8 5 9 20 10 6 11 19 12 7 13
REMARK SMILES IDX 8 14 9 16 10 17 11 18 18 19 12 20 17 21 13 22 16 23 14 24
REMARK SMILES IDX 15 26 24 27 25 28 26 29 27 30 28 32 29 33 30 34 91 35 31 36
REMARK SMILES IDX 90 37 32 38 33 39 34 40 84 41 35 42 89 43 83 44 85 45 36 46
REMARK SMILES IDX 88 47 82 48 81 49 37 51 69 52 49 53 68 54 50 55 53 56 67 57
REMARK SMILES IDX 86 58 51 59 52 60 66 62 87 63 54 64 38 65 39 66 47 67 40 68
REMARK SMILES IDX 42 69 48 70 41 71 43 72 44 73 45 74 46 75 70 76 71 77 79 78
REMARK SMILES IDX 72 79 74 80 80 81 73 82 75 83 76 84 77 85 78 86 55 87 56 88
REMARK SMILES IDX 64 89 57 90 59 91 65 92 58 93 60 94 61 95 62 96 63 97
REMARK H PARENT 21 6 7 15 13 25 26 31 85 50 53 61
REMARK Flexibility Score: inf
ROOT
ATOM      1  C   UNL A   1      40.444  20.673  26.922  1.00  0.00     0.023 C 
ENDROOT
BRANCH   1   2
ATOM      2  C   UNL A   1      40.106  21.913  26.089  1.00  0.00     0.116 C 
BRANCH   2   3
ATOM      3  N   UNL A   1      38.761  22.411  26.308  1.00  0.00    -0.354 N 
ATOM      4  O   UNL A   1      37.787  21.164  24.646  1.00  0.00    -0.273 OA
ATOM      5  C   UNL A   1      37.667  21.921  25.612  1.00  0.00     0.241 C 
ATOM      6  H   UNL A   1      38.620  23.121  26.974  1.00  0.00     0.163 HD
BRANCH   5   7
ATOM      7  C   UNL A   1      36.308  22.485  25.996  1.00  0.00     0.244 C 
BRANCH   7   8
ATOM      8  N   UNL A   1      35.341  22.526  24.917  1.00  0.00    -0.261 N 
ATOM      9  C   UNL A   1      35.274  23.469  23.930  1.00  0.00     0.135 A 
ATOM     10  N   UNL A   1      34.356  21.620  24.862  1.00  0.00    -0.179 NA
ATOM     11  C   UNL A   1      34.061  23.278  23.314  1.00  0.00     0.081 A 
ATOM     12  C   UNL A   1      33.565  22.086  23.893  1.00  0.00     0.161 A 
BRANCH  11  13
ATOM     13  N   UNL A   1      33.535  24.143  22.376  1.00  0.00    -0.305 N 
ATOM     14  C   UNL A   1      32.691  25.196  22.600  1.00  0.00     0.322 C 
ATOM     15  H   UNL A   1      33.796  23.982  21.440  1.00  0.00     0.171 HD
ATOM     16  O   UNL A   1      32.038  25.652  21.667  1.00  0.00    -0.248 OA
BRANCH  14  17
ATOM     17  N   UNL A   1      32.660  25.701  23.874  1.00  0.00    -0.313 N 
ATOM     18  C   UNL A   1      31.604  25.316  24.816  1.00  0.00     0.183 C 
ATOM     19  C   UNL A   1      33.639  26.734  24.200  1.00  0.00     0.186 C 
ATOM     20  C   UNL A   1      31.644  25.989  26.198  1.00  0.00     0.284 C 
ATOM     21  C   UNL A   1      33.571  27.220  25.647  1.00  0.00     0.204 C 
ATOM     22  N   UNL A   1      32.173  27.359  26.123  1.00  0.00    -0.330 N 
ATOM     23  C   UNL A   1      34.142  28.593  25.951  1.00  0.00     0.073 C 
ATOM     24  C   UNL A   1      32.308  28.046  27.403  1.00  0.00     0.262 C 
ATOM     25  H   UNL A   1      31.527  27.892  25.540  1.00  0.00     0.348 HD
ATOM     26  C   UNL A   1      33.565  28.903  27.315  1.00  0.00     0.068 C 
ENDBRANCH  14  17
ENDBRANCH  11  13
ENDBRANCH   7   8
ENDBRANCH   5   7
ENDBRANCH   2   3
ENDBRANCH   1   2
BRANCH   1  27
ATOM     27  C   UNL A   1      41.154  19.536  26.170  1.00  0.00     0.023 C 
BRANCH  27  28
ATOM     28  C   UNL A   1      42.532  19.140  26.713  1.00  0.00     0.116 C 
BRANCH  28  29
ATOM     29  N   UNL A   1      43.485  18.797  25.665  1.00  0.00    -0.352 N 
ATOM     30  C   UNL A   1      44.149  19.642  24.788  1.00  0.00     0.251 C 
ATOM     31  H   UNL A   1      43.685  17.839  25.566  1.00  0.00     0.163 HD
ATOM     32  O   UNL A   1      44.588  19.196  23.739  1.00  0.00    -0.269 OA
BRANCH  30  33
ATOM     33  C   UNL A   1      44.337  21.080  25.115  1.00  0.00     0.039 A 
ATOM     34  C   UNL A   1      43.441  22.046  24.637  1.00  0.00     0.014 A 
ATOM     35  C   UNL A   1      45.443  21.488  25.852  1.00  0.00     0.014 A 
ATOM     36  C   UNL A   1      43.592  23.395  25.013  1.00  0.00     0.010 A 
ATOM     37  C   UNL A   1      45.577  22.820  26.230  1.00  0.00     0.010 A 
ATOM     38  C   UNL A   1      44.645  23.788  25.857  1.00  0.00    -0.014 A 
BRANCH  38  39
ATOM     39  C   UNL A   1      44.559  25.024  26.684  1.00  0.00     0.031 A 
ATOM     40  C   UNL A   1      45.657  25.974  26.369  1.00  0.00     0.074 A 
ATOM     41  C   UNL A   1      43.552  25.428  27.506  1.00  0.00     0.049 A 
ATOM     42  N   UNL A   1      46.666  26.214  27.140  1.00  0.00    -0.248 NA
ATOM     43  C   UNL A   1      45.784  26.561  25.029  1.00  0.00     0.031 C 
ATOM     44  C   UNL A   1      42.419  24.630  27.982  1.00  0.00     0.029 A 
ATOM     45  N   UNL A   1      43.260  26.679  28.024  1.00  0.00    -0.354 N 
ATOM     46  C   UNL A   1      47.362  27.245  26.523  1.00  0.00     0.074 A 
ATOM     47  C   UNL A   1      46.946  27.211  25.148  1.00  0.00     0.031 C 
ATOM     48  C   UNL A   1      41.475  25.441  28.531  1.00  0.00     0.029 A 
ATOM     49  C   UNL A   1      41.947  26.817  28.533  1.00  0.00     0.049 A 
ATOM     50  H   UNL A   1      43.914  27.414  28.037  1.00  0.00     0.167 HD
ATOM     51  C   UNL A   1      47.906  28.231  27.293  1.00  0.00     0.034 A 
ATOM     52  C   UNL A   1      41.359  27.952  29.029  1.00  0.00     0.034 A 
ATOM     53  C   UNL A   1      47.900  27.830  28.687  1.00  0.00     0.049 A 
ATOM     54  C   UNL A   1      42.439  28.512  29.871  1.00  0.00     0.074 A 
ATOM     55  C   UNL A   1      48.608  26.990  29.516  1.00  0.00     0.029 A 
ATOM     56  N   UNL A   1      46.722  28.128  29.322  1.00  0.00    -0.354 N 
ATOM     57  N   UNL A   1      42.955  27.871  30.886  1.00  0.00    -0.248 NA
ATOM     58  C   UNL A   1      43.176  29.678  29.410  1.00  0.00     0.031 C 
ATOM     59  C   UNL A   1      47.763  26.720  30.637  1.00  0.00     0.029 A 
ATOM     60  C   UNL A   1      46.576  27.430  30.486  1.00  0.00     0.049 A 
ATOM     61  H   UNL A   1      46.060  28.769  28.979  1.00  0.00     0.167 HD
ATOM     62  C   UNL A   1      44.280  28.248  30.851  1.00  0.00     0.074 A 
ATOM     63  C   UNL A   1      44.311  29.488  30.084  1.00  0.00     0.031 C 
ATOM     64  C   UNL A   1      45.280  27.364  31.126  1.00  0.00     0.034 A 
BRANCH  51  65
ATOM     65  C   UNL A   1      47.924  29.724  26.960  1.00  0.00     0.023 A 
ATOM     66  C   UNL A   1      49.137  30.411  27.230  1.00  0.00     0.012 A 
ATOM     67  C   UNL A   1      46.801  30.535  26.690  1.00  0.00     0.148 A 
ATOM     68  C   UNL A   1      49.198  31.804  27.350  1.00  0.00     0.002 A 
ATOM     69  C   UNL A   1      46.868  31.923  26.783  1.00  0.00     0.091 A 
ATOM     70  F   UNL A   1      45.626  29.985  26.398  1.00  0.00    -0.205 F 
ATOM     71  C   UNL A   1      48.055  32.561  27.146  1.00  0.00     0.022 A 
BRANCH  69  72
ATOM     72  S   UNL A   1      45.421  32.962  26.520  1.00  0.00     0.127 S 
ATOM     73  O   UNL A   1      44.474  32.379  27.464  1.00  0.00    -0.237 OA
ATOM     74  O   UNL A   1      45.938  34.280  26.887  1.00  0.00    -0.237 OA
ATOM     75  O   UNL A   1      45.073  32.819  25.110  1.00  0.00    -0.744 OA
ENDBRANCH  69  72
ENDBRANCH  51  65
BRANCH  52  76
ATOM     76  C   UNL A   1      39.978  28.534  29.182  1.00  0.00     0.023 A 
ATOM     77  C   UNL A   1      39.099  28.710  28.102  1.00  0.00     0.012 A 
ATOM     78  C   UNL A   1      39.380  28.626  30.468  1.00  0.00     0.148 A 
ATOM     79  C   UNL A   1      37.734  29.012  28.304  1.00  0.00     0.002 A 
ATOM     80  C   UNL A   1      38.062  29.075  30.675  1.00  0.00     0.091 A 
ATOM     81  F   UNL A   1      40.031  28.028  31.466  1.00  0.00    -0.205 F 
ATOM     82  C   UNL A   1      37.225  29.232  29.581  1.00  0.00     0.022 A 
BRANCH  80  83
ATOM     83  S   UNL A   1      37.405  29.533  32.307  1.00  0.00     0.127 S 
ATOM     84  O   UNL A   1      36.071  30.059  32.004  1.00  0.00    -0.237 OA
ATOM     85  O   UNL A   1      37.406  28.277  33.040  1.00  0.00    -0.237 OA
ATOM     86  O   UNL A   1      38.323  30.564  32.774  1.00  0.00    -0.744 OA
ENDBRANCH  80  83
ENDBRANCH  52  76
BRANCH  64  87
ATOM     87  C   UNL A   1      44.980  26.176  31.989  1.00  0.00     0.023 A 
ATOM     88  C   UNL A   1      44.615  24.919  31.474  1.00  0.00     0.012 A 
ATOM     89  C   UNL A   1      45.202  26.310  33.369  1.00  0.00     0.148 A 
ATOM     90  C   UNL A   1      44.471  23.815  32.323  1.00  0.00     0.002 A 
ATOM     91  C   UNL A   1      45.100  25.205  34.203  1.00  0.00     0.091 A 
ATOM     92  F   UNL A   1      45.535  27.521  33.840  1.00  0.00    -0.205 F 
ATOM     93  C   UNL A   1      44.727  23.955  33.686  1.00  0.00     0.022 A 
BRANCH  91  94
ATOM     94  S   UNL A   1      45.541  25.307  35.938  1.00  0.00     0.127 S 
ATOM     95  O   UNL A   1      44.521  26.214  36.460  1.00  0.00    -0.237 OA
ATOM     96  O   UNL A   1      45.409  23.917  36.378  1.00  0.00    -0.237 OA
ATOM     97  O   UNL A   1      46.909  25.811  35.972  1.00  0.00    -0.744 OA
ENDBRANCH  91  94
ENDBRANCH  64  87
ENDBRANCH  38  39
ENDBRANCH  30  33
ENDBRANCH  28  29
ENDBRANCH  27  28
ENDBRANCH   1  27
TORSDOF 17
ENDMDL
MODEL 2
REMARK VINA RESULT:     -11.9      4.654     10.491
REMARK SMILES O=C(Cn1cc(NC(=O)N2CC[N@H+]3CCC[C@@H]3C2)cn1)NCCCCNC(=O)c1ccc(-c2c3nc(c(-c4cccc(S(=O)(=O)[O-])c4F)c4ccc([nH]4)c(-c4cccc(S(=O)(=O)[O-])c4F)c4nc(c(-c5cccc(S(=O)(=O)[O-])c5F)c5ccc2[nH]5)C=C4)C=C3)cc1
REMARK SMILES IDX 23 1 22 2 21 3 1 4 2 5 3 7 4 8 5 9 20 10 6 11 19 12 7 13
REMARK SMILES IDX 8 14 9 16 10 17 11 18 18 19 12 20 17 21 13 22 16 23 14 24
REMARK SMILES IDX 15 26 24 27 25 28 26 29 27 30 28 32 29 33 30 34 91 35 31 36
REMARK SMILES IDX 90 37 32 38 33 39 34 40 84 41 35 42 89 43 83 44 85 45 36 46
REMARK SMILES IDX 88 47 82 48 81 49 37 51 69 52 49 53 68 54 50 55 53 56 67 57
REMARK SMILES IDX 86 58 51 59 52 60 66 62 87 63 54 64 38 65 39 66 47 67 40 68
REMARK SMILES IDX 42 69 48 70 41 71 43 72 44 73 45 74 46 75 70 76 71 77 79 78
REMARK SMILES IDX 72 79 74 80 80 81 73 82 75 83 76 84 77 85 78 86 55 87 56 88
REMARK SMILES IDX 64 89 57 90 59 91 65 92 58 93 60 94 61 95 62 96 63 97
REMARK H PARENT 21 6 7 15 13 25 26 31 85 50 53 61
REMARK Flexibility Score: inf
ROOT
ATOM      1  C   UNL A   1      34.329  33.167  28.059  1.00  0.00     0.023 C 
ENDROOT
BRANCH   1   2
ATOM      2  C   UNL A   1      33.918  31.693  28.125  1.00  0.00     0.116 C 
BRANCH   2   3
ATOM      3  N   UNL A   1      33.150  31.251  26.976  1.00  0.00    -0.354 N 
ATOM      4  O   UNL A   1      32.925  29.079  27.679  1.00  0.00    -0.273 OA
ATOM      5  C   UNL A   1      32.627  29.971  26.883  1.00  0.00     0.241 C 
ATOM      6  H   UNL A   1      32.995  31.882  26.237  1.00  0.00     0.163 HD
BRANCH   5   7
ATOM      7  C   UNL A   1      31.782  29.670  25.654  1.00  0.00     0.244 C 
BRANCH   7   8
ATOM      8  N   UNL A   1      32.522  29.147  24.523  1.00  0.00    -0.261 N 
ATOM      9  C   UNL A   1      31.986  28.690  23.351  1.00  0.00     0.135 A 
ATOM     10  N   UNL A   1      33.852  29.015  24.592  1.00  0.00    -0.179 NA
ATOM     11  C   UNL A   1      33.008  28.041  22.702  1.00  0.00     0.081 A 
ATOM     12  C   UNL A   1      34.150  28.326  23.487  1.00  0.00     0.161 A 
BRANCH  11  13
ATOM     13  N   UNL A   1      32.832  27.286  21.561  1.00  0.00    -0.305 N 
ATOM     14  C   UNL A   1      32.901  25.924  21.449  1.00  0.00     0.322 C 
ATOM     15  H   UNL A   1      32.635  27.783  20.734  1.00  0.00     0.171 HD
ATOM     16  O   UNL A   1      33.070  25.419  20.344  1.00  0.00    -0.248 OA
BRANCH  14  17
ATOM     17  N   UNL A   1      32.740  25.202  22.603  1.00  0.00    -0.313 N 
ATOM     18  C   UNL A   1      31.414  25.009  23.198  1.00  0.00     0.183 C 
ATOM     19  C   UNL A   1      33.955  24.753  23.277  1.00  0.00     0.186 C 
ATOM     20  C   UNL A   1      31.366  24.226  24.520  1.00  0.00     0.284 C 
ATOM     21  C   UNL A   1      33.697  23.921  24.532  1.00  0.00     0.204 C 
ATOM     22  N   UNL A   1      32.570  24.454  25.333  1.00  0.00    -0.330 N 
ATOM     23  C   UNL A   1      34.808  23.851  25.564  1.00  0.00     0.073 C 
ATOM     24  C   UNL A   1      32.635  23.692  26.576  1.00  0.00     0.262 C 
ATOM     25  H   UNL A   1      32.584  25.448  25.564  1.00  0.00     0.348 HD
ATOM     26  C   UNL A   1      34.096  23.316  26.788  1.00  0.00     0.068 C 
ENDBRANCH  14  17
ENDBRANCH  11  13
ENDBRANCH   7   8
ENDBRANCH   5   7
ENDBRANCH   2   3
ENDBRANCH   1   2
BRANCH   1  27
ATOM     27  C   UNL A   1      33.206  34.185  28.312  1.00  0.00     0.023 C 
BRANCH  27  28
ATOM     28  C   UNL A   1      33.650  35.532  28.894  1.00  0.00     0.116 C 
BRANCH  28  29
ATOM     29  N   UNL A   1      32.898  35.921  30.081  1.00  0.00    -0.352 N 
ATOM     30  C   UNL A   1      32.953  35.382  31.357  1.00  0.00     0.251 C 
ATOM     31  H   UNL A   1      32.266  36.667  29.960  1.00  0.00     0.163 HD
ATOM     32  O   UNL A   1      32.008  35.535  32.117  1.00  0.00    -0.269 OA
BRANCH  30  33
ATOM     33  C   UNL A   1      34.151  34.629  31.812  1.00  0.00     0.039 A 
ATOM     34  C   UNL A   1      34.161  33.227  31.802  1.00  0.00     0.014 A 
ATOM     35  C   UNL A   1      35.255  35.309  32.311  1.00  0.00     0.014 A 
ATOM     36  C   UNL A   1      35.327  32.527  32.168  1.00  0.00     0.010 A 
ATOM     37  C   UNL A   1      36.407  34.611  32.658  1.00  0.00     0.010 A 
ATOM     38  C   UNL A   1      36.484  33.223  32.560  1.00  0.00    -0.014 A 
BRANCH  38  39
ATOM     39  C   UNL A   1      37.836  32.609  32.446  1.00  0.00     0.031 A 
ATOM     40  C   UNL A   1      38.513  32.521  33.767  1.00  0.00     0.074 A 
ATOM     41  C   UNL A   1      38.404  31.995  31.372  1.00  0.00     0.049 A 
ATOM     42  N   UNL A   1      39.506  33.262  34.134  1.00  0.00    -0.248 NA
ATOM     43  C   UNL A   1      37.945  31.712  34.852  1.00  0.00     0.031 C 
ATOM     44  C   UNL A   1      37.931  32.014  29.986  1.00  0.00     0.029 A 
ATOM     45  N   UNL A   1      39.484  31.131  31.295  1.00  0.00    -0.354 N 
ATOM     46  C   UNL A   1      39.902  32.759  35.367  1.00  0.00     0.074 A 
ATOM     47  C   UNL A   1      38.765  32.028  35.858  1.00  0.00     0.031 C 
ATOM     48  C   UNL A   1      38.573  31.060  29.261  1.00  0.00     0.029 A 
ATOM     49  C   UNL A   1      39.572  30.400  30.088  1.00  0.00     0.049 A 
ATOM     50  H   UNL A   1      40.139  31.034  32.023  1.00  0.00     0.167 HD
ATOM     51  C   UNL A   1      41.233  32.690  35.659  1.00  0.00     0.034 A 
ATOM     52  C   UNL A   1      40.480  29.423  29.767  1.00  0.00     0.034 A 
ATOM     53  C   UNL A   1      41.990  33.466  34.696  1.00  0.00     0.049 A 
ATOM     54  C   UNL A   1      41.745  30.012  30.258  1.00  0.00     0.074 A 
ATOM     55  C   UNL A   1      42.263  34.788  34.430  1.00  0.00     0.029 A 
ATOM     56  N   UNL A   1      42.307  32.753  33.569  1.00  0.00    -0.354 N 
ATOM     57  N   UNL A   1      42.224  31.143  29.813  1.00  0.00    -0.248 NA
ATOM     58  C   UNL A   1      42.350  29.496  31.476  1.00  0.00     0.031 C 
ATOM     59  C   UNL A   1      42.669  34.852  33.061  1.00  0.00     0.029 A 
ATOM     60  C   UNL A   1      42.673  33.565  32.534  1.00  0.00     0.049 A 
ATOM     61  H   UNL A   1      42.275  31.771  33.513  1.00  0.00     0.167 HD
ATOM     62  C   UNL A   1      42.808  31.696  30.933  1.00  0.00     0.074 A 
ATOM     63  C   UNL A   1      43.039  30.579  31.842  1.00  0.00     0.031 C 
ATOM     64  C   UNL A   1      42.732  33.032  31.190  1.00  0.00     0.034 A 
BRANCH  51  65
ATOM     65  C   UNL A   1      41.934  31.546  36.394  1.00  0.00     0.023 A 
ATOM     66  C   UNL A   1      43.001  31.915  37.254  1.00  0.00     0.012 A 
ATOM     67  C   UNL A   1      41.828  30.171  36.094  1.00  0.00     0.148 A 
ATOM     68  C   UNL A   1      43.969  30.999  37.683  1.00  0.00     0.002 A 
ATOM     69  C   UNL A   1      42.776  29.254  36.542  1.00  0.00     0.091 A 
ATOM     70  F   UNL A   1      40.845  29.722  35.319  1.00  0.00    -0.205 F 
ATOM     71  C   UNL A   1      43.868  29.669  37.308  1.00  0.00     0.022 A 
BRANCH  69  72
ATOM     72  S   UNL A   1      42.696  27.511  36.098  1.00  0.00     0.127 S 
ATOM     73  O   UNL A   1      42.920  27.571  34.658  1.00  0.00    -0.237 OA
ATOM     74  O   UNL A   1      43.799  26.959  36.881  1.00  0.00    -0.237 OA
ATOM     75  O   UNL A   1      41.373  27.052  36.509  1.00  0.00    -0.744 OA
ENDBRANCH  69  72
ENDBRANCH  51  65
BRANCH  52  76
ATOM     76  C   UNL A   1      40.568  28.213  28.875  1.00  0.00     0.023 A 
ATOM     77  C   UNL A   1      39.692  27.122  28.979  1.00  0.00     0.012 A 
ATOM     78  C   UNL A   1      41.330  28.264  27.676  1.00  0.00     0.148 A 
ATOM     79  C   UNL A   1      39.632  26.128  27.976  1.00  0.00     0.002 A 
ATOM     80  C   UNL A   1      41.386  27.203  26.752  1.00  0.00     0.091 A 
ATOM     81  F   UNL A   1      41.801  29.461  27.325  1.00  0.00    -0.205 F 
ATOM     82  C   UNL A   1      40.501  26.145  26.889  1.00  0.00     0.022 A 
BRANCH  80  83
ATOM     83  S   UNL A   1      42.613  27.103  25.414  1.00  0.00     0.127 S 
ATOM     84  O   UNL A   1      43.894  27.210  26.115  1.00  0.00    -0.237 OA
ATOM     85  O   UNL A   1      42.358  25.803  24.814  1.00  0.00    -0.237 OA
ATOM     86  O   UNL A   1      42.323  28.272  24.591  1.00  0.00    -0.744 OA
ENDBRANCH  80  83
ENDBRANCH  52  76
BRANCH  64  87
ATOM     87  C   UNL A   1      42.528  33.980  30.047  1.00  0.00     0.023 A 
ATOM     88  C   UNL A   1      41.263  34.448  29.648  1.00  0.00     0.012 A 
ATOM     89  C   UNL A   1      43.676  34.510  29.438  1.00  0.00     0.148 A 
ATOM     90  C   UNL A   1      41.146  35.429  28.656  1.00  0.00     0.002 A 
ATOM     91  C   UNL A   1      43.560  35.513  28.485  1.00  0.00     0.091 A 
ATOM     92  F   UNL A   1      44.871  34.039  29.823  1.00  0.00    -0.205 F 
ATOM     93  C   UNL A   1      42.296  35.972  28.084  1.00  0.00     0.022 A 
BRANCH  91  94
ATOM     94  S   UNL A   1      45.010  36.329  27.814  1.00  0.00     0.127 S 
ATOM     95  O   UNL A   1      45.725  35.218  27.190  1.00  0.00    -0.237 OA
ATOM     96  O   UNL A   1      44.423  37.286  26.873  1.00  0.00    -0.237 OA
ATOM     97  O   UNL A   1      45.679  36.950  28.951  1.00  0.00    -0.744 OA
ENDBRANCH  91  94
ENDBRANCH  64  87
ENDBRANCH  38  39
ENDBRANCH  30  33
ENDBRANCH  28  29
ENDBRANCH  27  28
ENDBRANCH   1  27
TORSDOF 17
ENDMDL
MODEL 3
REMARK VINA RESULT:     -11.8      2.042      6.631
REMARK SMILES O=C(Cn1cc(NC(=O)N2CC[N@H+]3CCC[C@@H]3C2)cn1)NCCCCNC(=O)c1ccc(-c2c3nc(c(-c4cccc(S(=O)(=O)[O-])c4F)c4ccc([nH]4)c(-c4cccc(S(=O)(=O)[O-])c4F)c4nc(c(-c5cccc(S(=O)(=O)[O-])c5F)c5ccc2[nH]5)C=C4)C=C3)cc1
REMARK SMILES IDX 23 1 22 2 21 3 1 4 2 5 3 7 4 8 5 9 20 10 6 11 19 12 7 13
REMARK SMILES IDX 8 14 9 16 10 17 11 18 18 19 12 20 17 21 13 22 16 23 14 24
REMARK SMILES IDX 15 26 24 27 25 28 26 29 27 30 28 32 29 33 30 34 91 35 31 36
REMARK SMILES IDX 90 37 32 38 33 39 34 40 84 41 35 42 89 43 83 44 85 45 36 46
REMARK SMILES IDX 88 47 82 48 81 49 37 51 69 52 49 53 68 54 50 55 53 56 67 57
REMARK SMILES IDX 86 58 51 59 52 60 66 62 87 63 54 64 38 65 39 66 47 67 40 68
REMARK SMILES IDX 42 69 48 70 41 71 43 72 44 73 45 74 46 75 70 76 71 77 79 78
REMARK SMILES IDX 72 79 74 80 80 81 73 82 75 83 76 84 77 85 78 86 55 87 56 88
REMARK SMILES IDX 64 89 57 90 59 91 65 92 58 93 60 94 61 95 62 96 63 97
REMARK H PARENT 21 6 7 15 13 25 26 31 85 50 53 61
REMARK Flexibility Score: inf
ROOT
ATOM      1  C   UNL A   1      38.986  22.370  26.118  1.00  0.00     0.023 C 
ENDROOT
BRANCH   1   2
ATOM      2  C   UNL A   1      37.701  23.131  25.774  1.00  0.00     0.116 C 
BRANCH   2   3
ATOM      3  N   UNL A   1      36.501  22.323  25.879  1.00  0.00    -0.354 N 
ATOM      4  O   UNL A   1      35.910  22.510  23.671  1.00  0.00    -0.273 OA
ATOM      5  C   UNL A   1      35.729  21.995  24.776  1.00  0.00     0.241 C 
ATOM      6  H   UNL A   1      36.225  21.995  26.766  1.00  0.00     0.163 HD
BRANCH   5   7
ATOM      7  C   UNL A   1      34.539  21.082  25.025  1.00  0.00     0.244 C 
BRANCH   7   8
ATOM      8  N   UNL A   1      33.517  21.638  25.890  1.00  0.00    -0.261 N 
ATOM      9  C   UNL A   1      32.245  21.976  25.521  1.00  0.00     0.135 A 
ATOM     10  N   UNL A   1      33.802  21.933  27.165  1.00  0.00    -0.179 NA
ATOM     11  C   UNL A   1      31.738  22.713  26.563  1.00  0.00     0.081 A 
ATOM     12  C   UNL A   1      32.721  22.602  27.574  1.00  0.00     0.161 A 
BRANCH  11  13
ATOM     13  N   UNL A   1      30.537  23.389  26.507  1.00  0.00    -0.305 N 
ATOM     14  C   UNL A   1      30.350  24.733  26.325  1.00  0.00     0.322 C 
ATOM     15  H   UNL A   1      29.723  22.845  26.610  1.00  0.00     0.171 HD
ATOM     16  O   UNL A   1      29.277  25.239  26.640  1.00  0.00    -0.248 OA
BRANCH  14  17
ATOM     17  N   UNL A   1      31.387  25.429  25.760  1.00  0.00    -0.313 N 
ATOM     18  C   UNL A   1      32.281  26.253  26.578  1.00  0.00     0.183 C 
ATOM     19  C   UNL A   1      31.472  25.418  24.302  1.00  0.00     0.186 C 
ATOM     20  C   UNL A   1      33.374  27.029  25.824  1.00  0.00     0.284 C 
ATOM     21  C   UNL A   1      32.674  26.180  23.746  1.00  0.00     0.204 C 
ATOM     22  N   UNL A   1      32.926  27.441  24.485  1.00  0.00    -0.330 N 
ATOM     23  C   UNL A   1      32.587  26.672  22.312  1.00  0.00     0.073 C 
ATOM     24  C   UNL A   1      33.930  28.125  23.676  1.00  0.00     0.262 C 
ATOM     25  H   UNL A   1      32.138  28.074  24.622  1.00  0.00     0.348 HD
ATOM     26  C   UNL A   1      33.712  27.682  22.234  1.00  0.00     0.068 C 
ENDBRANCH  14  17
ENDBRANCH  11  13
ENDBRANCH   7   8
ENDBRANCH   5   7
ENDBRANCH   2   3
ENDBRANCH   1   2
BRANCH   1  27
ATOM     27  C   UNL A   1      39.129  20.980  25.479  1.00  0.00     0.023 C 
BRANCH  27  28
ATOM     28  C   UNL A   1      39.591  19.862  26.421  1.00  0.00     0.116 C 
BRANCH  28  29
ATOM     29  N   UNL A   1      40.800  19.188  25.963  1.00  0.00    -0.352 N 
ATOM     30  C   UNL A   1      42.063  19.721  25.755  1.00  0.00     0.251 C 
ATOM     31  H   UNL A   1      40.707  18.226  25.777  1.00  0.00     0.163 HD
ATOM     32  O   UNL A   1      42.844  19.146  25.011  1.00  0.00    -0.269 OA
BRANCH  30  33
ATOM     33  C   UNL A   1      42.479  20.977  26.433  1.00  0.00     0.039 A 
ATOM     34  C   UNL A   1      42.840  22.107  25.688  1.00  0.00     0.014 A 
ATOM     35  C   UNL A   1      42.570  21.023  27.820  1.00  0.00     0.014 A 
ATOM     36  C   UNL A   1      43.163  23.310  26.343  1.00  0.00     0.010 A 
ATOM     37  C   UNL A   1      42.876  22.220  28.459  1.00  0.00     0.010 A 
ATOM     38  C   UNL A   1      43.140  23.389  27.746  1.00  0.00    -0.014 A 
BRANCH  38  39
ATOM     39  C   UNL A   1      42.952  24.688  28.449  1.00  0.00     0.031 A 
ATOM     40  C   UNL A   1      41.616  25.277  28.170  1.00  0.00     0.074 A 
ATOM     41  C   UNL A   1      43.740  25.263  29.398  1.00  0.00     0.049 A 
ATOM     42  N   UNL A   1      41.410  26.307  27.417  1.00  0.00    -0.248 NA
ATOM     43  C   UNL A   1      40.387  24.580  28.568  1.00  0.00     0.031 C 
ATOM     44  C   UNL A   1      45.101  24.875  29.777  1.00  0.00     0.029 A 
ATOM     45  N   UNL A   1      43.464  26.268  30.311  1.00  0.00    -0.354 N 
ATOM     46  C   UNL A   1      40.054  26.586  27.540  1.00  0.00     0.074 A 
ATOM     47  C   UNL A   1      39.460  25.365  28.011  1.00  0.00     0.031 C 
ATOM     48  C   UNL A   1      45.449  25.474  30.947  1.00  0.00     0.029 A 
ATOM     49  C   UNL A   1      44.383  26.363  31.382  1.00  0.00     0.049 A 
ATOM     50  H   UNL A   1      42.690  26.869  30.221  1.00  0.00     0.167 HD
ATOM     51  C   UNL A   1      39.648  27.887  27.600  1.00  0.00     0.034 A 
ATOM     52  C   UNL A   1      44.319  27.202  32.466  1.00  0.00     0.034 A 
ATOM     53  C   UNL A   1      40.736  28.763  27.208  1.00  0.00     0.049 A 
ATOM     54  C   UNL A   1      43.927  28.482  31.836  1.00  0.00     0.074 A 
ATOM     55  C   UNL A   1      41.365  29.162  26.051  1.00  0.00     0.029 A 
ATOM     56  N   UNL A   1      41.565  29.083  28.251  1.00  0.00    -0.354 N 
ATOM     57  N   UNL A   1      44.653  29.081  30.929  1.00  0.00    -0.248 NA
ATOM     58  C   UNL A   1      42.565  28.969  31.990  1.00  0.00     0.031 C 
ATOM     59  C   UNL A   1      42.652  29.651  26.438  1.00  0.00     0.029 A 
ATOM     60  C   UNL A   1      42.764  29.576  27.822  1.00  0.00     0.049 A 
ATOM     61  H   UNL A   1      41.324  28.970  29.199  1.00  0.00     0.167 HD
ATOM     62  C   UNL A   1      43.709  29.644  30.097  1.00  0.00     0.074 A 
ATOM     63  C   UNL A   1      42.489  29.725  30.893  1.00  0.00     0.031 C 
ATOM     64  C   UNL A   1      43.874  29.667  28.745  1.00  0.00     0.034 A 
BRANCH  51  65
ATOM     65  C   UNL A   1      38.548  28.444  28.505  1.00  0.00     0.023 A 
ATOM     66  C   UNL A   1      37.576  29.265  27.876  1.00  0.00     0.012 A 
ATOM     67  C   UNL A   1      38.558  28.467  29.916  1.00  0.00     0.148 A 
ATOM     68  C   UNL A   1      36.757  30.143  28.596  1.00  0.00     0.002 A 
ATOM     69  C   UNL A   1      37.725  29.322  30.634  1.00  0.00     0.091 A 
ATOM     70  F   UNL A   1      39.414  27.711  30.598  1.00  0.00    -0.205 F 
ATOM     71  C   UNL A   1      36.847  30.187  29.978  1.00  0.00     0.022 A 
BRANCH  69  72
ATOM     72  S   UNL A   1      37.787  29.418  32.432  1.00  0.00     0.127 S 
ATOM     73  O   UNL A   1      39.141  29.918  32.646  1.00  0.00    -0.237 OA
ATOM     74  O   UNL A   1      36.717  30.374  32.710  1.00  0.00    -0.237 OA
ATOM     75  O   UNL A   1      37.532  28.066  32.917  1.00  0.00    -0.744 OA
ENDBRANCH  69  72
ENDBRANCH  51  65
BRANCH  52  76
ATOM     76  C   UNL A   1      44.793  27.239  33.895  1.00  0.00     0.023 A 
ATOM     77  C   UNL A   1      45.941  27.936  34.302  1.00  0.00     0.012 A 
ATOM     78  C   UNL A   1      43.922  26.845  34.946  1.00  0.00     0.148 A 
ATOM     79  C   UNL A   1      46.216  28.168  35.668  1.00  0.00     0.002 A 
ATOM     80  C   UNL A   1      44.265  26.937  36.308  1.00  0.00     0.091 A 
ATOM     81  F   UNL A   1      42.653  26.613  34.607  1.00  0.00    -0.205 F 
ATOM     82  C   UNL A   1      45.406  27.638  36.668  1.00  0.00     0.022 A 
BRANCH  80  83
ATOM     83  S   UNL A   1      43.328  26.122  37.635  1.00  0.00     0.127 S 
ATOM     84  O   UNL A   1      43.506  24.696  37.354  1.00  0.00    -0.237 OA
ATOM     85  O   UNL A   1      43.982  26.585  38.849  1.00  0.00    -0.237 OA
ATOM     86  O   UNL A   1      41.958  26.571  37.418  1.00  0.00    -0.744 OA
ENDBRANCH  80  83
ENDBRANCH  52  76
BRANCH  64  87
ATOM     87  C   UNL A   1      45.263  29.612  28.183  1.00  0.00     0.023 A 
ATOM     88  C   UNL A   1      45.871  28.422  27.743  1.00  0.00     0.012 A 
ATOM     89  C   UNL A   1      45.924  30.832  27.980  1.00  0.00     0.148 A 
ATOM     90  C   UNL A   1      47.120  28.451  27.112  1.00  0.00     0.002 A 
ATOM     91  C   UNL A   1      47.143  30.864  27.316  1.00  0.00     0.091 A 
ATOM     92  F   UNL A   1      45.333  31.953  28.421  1.00  0.00    -0.205 F 
ATOM     93  C   UNL A   1      47.750  29.674  26.886  1.00  0.00     0.022 A 
BRANCH  91  94
ATOM     94  S   UNL A   1      47.930  32.419  26.891  1.00  0.00     0.127 S 
ATOM     95  O   UNL A   1      47.907  33.132  28.166  1.00  0.00    -0.237 OA
ATOM     96  O   UNL A   1      49.259  31.988  26.453  1.00  0.00    -0.237 OA
ATOM     97  O   UNL A   1      47.116  33.000  25.830  1.00  0.00    -0.744 OA
ENDBRANCH  91  94
ENDBRANCH  64  87
ENDBRANCH  38  39
ENDBRANCH  30  33
ENDBRANCH  28  29
ENDBRANCH  27  28
ENDBRANCH   1  27
TORSDOF 17
ENDMDL
