MODEL 1
REMARK VINA RESULT:     -11.4      0.000      0.000
REMARK SMILES CC[C@@](O)(C(=O)NCCCCNC(=O)c1ccc(-c2c3nc(c(-c4cccc(S(=O)(=O)[O-])c4F)c4ccc([nH]4)c(-c4cccc(S(=O)(=O)[O-])c4F)c4nc(c(-c5cccc(S(=O)(=O)[O-])c5F)c5ccc2[nH]5)C=C4)C=C3)cc1)[C@@H]1CCOc2ccccc21
REMARK SMILES IDX 10 1 9 2 8 3 7 4 5 5 6 6 3 8 2 9 1 10 4 11 78 13 79 14 87 15
REMARK SMILES IDX 80 16 82 17 86 18 81 19 83 20 85 21 84 22 11 23 12 24 13 25
REMARK SMILES IDX 14 27 15 28 16 29 77 30 17 31 76 32 18 33 19 34 20 35 70 36
REMARK SMILES IDX 21 37 75 38 69 39 71 40 22 41 74 42 68 43 67 44 23 46 55 47
REMARK SMILES IDX 35 48 54 49 36 50 39 51 53 52 72 53 37 54 38 55 52 57 73 58
REMARK SMILES IDX 40 59 24 60 25 61 33 62 26 63 28 64 34 65 27 66 29 67 30 68
REMARK SMILES IDX 31 69 32 70 56 71 57 72 65 73 58 74 60 75 66 76 59 77 61 78
REMARK SMILES IDX 62 79 63 80 64 81 41 82 42 83 50 84 43 85 45 86 51 87 44 88
REMARK SMILES IDX 46 89 47 90 48 91 49 92
REMARK H PARENT 7 7 4 12 12 26 71 45 39 56
REMARK Flexibility Score: inf
ROOT
ATOM      1  C   UNL A   1      32.472  28.331  27.017  1.00  0.00     0.023 C 
ENDROOT
BRANCH   1   2
ATOM      2  C   UNL A   1      32.444  26.945  26.370  1.00  0.00     0.023 C 
BRANCH   2   3
ATOM      3  C   UNL A   1      33.774  26.523  25.742  1.00  0.00     0.116 C 
BRANCH   3   4
ATOM      4  N   UNL A   1      33.554  26.089  24.379  1.00  0.00    -0.354 N 
ATOM      5  C   UNL A   1      34.088  25.041  23.685  1.00  0.00     0.252 C 
ATOM      6  O   UNL A   1      33.911  25.064  22.463  1.00  0.00    -0.272 OA
ATOM      7  H   UNL A   1      32.916  26.638  23.869  1.00  0.00     0.163 HD
BRANCH   5   8
ATOM      8  C   UNL A   1      34.888  23.890  24.398  1.00  0.00     0.149 C 
BRANCH   8   9
ATOM      9  C   UNL A   1      35.607  23.018  23.331  1.00  0.00     0.043 C 
ATOM     10  C   UNL A   1      36.838  22.240  23.789  1.00  0.00     0.007 C 
ENDBRANCH   8   9
BRANCH   8  11
ATOM     11  O   UNL A   1      35.915  24.553  25.173  1.00  0.00    -0.379 OA
ATOM     12  H   UNL A   1      36.138  24.010  25.945  1.00  0.00     0.212 HD
ENDBRANCH   8  11
BRANCH   8  13
ATOM     13  C   UNL A   1      33.881  23.143  25.393  1.00  0.00     0.068 C 
ATOM     14  C   UNL A   1      34.479  23.038  26.814  1.00  0.00     0.053 C 
ATOM     15  C   UNL A   1      33.308  21.792  24.979  1.00  0.00     0.001 A 
ATOM     16  C   UNL A   1      33.578  22.184  27.678  1.00  0.00     0.230 C 
ATOM     17  C   UNL A   1      33.279  20.719  25.885  1.00  0.00     0.122 A 
ATOM     18  C   UNL A   1      32.767  21.581  23.703  1.00  0.00     0.008 A 
ATOM     19  O   UNL A   1      33.612  20.834  27.210  1.00  0.00    -0.493 OA
ATOM     20  C   UNL A   1      32.913  19.439  25.468  1.00  0.00     0.047 A 
ATOM     21  C   UNL A   1      32.408  20.299  23.280  1.00  0.00     0.001 A 
ATOM     22  C   UNL A   1      32.509  19.222  24.154  1.00  0.00     0.004 A 
ENDBRANCH   8  13
ENDBRANCH   5   8
ENDBRANCH   3   4
ENDBRANCH   2   3
ENDBRANCH   1   2
BRANCH   1  23
ATOM     23  C   UNL A   1      33.680  29.180  26.645  1.00  0.00     0.116 C 
BRANCH  23  24
ATOM     24  N   UNL A   1      33.586  30.544  27.146  1.00  0.00    -0.352 N 
ATOM     25  C   UNL A   1      34.444  31.208  27.990  1.00  0.00     0.251 C 
ATOM     26  H   UNL A   1      32.802  31.058  26.841  1.00  0.00     0.163 HD
ATOM     27  O   UNL A   1      34.152  32.310  28.425  1.00  0.00    -0.269 OA
BRANCH  25  28
ATOM     28  C   UNL A   1      35.709  30.552  28.380  1.00  0.00     0.039 A 
ATOM     29  C   UNL A   1      36.857  30.804  27.625  1.00  0.00     0.014 A 
ATOM     30  C   UNL A   1      35.763  29.722  29.502  1.00  0.00     0.014 A 
ATOM     31  C   UNL A   1      38.076  30.258  28.030  1.00  0.00     0.010 A 
ATOM     32  C   UNL A   1      36.991  29.246  29.947  1.00  0.00     0.010 A 
ATOM     33  C   UNL A   1      38.157  29.498  29.209  1.00  0.00    -0.014 A 
BRANCH  33  34
ATOM     34  C   UNL A   1      39.453  28.955  29.683  1.00  0.00     0.031 A 
ATOM     35  C   UNL A   1      40.189  29.631  30.808  1.00  0.00     0.074 A 
ATOM     36  C   UNL A   1      40.004  27.900  29.051  1.00  0.00     0.049 A 
ATOM     37  N   UNL A   1      41.343  29.326  31.339  1.00  0.00    -0.248 NA
ATOM     38  C   UNL A   1      39.559  30.827  31.394  1.00  0.00     0.031 C 
ATOM     39  C   UNL A   1      39.428  27.212  27.893  1.00  0.00     0.029 A 
ATOM     40  N   UNL A   1      41.183  27.236  29.278  1.00  0.00    -0.354 N 
ATOM     41  C   UNL A   1      41.595  30.304  32.292  1.00  0.00     0.074 A 
ATOM     42  C   UNL A   1      40.492  31.239  32.240  1.00  0.00     0.031 C 
ATOM     43  C   UNL A   1      40.249  26.217  27.519  1.00  0.00     0.029 A 
ATOM     44  C   UNL A   1      41.420  26.212  28.390  1.00  0.00     0.049 A 
ATOM     45  H   UNL A   1      41.801  27.470  30.007  1.00  0.00     0.167 HD
ATOM     46  C   UNL A   1      42.632  30.401  33.158  1.00  0.00     0.034 A 
ATOM     47  C   UNL A   1      42.462  25.365  28.291  1.00  0.00     0.034 A 
ATOM     48  C   UNL A   1      43.702  29.444  33.236  1.00  0.00     0.049 A 
ATOM     49  C   UNL A   1      43.579  25.466  29.295  1.00  0.00     0.074 A 
ATOM     50  C   UNL A   1      44.752  29.400  34.135  1.00  0.00     0.029 A 
ATOM     51  N   UNL A   1      43.864  28.368  32.376  1.00  0.00    -0.354 N 
ATOM     52  N   UNL A   1      43.716  26.299  30.298  1.00  0.00    -0.248 NA
ATOM     53  C   UNL A   1      44.666  24.483  29.179  1.00  0.00     0.031 C 
ATOM     54  C   UNL A   1      45.563  28.307  33.805  1.00  0.00     0.029 A 
ATOM     55  C   UNL A   1      45.001  27.656  32.719  1.00  0.00     0.049 A 
ATOM     56  H   UNL A   1      43.260  28.144  31.633  1.00  0.00     0.167 HD
ATOM     57  C   UNL A   1      44.880  25.917  30.956  1.00  0.00     0.074 A 
ATOM     58  C   UNL A   1      45.399  24.765  30.248  1.00  0.00     0.031 C 
ATOM     59  C   UNL A   1      45.475  26.478  32.038  1.00  0.00     0.034 A 
BRANCH  46  60
ATOM     60  C   UNL A   1      42.627  31.554  34.127  1.00  0.00     0.023 A 
ATOM     61  C   UNL A   1      43.230  32.775  33.759  1.00  0.00     0.012 A 
ATOM     62  C   UNL A   1      41.987  31.450  35.377  1.00  0.00     0.148 A 
ATOM     63  C   UNL A   1      43.231  33.860  34.633  1.00  0.00     0.002 A 
ATOM     64  C   UNL A   1      41.950  32.552  36.225  1.00  0.00     0.091 A 
ATOM     65  F   UNL A   1      41.438  30.277  35.721  1.00  0.00    -0.205 F 
ATOM     66  C   UNL A   1      42.583  33.753  35.859  1.00  0.00     0.022 A 
BRANCH  64  67
ATOM     67  S   UNL A   1      41.071  32.542  37.791  1.00  0.00     0.127 S 
ATOM     68  O   UNL A   1      41.945  31.708  38.614  1.00  0.00    -0.237 OA
ATOM     69  O   UNL A   1      41.067  33.961  38.150  1.00  0.00    -0.237 OA
ATOM     70  O   UNL A   1      39.756  31.984  37.509  1.00  0.00    -0.744 OA
ENDBRANCH  64  67
ENDBRANCH  46  60
BRANCH  47  71
ATOM     71  C   UNL A   1      42.463  24.299  27.250  1.00  0.00     0.023 A 
ATOM     72  C   UNL A   1      43.346  24.402  26.157  1.00  0.00     0.012 A 
ATOM     73  C   UNL A   1      41.616  23.178  27.345  1.00  0.00     0.148 A 
ATOM     74  C   UNL A   1      43.361  23.426  25.160  1.00  0.00     0.002 A 
ATOM     75  C   UNL A   1      41.676  22.182  26.378  1.00  0.00     0.091 A 
ATOM     76  F   UNL A   1      40.777  23.103  28.388  1.00  0.00    -0.205 F 
ATOM     77  C   UNL A   1      42.534  22.313  25.275  1.00  0.00     0.022 A 
BRANCH  75  78
ATOM     78  S   UNL A   1      40.744  20.652  26.512  1.00  0.00     0.127 S 
ATOM     79  O   UNL A   1      41.482  19.774  25.607  1.00  0.00    -0.237 OA
ATOM     80  O   UNL A   1      40.888  20.333  27.933  1.00  0.00    -0.237 OA
ATOM     81  O   UNL A   1      39.386  20.983  26.106  1.00  0.00    -0.744 OA
ENDBRANCH  75  78
ENDBRANCH  47  71
BRANCH  59  82
ATOM     82  C   UNL A   1      46.733  25.832  32.556  1.00  0.00     0.023 A 
ATOM     83  C   UNL A   1      47.989  26.255  32.078  1.00  0.00     0.012 A 
ATOM     84  C   UNL A   1      46.671  24.854  33.568  1.00  0.00     0.148 A 
ATOM     85  C   UNL A   1      49.162  25.690  32.573  1.00  0.00     0.002 A 
ATOM     86  C   UNL A   1      47.847  24.331  34.094  1.00  0.00     0.091 A 
ATOM     87  F   UNL A   1      45.466  24.451  33.997  1.00  0.00    -0.205 F 
ATOM     88  C   UNL A   1      49.092  24.737  33.588  1.00  0.00     0.022 A 
BRANCH  86  89
ATOM     89  S   UNL A   1      47.853  23.176  35.469  1.00  0.00     0.127 S 
ATOM     90  O   UNL A   1      49.285  22.976  35.684  1.00  0.00    -0.237 OA
ATOM     91  O   UNL A   1      47.180  23.941  36.520  1.00  0.00    -0.237 OA
ATOM     92  O   UNL A   1      47.118  22.005  35.011  1.00  0.00    -0.744 OA
ENDBRANCH  86  89
ENDBRANCH  59  82
ENDBRANCH  33  34
ENDBRANCH  25  28
ENDBRANCH  23  24
ENDBRANCH   1  23
TORSDOF 17
ENDMDL
MODEL 2
REMARK VINA RESULT:     -11.3      1.889      2.868
REMARK SMILES CC[C@@](O)(C(=O)NCCCCNC(=O)c1ccc(-c2c3nc(c(-c4cccc(S(=O)(=O)[O-])c4F)c4ccc([nH]4)c(-c4cccc(S(=O)(=O)[O-])c4F)c4nc(c(-c5cccc(S(=O)(=O)[O-])c5F)c5ccc2[nH]5)C=C4)C=C3)cc1)[C@@H]1CCOc2ccccc21
REMARK SMILES IDX 10 1 9 2 8 3 7 4 5 5 6 6 3 8 2 9 1 10 4 11 78 13 79 14 87 15
REMARK SMILES IDX 80 16 82 17 86 18 81 19 83 20 85 21 84 22 11 23 12 24 13 25
REMARK SMILES IDX 14 27 15 28 16 29 77 30 17 31 76 32 18 33 19 34 20 35 70 36
REMARK SMILES IDX 21 37 75 38 69 39 71 40 22 41 74 42 68 43 67 44 23 46 55 47
REMARK SMILES IDX 35 48 54 49 36 50 39 51 53 52 72 53 37 54 38 55 52 57 73 58
REMARK SMILES IDX 40 59 24 60 25 61 33 62 26 63 28 64 34 65 27 66 29 67 30 68
REMARK SMILES IDX 31 69 32 70 56 71 57 72 65 73 58 74 60 75 66 76 59 77 61 78
REMARK SMILES IDX 62 79 63 80 64 81 41 82 42 83 50 84 43 85 45 86 51 87 44 88
REMARK SMILES IDX 46 89 47 90 48 91 49 92
REMARK H PARENT 7 7 4 12 12 26 71 45 39 56
REMARK Flexibility Score: inf
ROOT
ATOM      1  C   UNL A   1      32.269  28.706  26.854  1.00  0.00     0.023 C 
ENDROOT
BRANCH   1   2
ATOM      2  C   UNL A   1      31.752  27.563  25.978  1.00  0.00     0.023 C 
BRANCH   2   3
ATOM      3  C   UNL A   1      32.329  26.191  26.338  1.00  0.00     0.116 C 
BRANCH   3   4
ATOM      4  N   UNL A   1      31.278  25.341  26.855  1.00  0.00    -0.354 N 
ATOM      5  C   UNL A   1      31.100  23.991  26.753  1.00  0.00     0.252 C 
ATOM      6  O   UNL A   1      29.982  23.574  27.076  1.00  0.00    -0.272 OA
ATOM      7  H   UNL A   1      30.579  25.811  27.363  1.00  0.00     0.163 HD
BRANCH   5   8
ATOM      8  C   UNL A   1      32.239  23.036  26.244  1.00  0.00     0.149 C 
BRANCH   8   9
ATOM      9  C   UNL A   1      33.225  22.733  27.407  1.00  0.00     0.043 C 
ATOM     10  C   UNL A   1      33.825  21.331  27.460  1.00  0.00     0.007 C 
ENDBRANCH   8   9
BRANCH   8  11
ATOM     11  O   UNL A   1      31.581  21.791  25.906  1.00  0.00    -0.379 OA
ATOM     12  H   UNL A   1      30.911  21.956  25.223  1.00  0.00     0.212 HD
ENDBRANCH   8  11
BRANCH   8  13
ATOM     13  C   UNL A   1      32.856  23.680  24.914  1.00  0.00     0.068 C 
ATOM     14  C   UNL A   1      32.138  23.148  23.654  1.00  0.00     0.053 C 
ATOM     15  C   UNL A   1      34.365  23.625  24.704  1.00  0.00     0.001 A 
ATOM     16  C   UNL A   1      32.854  23.646  22.417  1.00  0.00     0.230 C 
ATOM     17  C   UNL A   1      34.901  23.242  23.464  1.00  0.00     0.122 A 
ATOM     18  C   UNL A   1      35.263  23.981  25.720  1.00  0.00     0.008 A 
ATOM     19  O   UNL A   1      34.144  23.038  22.338  1.00  0.00    -0.493 OA
ATOM     20  C   UNL A   1      36.272  23.028  23.311  1.00  0.00     0.047 A 
ATOM     21  C   UNL A   1      36.635  23.760  25.573  1.00  0.00     0.001 A 
ATOM     22  C   UNL A   1      37.136  23.256  24.377  1.00  0.00     0.004 A 
ENDBRANCH   8  13
ENDBRANCH   5   8
ENDBRANCH   3   4
ENDBRANCH   2   3
ENDBRANCH   1   2
BRANCH   1  23
ATOM     23  C   UNL A   1      33.174  29.697  26.134  1.00  0.00     0.116 C 
BRANCH  23  24
ATOM     24  N   UNL A   1      32.945  31.073  26.549  1.00  0.00    -0.352 N 
ATOM     25  C   UNL A   1      33.670  31.831  27.439  1.00  0.00     0.251 C 
ATOM     26  H   UNL A   1      32.169  31.519  26.140  1.00  0.00     0.163 HD
ATOM     27  O   UNL A   1      33.267  32.930  27.783  1.00  0.00    -0.269 OA
BRANCH  25  28
ATOM     28  C   UNL A   1      34.924  31.279  27.990  1.00  0.00     0.039 A 
ATOM     29  C   UNL A   1      36.060  32.092  28.022  1.00  0.00     0.014 A 
ATOM     30  C   UNL A   1      34.966  29.978  28.499  1.00  0.00     0.014 A 
ATOM     31  C   UNL A   1      37.229  31.613  28.614  1.00  0.00     0.010 A 
ATOM     32  C   UNL A   1      36.106  29.534  29.158  1.00  0.00     0.010 A 
ATOM     33  C   UNL A   1      37.252  30.341  29.211  1.00  0.00    -0.014 A 
BRANCH  33  34
ATOM     34  C   UNL A   1      38.470  29.837  29.893  1.00  0.00     0.031 A 
ATOM     35  C   UNL A   1      38.850  30.366  31.248  1.00  0.00     0.074 A 
ATOM     36  C   UNL A   1      39.272  28.960  29.258  1.00  0.00     0.049 A 
ATOM     37  N   UNL A   1      39.888  30.073  31.986  1.00  0.00    -0.248 NA
ATOM     38  C   UNL A   1      37.963  31.383  31.841  1.00  0.00     0.031 C 
ATOM     39  C   UNL A   1      39.055  28.438  27.906  1.00  0.00     0.029 A 
ATOM     40  N   UNL A   1      40.445  28.370  29.656  1.00  0.00    -0.354 N 
ATOM     41  C   UNL A   1      39.800  30.887  33.108  1.00  0.00     0.074 A 
ATOM     42  C   UNL A   1      38.629  31.719  32.936  1.00  0.00     0.031 C 
ATOM     43  C   UNL A   1      40.055  27.598  27.593  1.00  0.00     0.029 A 
ATOM     44  C   UNL A   1      40.997  27.541  28.707  1.00  0.00     0.049 A 
ATOM     45  H   UNL A   1      40.853  28.525  30.538  1.00  0.00     0.167 HD
ATOM     46  C   UNL A   1      40.601  30.920  34.199  1.00  0.00     0.034 A 
ATOM     47  C   UNL A   1      42.132  26.818  28.732  1.00  0.00     0.034 A 
ATOM     48  C   UNL A   1      41.738  30.060  34.385  1.00  0.00     0.049 A 
ATOM     49  C   UNL A   1      42.979  26.836  29.976  1.00  0.00     0.074 A 
ATOM     50  C   UNL A   1      42.561  29.949  35.491  1.00  0.00     0.029 A 
ATOM     51  N   UNL A   1      42.217  29.169  33.437  1.00  0.00    -0.354 N 
ATOM     52  N   UNL A   1      42.787  27.490  31.096  1.00  0.00    -0.248 NA
ATOM     53  C   UNL A   1      44.178  25.986  29.975  1.00  0.00     0.031 C 
ATOM     54  C   UNL A   1      43.554  29.005  35.202  1.00  0.00     0.029 A 
ATOM     55  C   UNL A   1      43.330  28.508  33.928  1.00  0.00     0.049 A 
ATOM     56  H   UNL A   1      41.824  29.027  32.546  1.00  0.00     0.167 HD
ATOM     57  C   UNL A   1      43.817  27.101  31.946  1.00  0.00     0.074 A 
ATOM     58  C   UNL A   1      44.617  26.138  31.217  1.00  0.00     0.031 C 
ATOM     59  C   UNL A   1      44.084  27.513  33.210  1.00  0.00     0.034 A 
BRANCH  46  60
ATOM     60  C   UNL A   1      40.240  31.881  35.303  1.00  0.00     0.023 A 
ATOM     61  C   UNL A   1      40.909  33.120  35.391  1.00  0.00     0.012 A 
ATOM     62  C   UNL A   1      39.211  31.585  36.217  1.00  0.00     0.148 A 
ATOM     63  C   UNL A   1      40.587  34.032  36.395  1.00  0.00     0.002 A 
ATOM     64  C   UNL A   1      38.863  32.519  37.187  1.00  0.00     0.091 A 
ATOM     65  F   UNL A   1      38.601  30.395  36.132  1.00  0.00    -0.205 F 
ATOM     66  C   UNL A   1      39.559  33.736  37.285  1.00  0.00     0.022 A 
BRANCH  64  67
ATOM     67  S   UNL A   1      37.499  32.270  38.328  1.00  0.00     0.127 S 
ATOM     68  O   UNL A   1      37.347  30.816  38.292  1.00  0.00    -0.237 OA
ATOM     69  O   UNL A   1      38.046  32.794  39.580  1.00  0.00    -0.237 OA
ATOM     70  O   UNL A   1      36.381  33.030  37.789  1.00  0.00    -0.744 OA
ENDBRANCH  64  67
ENDBRANCH  46  60
BRANCH  47  71
ATOM     71  C   UNL A   1      42.494  25.954  27.572  1.00  0.00     0.023 A 
ATOM     72  C   UNL A   1      43.319  26.474  26.556  1.00  0.00     0.012 A 
ATOM     73  C   UNL A   1      42.048  24.621  27.481  1.00  0.00     0.148 A 
ATOM     74  C   UNL A   1      43.666  25.694  25.452  1.00  0.00     0.002 A 
ATOM     75  C   UNL A   1      42.442  23.833  26.407  1.00  0.00     0.091 A 
ATOM     76  F   UNL A   1      41.257  24.149  28.454  1.00  0.00    -0.205 F 
ATOM     77  C   UNL A   1      43.235  24.372  25.382  1.00  0.00     0.022 A 
BRANCH  75  78
ATOM     78  S   UNL A   1      42.046  22.084  26.299  1.00  0.00     0.127 S 
ATOM     79  O   UNL A   1      40.601  22.118  26.089  1.00  0.00    -0.237 OA
ATOM     80  O   UNL A   1      42.828  21.668  25.134  1.00  0.00    -0.237 OA
ATOM     81  O   UNL A   1      42.490  21.502  27.558  1.00  0.00    -0.744 OA
ENDBRANCH  75  78
ENDBRANCH  47  71
BRANCH  59  82
ATOM     82  C   UNL A   1      45.267  26.896  33.910  1.00  0.00     0.023 A 
ATOM     83  C   UNL A   1      46.533  27.510  33.825  1.00  0.00     0.012 A 
ATOM     84  C   UNL A   1      45.109  25.746  34.708  1.00  0.00     0.148 A 
ATOM     85  C   UNL A   1      47.629  26.969  34.494  1.00  0.00     0.002 A 
ATOM     86  C   UNL A   1      46.195  25.242  35.413  1.00  0.00     0.091 A 
ATOM     87  F   UNL A   1      43.901  25.165  34.760  1.00  0.00    -0.205 F 
ATOM     88  C   UNL A   1      47.457  25.843  35.296  1.00  0.00     0.022 A 
BRANCH  86  89
ATOM     89  S   UNL A   1      46.043  23.857  36.547  1.00  0.00     0.127 S 
ATOM     90  O   UNL A   1      47.411  23.731  37.048  1.00  0.00    -0.237 OA
ATOM     91  O   UNL A   1      45.079  24.361  37.526  1.00  0.00    -0.237 OA
ATOM     92  O   UNL A   1      45.562  22.737  35.749  1.00  0.00    -0.744 OA
ENDBRANCH  86  89
ENDBRANCH  59  82
ENDBRANCH  33  34
ENDBRANCH  25  28
ENDBRANCH  23  24
ENDBRANCH   1  23
TORSDOF 17
ENDMDL
MODEL 3
REMARK VINA RESULT:     -11.3      1.961      2.700
REMARK SMILES CC[C@@](O)(C(=O)NCCCCNC(=O)c1ccc(-c2c3nc(c(-c4cccc(S(=O)(=O)[O-])c4F)c4ccc([nH]4)c(-c4cccc(S(=O)(=O)[O-])c4F)c4nc(c(-c5cccc(S(=O)(=O)[O-])c5F)c5ccc2[nH]5)C=C4)C=C3)cc1)[C@@H]1CCOc2ccccc21
REMARK SMILES IDX 10 1 9 2 8 3 7 4 5 5 6 6 3 8 2 9 1 10 4 11 78 13 79 14 87 15
REMARK SMILES IDX 80 16 82 17 86 18 81 19 83 20 85 21 84 22 11 23 12 24 13 25
REMARK SMILES IDX 14 27 15 28 16 29 77 30 17 31 76 32 18 33 19 34 20 35 70 36
REMARK SMILES IDX 21 37 75 38 69 39 71 40 22 41 74 42 68 43 67 44 23 46 55 47
REMARK SMILES IDX 35 48 54 49 36 50 39 51 53 52 72 53 37 54 38 55 52 57 73 58
REMARK SMILES IDX 40 59 24 60 25 61 33 62 26 63 28 64 34 65 27 66 29 67 30 68
REMARK SMILES IDX 31 69 32 70 56 71 57 72 65 73 58 74 60 75 66 76 59 77 61 78
REMARK SMILES IDX 62 79 63 80 64 81 41 82 42 83 50 84 43 85 45 86 51 87 44 88
REMARK SMILES IDX 46 89 47 90 48 91 49 92
REMARK H PARENT 7 7 4 12 12 26 71 45 39 56
REMARK Flexibility Score: inf
ROOT
ATOM      1  C   UNL A   1      31.802  29.223  25.633  1.00  0.00     0.023 C 
ENDROOT
BRANCH   1   2
ATOM      2  C   UNL A   1      31.867  28.953  24.129  1.00  0.00     0.023 C 
BRANCH   2   3
ATOM      3  C   UNL A   1      33.274  28.646  23.610  1.00  0.00     0.116 C 
BRANCH   3   4
ATOM      4  N   UNL A   1      33.188  27.816  22.427  1.00  0.00    -0.354 N 
ATOM      5  C   UNL A   1      33.227  26.458  22.294  1.00  0.00     0.252 C 
ATOM      6  O   UNL A   1      33.386  26.038  21.143  1.00  0.00    -0.272 OA
ATOM      7  H   UNL A   1      33.084  28.310  21.583  1.00  0.00     0.163 HD
BRANCH   5   8
ATOM      8  C   UNL A   1      33.093  25.494  23.529  1.00  0.00     0.149 C 
BRANCH   8   9
ATOM      9  C   UNL A   1      34.066  25.949  24.653  1.00  0.00     0.043 C 
ATOM     10  C   UNL A   1      33.519  25.965  26.078  1.00  0.00     0.007 C 
ENDBRANCH   8   9
BRANCH   8  11
ATOM     11  O   UNL A   1      31.746  25.684  24.025  1.00  0.00    -0.379 OA
ATOM     12  H   UNL A   1      31.417  24.848  24.392  1.00  0.00     0.212 HD
ENDBRANCH   8  11
BRANCH   8  13
ATOM     13  C   UNL A   1      33.248  23.993  22.993  1.00  0.00     0.068 C 
ATOM     14  C   UNL A   1      31.902  23.238  23.060  1.00  0.00     0.053 C 
ATOM     15  C   UNL A   1      34.355  23.118  23.572  1.00  0.00     0.001 A 
ATOM     16  C   UNL A   1      32.122  21.783  22.708  1.00  0.00     0.230 C 
ATOM     17  C   UNL A   1      34.090  21.797  23.965  1.00  0.00     0.122 A 
ATOM     18  C   UNL A   1      35.670  23.586  23.703  1.00  0.00     0.008 A 
ATOM     19  O   UNL A   1      32.898  21.158  23.732  1.00  0.00    -0.493 OA
ATOM     20  C   UNL A   1      35.049  21.046  24.646  1.00  0.00     0.047 A 
ATOM     21  C   UNL A   1      36.630  22.840  24.392  1.00  0.00     0.001 A 
ATOM     22  C   UNL A   1      36.310  21.581  24.889  1.00  0.00     0.004 A 
ENDBRANCH   8  13
ENDBRANCH   5   8
ENDBRANCH   3   4
ENDBRANCH   2   3
ENDBRANCH   1   2
BRANCH   1  23
ATOM     23  C   UNL A   1      33.056  29.856  26.218  1.00  0.00     0.116 C 
BRANCH  23  24
ATOM     24  N   UNL A   1      32.856  31.243  26.613  1.00  0.00    -0.352 N 
ATOM     25  C   UNL A   1      33.608  32.005  27.477  1.00  0.00     0.251 C 
ATOM     26  H   UNL A   1      32.079  31.694  26.210  1.00  0.00     0.163 HD
ATOM     27  O   UNL A   1      33.228  33.116  27.809  1.00  0.00    -0.269 OA
BRANCH  25  28
ATOM     28  C   UNL A   1      34.864  31.443  28.014  1.00  0.00     0.039 A 
ATOM     29  C   UNL A   1      35.995  32.260  28.073  1.00  0.00     0.014 A 
ATOM     30  C   UNL A   1      34.911  30.128  28.485  1.00  0.00     0.014 A 
ATOM     31  C   UNL A   1      37.165  31.769  28.654  1.00  0.00     0.010 A 
ATOM     32  C   UNL A   1      36.051  29.670  29.135  1.00  0.00     0.010 A 
ATOM     33  C   UNL A   1      37.193  30.481  29.214  1.00  0.00    -0.014 A 
BRANCH  33  34
ATOM     34  C   UNL A   1      38.411  29.963  29.885  1.00  0.00     0.031 A 
ATOM     35  C   UNL A   1      38.797  30.470  31.247  1.00  0.00     0.074 A 
ATOM     36  C   UNL A   1      39.209  29.093  29.234  1.00  0.00     0.049 A 
ATOM     37  N   UNL A   1      39.836  30.162  31.977  1.00  0.00    -0.248 NA
ATOM     38  C   UNL A   1      37.914  31.479  31.858  1.00  0.00     0.031 C 
ATOM     39  C   UNL A   1      38.987  28.594  27.874  1.00  0.00     0.029 A 
ATOM     40  N   UNL A   1      40.382  28.495  29.618  1.00  0.00    -0.354 N 
ATOM     41  C   UNL A   1      39.754  30.959  33.112  1.00  0.00     0.074 A 
ATOM     42  C   UNL A   1      38.584  31.796  32.957  1.00  0.00     0.031 C 
ATOM     43  C   UNL A   1      39.984  27.756  27.545  1.00  0.00     0.029 A 
ATOM     44  C   UNL A   1      40.928  27.680  28.655  1.00  0.00     0.049 A 
ATOM     45  H   UNL A   1      40.793  28.635  30.501  1.00  0.00     0.167 HD
ATOM     46  C   UNL A   1      40.558  30.972  34.201  1.00  0.00     0.034 A 
ATOM     47  C   UNL A   1      42.062  26.952  28.665  1.00  0.00     0.034 A 
ATOM     48  C   UNL A   1      41.694  30.106  34.369  1.00  0.00     0.049 A 
ATOM     49  C   UNL A   1      42.913  26.949  29.907  1.00  0.00     0.074 A 
ATOM     50  C   UNL A   1      42.520  29.976  35.471  1.00  0.00     0.029 A 
ATOM     51  N   UNL A   1      42.168  29.229  33.406  1.00  0.00    -0.354 N 
ATOM     52  N   UNL A   1      42.726  27.586  31.038  1.00  0.00    -0.248 NA
ATOM     53  C   UNL A   1      44.110  26.096  29.889  1.00  0.00     0.031 C 
ATOM     54  C   UNL A   1      43.509  29.034  35.165  1.00  0.00     0.029 A 
ATOM     55  C   UNL A   1      43.280  28.558  33.884  1.00  0.00     0.049 A 
ATOM     56  H   UNL A   1      41.771  29.102  32.515  1.00  0.00     0.167 HD
ATOM     57  C   UNL A   1      43.757  27.181  31.878  1.00  0.00     0.074 A 
ATOM     58  C   UNL A   1      44.553  26.228  31.132  1.00  0.00     0.031 C 
ATOM     59  C   UNL A   1      44.030  27.572  33.148  1.00  0.00     0.034 A 
BRANCH  46  60
ATOM     60  C   UNL A   1      40.204  31.917  35.320  1.00  0.00     0.023 A 
ATOM     61  C   UNL A   1      40.871  33.156  35.422  1.00  0.00     0.012 A 
ATOM     62  C   UNL A   1      39.181  31.607  36.236  1.00  0.00     0.148 A 
ATOM     63  C   UNL A   1      40.555  34.052  36.441  1.00  0.00     0.002 A 
ATOM     64  C   UNL A   1      38.838  32.526  37.222  1.00  0.00     0.091 A 
ATOM     65  F   UNL A   1      38.571  30.417  36.139  1.00  0.00    -0.205 F 
ATOM     66  C   UNL A   1      39.533  33.742  37.334  1.00  0.00     0.022 A 
BRANCH  64  67
ATOM     67  S   UNL A   1      37.482  32.258  38.369  1.00  0.00     0.127 S 
ATOM     68  O   UNL A   1      38.000  32.878  39.587  1.00  0.00    -0.237 OA
ATOM     69  O   UNL A   1      36.389  32.991  37.729  1.00  0.00    -0.237 OA
ATOM     70  O   UNL A   1      37.290  30.816  38.433  1.00  0.00    -0.744 OA
ENDBRANCH  64  67
ENDBRANCH  46  60
BRANCH  47  71
ATOM     71  C   UNL A   1      42.418  26.106  27.491  1.00  0.00     0.023 A 
ATOM     72  C   UNL A   1      43.178  26.663  26.445  1.00  0.00     0.012 A 
ATOM     73  C   UNL A   1      42.031  24.754  27.414  1.00  0.00     0.148 A 
ATOM     74  C   UNL A   1      43.518  25.900  25.327  1.00  0.00     0.002 A 
ATOM     75  C   UNL A   1      42.419  23.985  26.325  1.00  0.00     0.091 A 
ATOM     76  F   UNL A   1      41.300  24.246  28.417  1.00  0.00    -0.205 F 
ATOM     77  C   UNL A   1      43.146  24.560  25.271  1.00  0.00     0.022 A 
BRANCH  75  78
ATOM     78  S   UNL A   1      42.099  22.220  26.229  1.00  0.00     0.127 S 
ATOM     79  O   UNL A   1      40.644  22.186  26.105  1.00  0.00    -0.237 OA
ATOM     80  O   UNL A   1      42.831  21.845  25.018  1.00  0.00    -0.237 OA
ATOM     81  O   UNL A   1      42.644  21.655  27.456  1.00  0.00    -0.744 OA
ENDBRANCH  75  78
ENDBRANCH  47  71
BRANCH  59  82
ATOM     82  C   UNL A   1      45.213  26.941  33.834  1.00  0.00     0.023 A 
ATOM     83  C   UNL A   1      46.480  27.553  33.754  1.00  0.00     0.012 A 
ATOM     84  C   UNL A   1      45.054  25.780  34.615  1.00  0.00     0.148 A 
ATOM     85  C   UNL A   1      47.576  26.999  34.411  1.00  0.00     0.002 A 
ATOM     86  C   UNL A   1      46.140  25.262  35.309  1.00  0.00     0.091 A 
ATOM     87  F   UNL A   1      43.844  25.201  34.663  1.00  0.00    -0.205 F 
ATOM     88  C   UNL A   1      47.404  25.861  35.197  1.00  0.00     0.022 A 
BRANCH  86  89
ATOM     89  S   UNL A   1      45.988  23.860  36.422  1.00  0.00     0.127 S 
ATOM     90  O   UNL A   1      45.059  24.376  37.426  1.00  0.00    -0.237 OA
ATOM     91  O   UNL A   1      45.430  22.828  35.547  1.00  0.00    -0.237 OA
ATOM     92  O   UNL A   1      47.335  23.581  36.901  1.00  0.00    -0.744 OA
ENDBRANCH  86  89
ENDBRANCH  59  82
ENDBRANCH  33  34
ENDBRANCH  25  28
ENDBRANCH  23  24
ENDBRANCH   1  23
TORSDOF 17
ENDMDL
