MODEL 1
REMARK VINA RESULT:     -12.4      0.000      0.000
REMARK SMILES Cc1nsc(NC(=O)[C@]2([NH3+])CCC[C@@H](C)C2)c1C(=O)NCCCCNC(=O)c1ccc(-c2c3nc(c(-c4cccc(S(=O)(=O)[O-])c4F)c4ccc([nH]4)c(-c4cccc(S(=O)(=O)[O-])c4F)c4nc(c(-c5cccc(S(=O)(=O)[O-])c5F)c5ccc2[nH]5)C=C4)C=C3)cc1
REMARK SMILES IDX 22 1 21 2 20 3 18 4 19 5 17 7 1 8 2 9 3 10 4 11 5 12 6 13
REMARK SMILES IDX 7 14 8 16 9 17 11 18 16 19 12 20 14 21 13 22 15 23 10 24
REMARK SMILES IDX 23 28 24 29 25 30 26 31 27 33 28 34 29 35 90 36 30 37 89 38
REMARK SMILES IDX 31 39 32 40 33 41 83 42 34 43 88 44 82 45 84 46 35 47 87 48
REMARK SMILES IDX 81 49 80 50 36 52 68 53 48 54 67 55 49 56 52 57 66 58 85 59
REMARK SMILES IDX 50 60 51 61 65 63 86 64 53 65 37 66 38 67 46 68 39 69 41 70
REMARK SMILES IDX 47 71 40 72 42 73 43 74 44 75 45 76 69 77 70 78 78 79 71 80
REMARK SMILES IDX 73 81 79 82 72 83 74 84 75 85 76 86 77 87 54 88 55 89 63 90
REMARK SMILES IDX 56 91 58 92 64 93 57 94 59 95 60 96 61 97 62 98
REMARK H PARENT 20 6 6 15 10 25 10 26 10 27 25 32 84 51 52 62
REMARK Flexibility Score: inf
ROOT
ATOM      1  C   UNL A   1      34.974  29.863  27.135  1.00  0.00     0.023 C 
ENDROOT
BRANCH   1   2
ATOM      2  C   UNL A   1      34.061  28.848  26.441  1.00  0.00     0.116 C 
BRANCH   2   3
ATOM      3  N   UNL A   1      32.885  28.550  27.211  1.00  0.00    -0.352 N 
ATOM      4  C   UNL A   1      31.713  27.896  26.973  1.00  0.00     0.256 C 
ATOM      5  O   UNL A   1      31.005  27.793  27.983  1.00  0.00    -0.269 OA
ATOM      6  H   UNL A   1      32.939  28.901  28.130  1.00  0.00     0.163 HD
BRANCH   4   7
ATOM      7  C   UNL A   1      31.185  27.428  25.676  1.00  0.00     0.097 A 
ATOM      8  C   UNL A   1      31.725  29.090  23.619  1.00  0.00     0.069 C 
ATOM      9  C   UNL A   1      31.063  27.956  24.317  1.00  0.00     0.066 A 
ATOM     10  N   UNL A   1      30.211  27.294  23.522  1.00  0.00    -0.195 NA
ATOM     11  S   UNL A   1      29.600  26.012  24.336  1.00  0.00    -0.017 S 
ATOM     12  C   UNL A   1      30.684  26.112  25.622  1.00  0.00     0.129 A 
BRANCH  12  13
ATOM     13  N   UNL A   1      30.822  25.116  26.563  1.00  0.00    -0.310 N 
ATOM     14  C   UNL A   1      31.634  24.051  26.759  1.00  0.00     0.286 C 
ATOM     15  H   UNL A   1      30.155  25.202  27.282  1.00  0.00     0.171 HD
ATOM     16  O   UNL A   1      31.219  23.260  27.627  1.00  0.00    -0.267 OA
BRANCH  14  17
ATOM     17  C   UNL A   1      32.952  23.659  25.978  1.00  0.00     0.174 C 
ATOM     18  C   UNL A   1      33.695  22.645  26.912  1.00  0.00     0.079 C 
ATOM     19  C   UNL A   1      33.967  24.774  25.646  1.00  0.00     0.082 C 
ATOM     20  C   UNL A   1      35.066  22.172  26.431  1.00  0.00     0.007 C 
ATOM     21  C   UNL A   1      35.342  24.311  25.118  1.00  0.00    -0.008 C 
ATOM     22  C   UNL A   1      35.987  23.335  26.096  1.00  0.00     0.004 C 
ATOM     23  C   UNL A   1      35.292  23.736  23.695  1.00  0.00     0.008 C 
BRANCH  17  24
ATOM     24  N   UNL A   1      32.510  22.941  24.758  1.00  0.00    -0.345 N 
ATOM     25  H   UNL A   1      32.623  21.936  24.894  1.00  0.00     0.345 HD
ATOM     26  H   UNL A   1      33.073  23.241  23.962  1.00  0.00     0.345 HD
ATOM     27  H   UNL A   1      31.527  23.150  24.577  1.00  0.00     0.345 HD
ENDBRANCH  17  24
ENDBRANCH  14  17
ENDBRANCH  12  13
ENDBRANCH   4   7
ENDBRANCH   2   3
ENDBRANCH   1   2
BRANCH   1  28
ATOM     28  C   UNL A   1      34.272  31.064  27.776  1.00  0.00     0.023 C 
BRANCH  28  29
ATOM     29  C   UNL A   1      35.153  32.302  27.919  1.00  0.00     0.116 C 
BRANCH  29  30
ATOM     30  N   UNL A   1      35.172  32.819  29.287  1.00  0.00    -0.352 N 
ATOM     31  C   UNL A   1      35.919  32.366  30.351  1.00  0.00     0.251 C 
ATOM     32  H   UNL A   1      34.579  33.583  29.469  1.00  0.00     0.163 HD
ATOM     33  O   UNL A   1      35.588  32.625  31.508  1.00  0.00    -0.269 OA
BRANCH  31  34
ATOM     34  C   UNL A   1      37.128  31.575  30.084  1.00  0.00     0.039 A 
ATOM     35  C   UNL A   1      38.365  32.201  29.914  1.00  0.00     0.014 A 
ATOM     36  C   UNL A   1      37.009  30.186  30.048  1.00  0.00     0.014 A 
ATOM     37  C   UNL A   1      39.505  31.411  29.800  1.00  0.00     0.010 A 
ATOM     38  C   UNL A   1      38.143  29.406  30.025  1.00  0.00     0.010 A 
ATOM     39  C   UNL A   1      39.390  30.015  29.884  1.00  0.00    -0.014 A 
BRANCH  39  40
ATOM     40  C   UNL A   1      40.586  29.189  30.021  1.00  0.00     0.031 A 
ATOM     41  C   UNL A   1      40.907  28.809  31.426  1.00  0.00     0.074 A 
ATOM     42  C   UNL A   1      41.210  28.632  28.962  1.00  0.00     0.049 A 
ATOM     43  N   UNL A   1      41.949  29.153  32.106  1.00  0.00    -0.248 NA
ATOM     44  C   UNL A   1      39.891  28.103  32.223  1.00  0.00     0.031 C 
ATOM     45  C   UNL A   1      40.818  28.717  27.551  1.00  0.00     0.029 A 
ATOM     46  N   UNL A   1      42.239  27.736  28.935  1.00  0.00    -0.354 N 
ATOM     47  C   UNL A   1      41.842  28.495  33.329  1.00  0.00     0.074 A 
ATOM     48  C   UNL A   1      40.475  28.055  33.422  1.00  0.00     0.031 C 
ATOM     49  C   UNL A   1      41.412  27.720  26.861  1.00  0.00     0.029 A 
ATOM     50  C   UNL A   1      42.330  27.020  27.742  1.00  0.00     0.049 A 
ATOM     51  H   UNL A   1      42.859  27.608  29.688  1.00  0.00     0.167 HD
ATOM     52  C   UNL A   1      42.955  28.143  34.034  1.00  0.00     0.034 A 
ATOM     53  C   UNL A   1      43.055  25.896  27.512  1.00  0.00     0.034 A 
ATOM     54  C   UNL A   1      44.123  28.813  33.515  1.00  0.00     0.049 A 
ATOM     55  C   UNL A   1      44.117  25.845  28.540  1.00  0.00     0.074 A 
ATOM     56  C   UNL A   1      44.488  30.131  33.321  1.00  0.00     0.029 A 
ATOM     57  N   UNL A   1      44.965  28.063  32.731  1.00  0.00    -0.354 N 
ATOM     58  N   UNL A   1      45.101  26.698  28.586  1.00  0.00    -0.248 NA
ATOM     59  C   UNL A   1      43.848  25.133  29.780  1.00  0.00     0.031 C 
ATOM     60  C   UNL A   1      45.191  30.133  32.081  1.00  0.00     0.029 A 
ATOM     61  C   UNL A   1      45.294  28.814  31.637  1.00  0.00     0.049 A 
ATOM     62  H   UNL A   1      45.276  27.149  32.922  1.00  0.00     0.167 HD
ATOM     63  C   UNL A   1      45.219  26.998  29.935  1.00  0.00     0.074 A 
ATOM     64  C   UNL A   1      44.524  25.914  30.628  1.00  0.00     0.031 C 
ATOM     65  C   UNL A   1      45.590  28.248  30.340  1.00  0.00     0.034 A 
BRANCH  52  66
ATOM     66  C   UNL A   1      43.103  26.916  34.913  1.00  0.00     0.023 A 
ATOM     67  C   UNL A   1      42.998  27.118  36.311  1.00  0.00     0.012 A 
ATOM     68  C   UNL A   1      43.625  25.673  34.491  1.00  0.00     0.148 A 
ATOM     69  C   UNL A   1      43.476  26.181  37.233  1.00  0.00     0.002 A 
ATOM     70  C   UNL A   1      44.034  24.713  35.411  1.00  0.00     0.091 A 
ATOM     71  F   UNL A   1      43.854  25.444  33.196  1.00  0.00    -0.205 F 
ATOM     72  C   UNL A   1      43.997  24.977  36.782  1.00  0.00     0.022 A 
BRANCH  70  73
ATOM     73  S   UNL A   1      44.678  23.117  34.889  1.00  0.00     0.127 S 
ATOM     74  O   UNL A   1      43.568  22.602  34.092  1.00  0.00    -0.237 OA
ATOM     75  O   UNL A   1      45.863  23.512  34.125  1.00  0.00    -0.237 OA
ATOM     76  O   UNL A   1      44.973  22.390  36.116  1.00  0.00    -0.744 OA
ENDBRANCH  70  73
ENDBRANCH  52  66
BRANCH  53  77
ATOM     77  C   UNL A   1      42.789  24.751  26.608  1.00  0.00     0.023 A 
ATOM     78  C   UNL A   1      43.690  24.456  25.564  1.00  0.00     0.012 A 
ATOM     79  C   UNL A   1      41.822  23.776  26.941  1.00  0.00     0.148 A 
ATOM     80  C   UNL A   1      43.658  23.221  24.905  1.00  0.00     0.002 A 
ATOM     81  C   UNL A   1      41.792  22.551  26.282  1.00  0.00     0.091 A 
ATOM     82  F   UNL A   1      40.997  24.006  27.970  1.00  0.00    -0.205 F 
ATOM     83  C   UNL A   1      42.717  22.263  25.271  1.00  0.00     0.022 A 
BRANCH  81  84
ATOM     84  S   UNL A   1      40.632  21.258  26.746  1.00  0.00     0.127 S 
ATOM     85  O   UNL A   1      39.355  21.820  26.306  1.00  0.00    -0.237 OA
ATOM     86  O   UNL A   1      41.112  20.128  25.955  1.00  0.00    -0.237 OA
ATOM     87  O   UNL A   1      40.756  21.115  28.191  1.00  0.00    -0.744 OA
ENDBRANCH  81  84
ENDBRANCH  53  77
BRANCH  65  88
ATOM     88  C   UNL A   1      46.111  29.210  29.301  1.00  0.00     0.023 A 
ATOM     89  C   UNL A   1      47.442  29.178  28.834  1.00  0.00     0.012 A 
ATOM     90  C   UNL A   1      45.185  30.041  28.653  1.00  0.00     0.148 A 
ATOM     91  C   UNL A   1      47.845  29.976  27.760  1.00  0.00     0.002 A 
ATOM     92  C   UNL A   1      45.575  30.793  27.553  1.00  0.00     0.091 A 
ATOM     93  F   UNL A   1      43.922  30.059  29.107  1.00  0.00    -0.205 F 
ATOM     94  C   UNL A   1      46.907  30.772  27.109  1.00  0.00     0.022 A 
BRANCH  92  95
ATOM     95  S   UNL A   1      44.381  31.724  26.593  1.00  0.00     0.127 S 
ATOM     96  O   UNL A   1      43.933  32.728  27.555  1.00  0.00    -0.237 OA
ATOM     97  O   UNL A   1      45.196  32.247  25.496  1.00  0.00    -0.237 OA
ATOM     98  O   UNL A   1      43.371  30.761  26.172  1.00  0.00    -0.744 OA
ENDBRANCH  92  95
ENDBRANCH  65  88
ENDBRANCH  39  40
ENDBRANCH  31  34
ENDBRANCH  29  30
ENDBRANCH  28  29
ENDBRANCH   1  28
TORSDOF 17
ENDMDL
MODEL 2
REMARK VINA RESULT:     -11.9      1.859      2.379
REMARK SMILES Cc1nsc(NC(=O)[C@]2([NH3+])CCC[C@@H](C)C2)c1C(=O)NCCCCNC(=O)c1ccc(-c2c3nc(c(-c4cccc(S(=O)(=O)[O-])c4F)c4ccc([nH]4)c(-c4cccc(S(=O)(=O)[O-])c4F)c4nc(c(-c5cccc(S(=O)(=O)[O-])c5F)c5ccc2[nH]5)C=C4)C=C3)cc1
REMARK SMILES IDX 22 1 21 2 20 3 18 4 19 5 17 7 1 8 2 9 3 10 4 11 5 12 6 13
REMARK SMILES IDX 7 14 8 16 9 17 11 18 16 19 12 20 14 21 13 22 15 23 10 24
REMARK SMILES IDX 23 28 24 29 25 30 26 31 27 33 28 34 29 35 90 36 30 37 89 38
REMARK SMILES IDX 31 39 32 40 33 41 83 42 34 43 88 44 82 45 84 46 35 47 87 48
REMARK SMILES IDX 81 49 80 50 36 52 68 53 48 54 67 55 49 56 52 57 66 58 85 59
REMARK SMILES IDX 50 60 51 61 65 63 86 64 53 65 37 66 38 67 46 68 39 69 41 70
REMARK SMILES IDX 47 71 40 72 42 73 43 74 44 75 45 76 69 77 70 78 78 79 71 80
REMARK SMILES IDX 73 81 79 82 72 83 74 84 75 85 76 86 77 87 54 88 55 89 63 90
REMARK SMILES IDX 56 91 58 92 64 93 57 94 59 95 60 96 61 97 62 98
REMARK H PARENT 20 6 6 15 10 25 10 26 10 27 25 32 84 51 52 62
REMARK Flexibility Score: inf
ROOT
ATOM      1  C   UNL A   1      33.502  28.193  25.916  1.00  0.00     0.023 C 
ENDROOT
BRANCH   1   2
ATOM      2  C   UNL A   1      33.511  29.037  24.638  1.00  0.00     0.116 C 
BRANCH   2   3
ATOM      3  N   UNL A   1      33.764  28.251  23.462  1.00  0.00    -0.352 N 
ATOM      4  C   UNL A   1      33.011  27.459  22.648  1.00  0.00     0.256 C 
ATOM      5  O   UNL A   1      33.640  27.043  21.666  1.00  0.00    -0.269 OA
ATOM      6  H   UNL A   1      34.705  28.297  23.176  1.00  0.00     0.163 HD
BRANCH   4   7
ATOM      7  C   UNL A   1      31.632  26.983  22.872  1.00  0.00     0.097 A 
ATOM      8  C   UNL A   1      29.836  28.970  23.206  1.00  0.00     0.069 C 
ATOM      9  C   UNL A   1      30.342  27.571  23.230  1.00  0.00     0.066 A 
ATOM     10  N   UNL A   1      29.411  26.699  23.644  1.00  0.00    -0.195 NA
ATOM     11  S   UNL A   1      30.017  25.181  23.552  1.00  0.00    -0.017 S 
ATOM     12  C   UNL A   1      31.382  25.611  22.662  1.00  0.00     0.129 A 
BRANCH  12  13
ATOM     13  N   UNL A   1      32.204  24.685  22.058  1.00  0.00    -0.310 N 
ATOM     14  C   UNL A   1      33.079  23.734  22.460  1.00  0.00     0.286 C 
ATOM     15  H   UNL A   1      32.137  24.727  21.077  1.00  0.00     0.171 HD
ATOM     16  O   UNL A   1      33.805  23.304  21.544  1.00  0.00    -0.267 OA
BRANCH  14  17
ATOM     17  C   UNL A   1      33.342  23.190  23.922  1.00  0.00     0.174 C 
ATOM     18  C   UNL A   1      33.641  24.462  24.784  1.00  0.00     0.079 C 
ATOM     19  C   UNL A   1      34.524  22.223  24.143  1.00  0.00     0.082 C 
ATOM     20  C   UNL A   1      34.027  24.209  26.240  1.00  0.00     0.007 C 
ATOM     21  C   UNL A   1      34.897  21.923  25.611  1.00  0.00    -0.008 C 
ATOM     22  C   UNL A   1      35.177  23.220  26.364  1.00  0.00     0.004 C 
ATOM     23  C   UNL A   1      33.863  21.055  26.343  1.00  0.00     0.008 C 
BRANCH  17  24
ATOM     24  N   UNL A   1      32.060  22.601  24.378  1.00  0.00    -0.345 N 
ATOM     25  H   UNL A   1      31.505  22.322  23.568  1.00  0.00     0.345 HD
ATOM     26  H   UNL A   1      31.541  23.291  24.922  1.00  0.00     0.345 HD
ATOM     27  H   UNL A   1      32.248  21.782  24.958  1.00  0.00     0.345 HD
ENDBRANCH  17  24
ENDBRANCH  14  17
ENDBRANCH  12  13
ENDBRANCH   4   7
ENDBRANCH   2   3
ENDBRANCH   1   2
BRANCH   1  28
ATOM     28  C   UNL A   1      33.867  28.930  27.207  1.00  0.00     0.023 C 
BRANCH  28  29
ATOM     29  C   UNL A   1      34.876  30.060  27.019  1.00  0.00     0.116 C 
BRANCH  29  30
ATOM     30  N   UNL A   1      34.565  31.229  27.843  1.00  0.00    -0.352 N 
ATOM     31  C   UNL A   1      35.091  31.561  29.071  1.00  0.00     0.251 C 
ATOM     32  H   UNL A   1      33.899  31.853  27.476  1.00  0.00     0.163 HD
ATOM     33  O   UNL A   1      34.502  32.341  29.819  1.00  0.00    -0.269 OA
BRANCH  31  34
ATOM     34  C   UNL A   1      36.378  30.976  29.473  1.00  0.00     0.039 A 
ATOM     35  C   UNL A   1      36.461  29.637  29.861  1.00  0.00     0.014 A 
ATOM     36  C   UNL A   1      37.513  31.785  29.414  1.00  0.00     0.014 A 
ATOM     37  C   UNL A   1      37.716  29.086  30.101  1.00  0.00     0.010 A 
ATOM     38  C   UNL A   1      38.759  31.219  29.564  1.00  0.00     0.010 A 
ATOM     39  C   UNL A   1      38.863  29.876  29.925  1.00  0.00    -0.014 A 
BRANCH  39  40
ATOM     40  C   UNL A   1      40.185  29.256  29.924  1.00  0.00     0.031 A 
ATOM     41  C   UNL A   1      40.752  29.027  31.283  1.00  0.00     0.074 A 
ATOM     42  C   UNL A   1      40.740  28.730  28.811  1.00  0.00     0.049 A 
ATOM     43  N   UNL A   1      41.809  29.574  31.786  1.00  0.00    -0.248 NA
ATOM     44  C   UNL A   1      39.984  28.229  32.252  1.00  0.00     0.031 C 
ATOM     45  C   UNL A   1      40.150  28.657  27.471  1.00  0.00     0.029 A 
ATOM     46  N   UNL A   1      41.887  28.004  28.676  1.00  0.00    -0.354 N 
ATOM     47  C   UNL A   1      41.978  28.993  33.042  1.00  0.00     0.074 A 
ATOM     48  C   UNL A   1      40.727  28.355  33.353  1.00  0.00     0.031 C 
ATOM     49  C   UNL A   1      40.798  27.718  26.748  1.00  0.00     0.029 A 
ATOM     50  C   UNL A   1      41.929  27.230  27.516  1.00  0.00     0.049 A 
ATOM     51  H   UNL A   1      42.618  28.025  29.336  1.00  0.00     0.167 HD
ATOM     52  C   UNL A   1      43.219  28.866  33.591  1.00  0.00     0.034 A 
ATOM     53  C   UNL A   1      42.789  26.218  27.236  1.00  0.00     0.034 A 
ATOM     54  C   UNL A   1      44.181  29.671  32.877  1.00  0.00     0.049 A 
ATOM     55  C   UNL A   1      43.976  26.402  28.099  1.00  0.00     0.074 A 
ATOM     56  C   UNL A   1      44.297  31.013  32.571  1.00  0.00     0.029 A 
ATOM     57  N   UNL A   1      45.018  29.007  32.014  1.00  0.00    -0.354 N 
ATOM     58  N   UNL A   1      44.805  27.399  27.960  1.00  0.00    -0.248 NA
ATOM     59  C   UNL A   1      43.998  25.745  29.395  1.00  0.00     0.031 C 
ATOM     60  C   UNL A   1      44.814  31.038  31.243  1.00  0.00     0.029 A 
ATOM     61  C   UNL A   1      45.068  29.723  30.850  1.00  0.00     0.049 A 
ATOM     62  H   UNL A   1      45.497  28.168  32.199  1.00  0.00     0.167 HD
ATOM     63  C   UNL A   1      45.057  27.805  29.263  1.00  0.00     0.074 A 
ATOM     64  C   UNL A   1      44.648  26.676  30.099  1.00  0.00     0.031 C 
ATOM     65  C   UNL A   1      45.271  29.122  29.551  1.00  0.00     0.034 A 
BRANCH  52  66
ATOM     66  C   UNL A   1      43.684  27.740  34.495  1.00  0.00     0.023 A 
ATOM     67  C   UNL A   1      44.421  28.111  35.646  1.00  0.00     0.012 A 
ATOM     68  C   UNL A   1      43.707  26.372  34.141  1.00  0.00     0.148 A 
ATOM     69  C   UNL A   1      45.214  27.194  36.344  1.00  0.00     0.002 A 
ATOM     70  C   UNL A   1      44.441  25.450  34.880  1.00  0.00     0.091 A 
ATOM     71  F   UNL A   1      43.126  25.959  33.014  1.00  0.00    -0.205 F 
ATOM     72  C   UNL A   1      45.226  25.861  35.959  1.00  0.00     0.022 A 
BRANCH  70  73
ATOM     73  S   UNL A   1      44.463  23.702  34.455  1.00  0.00     0.127 S 
ATOM     74  O   UNL A   1      45.242  23.713  33.220  1.00  0.00    -0.237 OA
ATOM     75  O   UNL A   1      45.143  23.124  35.615  1.00  0.00    -0.237 OA
ATOM     76  O   UNL A   1      43.066  23.311  34.324  1.00  0.00    -0.744 OA
ENDBRANCH  70  73
ENDBRANCH  52  66
BRANCH  53  77
ATOM     77  C   UNL A   1      42.591  24.986  26.434  1.00  0.00     0.023 A 
ATOM     78  C   UNL A   1      43.525  24.641  25.435  1.00  0.00     0.012 A 
ATOM     79  C   UNL A   1      41.661  24.003  26.837  1.00  0.00     0.148 A 
ATOM     80  C   UNL A   1      43.560  23.351  24.890  1.00  0.00     0.002 A 
ATOM     81  C   UNL A   1      41.696  22.724  26.290  1.00  0.00     0.091 A 
ATOM     82  F   UNL A   1      40.805  24.287  27.827  1.00  0.00    -0.205 F 
ATOM     83  C   UNL A   1      42.654  22.389  25.325  1.00  0.00     0.022 A 
BRANCH  81  84
ATOM     84  S   UNL A   1      40.584  21.427  26.849  1.00  0.00     0.127 S 
ATOM     85  O   UNL A   1      39.280  21.943  26.436  1.00  0.00    -0.237 OA
ATOM     86  O   UNL A   1      41.060  20.276  26.086  1.00  0.00    -0.237 OA
ATOM     87  O   UNL A   1      40.765  21.345  28.293  1.00  0.00    -0.744 OA
ENDBRANCH  81  84
ENDBRANCH  53  77
BRANCH  65  88
ATOM     88  C   UNL A   1      45.482  30.079  28.405  1.00  0.00     0.023 A 
ATOM     89  C   UNL A   1      44.411  30.704  27.728  1.00  0.00     0.012 A 
ATOM     90  C   UNL A   1      46.793  30.494  28.127  1.00  0.00     0.148 A 
ATOM     91  C   UNL A   1      44.648  31.703  26.780  1.00  0.00     0.002 A 
ATOM     92  C   UNL A   1      47.021  31.523  27.224  1.00  0.00     0.091 A 
ATOM     93  F   UNL A   1      47.799  29.892  28.779  1.00  0.00    -0.205 F 
ATOM     94  C   UNL A   1      45.953  32.124  26.540  1.00  0.00     0.022 A 
BRANCH  92  95
ATOM     95  S   UNL A   1      48.664  32.198  26.980  1.00  0.00     0.127 S 
ATOM     96  O   UNL A   1      48.420  33.245  25.991  1.00  0.00    -0.237 OA
ATOM     97  O   UNL A   1      49.006  32.686  28.317  1.00  0.00    -0.237 OA
ATOM     98  O   UNL A   1      49.489  31.084  26.528  1.00  0.00    -0.744 OA
ENDBRANCH  92  95
ENDBRANCH  65  88
ENDBRANCH  39  40
ENDBRANCH  31  34
ENDBRANCH  29  30
ENDBRANCH  28  29
ENDBRANCH   1  28
TORSDOF 17
ENDMDL
MODEL 3
REMARK VINA RESULT:     -11.9      1.793      2.184
REMARK SMILES Cc1nsc(NC(=O)[C@]2([NH3+])CCC[C@@H](C)C2)c1C(=O)NCCCCNC(=O)c1ccc(-c2c3nc(c(-c4cccc(S(=O)(=O)[O-])c4F)c4ccc([nH]4)c(-c4cccc(S(=O)(=O)[O-])c4F)c4nc(c(-c5cccc(S(=O)(=O)[O-])c5F)c5ccc2[nH]5)C=C4)C=C3)cc1
REMARK SMILES IDX 22 1 21 2 20 3 18 4 19 5 17 7 1 8 2 9 3 10 4 11 5 12 6 13
REMARK SMILES IDX 7 14 8 16 9 17 11 18 16 19 12 20 14 21 13 22 15 23 10 24
REMARK SMILES IDX 23 28 24 29 25 30 26 31 27 33 28 34 29 35 90 36 30 37 89 38
REMARK SMILES IDX 31 39 32 40 33 41 83 42 34 43 88 44 82 45 84 46 35 47 87 48
REMARK SMILES IDX 81 49 80 50 36 52 68 53 48 54 67 55 49 56 52 57 66 58 85 59
REMARK SMILES IDX 50 60 51 61 65 63 86 64 53 65 37 66 38 67 46 68 39 69 41 70
REMARK SMILES IDX 47 71 40 72 42 73 43 74 44 75 45 76 69 77 70 78 78 79 71 80
REMARK SMILES IDX 73 81 79 82 72 83 74 84 75 85 76 86 77 87 54 88 55 89 63 90
REMARK SMILES IDX 56 91 58 92 64 93 57 94 59 95 60 96 61 97 62 98
REMARK H PARENT 20 6 6 15 10 25 10 26 10 27 25 32 84 51 52 62
REMARK Flexibility Score: inf
ROOT
ATOM      1  C   UNL A   1      34.976  29.884  27.300  1.00  0.00     0.023 C 
ENDROOT
BRANCH   1   2
ATOM      2  C   UNL A   1      34.274  28.603  26.840  1.00  0.00     0.116 C 
BRANCH   2   3
ATOM      3  N   UNL A   1      33.014  28.399  27.501  1.00  0.00    -0.352 N 
ATOM      4  C   UNL A   1      31.810  27.870  27.144  1.00  0.00     0.256 C 
ATOM      5  O   UNL A   1      31.013  27.807  28.088  1.00  0.00    -0.269 OA
ATOM      6  H   UNL A   1      33.023  28.717  28.433  1.00  0.00     0.163 HD
BRANCH   4   7
ATOM      7  C   UNL A   1      31.352  27.492  25.792  1.00  0.00     0.097 A 
ATOM      8  C   UNL A   1      32.209  29.159  23.849  1.00  0.00     0.069 C 
ATOM      9  C   UNL A   1      31.392  28.070  24.448  1.00  0.00     0.066 A 
ATOM     10  N   UNL A   1      30.552  27.515  23.563  1.00  0.00    -0.195 NA
ATOM     11  S   UNL A   1      29.762  26.271  24.276  1.00  0.00    -0.017 S 
ATOM     12  C   UNL A   1      30.740  26.230  25.648  1.00  0.00     0.129 A 
BRANCH  12  13
ATOM     13  N   UNL A   1      30.709  25.198  26.560  1.00  0.00    -0.310 N 
ATOM     14  C   UNL A   1      31.385  24.043  26.763  1.00  0.00     0.286 C 
ATOM     15  H   UNL A   1      30.013  25.337  27.241  1.00  0.00     0.171 HD
ATOM     16  O   UNL A   1      30.833  23.278  27.577  1.00  0.00    -0.267 OA
BRANCH  14  17
ATOM     17  C   UNL A   1      32.697  23.529  26.046  1.00  0.00     0.174 C 
ATOM     18  C   UNL A   1      33.668  24.758  26.040  1.00  0.00     0.079 C 
ATOM     19  C   UNL A   1      32.593  23.044  24.585  1.00  0.00     0.082 C 
ATOM     20  C   UNL A   1      34.996  24.558  25.311  1.00  0.00     0.007 C 
ATOM     21  C   UNL A   1      33.929  22.797  23.850  1.00  0.00    -0.008 C 
ATOM     22  C   UNL A   1      34.798  24.049  23.890  1.00  0.00     0.004 C 
ATOM     23  C   UNL A   1      34.689  21.562  24.355  1.00  0.00     0.008 C 
BRANCH  17  24
ATOM     24  N   UNL A   1      33.266  22.482  26.930  1.00  0.00    -0.345 N 
ATOM     25  H   UNL A   1      34.048  22.026  26.459  1.00  0.00     0.345 HD
ATOM     26  H   UNL A   1      32.549  21.789  27.144  1.00  0.00     0.345 HD
ATOM     27  H   UNL A   1      33.596  22.910  27.796  1.00  0.00     0.345 HD
ENDBRANCH  17  24
ENDBRANCH  14  17
ENDBRANCH  12  13
ENDBRANCH   4   7
ENDBRANCH   2   3
ENDBRANCH   1   2
BRANCH   1  28
ATOM     28  C   UNL A   1      34.069  30.968  27.888  1.00  0.00     0.023 C 
BRANCH  28  29
ATOM     29  C   UNL A   1      34.815  32.190  28.416  1.00  0.00     0.116 C 
BRANCH  29  30
ATOM     30  N   UNL A   1      34.768  32.285  29.876  1.00  0.00    -0.352 N 
ATOM     31  C   UNL A   1      35.572  31.642  30.790  1.00  0.00     0.251 C 
ATOM     32  H   UNL A   1      34.078  32.880  30.249  1.00  0.00     0.163 HD
ATOM     33  O   UNL A   1      35.212  31.509  31.960  1.00  0.00    -0.269 OA
BRANCH  31  34
ATOM     34  C   UNL A   1      36.875  31.127  30.350  1.00  0.00     0.039 A 
ATOM     35  C   UNL A   1      37.962  31.987  30.183  1.00  0.00     0.014 A 
ATOM     36  C   UNL A   1      37.003  29.752  30.148  1.00  0.00     0.014 A 
ATOM     37  C   UNL A   1      39.210  31.443  29.899  1.00  0.00     0.010 A 
ATOM     38  C   UNL A   1      38.252  29.206  29.956  1.00  0.00     0.010 A 
ATOM     39  C   UNL A   1      39.353  30.049  29.814  1.00  0.00    -0.014 A 
BRANCH  39  40
ATOM     40  C   UNL A   1      40.685  29.452  29.771  1.00  0.00     0.031 A 
ATOM     41  C   UNL A   1      41.286  29.205  31.112  1.00  0.00     0.074 A 
ATOM     42  C   UNL A   1      41.224  28.958  28.636  1.00  0.00     0.049 A 
ATOM     43  N   UNL A   1      42.344  29.759  31.604  1.00  0.00    -0.248 NA
ATOM     44  C   UNL A   1      40.553  28.375  32.082  1.00  0.00     0.031 C 
ATOM     45  C   UNL A   1      40.605  28.901  27.308  1.00  0.00     0.029 A 
ATOM     46  N   UNL A   1      42.379  28.254  28.461  1.00  0.00    -0.354 N 
ATOM     47  C   UNL A   1      42.551  29.156  32.843  1.00  0.00     0.074 A 
ATOM     48  C   UNL A   1      41.318  28.491  33.169  1.00  0.00     0.031 C 
ATOM     49  C   UNL A   1      41.252  27.988  26.552  1.00  0.00     0.029 A 
ATOM     50  C   UNL A   1      42.407  27.504  27.285  1.00  0.00     0.049 A 
ATOM     51  H   UNL A   1      43.124  28.274  29.105  1.00  0.00     0.167 HD
ATOM     52  C   UNL A   1      43.806  29.040  33.362  1.00  0.00     0.034 A 
ATOM     53  C   UNL A   1      43.278  26.512  26.965  1.00  0.00     0.034 A 
ATOM     54  C   UNL A   1      44.738  29.875  32.644  1.00  0.00     0.049 A 
ATOM     55  C   UNL A   1      44.481  26.699  27.805  1.00  0.00     0.074 A 
ATOM     56  C   UNL A   1      44.826  31.224  32.362  1.00  0.00     0.029 A 
ATOM     57  N   UNL A   1      45.567  29.243  31.748  1.00  0.00    -0.354 N 
ATOM     58  N   UNL A   1      45.289  27.712  27.669  1.00  0.00    -0.248 NA
ATOM     59  C   UNL A   1      44.543  26.016  29.087  1.00  0.00     0.031 C 
ATOM     60  C   UNL A   1      45.312  31.284  31.024  1.00  0.00     0.029 A 
ATOM     61  C   UNL A   1      45.579  29.982  30.599  1.00  0.00     0.049 A 
ATOM     62  H   UNL A   1      46.063  28.408  31.906  1.00  0.00     0.167 HD
ATOM     63  C   UNL A   1      45.564  28.096  28.974  1.00  0.00     0.074 A 
ATOM     64  C   UNL A   1      45.192  26.945  29.795  1.00  0.00     0.031 C 
ATOM     65  C   UNL A   1      45.763  29.411  29.284  1.00  0.00     0.034 A 
BRANCH  52  66
ATOM     66  C   UNL A   1      44.309  27.903  34.233  1.00  0.00     0.023 A 
ATOM     67  C   UNL A   1      44.882  26.794  33.562  1.00  0.00     0.012 A 
ATOM     68  C   UNL A   1      43.991  27.723  35.597  1.00  0.00     0.148 A 
ATOM     69  C   UNL A   1      45.036  25.552  34.186  1.00  0.00     0.002 A 
ATOM     70  C   UNL A   1      44.211  26.506  36.233  1.00  0.00     0.091 A 
ATOM     71  F   UNL A   1      43.353  28.682  36.271  1.00  0.00    -0.205 F 
ATOM     72  C   UNL A   1      44.698  25.406  35.523  1.00  0.00     0.022 A 
BRANCH  70  73
ATOM     73  S   UNL A   1      43.832  26.268  37.976  1.00  0.00     0.127 S 
ATOM     74  O   UNL A   1      44.513  27.411  38.579  1.00  0.00    -0.237 OA
ATOM     75  O   UNL A   1      42.371  26.344  37.974  1.00  0.00    -0.237 OA
ATOM     76  O   UNL A   1      44.363  24.956  38.319  1.00  0.00    -0.744 OA
ENDBRANCH  70  73
ENDBRANCH  52  66
BRANCH  53  77
ATOM     77  C   UNL A   1      43.082  25.294  26.143  1.00  0.00     0.023 A 
ATOM     78  C   UNL A   1      44.002  24.981  25.121  1.00  0.00     0.012 A 
ATOM     79  C   UNL A   1      42.173  24.290  26.543  1.00  0.00     0.148 A 
ATOM     80  C   UNL A   1      44.045  23.703  24.550  1.00  0.00     0.002 A 
ATOM     81  C   UNL A   1      42.216  23.022  25.970  1.00  0.00     0.091 A 
ATOM     82  F   UNL A   1      41.332  24.543  27.553  1.00  0.00    -0.205 F 
ATOM     83  C   UNL A   1      43.160  22.719  24.982  1.00  0.00     0.022 A 
BRANCH  81  84
ATOM     84  S   UNL A   1      41.131  21.699  26.524  1.00  0.00     0.127 S 
ATOM     85  O   UNL A   1      39.816  22.191  26.117  1.00  0.00    -0.237 OA
ATOM     86  O   UNL A   1      41.629  20.564  25.752  1.00  0.00    -0.237 OA
ATOM     87  O   UNL A   1      41.317  21.612  27.967  1.00  0.00    -0.744 OA
ENDBRANCH  81  84
ENDBRANCH  53  77
BRANCH  65  88
ATOM     88  C   UNL A   1      45.932  30.394  28.153  1.00  0.00     0.023 A 
ATOM     89  C   UNL A   1      44.837  30.931  27.441  1.00  0.00     0.012 A 
ATOM     90  C   UNL A   1      47.211  30.923  27.928  1.00  0.00     0.148 A 
ATOM     91  C   UNL A   1      45.021  31.956  26.509  1.00  0.00     0.002 A 
ATOM     92  C   UNL A   1      47.383  31.978  27.041  1.00  0.00     0.091 A 
ATOM     93  F   UNL A   1      48.242  30.404  28.613  1.00  0.00    -0.205 F 
ATOM     94  C   UNL A   1      46.292  32.491  26.321  1.00  0.00     0.022 A 
BRANCH  92  95
ATOM     95  S   UNL A   1      48.969  32.795  26.865  1.00  0.00     0.127 S 
ATOM     96  O   UNL A   1      49.212  33.283  28.220  1.00  0.00    -0.237 OA
ATOM     97  O   UNL A   1      49.843  31.701  26.441  1.00  0.00    -0.237 OA
ATOM     98  O   UNL A   1      48.775  33.824  25.850  1.00  0.00    -0.744 OA
ENDBRANCH  92  95
ENDBRANCH  65  88
ENDBRANCH  39  40
ENDBRANCH  31  34
ENDBRANCH  29  30
ENDBRANCH  28  29
ENDBRANCH   1  28
TORSDOF 17
ENDMDL
