MODEL 1
REMARK VINA RESULT:     -11.3      0.000      0.000
REMARK SMILES Cn1nc(C(=O)NCCCCNC(=O)c2ccc(-c3c4nc(c(-c5cccc(S(=O)(=O)[O-])c5F)c5ccc([nH]5)c(-c5cccc(S(=O)(=O)[O-])c5F)c5nc(c(-c6cccc(S(=O)(=O)[O-])c6F)c6ccc3[nH]6)C=C5)C=C4)cc2)cc1C1CC1
REMARK SMILES IDX 10 1 9 2 8 3 7 4 5 5 6 6 4 8 1 9 2 10 3 11 79 12 78 13 80 14
REMARK SMILES IDX 81 15 82 16 11 17 12 18 13 19 14 21 15 22 16 23 77 24 17 25
REMARK SMILES IDX 76 26 18 27 19 28 20 29 70 30 21 31 75 32 69 33 71 34 22 35
REMARK SMILES IDX 74 36 68 37 67 38 23 40 55 41 35 42 54 43 36 44 39 45 53 46
REMARK SMILES IDX 72 47 37 48 38 49 52 51 73 52 40 53 24 54 25 55 33 56 26 57
REMARK SMILES IDX 28 58 34 59 27 60 29 61 30 62 31 63 32 64 56 65 57 66 65 67
REMARK SMILES IDX 58 68 60 69 66 70 59 71 61 72 62 73 63 74 64 75 41 76 42 77
REMARK SMILES IDX 50 78 43 79 45 80 51 81 44 82 46 83 47 84 48 85 49 86
REMARK H PARENT 7 7 12 20 71 39 39 50
REMARK Flexibility Score: inf
ROOT
ATOM      1  C   UNL A   1      31.757  31.667  26.759  1.00  0.00     0.023 C 
ENDROOT
BRANCH   1   2
ATOM      2  C   UNL A   1      32.005  30.160  26.618  1.00  0.00     0.023 C 
BRANCH   2   3
ATOM      3  C   UNL A   1      32.169  29.690  25.172  1.00  0.00     0.116 C 
BRANCH   3   4
ATOM      4  N   UNL A   1      30.968  29.930  24.405  1.00  0.00    -0.351 N 
ATOM      5  C   UNL A   1      30.240  29.123  23.557  1.00  0.00     0.271 C 
ATOM      6  O   UNL A   1      29.220  29.631  23.083  1.00  0.00    -0.267 OA
ATOM      7  H   UNL A   1      30.600  30.837  24.508  1.00  0.00     0.163 HD
BRANCH   5   8
ATOM      8  C   UNL A   1      30.639  27.727  23.257  1.00  0.00     0.150 A 
ATOM      9  C   UNL A   1      32.398  25.623  21.085  1.00  0.00     0.174 C 
ATOM     10  N   UNL A   1      31.568  26.138  22.144  1.00  0.00    -0.272 N 
ATOM     11  N   UNL A   1      31.398  27.472  22.173  1.00  0.00    -0.168 NA
ATOM     12  C   UNL A   1      30.892  25.497  23.142  1.00  0.00     0.042 A 
ATOM     13  C   UNL A   1      30.373  26.504  23.927  1.00  0.00     0.059 A 
BRANCH  12  14
ATOM     14  C   UNL A   1      30.637  24.031  23.454  1.00  0.00     0.038 C 
ATOM     15  C   UNL A   1      31.813  23.106  23.666  1.00  0.00     0.010 C 
ATOM     16  C   UNL A   1      30.913  23.438  24.810  1.00  0.00     0.010 C 
ENDBRANCH  12  14
ENDBRANCH   5   8
ENDBRANCH   3   4
ENDBRANCH   2   3
ENDBRANCH   1   2
BRANCH   1  17
ATOM     17  C   UNL A   1      32.887  32.449  27.425  1.00  0.00     0.116 C 
BRANCH  17  18
ATOM     18  N   UNL A   1      32.562  33.848  27.663  1.00  0.00    -0.352 N 
ATOM     19  C   UNL A   1      33.138  34.718  28.561  1.00  0.00     0.251 C 
ATOM     20  H   UNL A   1      31.837  34.220  27.110  1.00  0.00     0.163 HD
ATOM     21  O   UNL A   1      32.681  35.844  28.707  1.00  0.00    -0.269 OA
BRANCH  19  22
ATOM     22  C   UNL A   1      34.284  34.262  29.375  1.00  0.00     0.039 A 
ATOM     23  C   UNL A   1      34.036  33.488  30.512  1.00  0.00     0.014 A 
ATOM     24  C   UNL A   1      35.594  34.563  28.997  1.00  0.00     0.014 A 
ATOM     25  C   UNL A   1      35.108  32.956  31.230  1.00  0.00     0.010 A 
ATOM     26  C   UNL A   1      36.659  33.977  29.674  1.00  0.00     0.010 A 
ATOM     27  C   UNL A   1      36.428  33.167  30.796  1.00  0.00    -0.014 A 
BRANCH  27  28
ATOM     28  C   UNL A   1      37.579  32.527  31.482  1.00  0.00     0.031 A 
ATOM     29  C   UNL A   1      38.308  31.383  30.835  1.00  0.00     0.074 A 
ATOM     30  C   UNL A   1      37.900  32.911  32.733  1.00  0.00     0.049 A 
ATOM     31  N   UNL A   1      39.294  30.664  31.304  1.00  0.00    -0.248 NA
ATOM     32  C   UNL A   1      37.852  30.975  29.495  1.00  0.00     0.031 C 
ATOM     33  C   UNL A   1      37.210  33.948  33.504  1.00  0.00     0.029 A 
ATOM     34  N   UNL A   1      38.870  32.453  33.589  1.00  0.00    -0.354 N 
ATOM     35  C   UNL A   1      39.551  29.697  30.341  1.00  0.00     0.074 A 
ATOM     36  C   UNL A   1      38.595  29.900  29.274  1.00  0.00     0.031 C 
ATOM     37  C   UNL A   1      37.781  34.049  34.715  1.00  0.00     0.029 A 
ATOM     38  C   UNL A   1      38.859  33.071  34.817  1.00  0.00     0.049 A 
ATOM     39  H   UNL A   1      39.513  31.749  33.347  1.00  0.00     0.167 HD
ATOM     40  C   UNL A   1      40.514  28.745  30.328  1.00  0.00     0.034 A 
ATOM     41  C   UNL A   1      39.629  32.872  35.906  1.00  0.00     0.034 A 
ATOM     42  C   UNL A   1      41.495  28.579  31.368  1.00  0.00     0.049 A 
ATOM     43  C   UNL A   1      40.728  31.847  35.845  1.00  0.00     0.074 A 
ATOM     44  C   UNL A   1      42.574  27.713  31.402  1.00  0.00     0.029 A 
ATOM     45  N   UNL A   1      41.514  29.290  32.558  1.00  0.00    -0.354 N 
ATOM     46  N   UNL A   1      41.067  31.059  34.854  1.00  0.00    -0.248 NA
ATOM     47  C   UNL A   1      41.575  31.708  37.039  1.00  0.00     0.031 C 
ATOM     48  C   UNL A   1      43.237  27.892  32.621  1.00  0.00     0.029 A 
ATOM     49  C   UNL A   1      42.580  28.880  33.338  1.00  0.00     0.049 A 
ATOM     50  H   UNL A   1      40.864  29.985  32.811  1.00  0.00     0.167 HD
ATOM     51  C   UNL A   1      42.184  30.356  35.290  1.00  0.00     0.074 A 
ATOM     52  C   UNL A   1      42.478  30.828  36.628  1.00  0.00     0.031 C 
ATOM     53  C   UNL A   1      42.894  29.395  34.646  1.00  0.00     0.034 A 
BRANCH  40  54
ATOM     54  C   UNL A   1      40.592  27.850  29.120  1.00  0.00     0.023 A 
ATOM     55  C   UNL A   1      39.706  26.759  29.008  1.00  0.00     0.012 A 
ATOM     56  C   UNL A   1      41.504  28.109  28.078  1.00  0.00     0.148 A 
ATOM     57  C   UNL A   1      39.752  25.915  27.899  1.00  0.00     0.002 A 
ATOM     58  C   UNL A   1      41.514  27.288  26.955  1.00  0.00     0.091 A 
ATOM     59  F   UNL A   1      42.356  29.135  28.210  1.00  0.00    -0.205 F 
ATOM     60  C   UNL A   1      40.648  26.186  26.869  1.00  0.00     0.022 A 
BRANCH  58  61
ATOM     61  S   UNL A   1      42.580  27.600  25.543  1.00  0.00     0.127 S 
ATOM     62  O   UNL A   1      42.327  26.421  24.715  1.00  0.00    -0.237 OA
ATOM     63  O   UNL A   1      42.033  28.848  25.009  1.00  0.00    -0.237 OA
ATOM     64  O   UNL A   1      43.929  27.713  26.080  1.00  0.00    -0.744 OA
ENDBRANCH  58  61
ENDBRANCH  40  54
BRANCH  41  65
ATOM     65  C   UNL A   1      39.441  33.725  37.113  1.00  0.00     0.023 A 
ATOM     66  C   UNL A   1      39.905  35.055  37.092  1.00  0.00     0.012 A 
ATOM     67  C   UNL A   1      38.771  33.249  38.256  1.00  0.00     0.148 A 
ATOM     68  C   UNL A   1      39.731  35.887  38.198  1.00  0.00     0.002 A 
ATOM     69  C   UNL A   1      38.554  34.099  39.335  1.00  0.00     0.091 A 
ATOM     70  F   UNL A   1      38.347  31.977  38.260  1.00  0.00    -0.205 F 
ATOM     71  C   UNL A   1      39.046  35.414  39.314  1.00  0.00     0.022 A 
BRANCH  69  72
ATOM     72  S   UNL A   1      37.570  33.619  40.759  1.00  0.00     0.127 S 
ATOM     73  O   UNL A   1      37.400  34.893  41.449  1.00  0.00    -0.237 OA
ATOM     74  O   UNL A   1      36.360  33.091  40.127  1.00  0.00    -0.237 OA
ATOM     75  O   UNL A   1      38.362  32.617  41.461  1.00  0.00    -0.744 OA
ENDBRANCH  69  72
ENDBRANCH  41  65
BRANCH  53  76
ATOM     76  C   UNL A   1      44.077  28.802  35.364  1.00  0.00     0.023 A 
ATOM     77  C   UNL A   1      45.357  29.359  35.176  1.00  0.00     0.012 A 
ATOM     78  C   UNL A   1      43.909  27.748  36.283  1.00  0.00     0.148 A 
ATOM     79  C   UNL A   1      46.456  28.857  35.872  1.00  0.00     0.002 A 
ATOM     80  C   UNL A   1      45.000  27.284  37.008  1.00  0.00     0.091 A 
ATOM     81  F   UNL A   1      42.685  27.218  36.432  1.00  0.00    -0.205 F 
ATOM     82  C   UNL A   1      46.276  27.830  36.796  1.00  0.00     0.022 A 
BRANCH  80  83
ATOM     83  S   UNL A   1      44.842  26.029  38.283  1.00  0.00     0.127 S 
ATOM     84  O   UNL A   1      44.278  24.909  37.533  1.00  0.00    -0.237 OA
ATOM     85  O   UNL A   1      46.229  25.841  38.711  1.00  0.00    -0.237 OA
ATOM     86  O   UNL A   1      43.972  26.604  39.302  1.00  0.00    -0.744 OA
ENDBRANCH  80  83
ENDBRANCH  53  76
ENDBRANCH  27  28
ENDBRANCH  19  22
ENDBRANCH  17  18
ENDBRANCH   1  17
TORSDOF 15
ENDMDL
MODEL 2
REMARK VINA RESULT:     -11.2      2.520      8.652
REMARK SMILES Cn1nc(C(=O)NCCCCNC(=O)c2ccc(-c3c4nc(c(-c5cccc(S(=O)(=O)[O-])c5F)c5ccc([nH]5)c(-c5cccc(S(=O)(=O)[O-])c5F)c5nc(c(-c6cccc(S(=O)(=O)[O-])c6F)c6ccc3[nH]6)C=C5)C=C4)cc2)cc1C1CC1
REMARK SMILES IDX 10 1 9 2 8 3 7 4 5 5 6 6 4 8 1 9 2 10 3 11 79 12 78 13 80 14
REMARK SMILES IDX 81 15 82 16 11 17 12 18 13 19 14 21 15 22 16 23 77 24 17 25
REMARK SMILES IDX 76 26 18 27 19 28 20 29 70 30 21 31 75 32 69 33 71 34 22 35
REMARK SMILES IDX 74 36 68 37 67 38 23 40 55 41 35 42 54 43 36 44 39 45 53 46
REMARK SMILES IDX 72 47 37 48 38 49 52 51 73 52 40 53 24 54 25 55 33 56 26 57
REMARK SMILES IDX 28 58 34 59 27 60 29 61 30 62 31 63 32 64 56 65 57 66 65 67
REMARK SMILES IDX 58 68 60 69 66 70 59 71 61 72 62 73 63 74 64 75 41 76 42 77
REMARK SMILES IDX 50 78 43 79 45 80 51 81 44 82 46 83 47 84 48 85 49 86
REMARK H PARENT 7 7 12 20 71 39 39 50
REMARK Flexibility Score: inf
ROOT
ATOM      1  C   UNL A   1      31.795  29.215  26.980  1.00  0.00     0.023 C 
ENDROOT
BRANCH   1   2
ATOM      2  C   UNL A   1      32.163  27.744  27.216  1.00  0.00     0.023 C 
BRANCH   2   3
ATOM      3  C   UNL A   1      31.301  26.755  26.430  1.00  0.00     0.116 C 
BRANCH   3   4
ATOM      4  N   UNL A   1      31.883  26.465  25.140  1.00  0.00    -0.351 N 
ATOM      5  C   UNL A   1      31.625  26.961  23.881  1.00  0.00     0.271 C 
ATOM      6  O   UNL A   1      32.343  26.523  22.977  1.00  0.00    -0.267 OA
ATOM      7  H   UNL A   1      32.598  25.787  25.165  1.00  0.00     0.163 HD
BRANCH   5   8
ATOM      8  C   UNL A   1      30.574  27.976  23.630  1.00  0.00     0.150 A 
ATOM      9  C   UNL A   1      27.157  28.545  23.141  1.00  0.00     0.174 C 
ATOM     10  N   UNL A   1      28.585  28.704  23.261  1.00  0.00    -0.272 N 
ATOM     11  N   UNL A   1      29.289  27.586  23.512  1.00  0.00    -0.168 NA
ATOM     12  C   UNL A   1      29.372  29.813  23.146  1.00  0.00     0.042 A 
ATOM     13  C   UNL A   1      30.641  29.386  23.480  1.00  0.00     0.059 A 
BRANCH  12  14
ATOM     14  C   UNL A   1      29.098  31.249  22.730  1.00  0.00     0.038 C 
ATOM     15  C   UNL A   1      28.205  31.514  21.540  1.00  0.00     0.010 C 
ATOM     16  C   UNL A   1      27.750  31.894  22.910  1.00  0.00     0.010 C 
ENDBRANCH  12  14
ENDBRANCH   5   8
ENDBRANCH   3   4
ENDBRANCH   2   3
ENDBRANCH   1   2
BRANCH   1  17
ATOM     17  C   UNL A   1      32.928  30.088  26.445  1.00  0.00     0.116 C 
BRANCH  17  18
ATOM     18  N   UNL A   1      32.817  31.486  26.836  1.00  0.00    -0.352 N 
ATOM     19  C   UNL A   1      33.677  32.226  27.615  1.00  0.00     0.251 C 
ATOM     20  H   UNL A   1      32.025  31.964  26.498  1.00  0.00     0.163 HD
ATOM     21  O   UNL A   1      33.388  33.372  27.934  1.00  0.00    -0.269 OA
BRANCH  19  22
ATOM     22  C   UNL A   1      34.929  31.605  28.098  1.00  0.00     0.039 A 
ATOM     23  C   UNL A   1      36.090  32.381  28.146  1.00  0.00     0.014 A 
ATOM     24  C   UNL A   1      34.946  30.279  28.535  1.00  0.00     0.014 A 
ATOM     25  C   UNL A   1      37.253  31.847  28.702  1.00  0.00     0.010 A 
ATOM     26  C   UNL A   1      36.087  29.771  29.148  1.00  0.00     0.010 A 
ATOM     27  C   UNL A   1      37.251  30.549  29.240  1.00  0.00    -0.014 A 
BRANCH  27  28
ATOM     28  C   UNL A   1      38.445  29.995  29.927  1.00  0.00     0.031 A 
ATOM     29  C   UNL A   1      38.826  30.483  31.298  1.00  0.00     0.074 A 
ATOM     30  C   UNL A   1      39.243  29.128  29.274  1.00  0.00     0.049 A 
ATOM     31  N   UNL A   1      39.863  30.162  32.028  1.00  0.00    -0.248 NA
ATOM     32  C   UNL A   1      37.942  31.484  31.918  1.00  0.00     0.031 C 
ATOM     33  C   UNL A   1      39.029  28.647  27.907  1.00  0.00     0.029 A 
ATOM     34  N   UNL A   1      40.411  28.520  29.660  1.00  0.00    -0.354 N 
ATOM     35  C   UNL A   1      39.779  30.946  33.171  1.00  0.00     0.074 A 
ATOM     36  C   UNL A   1      38.608  31.783  33.024  1.00  0.00     0.031 C 
ATOM     37  C   UNL A   1      40.030  27.817  27.571  1.00  0.00     0.029 A 
ATOM     38  C   UNL A   1      40.967  27.724  28.686  1.00  0.00     0.049 A 
ATOM     39  H   UNL A   1      40.813  28.641  30.550  1.00  0.00     0.167 HD
ATOM     40  C   UNL A   1      40.584  30.949  34.260  1.00  0.00     0.034 A 
ATOM     41  C   UNL A   1      42.105  27.001  28.689  1.00  0.00     0.034 A 
ATOM     42  C   UNL A   1      41.718  30.079  34.424  1.00  0.00     0.049 A 
ATOM     43  C   UNL A   1      42.953  26.978  29.932  1.00  0.00     0.074 A 
ATOM     44  C   UNL A   1      42.536  29.931  35.530  1.00  0.00     0.029 A 
ATOM     45  N   UNL A   1      42.197  29.212  33.453  1.00  0.00    -0.354 N 
ATOM     46  N   UNL A   1      42.760  27.595  31.073  1.00  0.00    -0.248 NA
ATOM     47  C   UNL A   1      44.153  26.131  29.902  1.00  0.00     0.031 C 
ATOM     48  C   UNL A   1      43.519  28.984  35.222  1.00  0.00     0.029 A 
ATOM     49  C   UNL A   1      43.303  28.531  33.930  1.00  0.00     0.049 A 
ATOM     50  H   UNL A   1      41.807  29.098  32.557  1.00  0.00     0.167 HD
ATOM     51  C   UNL A   1      43.794  27.186  31.907  1.00  0.00     0.074 A 
ATOM     52  C   UNL A   1      44.598  26.251  31.146  1.00  0.00     0.031 C 
ATOM     53  C   UNL A   1      44.062  27.562  33.182  1.00  0.00     0.034 A 
BRANCH  40  54
ATOM     54  C   UNL A   1      40.226  31.880  35.388  1.00  0.00     0.023 A 
ATOM     55  C   UNL A   1      40.929  33.093  35.532  1.00  0.00     0.012 A 
ATOM     56  C   UNL A   1      39.173  31.582  36.274  1.00  0.00     0.148 A 
ATOM     57  C   UNL A   1      40.618  33.978  36.564  1.00  0.00     0.002 A 
ATOM     58  C   UNL A   1      38.840  32.490  37.275  1.00  0.00     0.091 A 
ATOM     59  F   UNL A   1      38.531  30.413  36.138  1.00  0.00    -0.205 F 
ATOM     60  C   UNL A   1      39.568  33.680  37.428  1.00  0.00     0.022 A 
BRANCH  58  61
ATOM     61  S   UNL A   1      37.455  32.230  38.389  1.00  0.00     0.127 S 
ATOM     62  O   UNL A   1      37.967  32.800  39.635  1.00  0.00    -0.237 OA
ATOM     63  O   UNL A   1      36.393  33.011  37.753  1.00  0.00    -0.237 OA
ATOM     64  O   UNL A   1      37.221  30.793  38.404  1.00  0.00    -0.744 OA
ENDBRANCH  58  61
ENDBRANCH  40  54
BRANCH  41  65
ATOM     65  C   UNL A   1      42.459  26.173  27.503  1.00  0.00     0.023 A 
ATOM     66  C   UNL A   1      43.241  26.740  26.479  1.00  0.00     0.012 A 
ATOM     67  C   UNL A   1      42.070  24.823  27.402  1.00  0.00     0.148 A 
ATOM     68  C   UNL A   1      43.606  25.989  25.361  1.00  0.00     0.002 A 
ATOM     69  C   UNL A   1      42.480  24.065  26.311  1.00  0.00     0.091 A 
ATOM     70  F   UNL A   1      41.316  24.305  28.382  1.00  0.00    -0.205 F 
ATOM     71  C   UNL A   1      43.235  24.649  25.283  1.00  0.00     0.022 A 
BRANCH  69  72
ATOM     72  S   UNL A   1      42.161  22.301  26.189  1.00  0.00     0.127 S 
ATOM     73  O   UNL A   1      40.705  22.265  26.103  1.00  0.00    -0.237 OA
ATOM     74  O   UNL A   1      42.863  21.952  24.953  1.00  0.00    -0.237 OA
ATOM     75  O   UNL A   1      42.741  21.715  27.390  1.00  0.00    -0.744 OA
ENDBRANCH  69  72
ENDBRANCH  41  65
BRANCH  53  76
ATOM     76  C   UNL A   1      45.260  26.946  33.854  1.00  0.00     0.023 A 
ATOM     77  C   UNL A   1      46.513  27.584  33.767  1.00  0.00     0.012 A 
ATOM     78  C   UNL A   1      45.130  25.781  34.637  1.00  0.00     0.148 A 
ATOM     79  C   UNL A   1      47.624  27.057  34.426  1.00  0.00     0.002 A 
ATOM     80  C   UNL A   1      46.230  25.289  35.328  1.00  0.00     0.091 A 
ATOM     81  F   UNL A   1      43.933  25.178  34.691  1.00  0.00    -0.205 F 
ATOM     82  C   UNL A   1      47.480  25.919  35.216  1.00  0.00     0.022 A 
BRANCH  80  83
ATOM     83  S   UNL A   1      46.114  23.884  36.441  1.00  0.00     0.127 S 
ATOM     84  O   UNL A   1      47.487  23.773  36.928  1.00  0.00    -0.237 OA
ATOM     85  O   UNL A   1      45.149  24.352  37.437  1.00  0.00    -0.237 OA
ATOM     86  O   UNL A   1      45.645  22.769  35.628  1.00  0.00    -0.744 OA
ENDBRANCH  80  83
ENDBRANCH  53  76
ENDBRANCH  27  28
ENDBRANCH  19  22
ENDBRANCH  17  18
ENDBRANCH   1  17
TORSDOF 15
ENDMDL
MODEL 3
REMARK VINA RESULT:     -11.1      6.137      9.293
REMARK SMILES Cn1nc(C(=O)NCCCCNC(=O)c2ccc(-c3c4nc(c(-c5cccc(S(=O)(=O)[O-])c5F)c5ccc([nH]5)c(-c5cccc(S(=O)(=O)[O-])c5F)c5nc(c(-c6cccc(S(=O)(=O)[O-])c6F)c6ccc3[nH]6)C=C5)C=C4)cc2)cc1C1CC1
REMARK SMILES IDX 10 1 9 2 8 3 7 4 5 5 6 6 4 8 1 9 2 10 3 11 79 12 78 13 80 14
REMARK SMILES IDX 81 15 82 16 11 17 12 18 13 19 14 21 15 22 16 23 77 24 17 25
REMARK SMILES IDX 76 26 18 27 19 28 20 29 70 30 21 31 75 32 69 33 71 34 22 35
REMARK SMILES IDX 74 36 68 37 67 38 23 40 55 41 35 42 54 43 36 44 39 45 53 46
REMARK SMILES IDX 72 47 37 48 38 49 52 51 73 52 40 53 24 54 25 55 33 56 26 57
REMARK SMILES IDX 28 58 34 59 27 60 29 61 30 62 31 63 32 64 56 65 57 66 65 67
REMARK SMILES IDX 58 68 60 69 66 70 59 71 61 72 62 73 63 74 64 75 41 76 42 77
REMARK SMILES IDX 50 78 43 79 45 80 51 81 44 82 46 83 47 84 48 85 49 86
REMARK H PARENT 7 7 12 20 71 39 39 50
REMARK Flexibility Score: inf
ROOT
ATOM      1  C   UNL A   1      36.392  22.343  23.858  1.00  0.00     0.023 C 
ENDROOT
BRANCH   1   2
ATOM      2  C   UNL A   1      35.472  23.550  23.634  1.00  0.00     0.023 C 
BRANCH   2   3
ATOM      3  C   UNL A   1      34.098  23.187  23.070  1.00  0.00     0.116 C 
BRANCH   3   4
ATOM      4  N   UNL A   1      33.082  23.235  24.096  1.00  0.00    -0.351 N 
ATOM      5  C   UNL A   1      32.424  22.241  24.787  1.00  0.00     0.271 C 
ATOM      6  O   UNL A   1      31.624  22.627  25.645  1.00  0.00    -0.267 OA
ATOM      7  H   UNL A   1      32.809  24.146  24.350  1.00  0.00     0.163 HD
BRANCH   5   8
ATOM      8  C   UNL A   1      32.678  20.802  24.539  1.00  0.00     0.150 A 
ATOM      9  C   UNL A   1      32.321  18.144  22.293  1.00  0.00     0.174 C 
ATOM     10  N   UNL A   1      32.612  18.947  23.454  1.00  0.00    -0.272 N 
ATOM     11  N   UNL A   1      32.277  20.247  23.378  1.00  0.00    -0.168 NA
ATOM     12  C   UNL A   1      33.167  18.611  24.655  1.00  0.00     0.042 A 
ATOM     13  C   UNL A   1      33.312  19.806  25.328  1.00  0.00     0.059 A 
BRANCH  12  14
ATOM     14  C   UNL A   1      33.564  17.287  25.287  1.00  0.00     0.038 C 
ATOM     15  C   UNL A   1      32.500  16.245  25.550  1.00  0.00     0.010 C 
ATOM     16  C   UNL A   1      33.550  15.992  24.518  1.00  0.00     0.010 C 
ENDBRANCH  12  14
ENDBRANCH   5   8
ENDBRANCH   3   4
ENDBRANCH   2   3
ENDBRANCH   1   2
BRANCH   1  17
ATOM     17  C   UNL A   1      36.683  22.012  25.320  1.00  0.00     0.116 C 
BRANCH  17  18
ATOM     18  N   UNL A   1      37.665  20.952  25.491  1.00  0.00    -0.352 N 
ATOM     19  C   UNL A   1      38.949  21.047  25.979  1.00  0.00     0.251 C 
ATOM     20  H   UNL A   1      37.374  20.050  25.223  1.00  0.00     0.163 HD
ATOM     21  O   UNL A   1      39.687  20.070  25.967  1.00  0.00    -0.269 OA
BRANCH  19  22
ATOM     22  C   UNL A   1      39.437  22.351  26.475  1.00  0.00     0.039 A 
ATOM     23  C   UNL A   1      40.541  22.374  27.333  1.00  0.00     0.014 A 
ATOM     24  C   UNL A   1      38.834  23.542  26.067  1.00  0.00     0.014 A 
ATOM     25  C   UNL A   1      41.084  23.600  27.723  1.00  0.00     0.010 A 
ATOM     26  C   UNL A   1      39.417  24.760  26.403  1.00  0.00     0.010 A 
ATOM     27  C   UNL A   1      40.548  24.802  27.232  1.00  0.00    -0.014 A 
BRANCH  27  28
ATOM     28  C   UNL A   1      41.169  26.112  27.550  1.00  0.00     0.031 A 
ATOM     29  C   UNL A   1      42.586  26.400  27.137  1.00  0.00     0.074 A 
ATOM     30  C   UNL A   1      40.492  27.002  28.302  1.00  0.00     0.049 A 
ATOM     31  N   UNL A   1      43.315  27.459  27.376  1.00  0.00    -0.248 NA
ATOM     32  C   UNL A   1      43.285  25.348  26.379  1.00  0.00     0.031 C 
ATOM     33  C   UNL A   1      39.145  26.803  28.840  1.00  0.00     0.029 A 
ATOM     34  N   UNL A   1      40.855  28.240  28.768  1.00  0.00    -0.354 N 
ATOM     35  C   UNL A   1      44.566  27.188  26.836  1.00  0.00     0.074 A 
ATOM     36  C   UNL A   1      44.507  25.852  26.285  1.00  0.00     0.031 C 
ATOM     37  C   UNL A   1      38.794  27.881  29.559  1.00  0.00     0.029 A 
ATOM     38  C   UNL A   1      39.897  28.837  29.554  1.00  0.00     0.049 A 
ATOM     39  H   UNL A   1      41.719  28.663  28.561  1.00  0.00     0.167 HD
ATOM     40  C   UNL A   1      45.656  27.990  26.775  1.00  0.00     0.034 A 
ATOM     41  C   UNL A   1      39.905  30.021  30.200  1.00  0.00     0.034 A 
ATOM     42  C   UNL A   1      45.693  29.337  27.279  1.00  0.00     0.049 A 
ATOM     43  C   UNL A   1      41.107  30.916  30.069  1.00  0.00     0.074 A 
ATOM     44  C   UNL A   1      46.714  30.266  27.175  1.00  0.00     0.029 A 
ATOM     45  N   UNL A   1      44.667  29.946  27.985  1.00  0.00    -0.354 N 
ATOM     46  N   UNL A   1      42.218  30.712  29.403  1.00  0.00    -0.248 NA
ATOM     47  C   UNL A   1      41.042  32.218  30.746  1.00  0.00     0.031 C 
ATOM     48  C   UNL A   1      46.308  31.433  27.831  1.00  0.00     0.029 A 
ATOM     49  C   UNL A   1      45.030  31.236  28.330  1.00  0.00     0.049 A 
ATOM     50  H   UNL A   1      43.807  29.523  28.208  1.00  0.00     0.167 HD
ATOM     51  C   UNL A   1      42.970  31.871  29.553  1.00  0.00     0.074 A 
ATOM     52  C   UNL A   1      42.178  32.782  30.355  1.00  0.00     0.031 C 
ATOM     53  C   UNL A   1      44.211  32.151  29.082  1.00  0.00     0.034 A 
BRANCH  40  54
ATOM     54  C   UNL A   1      46.878  27.450  26.081  1.00  0.00     0.023 A 
ATOM     55  C   UNL A   1      47.032  27.654  24.694  1.00  0.00     0.012 A 
ATOM     56  C   UNL A   1      47.892  26.785  26.798  1.00  0.00     0.148 A 
ATOM     57  C   UNL A   1      48.155  27.170  24.024  1.00  0.00     0.002 A 
ATOM     58  C   UNL A   1      49.029  26.343  26.129  1.00  0.00     0.091 A 
ATOM     59  F   UNL A   1      47.719  26.577  28.111  1.00  0.00    -0.205 F 
ATOM     60  C   UNL A   1      49.156  26.524  24.743  1.00  0.00     0.022 A 
BRANCH  58  61
ATOM     61  S   UNL A   1      50.407  25.567  26.981  1.00  0.00     0.127 S 
ATOM     62  O   UNL A   1      50.788  26.607  27.935  1.00  0.00    -0.237 OA
ATOM     63  O   UNL A   1      49.778  24.390  27.583  1.00  0.00    -0.237 OA
ATOM     64  O   UNL A   1      51.392  25.265  25.952  1.00  0.00    -0.744 OA
ENDBRANCH  58  61
ENDBRANCH  40  54
BRANCH  41  65
ATOM     65  C   UNL A   1      38.698  30.461  30.954  1.00  0.00     0.023 A 
ATOM     66  C   UNL A   1      38.639  30.237  32.344  1.00  0.00     0.012 A 
ATOM     67  C   UNL A   1      37.636  31.134  30.322  1.00  0.00     0.148 A 
ATOM     68  C   UNL A   1      37.533  30.650  33.085  1.00  0.00     0.002 A 
ATOM     69  C   UNL A   1      36.560  31.590  31.075  1.00  0.00     0.091 A 
ATOM     70  F   UNL A   1      37.707  31.327  28.997  1.00  0.00    -0.205 F 
ATOM     71  C   UNL A   1      36.499  31.337  32.453  1.00  0.00     0.022 A 
BRANCH  69  72
ATOM     72  S   UNL A   1      35.248  32.595  30.371  1.00  0.00     0.127 S 
ATOM     73  O   UNL A   1      34.291  32.651  31.471  1.00  0.00    -0.237 OA
ATOM     74  O   UNL A   1      35.945  33.852  30.093  1.00  0.00    -0.237 OA
ATOM     75  O   UNL A   1      34.805  31.882  29.180  1.00  0.00    -0.744 OA
ENDBRANCH  69  72
ENDBRANCH  41  65
BRANCH  53  76
ATOM     76  C   UNL A   1      44.787  33.506  29.395  1.00  0.00     0.023 A 
ATOM     77  C   UNL A   1      45.527  33.693  30.580  1.00  0.00     0.012 A 
ATOM     78  C   UNL A   1      44.666  34.572  28.481  1.00  0.00     0.148 A 
ATOM     79  C   UNL A   1      46.113  34.926  30.862  1.00  0.00     0.002 A 
ATOM     80  C   UNL A   1      45.291  35.784  28.747  1.00  0.00     0.091 A 
ATOM     81  F   UNL A   1      43.941  34.380  27.368  1.00  0.00    -0.205 F 
ATOM     82  C   UNL A   1      46.006  35.966  29.942  1.00  0.00     0.022 A 
BRANCH  80  83
ATOM     83  S   UNL A   1      45.284  37.145  27.575  1.00  0.00     0.127 S 
ATOM     84  O   UNL A   1      45.965  38.194  28.332  1.00  0.00    -0.237 OA
ATOM     85  O   UNL A   1      46.056  36.600  26.457  1.00  0.00    -0.237 OA
ATOM     86  O   UNL A   1      43.882  37.401  27.270  1.00  0.00    -0.744 OA
ENDBRANCH  80  83
ENDBRANCH  53  76
ENDBRANCH  27  28
ENDBRANCH  19  22
ENDBRANCH  17  18
ENDBRANCH   1  17
TORSDOF 15
ENDMDL
