MODEL 1
REMARK VINA RESULT:     -12.9      0.000      0.000
REMARK SMILES Cc1cc([N+](=O)[O-])ccc1NC(=O)[C@@H]1[C@@H](C(=O)NCCCCNC(=O)c2ccc(-c3c4nc(c(-c5cccc(S(=O)(=O)[O-])c5F)c5ccc([nH]5)c(-c5cccc(S(=O)(=O)[O-])c5F)c5nc(c(-c6cccc(S(=O)(=O)[O-])c6F)c6ccc3[nH]6)C=C5)C=C4)cc2)[C@H]2C=C[C@@H]1C2
REMARK SMILES IDX 20 1 19 2 18 3 16 4 17 5 15 7 14 8 92 9 89 10 91 11 93 12
REMARK SMILES IDX 90 13 12 14 11 15 13 17 10 18 1 19 2 20 3 21 4 22 9 23 8 24
REMARK SMILES IDX 5 25 6 26 7 27 21 28 22 29 23 30 24 31 25 33 26 34 27 35
REMARK SMILES IDX 88 36 28 37 87 38 29 39 30 40 31 41 81 42 32 43 86 44 80 45
REMARK SMILES IDX 82 46 33 47 85 48 79 49 78 50 34 52 66 53 46 54 65 55 47 56
REMARK SMILES IDX 50 57 64 58 83 59 48 60 49 61 63 63 84 64 51 65 35 66 36 67
REMARK SMILES IDX 44 68 37 69 39 70 45 71 38 72 40 73 41 74 42 75 43 76 67 77
REMARK SMILES IDX 68 78 76 79 69 80 71 81 77 82 70 83 72 84 73 85 74 86 75 87
REMARK SMILES IDX 52 88 53 89 61 90 54 91 56 92 62 93 55 94 57 95 58 96 59 97
REMARK SMILES IDX 60 98
REMARK H PARENT 18 6 11 16 23 32 82 51 50 62
REMARK Flexibility Score: inf
ROOT
ATOM      1  C   UNL A   1      37.293  21.474  24.650  1.00  0.00     0.023 C 
ENDROOT
BRANCH   1   2
ATOM      2  C   UNL A   1      36.475  22.760  24.515  1.00  0.00     0.116 C 
BRANCH   2   3
ATOM      3  N   UNL A   1      35.438  22.675  23.506  1.00  0.00    -0.356 N 
ATOM      4  C   UNL A   1      34.238  23.308  23.406  1.00  0.00     0.224 C 
ATOM      5  O   UNL A   1      33.510  22.980  22.465  1.00  0.00    -0.275 OA
ATOM      6  H   UNL A   1      35.634  22.053  22.768  1.00  0.00     0.163 HD
BRANCH   4   7
ATOM      7  C   UNL A   1      33.786  24.303  24.468  1.00  0.00     0.098 C 
ATOM      8  C   UNL A   1      32.207  24.348  24.579  1.00  0.00     0.099 C 
ATOM      9  C   UNL A   1      31.912  25.870  24.509  1.00  0.00     0.025 C 
ATOM     10  C   UNL A   1      34.114  25.792  24.171  1.00  0.00     0.025 C 
ATOM     11  C   UNL A   1      32.155  26.293  23.078  1.00  0.00    -0.027 C 
ATOM     12  C   UNL A   1      33.158  26.478  25.149  1.00  0.00     0.017 C 
ATOM     13  C   UNL A   1      33.478  26.227  22.871  1.00  0.00    -0.027 C 
BRANCH   8  14
ATOM     14  C   UNL A   1      31.624  23.712  25.828  1.00  0.00     0.228 C 
ATOM     15  N   UNL A   1      31.775  22.375  26.100  1.00  0.00    -0.326 N 
ATOM     16  H   UNL A   1      31.349  22.100  26.945  1.00  0.00     0.169 HD
ATOM     17  O   UNL A   1      30.952  24.369  26.630  1.00  0.00    -0.274 OA
BRANCH  15  18
ATOM     18  C   UNL A   1      32.412  21.307  25.426  1.00  0.00     0.044 A 
ATOM     19  C   UNL A   1      34.432  21.436  27.041  1.00  0.00     0.047 C 
ATOM     20  C   UNL A   1      33.634  20.802  25.930  1.00  0.00    -0.021 A 
ATOM     21  C   UNL A   1      34.181  19.625  25.369  1.00  0.00     0.091 A 
ATOM     22  C   UNL A   1      33.538  18.970  24.314  1.00  0.00     0.269 A 
ATOM     23  C   UNL A   1      31.864  20.696  24.288  1.00  0.00     0.033 A 
ATOM     24  C   UNL A   1      32.396  19.521  23.747  1.00  0.00     0.088 A 
BRANCH  22  25
ATOM     25  N   UNL A   1      34.068  17.702  23.804  1.00  0.00     0.062 N 
ATOM     26  O   UNL A   1      33.641  17.300  22.711  1.00  0.00    -0.258 OA
ATOM     27  O   UNL A   1      34.919  17.115  24.486  1.00  0.00    -0.258 OA
ENDBRANCH  22  25
ENDBRANCH  15  18
ENDBRANCH   8  14
ENDBRANCH   4   7
ENDBRANCH   2   3
ENDBRANCH   1   2
BRANCH   1  28
ATOM     28  C   UNL A   1      38.413  21.497  25.687  1.00  0.00     0.023 C 
BRANCH  28  29
ATOM     29  C   UNL A   1      38.702  22.863  26.286  1.00  0.00     0.116 C 
BRANCH  29  30
ATOM     30  N   UNL A   1      39.794  22.871  27.239  1.00  0.00    -0.352 N 
ATOM     31  C   UNL A   1      40.403  23.932  27.884  1.00  0.00     0.251 C 
ATOM     32  H   UNL A   1      40.160  21.984  27.461  1.00  0.00     0.163 HD
ATOM     33  O   UNL A   1      41.461  23.709  28.468  1.00  0.00    -0.269 OA
BRANCH  31  34
ATOM     34  C   UNL A   1      39.739  25.262  27.992  1.00  0.00     0.039 A 
ATOM     35  C   UNL A   1      39.993  26.203  26.979  1.00  0.00     0.014 A 
ATOM     36  C   UNL A   1      39.056  25.667  29.134  1.00  0.00     0.014 A 
ATOM     37  C   UNL A   1      39.815  27.564  27.228  1.00  0.00     0.010 A 
ATOM     38  C   UNL A   1      38.944  27.010  29.416  1.00  0.00     0.010 A 
ATOM     39  C   UNL A   1      39.409  27.951  28.497  1.00  0.00    -0.014 A 
BRANCH  39  40
ATOM     40  C   UNL A   1      39.538  29.292  29.042  1.00  0.00     0.031 A 
ATOM     41  C   UNL A   1      38.590  30.353  28.681  1.00  0.00     0.074 A 
ATOM     42  C   UNL A   1      40.364  29.423  30.104  1.00  0.00     0.049 A 
ATOM     43  N   UNL A   1      38.761  31.603  28.942  1.00  0.00    -0.248 NA
ATOM     44  C   UNL A   1      37.357  30.066  27.966  1.00  0.00     0.031 C 
ATOM     45  C   UNL A   1      40.344  30.451  31.133  1.00  0.00     0.029 A 
ATOM     46  N   UNL A   1      41.538  28.705  30.357  1.00  0.00    -0.354 N 
ATOM     47  C   UNL A   1      37.551  32.232  28.724  1.00  0.00     0.074 A 
ATOM     48  C   UNL A   1      36.757  31.258  28.013  1.00  0.00     0.031 C 
ATOM     49  C   UNL A   1      41.548  30.481  31.729  1.00  0.00     0.029 A 
ATOM     50  C   UNL A   1      42.423  29.615  30.955  1.00  0.00     0.049 A 
ATOM     51  H   UNL A   1      41.707  27.756  30.157  1.00  0.00     0.167 HD
ATOM     52  C   UNL A   1      37.313  33.431  29.334  1.00  0.00     0.034 A 
ATOM     53  C   UNL A   1      43.605  29.991  30.379  1.00  0.00     0.034 A 
ATOM     54  C   UNL A   1      38.516  33.900  30.046  1.00  0.00     0.049 A 
ATOM     55  C   UNL A   1      43.688  31.487  30.127  1.00  0.00     0.074 A 
ATOM     56  C   UNL A   1      38.895  33.854  31.379  1.00  0.00     0.029 A 
ATOM     57  N   UNL A   1      39.656  34.249  29.329  1.00  0.00    -0.354 N 
ATOM     58  N   UNL A   1      42.690  32.312  30.281  1.00  0.00    -0.248 NA
ATOM     59  C   UNL A   1      44.889  32.164  29.643  1.00  0.00     0.031 C 
ATOM     60  C   UNL A   1      40.298  34.068  31.444  1.00  0.00     0.029 A 
ATOM     61  C   UNL A   1      40.768  34.279  30.159  1.00  0.00     0.049 A 
ATOM     62  H   UNL A   1      39.672  34.449  28.365  1.00  0.00     0.167 HD
ATOM     63  C   UNL A   1      43.026  33.545  29.791  1.00  0.00     0.074 A 
ATOM     64  C   UNL A   1      44.442  33.423  29.488  1.00  0.00     0.031 C 
ATOM     65  C   UNL A   1      42.096  34.532  29.607  1.00  0.00     0.034 A 
BRANCH  52  66
ATOM     66  C   UNL A   1      35.929  34.024  29.594  1.00  0.00     0.023 A 
ATOM     67  C   UNL A   1      35.212  34.507  28.474  1.00  0.00     0.012 A 
ATOM     68  C   UNL A   1      35.300  34.223  30.845  1.00  0.00     0.148 A 
ATOM     69  C   UNL A   1      34.024  35.240  28.590  1.00  0.00     0.002 A 
ATOM     70  C   UNL A   1      34.147  35.008  30.973  1.00  0.00     0.091 A 
ATOM     71  F   UNL A   1      35.745  33.582  31.927  1.00  0.00    -0.205 F 
ATOM     72  C   UNL A   1      33.510  35.526  29.845  1.00  0.00     0.022 A 
BRANCH  70  73
ATOM     73  S   UNL A   1      33.459  35.462  32.577  1.00  0.00     0.127 S 
ATOM     74  O   UNL A   1      33.011  34.168  33.098  1.00  0.00    -0.237 OA
ATOM     75  O   UNL A   1      34.616  36.027  33.266  1.00  0.00    -0.237 OA
ATOM     76  O   UNL A   1      32.374  36.397  32.302  1.00  0.00    -0.744 OA
ENDBRANCH  70  73
ENDBRANCH  52  66
BRANCH  53  77
ATOM     77  C   UNL A   1      44.201  28.937  29.502  1.00  0.00     0.023 A 
ATOM     78  C   UNL A   1      44.607  27.735  30.131  1.00  0.00     0.012 A 
ATOM     79  C   UNL A   1      43.988  28.934  28.112  1.00  0.00     0.148 A 
ATOM     80  C   UNL A   1      44.652  26.533  29.421  1.00  0.00     0.002 A 
ATOM     81  C   UNL A   1      44.042  27.730  27.409  1.00  0.00     0.091 A 
ATOM     82  F   UNL A   1      43.655  30.083  27.509  1.00  0.00    -0.205 F 
ATOM     83  C   UNL A   1      44.331  26.525  28.068  1.00  0.00     0.022 A 
BRANCH  81  84
ATOM     84  S   UNL A   1      43.614  27.653  25.664  1.00  0.00     0.127 S 
ATOM     85  O   UNL A   1      43.158  26.272  25.535  1.00  0.00    -0.237 OA
ATOM     86  O   UNL A   1      42.563  28.661  25.545  1.00  0.00    -0.237 OA
ATOM     87  O   UNL A   1      44.846  27.997  24.968  1.00  0.00    -0.744 OA
ENDBRANCH  81  84
ENDBRANCH  53  77
BRANCH  65  88
ATOM     88  C   UNL A   1      42.352  35.826  28.865  1.00  0.00     0.023 A 
ATOM     89  C   UNL A   1      41.738  36.116  27.632  1.00  0.00     0.012 A 
ATOM     90  C   UNL A   1      43.106  36.867  29.466  1.00  0.00     0.148 A 
ATOM     91  C   UNL A   1      41.917  37.345  26.988  1.00  0.00     0.002 A 
ATOM     92  C   UNL A   1      43.193  38.124  28.872  1.00  0.00     0.091 A 
ATOM     93  F   UNL A   1      43.761  36.636  30.614  1.00  0.00    -0.205 F 
ATOM     94  C   UNL A   1      42.627  38.357  27.617  1.00  0.00     0.022 A 
BRANCH  92  95
ATOM     95  S   UNL A   1      43.902  39.517  29.762  1.00  0.00     0.127 S 
ATOM     96  O   UNL A   1      43.124  39.519  30.997  1.00  0.00    -0.237 OA
ATOM     97  O   UNL A   1      45.300  39.112  29.925  1.00  0.00    -0.237 OA
ATOM     98  O   UNL A   1      43.716  40.661  28.879  1.00  0.00    -0.744 OA
ENDBRANCH  92  95
ENDBRANCH  65  88
ENDBRANCH  39  40
ENDBRANCH  31  34
ENDBRANCH  29  30
ENDBRANCH  28  29
ENDBRANCH   1  28
TORSDOF 17
ENDMDL
MODEL 2
REMARK VINA RESULT:     -12.9      2.395      4.363
REMARK SMILES Cc1cc([N+](=O)[O-])ccc1NC(=O)[C@@H]1[C@@H](C(=O)NCCCCNC(=O)c2ccc(-c3c4nc(c(-c5cccc(S(=O)(=O)[O-])c5F)c5ccc([nH]5)c(-c5cccc(S(=O)(=O)[O-])c5F)c5nc(c(-c6cccc(S(=O)(=O)[O-])c6F)c6ccc3[nH]6)C=C5)C=C4)cc2)[C@H]2C=C[C@@H]1C2
REMARK SMILES IDX 20 1 19 2 18 3 16 4 17 5 15 7 14 8 92 9 89 10 91 11 93 12
REMARK SMILES IDX 90 13 12 14 11 15 13 17 10 18 1 19 2 20 3 21 4 22 9 23 8 24
REMARK SMILES IDX 5 25 6 26 7 27 21 28 22 29 23 30 24 31 25 33 26 34 27 35
REMARK SMILES IDX 88 36 28 37 87 38 29 39 30 40 31 41 81 42 32 43 86 44 80 45
REMARK SMILES IDX 82 46 33 47 85 48 79 49 78 50 34 52 66 53 46 54 65 55 47 56
REMARK SMILES IDX 50 57 64 58 83 59 48 60 49 61 63 63 84 64 51 65 35 66 36 67
REMARK SMILES IDX 44 68 37 69 39 70 45 71 38 72 40 73 41 74 42 75 43 76 67 77
REMARK SMILES IDX 68 78 76 79 69 80 71 81 77 82 70 83 72 84 73 85 74 86 75 87
REMARK SMILES IDX 52 88 53 89 61 90 54 91 56 92 62 93 55 94 57 95 58 96 59 97
REMARK SMILES IDX 60 98
REMARK H PARENT 18 6 11 16 23 32 82 51 50 62
REMARK Flexibility Score: inf
ROOT
ATOM      1  C   UNL A   1      36.654  20.392  25.145  1.00  0.00     0.023 C 
ENDROOT
BRANCH   1   2
ATOM      2  C   UNL A   1      35.276  21.009  24.901  1.00  0.00     0.116 C 
BRANCH   2   3
ATOM      3  N   UNL A   1      35.114  22.312  25.517  1.00  0.00    -0.356 N 
ATOM      4  C   UNL A   1      34.292  23.349  25.205  1.00  0.00     0.224 C 
ATOM      5  O   UNL A   1      34.425  24.385  25.862  1.00  0.00    -0.275 OA
ATOM      6  H   UNL A   1      35.700  22.473  26.292  1.00  0.00     0.163 HD
BRANCH   4   7
ATOM      7  C   UNL A   1      33.323  23.256  24.031  1.00  0.00     0.098 C 
ATOM      8  C   UNL A   1      32.671  24.663  23.711  1.00  0.00     0.099 C 
ATOM      9  C   UNL A   1      31.158  24.319  23.646  1.00  0.00     0.025 C 
ATOM     10  C   UNL A   1      32.063  22.381  24.273  1.00  0.00     0.025 C 
ATOM     11  C   UNL A   1      30.710  24.063  25.065  1.00  0.00    -0.027 C 
ATOM     12  C   UNL A   1      31.168  22.880  23.137  1.00  0.00     0.017 C 
ATOM     13  C   UNL A   1      31.271  22.906  25.448  1.00  0.00    -0.027 C 
BRANCH   8  14
ATOM     14  C   UNL A   1      33.159  25.333  22.440  1.00  0.00     0.228 C 
ATOM     15  N   UNL A   1      33.227  26.699  22.320  1.00  0.00    -0.326 N 
ATOM     16  H   UNL A   1      33.565  26.995  21.443  1.00  0.00     0.169 HD
ATOM     17  O   UNL A   1      33.474  24.672  21.445  1.00  0.00    -0.274 OA
BRANCH  15  18
ATOM     18  C   UNL A   1      32.917  27.773  23.186  1.00  0.00     0.044 A 
ATOM     19  C   UNL A   1      30.448  27.746  22.408  1.00  0.00     0.047 C 
ATOM     20  C   UNL A   1      31.576  28.211  23.293  1.00  0.00    -0.021 A 
ATOM     21  C   UNL A   1      31.233  29.157  24.285  1.00  0.00     0.091 A 
ATOM     22  C   UNL A   1      32.206  29.677  25.144  1.00  0.00     0.269 A 
ATOM     23  C   UNL A   1      33.884  28.409  23.979  1.00  0.00     0.033 A 
ATOM     24  C   UNL A   1      33.540  29.331  24.972  1.00  0.00     0.088 A 
BRANCH  22  25
ATOM     25  N   UNL A   1      31.822  30.589  26.226  1.00  0.00     0.062 N 
ATOM     26  O   UNL A   1      31.151  31.587  25.925  1.00  0.00    -0.258 OA
ATOM     27  O   UNL A   1      32.176  30.301  27.377  1.00  0.00    -0.258 OA
ENDBRANCH  22  25
ENDBRANCH  15  18
ENDBRANCH   8  14
ENDBRANCH   4   7
ENDBRANCH   2   3
ENDBRANCH   1   2
BRANCH   1  28
ATOM     28  C   UNL A   1      37.853  21.249  24.746  1.00  0.00     0.023 C 
BRANCH  28  29
ATOM     29  C   UNL A   1      38.227  22.330  25.746  1.00  0.00     0.116 C 
BRANCH  29  30
ATOM     30  N   UNL A   1      39.578  22.219  26.259  1.00  0.00    -0.352 N 
ATOM     31  C   UNL A   1      40.469  23.206  26.638  1.00  0.00     0.251 C 
ATOM     32  H   UNL A   1      39.913  21.298  26.352  1.00  0.00     0.163 HD
ATOM     33  O   UNL A   1      41.638  22.874  26.821  1.00  0.00    -0.269 OA
BRANCH  31  34
ATOM     34  C   UNL A   1      40.012  24.590  26.952  1.00  0.00     0.039 A 
ATOM     35  C   UNL A   1      40.647  25.654  26.289  1.00  0.00     0.014 A 
ATOM     36  C   UNL A   1      39.141  24.870  27.999  1.00  0.00     0.014 A 
ATOM     37  C   UNL A   1      40.626  26.935  26.840  1.00  0.00     0.010 A 
ATOM     38  C   UNL A   1      39.171  26.113  28.591  1.00  0.00     0.010 A 
ATOM     39  C   UNL A   1      39.986  27.113  28.058  1.00  0.00    -0.014 A 
BRANCH  39  40
ATOM     40  C   UNL A   1      40.183  28.246  28.947  1.00  0.00     0.031 A 
ATOM     41  C   UNL A   1      39.326  29.436  28.861  1.00  0.00     0.074 A 
ATOM     42  C   UNL A   1      40.969  28.026  30.024  1.00  0.00     0.049 A 
ATOM     43  N   UNL A   1      39.571  30.554  29.452  1.00  0.00    -0.248 NA
ATOM     44  C   UNL A   1      38.109  29.446  28.065  1.00  0.00     0.031 C 
ATOM     45  C   UNL A   1      40.974  28.742  31.291  1.00  0.00     0.029 A 
ATOM     46  N   UNL A   1      42.078  27.178  30.103  1.00  0.00    -0.354 N 
ATOM     47  C   UNL A   1      38.417  31.310  29.382  1.00  0.00     0.074 A 
ATOM     48  C   UNL A   1      37.590  30.625  28.416  1.00  0.00     0.031 C 
ATOM     49  C   UNL A   1      42.150  28.519  31.901  1.00  0.00     0.029 A 
ATOM     50  C   UNL A   1      42.997  27.825  30.944  1.00  0.00     0.049 A 
ATOM     51  H   UNL A   1      42.191  26.306  29.660  1.00  0.00     0.167 HD
ATOM     52  C   UNL A   1      38.235  32.318  30.285  1.00  0.00     0.034 A 
ATOM     53  C   UNL A   1      44.225  28.247  30.519  1.00  0.00     0.034 A 
ATOM     54  C   UNL A   1      39.435  32.487  31.125  1.00  0.00     0.049 A 
ATOM     55  C   UNL A   1      44.422  29.745  30.679  1.00  0.00     0.074 A 
ATOM     56  C   UNL A   1      39.751  32.059  32.405  1.00  0.00     0.029 A 
ATOM     57  N   UNL A   1      40.626  32.924  30.555  1.00  0.00    -0.354 N 
ATOM     58  N   UNL A   1      43.477  30.574  31.025  1.00  0.00    -0.248 NA
ATOM     59  C   UNL A   1      45.686  30.431  30.424  1.00  0.00     0.031 C 
ATOM     60  C   UNL A   1      41.161  32.138  32.560  1.00  0.00     0.029 A 
ATOM     61  C   UNL A   1      41.700  32.646  31.390  1.00  0.00     0.049 A 
ATOM     62  H   UNL A   1      40.698  33.371  29.681  1.00  0.00     0.167 HD
ATOM     63  C   UNL A   1      43.917  31.863  30.892  1.00  0.00     0.074 A 
ATOM     64  C   UNL A   1      45.333  31.718  30.602  1.00  0.00     0.031 C 
ATOM     65  C   UNL A   1      43.066  32.933  30.958  1.00  0.00     0.034 A 
BRANCH  52  66
ATOM     66  C   UNL A   1      36.884  32.927  30.662  1.00  0.00     0.023 A 
ATOM     67  C   UNL A   1      36.384  32.638  31.953  1.00  0.00     0.012 A 
ATOM     68  C   UNL A   1      36.024  33.688  29.837  1.00  0.00     0.148 A 
ATOM     69  C   UNL A   1      35.085  32.972  32.357  1.00  0.00     0.002 A 
ATOM     70  C   UNL A   1      34.704  33.969  30.211  1.00  0.00     0.091 A 
ATOM     71  F   UNL A   1      36.489  34.240  28.716  1.00  0.00    -0.205 F 
ATOM     72  C   UNL A   1      34.229  33.604  31.471  1.00  0.00     0.022 A 
BRANCH  70  73
ATOM     73  S   UNL A   1      33.523  34.741  29.087  1.00  0.00     0.127 S 
ATOM     74  O   UNL A   1      32.420  35.086  29.987  1.00  0.00    -0.237 OA
ATOM     75  O   UNL A   1      34.275  35.886  28.581  1.00  0.00    -0.237 OA
ATOM     76  O   UNL A   1      33.185  33.725  28.097  1.00  0.00    -0.744 OA
ENDBRANCH  70  73
ENDBRANCH  52  66
BRANCH  53  77
ATOM     77  C   UNL A   1      44.785  27.422  29.406  1.00  0.00     0.023 A 
ATOM     78  C   UNL A   1      45.098  26.073  29.703  1.00  0.00     0.012 A 
ATOM     79  C   UNL A   1      44.619  27.795  28.060  1.00  0.00     0.148 A 
ATOM     80  C   UNL A   1      45.095  25.098  28.704  1.00  0.00     0.002 A 
ATOM     81  C   UNL A   1      44.624  26.815  27.067  1.00  0.00     0.091 A 
ATOM     82  F   UNL A   1      44.375  29.081  27.775  1.00  0.00    -0.205 F 
ATOM     83  C   UNL A   1      44.818  25.464  27.392  1.00  0.00     0.022 A 
BRANCH  81  84
ATOM     84  S   UNL A   1      44.250  27.224  25.356  1.00  0.00     0.127 S 
ATOM     85  O   UNL A   1      43.809  25.934  24.836  1.00  0.00    -0.237 OA
ATOM     86  O   UNL A   1      43.193  28.227  25.488  1.00  0.00    -0.237 OA
ATOM     87  O   UNL A   1      45.499  27.748  24.822  1.00  0.00    -0.744 OA
ENDBRANCH  81  84
ENDBRANCH  53  77
BRANCH  65  88
ATOM     88  C   UNL A   1      43.441  34.354  30.597  1.00  0.00     0.023 A 
ATOM     89  C   UNL A   1      43.925  35.267  31.554  1.00  0.00     0.012 A 
ATOM     90  C   UNL A   1      43.465  34.773  29.242  1.00  0.00     0.148 A 
ATOM     91  C   UNL A   1      44.344  36.554  31.201  1.00  0.00     0.002 A 
ATOM     92  C   UNL A   1      43.982  36.017  28.885  1.00  0.00     0.091 A 
ATOM     93  F   UNL A   1      42.966  33.971  28.289  1.00  0.00    -0.205 F 
ATOM     94  C   UNL A   1      44.393  36.922  29.865  1.00  0.00     0.022 A 
BRANCH  92  95
ATOM     95  S   UNL A   1      44.276  36.432  27.160  1.00  0.00     0.127 S 
ATOM     96  O   UNL A   1      44.926  37.736  27.265  1.00  0.00    -0.237 OA
ATOM     97  O   UNL A   1      45.155  35.348  26.716  1.00  0.00    -0.237 OA
ATOM     98  O   UNL A   1      42.957  36.417  26.540  1.00  0.00    -0.744 OA
ENDBRANCH  92  95
ENDBRANCH  65  88
ENDBRANCH  39  40
ENDBRANCH  31  34
ENDBRANCH  29  30
ENDBRANCH  28  29
ENDBRANCH   1  28
TORSDOF 17
ENDMDL
MODEL 3
REMARK VINA RESULT:     -12.7      2.090      2.741
REMARK SMILES Cc1cc([N+](=O)[O-])ccc1NC(=O)[C@@H]1[C@@H](C(=O)NCCCCNC(=O)c2ccc(-c3c4nc(c(-c5cccc(S(=O)(=O)[O-])c5F)c5ccc([nH]5)c(-c5cccc(S(=O)(=O)[O-])c5F)c5nc(c(-c6cccc(S(=O)(=O)[O-])c6F)c6ccc3[nH]6)C=C5)C=C4)cc2)[C@H]2C=C[C@@H]1C2
REMARK SMILES IDX 20 1 19 2 18 3 16 4 17 5 15 7 14 8 92 9 89 10 91 11 93 12
REMARK SMILES IDX 90 13 12 14 11 15 13 17 10 18 1 19 2 20 3 21 4 22 9 23 8 24
REMARK SMILES IDX 5 25 6 26 7 27 21 28 22 29 23 30 24 31 25 33 26 34 27 35
REMARK SMILES IDX 88 36 28 37 87 38 29 39 30 40 31 41 81 42 32 43 86 44 80 45
REMARK SMILES IDX 82 46 33 47 85 48 79 49 78 50 34 52 66 53 46 54 65 55 47 56
REMARK SMILES IDX 50 57 64 58 83 59 48 60 49 61 63 63 84 64 51 65 35 66 36 67
REMARK SMILES IDX 44 68 37 69 39 70 45 71 38 72 40 73 41 74 42 75 43 76 67 77
REMARK SMILES IDX 68 78 76 79 69 80 71 81 77 82 70 83 72 84 73 85 74 86 75 87
REMARK SMILES IDX 52 88 53 89 61 90 54 91 56 92 62 93 55 94 57 95 58 96 59 97
REMARK SMILES IDX 60 98
REMARK H PARENT 18 6 11 16 23 32 82 51 50 62
REMARK Flexibility Score: inf
ROOT
ATOM      1  C   UNL A   1      36.405  23.947  25.681  1.00  0.00     0.023 C 
ENDROOT
BRANCH   1   2
ATOM      2  C   UNL A   1      34.935  23.862  25.268  1.00  0.00     0.116 C 
BRANCH   2   3
ATOM      3  N   UNL A   1      34.625  24.650  24.090  1.00  0.00    -0.356 N 
ATOM      4  C   UNL A   1      33.605  25.514  23.839  1.00  0.00     0.224 C 
ATOM      5  O   UNL A   1      33.545  25.991  22.703  1.00  0.00    -0.275 OA
ATOM      6  H   UNL A   1      35.260  24.540  23.346  1.00  0.00     0.163 HD
BRANCH   4   7
ATOM      7  C   UNL A   1      32.537  25.793  24.891  1.00  0.00     0.098 C 
ATOM      8  C   UNL A   1      31.392  26.723  24.315  1.00  0.00     0.099 C 
ATOM      9  C   UNL A   1      31.279  27.823  25.404  1.00  0.00     0.025 C 
ATOM     10  C   UNL A   1      33.010  26.616  26.121  1.00  0.00     0.025 C 
ATOM     11  C   UNL A   1      32.508  28.692  25.271  1.00  0.00    -0.027 C 
ATOM     12  C   UNL A   1      31.659  27.069  26.675  1.00  0.00     0.017 C 
ATOM     13  C   UNL A   1      33.551  27.958  25.685  1.00  0.00    -0.027 C 
BRANCH   8  14
ATOM     14  C   UNL A   1      30.064  26.036  24.058  1.00  0.00     0.228 C 
ATOM     15  N   UNL A   1      29.954  24.669  23.989  1.00  0.00    -0.326 N 
ATOM     16  H   UNL A   1      29.033  24.361  23.822  1.00  0.00     0.169 HD
ATOM     17  O   UNL A   1      29.032  26.686  23.859  1.00  0.00    -0.274 OA
BRANCH  15  18
ATOM     18  C   UNL A   1      30.881  23.608  24.108  1.00  0.00     0.044 A 
ATOM     19  C   UNL A   1      30.475  23.482  26.662  1.00  0.00     0.047 C 
ATOM     20  C   UNL A   1      31.061  22.985  25.365  1.00  0.00    -0.021 A 
ATOM     21  C   UNL A   1      31.847  21.813  25.451  1.00  0.00     0.091 A 
ATOM     22  C   UNL A   1      32.462  21.279  24.315  1.00  0.00     0.269 A 
ATOM     23  C   UNL A   1      31.613  23.117  23.017  1.00  0.00     0.033 A 
ATOM     24  C   UNL A   1      32.376  21.948  23.100  1.00  0.00     0.088 A 
BRANCH  22  25
ATOM     25  N   UNL A   1      33.199  20.015  24.401  1.00  0.00     0.062 N 
ATOM     26  O   UNL A   1      34.378  20.063  24.782  1.00  0.00    -0.258 OA
ATOM     27  O   UNL A   1      32.597  18.974  24.103  1.00  0.00    -0.258 OA
ENDBRANCH  22  25
ENDBRANCH  15  18
ENDBRANCH   8  14
ENDBRANCH   4   7
ENDBRANCH   2   3
ENDBRANCH   1   2
BRANCH   1  28
ATOM     28  C   UNL A   1      37.074  22.626  26.054  1.00  0.00     0.023 C 
BRANCH  28  29
ATOM     29  C   UNL A   1      38.422  22.384  25.397  1.00  0.00     0.116 C 
BRANCH  29  30
ATOM     30  N   UNL A   1      39.492  22.093  26.330  1.00  0.00    -0.352 N 
ATOM     31  C   UNL A   1      40.320  22.951  27.029  1.00  0.00     0.251 C 
ATOM     32  H   UNL A   1      39.653  21.135  26.491  1.00  0.00     0.163 HD
ATOM     33  O   UNL A   1      41.305  22.464  27.581  1.00  0.00    -0.269 OA
BRANCH  31  34
ATOM     34  C   UNL A   1      39.966  24.385  27.229  1.00  0.00     0.039 A 
ATOM     35  C   UNL A   1      40.751  25.350  26.576  1.00  0.00     0.014 A 
ATOM     36  C   UNL A   1      39.035  24.800  28.176  1.00  0.00     0.014 A 
ATOM     37  C   UNL A   1      40.799  26.657  27.059  1.00  0.00     0.010 A 
ATOM     38  C   UNL A   1      39.127  26.068  28.705  1.00  0.00     0.010 A 
ATOM     39  C   UNL A   1      40.073  26.961  28.202  1.00  0.00    -0.014 A 
BRANCH  39  40
ATOM     40  C   UNL A   1      40.294  28.122  29.047  1.00  0.00     0.031 A 
ATOM     41  C   UNL A   1      39.447  29.317  28.932  1.00  0.00     0.074 A 
ATOM     42  C   UNL A   1      41.094  27.933  30.119  1.00  0.00     0.049 A 
ATOM     43  N   UNL A   1      39.711  30.452  29.480  1.00  0.00    -0.248 NA
ATOM     44  C   UNL A   1      38.218  29.311  28.155  1.00  0.00     0.031 C 
ATOM     45  C   UNL A   1      41.125  28.692  31.360  1.00  0.00     0.029 A 
ATOM     46  N   UNL A   1      42.196  27.077  30.211  1.00  0.00    -0.354 N 
ATOM     47  C   UNL A   1      38.563  31.216  29.400  1.00  0.00     0.074 A 
ATOM     48  C   UNL A   1      37.715  30.507  28.472  1.00  0.00     0.031 C 
ATOM     49  C   UNL A   1      42.308  28.479  31.960  1.00  0.00     0.029 A 
ATOM     50  C   UNL A   1      43.134  27.743  31.016  1.00  0.00     0.049 A 
ATOM     51  H   UNL A   1      42.295  26.189  29.798  1.00  0.00     0.167 HD
ATOM     52  C   UNL A   1      38.404  32.257  30.270  1.00  0.00     0.034 A 
ATOM     53  C   UNL A   1      44.360  28.139  30.557  1.00  0.00     0.034 A 
ATOM     54  C   UNL A   1      39.618  32.443  31.086  1.00  0.00     0.049 A 
ATOM     55  C   UNL A   1      44.572  29.640  30.662  1.00  0.00     0.074 A 
ATOM     56  C   UNL A   1      39.950  32.058  32.376  1.00  0.00     0.029 A 
ATOM     57  N   UNL A   1      40.805  32.849  30.484  1.00  0.00    -0.354 N 
ATOM     58  N   UNL A   1      43.640  30.489  30.993  1.00  0.00    -0.248 NA
ATOM     59  C   UNL A   1      45.839  30.304  30.364  1.00  0.00     0.031 C 
ATOM     60  C   UNL A   1      41.362  32.128  32.506  1.00  0.00     0.029 A 
ATOM     61  C   UNL A   1      41.889  32.590  31.311  1.00  0.00     0.049 A 
ATOM     62  H   UNL A   1      40.867  33.265  29.593  1.00  0.00     0.167 HD
ATOM     63  C   UNL A   1      44.090  31.769  30.808  1.00  0.00     0.074 A 
ATOM     64  C   UNL A   1      45.500  31.599  30.502  1.00  0.00     0.031 C 
ATOM     65  C   UNL A   1      43.250  32.848  30.850  1.00  0.00     0.034 A 
BRANCH  52  66
ATOM     66  C   UNL A   1      37.065  32.891  30.645  1.00  0.00     0.023 A 
ATOM     67  C   UNL A   1      36.601  32.686  31.966  1.00  0.00     0.012 A 
ATOM     68  C   UNL A   1      36.183  33.602  29.799  1.00  0.00     0.148 A 
ATOM     69  C   UNL A   1      35.314  33.048  32.384  1.00  0.00     0.002 A 
ATOM     70  C   UNL A   1      34.874  33.910  30.191  1.00  0.00     0.091 A 
ATOM     71  F   UNL A   1      36.617  34.082  28.633  1.00  0.00    -0.205 F 
ATOM     72  C   UNL A   1      34.434  33.625  31.484  1.00  0.00     0.022 A 
BRANCH  70  73
ATOM     73  S   UNL A   1      33.663  34.612  29.054  1.00  0.00     0.127 S 
ATOM     74  O   UNL A   1      32.551  34.939  29.950  1.00  0.00    -0.237 OA
ATOM     75  O   UNL A   1      34.372  35.771  28.519  1.00  0.00    -0.237 OA
ATOM     76  O   UNL A   1      33.358  33.562  28.089  1.00  0.00    -0.744 OA
ENDBRANCH  70  73
ENDBRANCH  52  66
BRANCH  53  77
ATOM     77  C   UNL A   1      44.895  27.270  29.466  1.00  0.00     0.023 A 
ATOM     78  C   UNL A   1      45.136  25.912  29.788  1.00  0.00     0.012 A 
ATOM     79  C   UNL A   1      44.768  27.630  28.112  1.00  0.00     0.148 A 
ATOM     80  C   UNL A   1      45.100  24.923  28.803  1.00  0.00     0.002 A 
ATOM     81  C   UNL A   1      44.740  26.636  27.133  1.00  0.00     0.091 A 
ATOM     82  F   UNL A   1      44.594  28.922  27.804  1.00  0.00    -0.205 F 
ATOM     83  C   UNL A   1      44.862  25.282  27.481  1.00  0.00     0.022 A 
BRANCH  81  84
ATOM     84  S   UNL A   1      44.413  27.037  25.411  1.00  0.00     0.127 S 
ATOM     85  O   UNL A   1      45.705  27.566  24.984  1.00  0.00    -0.237 OA
ATOM     86  O   UNL A   1      44.062  25.738  24.839  1.00  0.00    -0.237 OA
ATOM     87  O   UNL A   1      43.307  27.982  25.457  1.00  0.00    -0.744 OA
ENDBRANCH  81  84
ENDBRANCH  53  77
BRANCH  65  88
ATOM     88  C   UNL A   1      43.633  34.252  30.433  1.00  0.00     0.023 A 
ATOM     89  C   UNL A   1      44.168  35.184  31.344  1.00  0.00     0.012 A 
ATOM     90  C   UNL A   1      43.610  34.633  29.067  1.00  0.00     0.148 A 
ATOM     91  C   UNL A   1      44.593  36.453  30.939  1.00  0.00     0.002 A 
ATOM     92  C   UNL A   1      44.132  35.857  28.655  1.00  0.00     0.091 A 
ATOM     93  F   UNL A   1      43.062  33.813  28.157  1.00  0.00    -0.205 F 
ATOM     94  C   UNL A   1      44.595  36.783  29.591  1.00  0.00     0.022 A 
BRANCH  92  95
ATOM     95  S   UNL A   1      44.364  36.219  26.908  1.00  0.00     0.127 S 
ATOM     96  O   UNL A   1      44.912  37.572  26.946  1.00  0.00    -0.237 OA
ATOM     97  O   UNL A   1      45.319  35.189  26.494  1.00  0.00    -0.237 OA
ATOM     98  O   UNL A   1      43.041  36.074  26.315  1.00  0.00    -0.744 OA
ENDBRANCH  92  95
ENDBRANCH  65  88
ENDBRANCH  39  40
ENDBRANCH  31  34
ENDBRANCH  29  30
ENDBRANCH  28  29
ENDBRANCH   1  28
TORSDOF 17
ENDMDL
