MODEL 1
REMARK VINA RESULT:     -12.1      0.000      0.000
REMARK SMILES Cc1ccc([C@H](Nc2ccc(Cl)c(Br)c2)C(=O)NCCCCNC(=O)c2ccc(-c3c4nc(c(-c5cccc(S(=O)(=O)[O-])c5F)c5ccc([nH]5)c(-c5cccc(S(=O)(=O)[O-])c5F)c5nc(c(-c6cccc(S(=O)(=O)[O-])c6F)c6ccc3[nH]6)C=C5)C=C4)cc2)s1
REMARK SMILES IDX 21 1 20 2 19 3 18 4 16 5 17 6 6 8 5 9 1 10 2 11 3 12 89 13
REMARK SMILES IDX 4 14 7 15 8 17 9 18 15 19 10 20 13 21 11 22 14 23 12 24
REMARK SMILES IDX 22 25 23 26 24 27 25 29 26 30 27 31 88 32 28 33 87 34 29 35
REMARK SMILES IDX 30 36 31 37 81 38 32 39 86 40 80 41 82 42 33 43 85 44 79 45
REMARK SMILES IDX 78 46 34 48 66 49 46 50 65 51 47 52 50 53 64 54 83 55 48 56
REMARK SMILES IDX 49 57 63 59 84 60 51 61 35 62 36 63 44 64 37 65 39 66 45 67
REMARK SMILES IDX 38 68 40 69 41 70 42 71 43 72 67 73 68 74 76 75 69 76 71 77
REMARK SMILES IDX 77 78 70 79 72 80 73 81 74 82 75 83 52 84 53 85 61 86 54 87
REMARK SMILES IDX 56 88 62 89 55 90 57 91 58 92 59 93 60 94
REMARK H PARENT 18 7 7 16 23 28 82 47 50 58
REMARK Flexibility Score: inf
ROOT
ATOM      1  C   UNL A   1      36.818  20.899  24.632  1.00  0.00     0.023 C 
ENDROOT
BRANCH   1   2
ATOM      2  C   UNL A   1      35.660  21.122  25.600  1.00  0.00     0.023 C 
BRANCH   2   3
ATOM      3  C   UNL A   1      35.708  22.437  26.371  1.00  0.00     0.116 C 
BRANCH   3   4
ATOM      4  N   UNL A   1      34.732  22.492  27.443  1.00  0.00    -0.354 N 
ATOM      5  C   UNL A   1      33.374  22.619  27.353  1.00  0.00     0.247 C 
ATOM      6  O   UNL A   1      32.721  22.528  28.400  1.00  0.00    -0.272 OA
ATOM      7  H   UNL A   1      35.096  22.430  28.356  1.00  0.00     0.163 HD
BRANCH   5   8
ATOM      8  C   UNL A   1      32.671  22.836  25.987  1.00  0.00     0.210 C 
BRANCH   8   9
ATOM      9  C   UNL A   1      31.945  24.186  26.047  1.00  0.00     0.037 A 
ATOM     10  C   UNL A   1      31.494  28.097  25.937  1.00  0.00     0.056 C 
ATOM     11  C   UNL A   1      31.410  26.610  26.000  1.00  0.00     0.002 A 
ATOM     12  C   UNL A   1      30.277  25.830  26.039  1.00  0.00     0.015 A 
ATOM     13  S   UNL A   1      32.832  25.661  26.053  1.00  0.00    -0.143 S 
ATOM     14  C   UNL A   1      30.583  24.442  26.098  1.00  0.00     0.018 A 
ENDBRANCH   8   9
BRANCH   8  15
ATOM     15  N   UNL A   1      31.813  21.700  25.586  1.00  0.00    -0.369 N 
ATOM     16  H   UNL A   1      30.882  21.738  25.905  1.00  0.00     0.161 HD
BRANCH  15  17
ATOM     17  C   UNL A   1      32.136  20.593  24.828  1.00  0.00     0.036 A 
ATOM     18  C   UNL A   1      32.269  20.588  23.437  1.00  0.00     0.027 A 
ATOM     19  C   UNL A   1      32.409  19.387  25.496  1.00  0.00     0.043 A 
ATOM     20  C   UNL A   1      32.693  19.445  22.742  1.00  0.00     0.024 A 
ATOM     21  C   UNL A   1      32.803  18.227  24.808  1.00  0.00     0.038 A 
ATOM     22  C   UNL A   1      32.959  18.261  23.423  1.00  0.00     0.055 A 
ATOM     23  Br  UNL A   1      33.097  16.656  25.835  1.00  0.00    -0.049 Br
ATOM     24  Cl  UNL A   1      33.468  16.895  22.499  1.00  0.00    -0.083 Cl
ENDBRANCH  15  17
ENDBRANCH   8  15
ENDBRANCH   5   8
ENDBRANCH   3   4
ENDBRANCH   2   3
ENDBRANCH   1   2
BRANCH   1  25
ATOM     25  C   UNL A   1      38.165  21.450  25.082  1.00  0.00     0.116 C 
BRANCH  25  26
ATOM     26  N   UNL A   1      39.077  20.431  25.580  1.00  0.00    -0.352 N 
ATOM     27  C   UNL A   1      40.103  20.587  26.487  1.00  0.00     0.251 C 
ATOM     28  H   UNL A   1      38.947  19.521  25.226  1.00  0.00     0.163 HD
ATOM     29  O   UNL A   1      40.837  19.649  26.776  1.00  0.00    -0.269 OA
BRANCH  27  30
ATOM     30  C   UNL A   1      40.322  21.931  27.056  1.00  0.00     0.039 A 
ATOM     31  C   UNL A   1      39.670  23.035  26.498  1.00  0.00     0.014 A 
ATOM     32  C   UNL A   1      41.295  22.097  28.042  1.00  0.00     0.014 A 
ATOM     33  C   UNL A   1      40.123  24.313  26.801  1.00  0.00     0.010 A 
ATOM     34  C   UNL A   1      41.694  23.387  28.399  1.00  0.00     0.010 A 
ATOM     35  C   UNL A   1      41.155  24.501  27.736  1.00  0.00    -0.014 A 
BRANCH  35  36
ATOM     36  C   UNL A   1      41.670  25.869  27.996  1.00  0.00     0.031 A 
ATOM     37  C   UNL A   1      43.026  26.295  27.500  1.00  0.00     0.074 A 
ATOM     38  C   UNL A   1      40.893  26.744  28.662  1.00  0.00     0.049 A 
ATOM     39  N   UNL A   1      43.629  27.446  27.650  1.00  0.00    -0.248 NA
ATOM     40  C   UNL A   1      43.812  25.305  26.743  1.00  0.00     0.031 C 
ATOM     41  C   UNL A   1      39.568  26.445  29.206  1.00  0.00     0.029 A 
ATOM     42  N   UNL A   1      41.100  28.060  28.988  1.00  0.00    -0.354 N 
ATOM     43  C   UNL A   1      44.880  27.304  27.063  1.00  0.00     0.074 A 
ATOM     44  C   UNL A   1      44.949  25.957  26.538  1.00  0.00     0.031 C 
ATOM     45  C   UNL A   1      39.065  27.553  29.769  1.00  0.00     0.029 A 
ATOM     46  C   UNL A   1      40.050  28.625  29.670  1.00  0.00     0.049 A 
ATOM     47  H   UNL A   1      41.920  28.551  28.756  1.00  0.00     0.167 HD
ATOM     48  C   UNL A   1      45.874  28.216  26.957  1.00  0.00     0.034 A 
ATOM     49  C   UNL A   1      39.896  29.865  30.173  1.00  0.00     0.034 A 
ATOM     50  C   UNL A   1      45.779  29.577  27.411  1.00  0.00     0.049 A 
ATOM     51  C   UNL A   1      40.993  30.871  30.000  1.00  0.00     0.074 A 
ATOM     52  C   UNL A   1      46.715  30.590  27.287  1.00  0.00     0.029 A 
ATOM     53  N   UNL A   1      44.686  30.119  28.066  1.00  0.00    -0.354 N 
ATOM     54  N   UNL A   1      42.136  30.737  29.374  1.00  0.00    -0.248 NA
ATOM     55  C   UNL A   1      40.778  32.200  30.588  1.00  0.00     0.031 C 
ATOM     56  C   UNL A   1      46.185  31.747  27.867  1.00  0.00     0.029 A 
ATOM     57  C   UNL A   1      44.921  31.453  28.352  1.00  0.00     0.049 A 
ATOM     58  H   UNL A   1      43.863  29.629  28.294  1.00  0.00     0.167 HD
ATOM     59  C   UNL A   1      42.777  31.963  29.487  1.00  0.00     0.074 A 
ATOM     60  C   UNL A   1      41.883  32.837  30.220  1.00  0.00     0.031 C 
ATOM     61  C   UNL A   1      44.005  32.322  29.043  1.00  0.00     0.034 A 
BRANCH  48  62
ATOM     62  C   UNL A   1      47.149  27.799  26.277  1.00  0.00     0.023 A 
ATOM     63  C   UNL A   1      48.150  27.153  27.028  1.00  0.00     0.012 A 
ATOM     64  C   UNL A   1      47.313  27.955  24.887  1.00  0.00     0.148 A 
ATOM     65  C   UNL A   1      49.302  26.673  26.405  1.00  0.00     0.002 A 
ATOM     66  C   UNL A   1      48.452  27.453  24.269  1.00  0.00     0.091 A 
ATOM     67  F   UNL A   1      46.354  28.592  24.199  1.00  0.00    -0.205 F 
ATOM     68  C   UNL A   1      49.448  26.813  25.026  1.00  0.00     0.022 A 
BRANCH  66  69
ATOM     69  S   UNL A   1      48.709  27.535  22.493  1.00  0.00     0.127 S 
ATOM     70  O   UNL A   1      50.009  28.198  22.414  1.00  0.00    -0.237 OA
ATOM     71  O   UNL A   1      48.722  26.121  22.117  1.00  0.00    -0.237 OA
ATOM     72  O   UNL A   1      47.587  28.295  21.960  1.00  0.00    -0.744 OA
ENDBRANCH  66  69
ENDBRANCH  48  62
BRANCH  49  73
ATOM     73  C   UNL A   1      38.613  30.209  30.841  1.00  0.00     0.023 A 
ATOM     74  C   UNL A   1      38.459  29.935  32.212  1.00  0.00     0.012 A 
ATOM     75  C   UNL A   1      37.606  30.915  30.155  1.00  0.00     0.148 A 
ATOM     76  C   UNL A   1      37.321  30.365  32.895  1.00  0.00     0.002 A 
ATOM     77  C   UNL A   1      36.499  31.382  30.852  1.00  0.00     0.091 A 
ATOM     78  F   UNL A   1      37.781  31.158  28.849  1.00  0.00    -0.205 F 
ATOM     79  C   UNL A   1      36.350  31.101  32.219  1.00  0.00     0.022 A 
BRANCH  77  80
ATOM     80  S   UNL A   1      35.266  32.452  30.102  1.00  0.00     0.127 S 
ATOM     81  O   UNL A   1      34.330  32.648  31.207  1.00  0.00    -0.237 OA
ATOM     82  O   UNL A   1      36.065  33.628  29.754  1.00  0.00    -0.237 OA
ATOM     83  O   UNL A   1      34.742  31.717  28.960  1.00  0.00    -0.744 OA
ENDBRANCH  77  80
ENDBRANCH  49  73
BRANCH  61  84
ATOM     84  C   UNL A   1      44.474  33.719  29.336  1.00  0.00     0.023 A 
ATOM     85  C   UNL A   1      45.123  33.980  30.558  1.00  0.00     0.012 A 
ATOM     86  C   UNL A   1      44.368  34.738  28.372  1.00  0.00     0.148 A 
ATOM     87  C   UNL A   1      45.655  35.241  30.819  1.00  0.00     0.002 A 
ATOM     88  C   UNL A   1      44.925  35.985  28.627  1.00  0.00     0.091 A 
ATOM     89  F   UNL A   1      43.728  34.468  27.224  1.00  0.00    -0.205 F 
ATOM     90  C   UNL A   1      45.566  36.239  29.851  1.00  0.00     0.022 A 
BRANCH  88  91
ATOM     91  S   UNL A   1      44.920  37.307  27.410  1.00  0.00     0.127 S 
ATOM     92  O   UNL A   1      45.848  36.791  26.406  1.00  0.00    -0.237 OA
ATOM     93  O   UNL A   1      43.519  37.337  26.988  1.00  0.00    -0.237 OA
ATOM     94  O   UNL A   1      45.361  38.501  28.117  1.00  0.00    -0.744 OA
ENDBRANCH  88  91
ENDBRANCH  61  84
ENDBRANCH  35  36
ENDBRANCH  27  30
ENDBRANCH  25  26
ENDBRANCH   1  25
TORSDOF 17
ENDMDL
MODEL 2
REMARK VINA RESULT:     -12.1      6.280     11.267
REMARK SMILES Cc1ccc([C@H](Nc2ccc(Cl)c(Br)c2)C(=O)NCCCCNC(=O)c2ccc(-c3c4nc(c(-c5cccc(S(=O)(=O)[O-])c5F)c5ccc([nH]5)c(-c5cccc(S(=O)(=O)[O-])c5F)c5nc(c(-c6cccc(S(=O)(=O)[O-])c6F)c6ccc3[nH]6)C=C5)C=C4)cc2)s1
REMARK SMILES IDX 21 1 20 2 19 3 18 4 16 5 17 6 6 8 5 9 1 10 2 11 3 12 89 13
REMARK SMILES IDX 4 14 7 15 8 17 9 18 15 19 10 20 13 21 11 22 14 23 12 24
REMARK SMILES IDX 22 25 23 26 24 27 25 29 26 30 27 31 88 32 28 33 87 34 29 35
REMARK SMILES IDX 30 36 31 37 81 38 32 39 86 40 80 41 82 42 33 43 85 44 79 45
REMARK SMILES IDX 78 46 34 48 66 49 46 50 65 51 47 52 50 53 64 54 83 55 48 56
REMARK SMILES IDX 49 57 63 59 84 60 51 61 35 62 36 63 44 64 37 65 39 66 45 67
REMARK SMILES IDX 38 68 40 69 41 70 42 71 43 72 67 73 68 74 76 75 69 76 71 77
REMARK SMILES IDX 77 78 70 79 72 80 73 81 74 82 75 83 52 84 53 85 61 86 54 87
REMARK SMILES IDX 56 88 62 89 55 90 57 91 58 92 59 93 60 94
REMARK H PARENT 18 7 7 16 23 28 82 47 50 58
REMARK Flexibility Score: inf
ROOT
ATOM      1  C   UNL A   1      32.399  30.978  26.726  1.00  0.00     0.023 C 
ENDROOT
BRANCH   1   2
ATOM      2  C   UNL A   1      32.501  29.496  27.078  1.00  0.00     0.023 C 
BRANCH   2   3
ATOM      3  C   UNL A   1      33.864  28.864  26.820  1.00  0.00     0.116 C 
BRANCH   3   4
ATOM      4  N   UNL A   1      34.315  29.049  25.453  1.00  0.00    -0.354 N 
ATOM      5  C   UNL A   1      33.939  28.364  24.331  1.00  0.00     0.247 C 
ATOM      6  O   UNL A   1      34.369  28.767  23.244  1.00  0.00    -0.272 OA
ATOM      7  H   UNL A   1      34.981  29.760  25.316  1.00  0.00     0.163 HD
BRANCH   5   8
ATOM      8  C   UNL A   1      32.981  27.145  24.412  1.00  0.00     0.210 C 
BRANCH   8   9
ATOM      9  C   UNL A   1      33.844  25.885  24.553  1.00  0.00     0.037 A 
ATOM     10  C   UNL A   1      35.874  22.704  23.425  1.00  0.00     0.056 C 
ATOM     11  C   UNL A   1      35.193  23.854  24.085  1.00  0.00     0.002 A 
ATOM     12  C   UNL A   1      35.291  24.250  25.400  1.00  0.00     0.015 A 
ATOM     13  S   UNL A   1      34.126  24.857  23.202  1.00  0.00    -0.143 S 
ATOM     14  C   UNL A   1      34.494  25.395  25.676  1.00  0.00     0.018 A 
ENDBRANCH   8   9
BRANCH   8  15
ATOM     15  N   UNL A   1      32.007  27.095  23.300  1.00  0.00    -0.369 N 
ATOM     16  H   UNL A   1      32.389  26.926  22.409  1.00  0.00     0.161 HD
BRANCH  15  17
ATOM     17  C   UNL A   1      30.637  27.254  23.340  1.00  0.00     0.036 A 
ATOM     18  C   UNL A   1      29.741  26.339  23.898  1.00  0.00     0.027 A 
ATOM     19  C   UNL A   1      30.091  28.446  22.833  1.00  0.00     0.043 A 
ATOM     20  C   UNL A   1      28.368  26.611  23.987  1.00  0.00     0.024 A 
ATOM     21  C   UNL A   1      28.714  28.716  22.885  1.00  0.00     0.038 A 
ATOM     22  C   UNL A   1      27.848  27.799  23.479  1.00  0.00     0.055 A 
ATOM     23  Br  UNL A   1      28.111  30.349  22.123  1.00  0.00    -0.049 Br
ATOM     24  Cl  UNL A   1      26.147  28.060  23.616  1.00  0.00    -0.083 Cl
ENDBRANCH  15  17
ENDBRANCH   8  15
ENDBRANCH   5   8
ENDBRANCH   3   4
ENDBRANCH   2   3
ENDBRANCH   1   2
BRANCH   1  25
ATOM     25  C   UNL A   1      33.288  31.907  27.541  1.00  0.00     0.116 C 
BRANCH  25  26
ATOM     26  N   UNL A   1      32.780  33.268  27.638  1.00  0.00    -0.352 N 
ATOM     27  C   UNL A   1      33.215  34.274  28.472  1.00  0.00     0.251 C 
ATOM     28  H   UNL A   1      32.035  33.497  27.035  1.00  0.00     0.163 HD
ATOM     29  O   UNL A   1      32.654  35.364  28.492  1.00  0.00    -0.269 OA
BRANCH  27  30
ATOM     30  C   UNL A   1      34.341  33.979  29.380  1.00  0.00     0.039 A 
ATOM     31  C   UNL A   1      35.638  34.359  29.020  1.00  0.00     0.014 A 
ATOM     32  C   UNL A   1      34.112  33.191  30.507  1.00  0.00     0.014 A 
ATOM     33  C   UNL A   1      36.718  33.798  29.689  1.00  0.00     0.010 A 
ATOM     34  C   UNL A   1      35.202  32.690  31.223  1.00  0.00     0.010 A 
ATOM     35  C   UNL A   1      36.512  32.939  30.783  1.00  0.00    -0.014 A 
BRANCH  35  36
ATOM     36  C   UNL A   1      37.676  32.297  31.442  1.00  0.00     0.031 A 
ATOM     37  C   UNL A   1      38.120  32.720  32.817  1.00  0.00     0.074 A 
ATOM     38  C   UNL A   1      38.322  31.302  30.805  1.00  0.00     0.049 A 
ATOM     39  N   UNL A   1      39.122  32.272  33.529  1.00  0.00    -0.248 NA
ATOM     40  C   UNL A   1      37.348  33.787  33.479  1.00  0.00     0.031 C 
ATOM     41  C   UNL A   1      37.997  30.814  29.464  1.00  0.00     0.029 A 
ATOM     42  N   UNL A   1      39.378  30.521  31.198  1.00  0.00    -0.354 N 
ATOM     43  C   UNL A   1      39.139  33.033  34.691  1.00  0.00     0.074 A 
ATOM     44  C   UNL A   1      38.037  33.967  34.599  1.00  0.00     0.031 C 
ATOM     45  C   UNL A   1      38.811  29.795  29.158  1.00  0.00     0.029 A 
ATOM     46  C   UNL A   1      39.749  29.590  30.259  1.00  0.00     0.049 A 
ATOM     47  H   UNL A   1      39.825  30.617  32.069  1.00  0.00     0.167 HD
ATOM     48  C   UNL A   1      39.985  32.952  35.744  1.00  0.00     0.034 A 
ATOM     49  C   UNL A   1      40.739  28.678  30.270  1.00  0.00     0.034 A 
ATOM     50  C   UNL A   1      41.033  31.976  35.870  1.00  0.00     0.049 A 
ATOM     51  C   UNL A   1      41.633  28.577  31.469  1.00  0.00     0.074 A 
ATOM     52  C   UNL A   1      41.898  31.779  36.933  1.00  0.00     0.029 A 
ATOM     53  N   UNL A   1      41.353  31.029  34.911  1.00  0.00    -0.354 N 
ATOM     54  N   UNL A   1      41.582  29.256  32.588  1.00  0.00    -0.248 NA
ATOM     55  C   UNL A   1      42.709  27.578  31.417  1.00  0.00     0.031 C 
ATOM     56  C   UNL A   1      42.742  30.710  36.616  1.00  0.00     0.029 A 
ATOM     57  C   UNL A   1      42.402  30.243  35.357  1.00  0.00     0.049 A 
ATOM     58  H   UNL A   1      40.902  30.929  34.042  1.00  0.00     0.167 HD
ATOM     59  C   UNL A   1      42.614  28.767  33.377  1.00  0.00     0.074 A 
ATOM     60  C   UNL A   1      43.259  27.714  32.617  1.00  0.00     0.031 C 
ATOM     61  C   UNL A   1      43.005  29.171  34.609  1.00  0.00     0.034 A 
BRANCH  48  62
ATOM     62  C   UNL A   1      39.791  33.914  36.884  1.00  0.00     0.023 A 
ATOM     63  C   UNL A   1      40.121  35.271  36.703  1.00  0.00     0.012 A 
ATOM     64  C   UNL A   1      39.196  33.497  38.090  1.00  0.00     0.148 A 
ATOM     65  C   UNL A   1      39.865  36.201  37.710  1.00  0.00     0.002 A 
ATOM     66  C   UNL A   1      38.922  34.433  39.080  1.00  0.00     0.091 A 
ATOM     67  F   UNL A   1      38.912  32.196  38.244  1.00  0.00    -0.205 F 
ATOM     68  C   UNL A   1      39.257  35.784  38.893  1.00  0.00     0.022 A 
BRANCH  66  69
ATOM     69  S   UNL A   1      38.094  34.007  40.617  1.00  0.00     0.127 S 
ATOM     70  O   UNL A   1      36.905  33.311  40.126  1.00  0.00    -0.237 OA
ATOM     71  O   UNL A   1      39.079  33.144  41.270  1.00  0.00    -0.237 OA
ATOM     72  O   UNL A   1      37.843  35.268  41.299  1.00  0.00    -0.744 OA
ENDBRANCH  66  69
ENDBRANCH  48  62
BRANCH  49  73
ATOM     73  C   UNL A   1      40.880  27.764  29.106  1.00  0.00     0.023 A 
ATOM     74  C   UNL A   1      40.020  26.656  28.997  1.00  0.00     0.012 A 
ATOM     75  C   UNL A   1      41.770  28.060  28.056  1.00  0.00     0.148 A 
ATOM     76  C   UNL A   1      40.039  25.857  27.854  1.00  0.00     0.002 A 
ATOM     77  C   UNL A   1      41.750  27.289  26.901  1.00  0.00     0.091 A 
ATOM     78  F   UNL A   1      42.579  29.120  28.191  1.00  0.00    -0.205 F 
ATOM     79  C   UNL A   1      40.893  26.183  26.801  1.00  0.00     0.022 A 
BRANCH  77  80
ATOM     80  S   UNL A   1      42.710  27.709  25.441  1.00  0.00     0.127 S 
ATOM     81  O   UNL A   1      42.571  26.498  24.635  1.00  0.00    -0.237 OA
ATOM     82  O   UNL A   1      41.984  28.875  24.934  1.00  0.00    -0.237 OA
ATOM     83  O   UNL A   1      44.055  27.994  25.918  1.00  0.00    -0.744 OA
ENDBRANCH  77  80
ENDBRANCH  49  73
BRANCH  61  84
ATOM     84  C   UNL A   1      44.191  28.486  35.226  1.00  0.00     0.023 A 
ATOM     85  C   UNL A   1      45.486  28.909  34.871  1.00  0.00     0.012 A 
ATOM     86  C   UNL A   1      44.027  27.508  36.224  1.00  0.00     0.148 A 
ATOM     87  C   UNL A   1      46.604  28.361  35.496  1.00  0.00     0.002 A 
ATOM     88  C   UNL A   1      45.144  26.987  36.864  1.00  0.00     0.091 A 
ATOM     89  F   UNL A   1      42.783  27.110  36.530  1.00  0.00    -0.205 F 
ATOM     90  C   UNL A   1      46.434  27.409  36.499  1.00  0.00     0.022 A 
BRANCH  88  91
ATOM     91  S   UNL A   1      45.015  25.809  38.215  1.00  0.00     0.127 S 
ATOM     92  O   UNL A   1      44.163  26.531  39.158  1.00  0.00    -0.237 OA
ATOM     93  O   UNL A   1      44.375  24.662  37.570  1.00  0.00    -0.237 OA
ATOM     94  O   UNL A   1      46.379  25.564  38.662  1.00  0.00    -0.744 OA
ENDBRANCH  88  91
ENDBRANCH  61  84
ENDBRANCH  35  36
ENDBRANCH  27  30
ENDBRANCH  25  26
ENDBRANCH   1  25
TORSDOF 17
ENDMDL
MODEL 3
REMARK VINA RESULT:     -12.1      5.206     10.257
REMARK SMILES Cc1ccc([C@H](Nc2ccc(Cl)c(Br)c2)C(=O)NCCCCNC(=O)c2ccc(-c3c4nc(c(-c5cccc(S(=O)(=O)[O-])c5F)c5ccc([nH]5)c(-c5cccc(S(=O)(=O)[O-])c5F)c5nc(c(-c6cccc(S(=O)(=O)[O-])c6F)c6ccc3[nH]6)C=C5)C=C4)cc2)s1
REMARK SMILES IDX 21 1 20 2 19 3 18 4 16 5 17 6 6 8 5 9 1 10 2 11 3 12 89 13
REMARK SMILES IDX 4 14 7 15 8 17 9 18 15 19 10 20 13 21 11 22 14 23 12 24
REMARK SMILES IDX 22 25 23 26 24 27 25 29 26 30 27 31 88 32 28 33 87 34 29 35
REMARK SMILES IDX 30 36 31 37 81 38 32 39 86 40 80 41 82 42 33 43 85 44 79 45
REMARK SMILES IDX 78 46 34 48 66 49 46 50 65 51 47 52 50 53 64 54 83 55 48 56
REMARK SMILES IDX 49 57 63 59 84 60 51 61 35 62 36 63 44 64 37 65 39 66 45 67
REMARK SMILES IDX 38 68 40 69 41 70 42 71 43 72 67 73 68 74 76 75 69 76 71 77
REMARK SMILES IDX 77 78 70 79 72 80 73 81 74 82 75 83 52 84 53 85 61 86 54 87
REMARK SMILES IDX 56 88 62 89 55 90 57 91 58 92 59 93 60 94
REMARK H PARENT 18 7 7 16 23 28 82 47 50 58
REMARK Flexibility Score: inf
ROOT
ATOM      1  C   UNL A   1      31.662  29.997  26.764  1.00  0.00     0.023 C 
ENDROOT
BRANCH   1   2
ATOM      2  C   UNL A   1      32.020  28.797  27.636  1.00  0.00     0.023 C 
BRANCH   2   3
ATOM      3  C   UNL A   1      32.424  27.542  26.871  1.00  0.00     0.116 C 
BRANCH   3   4
ATOM      4  N   UNL A   1      31.472  26.459  27.032  1.00  0.00    -0.354 N 
ATOM      5  C   UNL A   1      31.016  25.578  26.090  1.00  0.00     0.247 C 
ATOM      6  O   UNL A   1      30.287  24.656  26.475  1.00  0.00    -0.272 OA
ATOM      7  H   UNL A   1      31.105  26.343  27.938  1.00  0.00     0.163 HD
BRANCH   5   8
ATOM      8  C   UNL A   1      31.423  25.708  24.598  1.00  0.00     0.210 C 
BRANCH   8   9
ATOM      9  C   UNL A   1      30.516  26.768  23.960  1.00  0.00     0.037 A 
ATOM     10  C   UNL A   1      27.170  28.613  23.003  1.00  0.00     0.056 C 
ATOM     11  C   UNL A   1      28.552  28.111  23.250  1.00  0.00     0.002 A 
ATOM     12  C   UNL A   1      29.742  28.737  22.956  1.00  0.00     0.015 A 
ATOM     13  S   UNL A   1      28.806  26.577  23.962  1.00  0.00    -0.143 S 
ATOM     14  C   UNL A   1      30.868  27.955  23.334  1.00  0.00     0.018 A 
ENDBRANCH   8   9
BRANCH   8  15
ATOM     15  N   UNL A   1      31.443  24.413  23.884  1.00  0.00    -0.369 N 
ATOM     16  H   UNL A   1      30.829  24.341  23.118  1.00  0.00     0.161 HD
BRANCH  15  17
ATOM     17  C   UNL A   1      32.202  23.291  24.145  1.00  0.00     0.036 A 
ATOM     18  C   UNL A   1      31.691  22.057  24.557  1.00  0.00     0.027 A 
ATOM     19  C   UNL A   1      33.589  23.362  23.931  1.00  0.00     0.043 A 
ATOM     20  C   UNL A   1      32.515  20.933  24.711  1.00  0.00     0.024 A 
ATOM     21  C   UNL A   1      34.430  22.252  24.115  1.00  0.00     0.038 A 
ATOM     22  C   UNL A   1      33.887  21.026  24.494  1.00  0.00     0.055 A 
ATOM     23  Br  UNL A   1      36.292  22.506  23.832  1.00  0.00    -0.049 Br
ATOM     24  Cl  UNL A   1      34.838  19.602  24.713  1.00  0.00    -0.083 Cl
ENDBRANCH  15  17
ENDBRANCH   8  15
ENDBRANCH   5   8
ENDBRANCH   3   4
ENDBRANCH   2   3
ENDBRANCH   1   2
BRANCH   1  25
ATOM     25  C   UNL A   1      32.816  30.932  26.430  1.00  0.00     0.116 C 
BRANCH  25  26
ATOM     26  N   UNL A   1      32.688  32.256  27.022  1.00  0.00    -0.352 N 
ATOM     27  C   UNL A   1      33.604  32.920  27.807  1.00  0.00     0.251 C 
ATOM     28  H   UNL A   1      31.846  32.733  26.839  1.00  0.00     0.163 HD
ATOM     29  O   UNL A   1      33.342  34.015  28.292  1.00  0.00    -0.269 OA
BRANCH  27  30
ATOM     30  C   UNL A   1      34.888  32.249  28.090  1.00  0.00     0.039 A 
ATOM     31  C   UNL A   1      34.898  30.897  28.448  1.00  0.00     0.014 A 
ATOM     32  C   UNL A   1      36.053  33.014  28.147  1.00  0.00     0.014 A 
ATOM     33  C   UNL A   1      36.038  30.361  29.033  1.00  0.00     0.010 A 
ATOM     34  C   UNL A   1      37.218  32.447  28.666  1.00  0.00     0.010 A 
ATOM     35  C   UNL A   1      37.203  31.136  29.170  1.00  0.00    -0.014 A 
BRANCH  35  36
ATOM     36  C   UNL A   1      38.387  30.566  29.858  1.00  0.00     0.031 A 
ATOM     37  C   UNL A   1      38.708  30.932  31.283  1.00  0.00     0.074 A 
ATOM     38  C   UNL A   1      39.166  29.688  29.199  1.00  0.00     0.049 A 
ATOM     39  N   UNL A   1      39.709  30.534  32.026  1.00  0.00    -0.248 NA
ATOM     40  C   UNL A   1      37.796  31.868  31.963  1.00  0.00     0.031 C 
ATOM     41  C   UNL A   1      38.968  29.267  27.812  1.00  0.00     0.029 A 
ATOM     42  N   UNL A   1      40.272  28.987  29.607  1.00  0.00    -0.354 N 
ATOM     43  C   UNL A   1      39.582  31.209  33.234  1.00  0.00     0.074 A 
ATOM     44  C   UNL A   1      38.398  32.035  33.134  1.00  0.00     0.031 C 
ATOM     45  C   UNL A   1      39.899  28.356  27.492  1.00  0.00     0.029 A 
ATOM     46  C   UNL A   1      40.789  28.167  28.634  1.00  0.00     0.049 A 
ATOM     47  H   UNL A   1      40.658  29.065  30.509  1.00  0.00     0.167 HD
ATOM     48  C   UNL A   1      40.372  31.136  34.331  1.00  0.00     0.034 A 
ATOM     49  C   UNL A   1      41.865  27.357  28.648  1.00  0.00     0.034 A 
ATOM     50  C   UNL A   1      41.505  30.261  34.459  1.00  0.00     0.049 A 
ATOM     51  C   UNL A   1      42.695  27.258  29.892  1.00  0.00     0.074 A 
ATOM     52  C   UNL A   1      42.325  30.074  35.559  1.00  0.00     0.029 A 
ATOM     53  N   UNL A   1      41.973  29.420  33.462  1.00  0.00    -0.354 N 
ATOM     54  N   UNL A   1      42.512  27.848  31.048  1.00  0.00    -0.248 NA
ATOM     55  C   UNL A   1      43.868  26.376  29.842  1.00  0.00     0.031 C 
ATOM     56  C   UNL A   1      43.290  29.117  35.227  1.00  0.00     0.029 A 
ATOM     57  C   UNL A   1      43.070  28.711  33.921  1.00  0.00     0.049 A 
ATOM     58  H   UNL A   1      41.585  29.338  32.562  1.00  0.00     0.167 HD
ATOM     59  C   UNL A   1      43.543  27.407  31.866  1.00  0.00     0.074 A 
ATOM     60  C   UNL A   1      44.333  26.480  31.081  1.00  0.00     0.031 C 
ATOM     61  C   UNL A   1      43.820  27.759  33.144  1.00  0.00     0.034 A 
BRANCH  48  62
ATOM     62  C   UNL A   1      40.017  31.990  35.516  1.00  0.00     0.023 A 
ATOM     63  C   UNL A   1      40.634  33.248  35.667  1.00  0.00     0.012 A 
ATOM     64  C   UNL A   1      39.011  31.595  36.419  1.00  0.00     0.148 A 
ATOM     65  C   UNL A   1      40.256  34.099  36.705  1.00  0.00     0.002 A 
ATOM     66  C   UNL A   1      38.624  32.459  37.436  1.00  0.00     0.091 A 
ATOM     67  F   UNL A   1      38.456  30.384  36.265  1.00  0.00    -0.205 F 
ATOM     68  C   UNL A   1      39.245  33.710  37.582  1.00  0.00     0.022 A 
BRANCH  66  69
ATOM     69  S   UNL A   1      37.296  32.073  38.584  1.00  0.00     0.127 S 
ATOM     70  O   UNL A   1      36.213  32.912  38.073  1.00  0.00    -0.237 OA
ATOM     71  O   UNL A   1      37.108  30.638  38.369  1.00  0.00    -0.237 OA
ATOM     72  O   UNL A   1      37.792  32.430  39.905  1.00  0.00    -0.744 OA
ENDBRANCH  66  69
ENDBRANCH  48  62
BRANCH  49  73
ATOM     73  C   UNL A   1      42.163  26.546  27.438  1.00  0.00     0.023 A 
ATOM     74  C   UNL A   1      42.930  27.112  26.404  1.00  0.00     0.012 A 
ATOM     75  C   UNL A   1      41.799  25.188  27.370  1.00  0.00     0.148 A 
ATOM     76  C   UNL A   1      43.337  26.336  25.320  1.00  0.00     0.002 A 
ATOM     77  C   UNL A   1      42.248  24.408  26.312  1.00  0.00     0.091 A 
ATOM     78  F   UNL A   1      41.065  24.677  28.369  1.00  0.00    -0.205 F 
ATOM     79  C   UNL A   1      43.009  24.982  25.281  1.00  0.00     0.022 A 
BRANCH  77  80
ATOM     80  S   UNL A   1      41.995  22.631  26.243  1.00  0.00     0.127 S 
ATOM     81  O   UNL A   1      42.663  22.283  24.991  1.00  0.00    -0.237 OA
ATOM     82  O   UNL A   1      42.684  22.186  27.455  1.00  0.00    -0.237 OA
ATOM     83  O   UNL A   1      40.553  22.434  26.259  1.00  0.00    -0.744 OA
ENDBRANCH  77  80
ENDBRANCH  49  73
BRANCH  61  84
ATOM     84  C   UNL A   1      45.034  27.151  33.789  1.00  0.00     0.023 A 
ATOM     85  C   UNL A   1      46.253  27.854  33.751  1.00  0.00     0.012 A 
ATOM     86  C   UNL A   1      44.945  25.948  34.514  1.00  0.00     0.148 A 
ATOM     87  C   UNL A   1      47.372  27.364  34.422  1.00  0.00     0.002 A 
ATOM     88  C   UNL A   1      46.056  25.480  35.204  1.00  0.00     0.091 A 
ATOM     89  F   UNL A   1      43.777  25.289  34.518  1.00  0.00    -0.205 F 
ATOM     90  C   UNL A   1      47.271  26.184  35.156  1.00  0.00     0.022 A 
BRANCH  88  91
ATOM     91  S   UNL A   1      45.997  24.008  36.232  1.00  0.00     0.127 S 
ATOM     92  O   UNL A   1      47.392  23.880  36.649  1.00  0.00    -0.237 OA
ATOM     93  O   UNL A   1      45.076  24.406  37.297  1.00  0.00    -0.237 OA
ATOM     94  O   UNL A   1      45.499  22.941  35.373  1.00  0.00    -0.744 OA
ENDBRANCH  88  91
ENDBRANCH  61  84
ENDBRANCH  35  36
ENDBRANCH  27  30
ENDBRANCH  25  26
ENDBRANCH   1  25
TORSDOF 17
ENDMDL
