MODEL 1
REMARK VINA RESULT:     -10.9      0.000      0.000
REMARK SMILES O=C(Cc1ccccc1Cl)Nc1ccc(C(=O)NCCCCNC(=O)c2ccc(-c3c4nc(c(-c5cccc(S(=O)(=O)[O-])c5F)c5ccc([nH]5)c(-c5cccc(S(=O)(=O)[O-])c5F)c5nc(c(-c6cccc(S(=O)(=O)[O-])c6F)c6ccc3[nH]6)C=C5)C=C4)cc2)cc1
REMARK SMILES IDX 20 1 19 2 18 3 16 4 17 5 15 7 12 8 13 9 90 10 14 11 89 12
REMARK SMILES IDX 11 13 1 14 2 15 3 17 4 18 5 19 9 20 6 21 8 22 10 23 7 24
REMARK SMILES IDX 21 25 22 26 23 27 24 28 25 30 26 31 27 32 88 33 28 34 87 35
REMARK SMILES IDX 29 36 30 37 31 38 81 39 32 40 86 41 80 42 82 43 33 44 85 45
REMARK SMILES IDX 79 46 78 47 34 49 66 50 46 51 65 52 47 53 50 54 64 55 83 56
REMARK SMILES IDX 48 57 49 58 63 60 84 61 51 62 35 63 36 64 44 65 37 66 39 67
REMARK SMILES IDX 45 68 38 69 40 70 41 71 42 72 43 73 67 74 68 75 76 76 69 77
REMARK SMILES IDX 71 78 77 79 70 80 72 81 73 82 74 83 75 84 52 85 53 86 61 87
REMARK SMILES IDX 54 88 56 89 62 90 55 91 57 92 58 93 59 94 60 95
REMARK H PARENT 18 6 11 16 23 29 82 48 50 59
REMARK Flexibility Score: inf
ROOT
ATOM      1  C   UNL A   1      33.267  34.776  28.879  1.00  0.00     0.023 C 
ENDROOT
BRANCH   1   2
ATOM      2  C   UNL A   1      33.426  36.201  29.413  1.00  0.00     0.116 C 
BRANCH   2   3
ATOM      3  N   UNL A   1      32.419  36.471  30.416  1.00  0.00    -0.352 N 
ATOM      4  C   UNL A   1      32.311  36.088  31.727  1.00  0.00     0.251 C 
ATOM      5  O   UNL A   1      31.311  36.452  32.349  1.00  0.00    -0.269 OA
ATOM      6  H   UNL A   1      31.677  37.034  30.099  1.00  0.00     0.163 HD
BRANCH   4   7
ATOM      7  C   UNL A   1      33.364  35.317  32.453  1.00  0.00     0.039 A 
ATOM      8  C   UNL A   1      35.531  34.005  33.697  1.00  0.00     0.041 A 
ATOM      9  C   UNL A   1      35.633  35.348  33.332  1.00  0.00     0.027 A 
ATOM     10  C   UNL A   1      34.326  33.338  33.500  1.00  0.00     0.027 A 
ATOM     11  C   UNL A   1      34.568  35.991  32.696  1.00  0.00     0.016 A 
ATOM     12  C   UNL A   1      33.239  34.005  32.918  1.00  0.00     0.016 A 
BRANCH   8  13
ATOM     13  N   UNL A   1      36.645  33.419  34.316  1.00  0.00    -0.326 N 
ATOM     14  O   UNL A   1      36.769  31.351  33.283  1.00  0.00    -0.274 OA
ATOM     15  C   UNL A   1      37.124  32.136  34.160  1.00  0.00     0.228 C 
ATOM     16  H   UNL A   1      37.147  33.996  34.937  1.00  0.00     0.169 HD
BRANCH  15  17
ATOM     17  C   UNL A   1      38.094  31.692  35.250  1.00  0.00     0.137 C 
BRANCH  17  18
ATOM     18  C   UNL A   1      38.413  32.696  36.341  1.00  0.00    -0.020 A 
ATOM     19  C   UNL A   1      37.833  32.518  37.611  1.00  0.00     0.006 A 
ATOM     20  C   UNL A   1      39.218  33.832  36.143  1.00  0.00     0.044 A 
ATOM     21  C   UNL A   1      38.059  33.435  38.642  1.00  0.00     0.000 A 
ATOM     22  C   UNL A   1      39.479  34.723  37.188  1.00  0.00     0.021 A 
ATOM     23  Cl  UNL A   1      39.906  34.221  34.605  1.00  0.00    -0.084 Cl
ATOM     24  C   UNL A   1      38.893  34.530  38.436  1.00  0.00     0.002 A 
ENDBRANCH  17  18
ENDBRANCH  15  17
ENDBRANCH   8  13
ENDBRANCH   4   7
ENDBRANCH   2   3
ENDBRANCH   1   2
BRANCH   1  25
ATOM     25  C   UNL A   1      34.379  33.821  29.320  1.00  0.00     0.023 C 
BRANCH  25  26
ATOM     26  C   UNL A   1      35.103  33.122  28.176  1.00  0.00     0.116 C 
BRANCH  26  27
ATOM     27  N   UNL A   1      34.354  32.002  27.623  1.00  0.00    -0.352 N 
ATOM     28  C   UNL A   1      34.725  30.680  27.571  1.00  0.00     0.251 C 
ATOM     29  H   UNL A   1      33.475  32.220  27.238  1.00  0.00     0.163 HD
ATOM     30  O   UNL A   1      34.037  29.862  26.978  1.00  0.00    -0.269 OA
BRANCH  28  31
ATOM     31  C   UNL A   1      35.995  30.276  28.209  1.00  0.00     0.039 A 
ATOM     32  C   UNL A   1      35.953  29.683  29.472  1.00  0.00     0.014 A 
ATOM     33  C   UNL A   1      37.207  30.427  27.532  1.00  0.00     0.014 A 
ATOM     34  C   UNL A   1      37.128  29.181  30.032  1.00  0.00     0.010 A 
ATOM     35  C   UNL A   1      38.362  29.863  28.060  1.00  0.00     0.010 A 
ATOM     36  C   UNL A   1      38.335  29.236  29.315  1.00  0.00    -0.014 A 
BRANCH  36  37
ATOM     37  C   UNL A   1      39.577  28.629  29.852  1.00  0.00     0.031 A 
ATOM     38  C   UNL A   1      40.252  29.228  31.054  1.00  0.00     0.074 A 
ATOM     39  C   UNL A   1      40.150  27.601  29.193  1.00  0.00     0.049 A 
ATOM     40  N   UNL A   1      41.371  28.875  31.630  1.00  0.00    -0.248 NA
ATOM     41  C   UNL A   1      39.601  30.395  31.674  1.00  0.00     0.031 C 
ATOM     42  C   UNL A   1      39.641  26.997  27.959  1.00  0.00     0.029 A 
ATOM     43  N   UNL A   1      41.304  26.904  29.451  1.00  0.00    -0.354 N 
ATOM     44  C   UNL A   1      41.580  29.796  32.649  1.00  0.00     0.074 A 
ATOM     45  C   UNL A   1      40.487  30.743  32.596  1.00  0.00     0.031 C 
ATOM     46  C   UNL A   1      40.480  26.024  27.567  1.00  0.00     0.029 A 
ATOM     47  C   UNL A   1      41.594  25.948  28.506  1.00  0.00     0.049 A 
ATOM     48  H   UNL A   1      41.870  27.072  30.239  1.00  0.00     0.167 HD
ATOM     49  C   UNL A   1      42.575  29.834  33.565  1.00  0.00     0.034 A 
ATOM     50  C   UNL A   1      42.644  25.108  28.405  1.00  0.00     0.034 A 
ATOM     51  C   UNL A   1      43.625  28.856  33.650  1.00  0.00     0.049 A 
ATOM     52  C   UNL A   1      43.697  25.125  29.480  1.00  0.00     0.074 A 
ATOM     53  C   UNL A   1      44.617  28.740  34.608  1.00  0.00     0.029 A 
ATOM     54  N   UNL A   1      43.824  27.828  32.742  1.00  0.00    -0.354 N 
ATOM     55  N   UNL A   1      43.777  25.888  30.543  1.00  0.00    -0.248 NA
ATOM     56  C   UNL A   1      44.782  24.140  29.366  1.00  0.00     0.031 C 
ATOM     57  C   UNL A   1      45.426  27.651  34.270  1.00  0.00     0.029 A 
ATOM     58  C   UNL A   1      44.926  27.077  33.112  1.00  0.00     0.049 A 
ATOM     59  H   UNL A   1      43.265  27.658  31.951  1.00  0.00     0.167 HD
ATOM     60  C   UNL A   1      44.897  25.453  31.241  1.00  0.00     0.074 A 
ATOM     61  C   UNL A   1      45.452  24.344  30.492  1.00  0.00     0.031 C 
ATOM     62  C   UNL A   1      45.429  25.938  32.390  1.00  0.00     0.034 A 
BRANCH  49  63
ATOM     63  C   UNL A   1      42.543  30.931  34.594  1.00  0.00     0.023 A 
ATOM     64  C   UNL A   1      41.976  30.678  35.860  1.00  0.00     0.012 A 
ATOM     65  C   UNL A   1      43.133  32.184  34.339  1.00  0.00     0.148 A 
ATOM     66  C   UNL A   1      41.973  31.663  36.847  1.00  0.00     0.002 A 
ATOM     67  C   UNL A   1      43.165  33.147  35.342  1.00  0.00     0.091 A 
ATOM     68  F   UNL A   1      43.647  32.414  33.122  1.00  0.00    -0.205 F 
ATOM     69  C   UNL A   1      42.575  32.891  36.591  1.00  0.00     0.022 A 
BRANCH  67  70
ATOM     70  S   UNL A   1      43.985  34.731  35.141  1.00  0.00     0.127 S 
ATOM     71  O   UNL A   1      43.416  35.501  36.247  1.00  0.00    -0.237 OA
ATOM     72  O   UNL A   1      45.394  34.372  35.310  1.00  0.00    -0.237 OA
ATOM     73  O   UNL A   1      43.634  35.200  33.808  1.00  0.00    -0.744 OA
ENDBRANCH  67  70
ENDBRANCH  49  63
BRANCH  50  74
ATOM     74  C   UNL A   1      42.712  24.132  27.281  1.00  0.00     0.023 A 
ATOM     75  C   UNL A   1      43.426  24.471  26.115  1.00  0.00     0.012 A 
ATOM     76  C   UNL A   1      42.101  22.867  27.368  1.00  0.00     0.148 A 
ATOM     77  C   UNL A   1      43.500  23.582  25.041  1.00  0.00     0.002 A 
ATOM     78  C   UNL A   1      42.224  21.965  26.316  1.00  0.00     0.091 A 
ATOM     79  F   UNL A   1      41.413  22.566  28.479  1.00  0.00    -0.205 F 
ATOM     80  C   UNL A   1      42.907  22.326  25.146  1.00  0.00     0.022 A 
BRANCH  78  81
ATOM     81  S   UNL A   1      41.606  20.281  26.424  1.00  0.00     0.127 S 
ATOM     82  O   UNL A   1      40.167  20.480  26.282  1.00  0.00    -0.237 OA
ATOM     83  O   UNL A   1      42.256  19.644  25.276  1.00  0.00    -0.237 OA
ATOM     84  O   UNL A   1      42.059  19.784  27.716  1.00  0.00    -0.744 OA
ENDBRANCH  78  81
ENDBRANCH  50  74
BRANCH  62  85
ATOM     85  C   UNL A   1      46.656  25.257  32.936  1.00  0.00     0.023 A 
ATOM     86  C   UNL A   1      47.934  25.715  32.562  1.00  0.00     0.012 A 
ATOM     87  C   UNL A   1      46.541  24.220  33.883  1.00  0.00     0.148 A 
ATOM     88  C   UNL A   1      49.080  25.133  33.100  1.00  0.00     0.002 A 
ATOM     89  C   UNL A   1      47.687  23.677  34.452  1.00  0.00     0.091 A 
ATOM     90  F   UNL A   1      45.315  23.786  34.211  1.00  0.00    -0.205 F 
ATOM     91  C   UNL A   1      48.957  24.124  34.053  1.00  0.00     0.022 A 
BRANCH  89  92
ATOM     92  S   UNL A   1      47.618  22.444  35.756  1.00  0.00     0.127 S 
ATOM     93  O   UNL A   1      49.037  22.229  36.037  1.00  0.00    -0.237 OA
ATOM     94  O   UNL A   1      46.887  23.146  36.812  1.00  0.00    -0.237 OA
ATOM     95  O   UNL A   1      46.910  21.303  35.191  1.00  0.00    -0.744 OA
ENDBRANCH  89  92
ENDBRANCH  62  85
ENDBRANCH  36  37
ENDBRANCH  28  31
ENDBRANCH  26  27
ENDBRANCH  25  26
ENDBRANCH   1  25
TORSDOF 17
ENDMDL
MODEL 2
REMARK VINA RESULT:     -10.9      6.131     12.203
REMARK SMILES O=C(Cc1ccccc1Cl)Nc1ccc(C(=O)NCCCCNC(=O)c2ccc(-c3c4nc(c(-c5cccc(S(=O)(=O)[O-])c5F)c5ccc([nH]5)c(-c5cccc(S(=O)(=O)[O-])c5F)c5nc(c(-c6cccc(S(=O)(=O)[O-])c6F)c6ccc3[nH]6)C=C5)C=C4)cc2)cc1
REMARK SMILES IDX 20 1 19 2 18 3 16 4 17 5 15 7 12 8 13 9 90 10 14 11 89 12
REMARK SMILES IDX 11 13 1 14 2 15 3 17 4 18 5 19 9 20 6 21 8 22 10 23 7 24
REMARK SMILES IDX 21 25 22 26 23 27 24 28 25 30 26 31 27 32 88 33 28 34 87 35
REMARK SMILES IDX 29 36 30 37 31 38 81 39 32 40 86 41 80 42 82 43 33 44 85 45
REMARK SMILES IDX 79 46 78 47 34 49 66 50 46 51 65 52 47 53 50 54 64 55 83 56
REMARK SMILES IDX 48 57 49 58 63 60 84 61 51 62 35 63 36 64 44 65 37 66 39 67
REMARK SMILES IDX 45 68 38 69 40 70 41 71 42 72 43 73 67 74 68 75 76 76 69 77
REMARK SMILES IDX 71 78 77 79 70 80 72 81 73 82 74 83 75 84 52 85 53 86 61 87
REMARK SMILES IDX 54 88 56 89 62 90 55 91 57 92 58 93 59 94 60 95
REMARK H PARENT 18 6 11 16 23 29 82 48 50 59
REMARK Flexibility Score: inf
ROOT
ATOM      1  C   UNL A   1      35.512  21.305  26.051  1.00  0.00     0.023 C 
ENDROOT
BRANCH   1   2
ATOM      2  C   UNL A   1      35.487  20.208  24.985  1.00  0.00     0.116 C 
BRANCH   2   3
ATOM      3  N   UNL A   1      34.311  19.380  25.150  1.00  0.00    -0.352 N 
ATOM      4  C   UNL A   1      32.976  19.653  25.008  1.00  0.00     0.251 C 
ATOM      5  O   UNL A   1      32.178  18.743  25.242  1.00  0.00    -0.269 OA
ATOM      6  H   UNL A   1      34.506  18.452  25.410  1.00  0.00     0.163 HD
BRANCH   4   7
ATOM      7  C   UNL A   1      32.447  20.962  24.524  1.00  0.00     0.039 A 
ATOM      8  C   UNL A   1      31.621  23.424  23.415  1.00  0.00     0.041 A 
ATOM      9  C   UNL A   1      32.106  22.405  22.594  1.00  0.00     0.027 A 
ATOM     10  C   UNL A   1      31.487  23.188  24.780  1.00  0.00     0.027 A 
ATOM     11  C   UNL A   1      32.535  21.196  23.145  1.00  0.00     0.016 A 
ATOM     12  C   UNL A   1      31.861  21.951  25.321  1.00  0.00     0.016 A 
BRANCH   8  13
ATOM     13  N   UNL A   1      31.224  24.618  22.795  1.00  0.00    -0.326 N 
ATOM     14  O   UNL A   1      33.139  25.262  21.665  1.00  0.00    -0.274 OA
ATOM     15  C   UNL A   1      32.001  25.494  22.069  1.00  0.00     0.228 C 
ATOM     16  H   UNL A   1      30.274  24.858  22.890  1.00  0.00     0.169 HD
BRANCH  15  17
ATOM     17  C   UNL A   1      31.374  26.869  21.869  1.00  0.00     0.137 C 
BRANCH  17  18
ATOM     18  C   UNL A   1      31.563  27.883  22.981  1.00  0.00    -0.020 A 
ATOM     19  C   UNL A   1      32.798  27.924  23.654  1.00  0.00     0.006 A 
ATOM     20  C   UNL A   1      30.551  28.756  23.418  1.00  0.00     0.044 A 
ATOM     21  C   UNL A   1      33.014  28.809  24.714  1.00  0.00     0.000 A 
ATOM     22  C   UNL A   1      30.783  29.672  24.449  1.00  0.00     0.021 A 
ATOM     23  Cl  UNL A   1      28.958  28.736  22.746  1.00  0.00    -0.084 Cl
ATOM     24  C   UNL A   1      32.012  29.694  25.103  1.00  0.00     0.002 A 
ENDBRANCH  17  18
ENDBRANCH  15  17
ENDBRANCH   8  13
ENDBRANCH   4   7
ENDBRANCH   2   3
ENDBRANCH   1   2
BRANCH   1  25
ATOM     25  C   UNL A   1      35.584  22.723  25.480  1.00  0.00     0.023 C 
BRANCH  25  26
ATOM     26  C   UNL A   1      36.984  23.324  25.455  1.00  0.00     0.116 C 
BRANCH  26  27
ATOM     27  N   UNL A   1      38.014  22.396  25.900  1.00  0.00    -0.352 N 
ATOM     28  C   UNL A   1      39.178  22.684  26.572  1.00  0.00     0.251 C 
ATOM     29  H   UNL A   1      37.858  21.446  25.693  1.00  0.00     0.163 HD
ATOM     30  O   UNL A   1      40.005  21.810  26.790  1.00  0.00    -0.269 OA
BRANCH  28  31
ATOM     31  C   UNL A   1      39.429  24.079  26.987  1.00  0.00     0.039 A 
ATOM     32  C   UNL A   1      39.102  24.461  28.289  1.00  0.00     0.014 A 
ATOM     33  C   UNL A   1      40.040  24.979  26.112  1.00  0.00     0.014 A 
ATOM     34  C   UNL A   1      39.449  25.736  28.737  1.00  0.00     0.010 A 
ATOM     35  C   UNL A   1      40.448  26.222  26.581  1.00  0.00     0.010 A 
ATOM     36  C   UNL A   1      40.156  26.614  27.897  1.00  0.00    -0.014 A 
BRANCH  36  37
ATOM     37  C   UNL A   1      40.614  27.939  28.380  1.00  0.00     0.031 A 
ATOM     38  C   UNL A   1      42.083  28.229  28.510  1.00  0.00     0.074 A 
ATOM     39  C   UNL A   1      39.704  28.842  28.798  1.00  0.00     0.049 A 
ATOM     40  N   UNL A   1      42.673  29.302  28.968  1.00  0.00    -0.248 NA
ATOM     41  C   UNL A   1      43.014  27.162  28.101  1.00  0.00     0.031 C 
ATOM     42  C   UNL A   1      38.253  28.639  28.812  1.00  0.00     0.029 A 
ATOM     43  N   UNL A   1      39.866  30.101  29.322  1.00  0.00    -0.354 N 
ATOM     44  C   UNL A   1      44.034  29.027  28.941  1.00  0.00     0.074 A 
ATOM     45  C   UNL A   1      44.185  27.675  28.450  1.00  0.00     0.031 C 
ATOM     46  C   UNL A   1      37.661  29.731  29.322  1.00  0.00     0.029 A 
ATOM     47  C   UNL A   1      38.686  30.702  29.690  1.00  0.00     0.049 A 
ATOM     48  H   UNL A   1      40.746  30.532  29.424  1.00  0.00     0.167 HD
ATOM     49  C   UNL A   1      45.068  29.838  29.267  1.00  0.00     0.034 A 
ATOM     50  C   UNL A   1      38.456  31.900  30.263  1.00  0.00     0.034 A 
ATOM     51  C   UNL A   1      44.914  31.201  29.698  1.00  0.00     0.049 A 
ATOM     52  C   UNL A   1      39.622  32.808  30.547  1.00  0.00     0.074 A 
ATOM     53  C   UNL A   1      45.899  32.140  29.945  1.00  0.00     0.029 A 
ATOM     54  N   UNL A   1      43.700  31.818  29.949  1.00  0.00    -0.354 N 
ATOM     55  N   UNL A   1      40.900  32.598  30.340  1.00  0.00    -0.248 NA
ATOM     56  C   UNL A   1      39.315  34.134  31.103  1.00  0.00     0.031 C 
ATOM     57  C   UNL A   1      45.280  33.323  30.362  1.00  0.00     0.029 A 
ATOM     58  C   UNL A   1      43.909  33.125  30.356  1.00  0.00     0.049 A 
ATOM     59  H   UNL A   1      42.819  31.391  29.853  1.00  0.00     0.167 HD
ATOM     60  C   UNL A   1      41.544  33.774  30.706  1.00  0.00     0.074 A 
ATOM     61  C   UNL A   1      40.513  34.701  31.127  1.00  0.00     0.031 C 
ATOM     62  C   UNL A   1      42.870  34.055  30.711  1.00  0.00     0.034 A 
BRANCH  49  63
ATOM     63  C   UNL A   1      46.463  29.297  29.109  1.00  0.00     0.023 A 
ATOM     64  C   UNL A   1      47.132  28.764  30.230  1.00  0.00     0.012 A 
ATOM     65  C   UNL A   1      47.085  29.249  27.846  1.00  0.00     0.148 A 
ATOM     66  C   UNL A   1      48.408  28.217  30.102  1.00  0.00     0.002 A 
ATOM     67  C   UNL A   1      48.339  28.664  27.719  1.00  0.00     0.091 A 
ATOM     68  F   UNL A   1      46.443  29.782  26.796  1.00  0.00    -0.205 F 
ATOM     69  C   UNL A   1      49.006  28.158  28.847  1.00  0.00     0.022 A 
BRANCH  67  70
ATOM     70  S   UNL A   1      49.161  28.466  26.134  1.00  0.00     0.127 S 
ATOM     71  O   UNL A   1      48.025  28.440  25.213  1.00  0.00    -0.237 OA
ATOM     72  O   UNL A   1      49.979  29.677  26.059  1.00  0.00    -0.237 OA
ATOM     73  O   UNL A   1      49.919  27.227  26.226  1.00  0.00    -0.744 OA
ENDBRANCH  67  70
ENDBRANCH  49  63
BRANCH  50  74
ATOM     74  C   UNL A   1      37.059  32.338  30.541  1.00  0.00     0.023 A 
ATOM     75  C   UNL A   1      36.528  32.172  31.835  1.00  0.00     0.012 A 
ATOM     76  C   UNL A   1      36.264  32.938  29.545  1.00  0.00     0.148 A 
ATOM     77  C   UNL A   1      35.219  32.563  32.123  1.00  0.00     0.002 A 
ATOM     78  C   UNL A   1      34.981  33.375  29.854  1.00  0.00     0.091 A 
ATOM     79  F   UNL A   1      36.781  33.076  28.316  1.00  0.00    -0.205 F 
ATOM     80  C   UNL A   1      34.450  33.173  31.136  1.00  0.00     0.022 A 
BRANCH  78  81
ATOM     81  S   UNL A   1      33.974  34.289  28.680  1.00  0.00     0.127 S 
ATOM     82  O   UNL A   1      33.672  33.266  27.683  1.00  0.00    -0.237 OA
ATOM     83  O   UNL A   1      32.837  34.699  29.507  1.00  0.00    -0.237 OA
ATOM     84  O   UNL A   1      34.810  35.393  28.229  1.00  0.00    -0.744 OA
ENDBRANCH  78  81
ENDBRANCH  50  74
BRANCH  62  85
ATOM     85  C   UNL A   1      43.292  35.432  31.151  1.00  0.00     0.023 A 
ATOM     86  C   UNL A   1      43.566  35.678  32.511  1.00  0.00     0.012 A 
ATOM     87  C   UNL A   1      43.498  36.456  30.207  1.00  0.00     0.148 A 
ATOM     88  C   UNL A   1      44.011  36.931  32.927  1.00  0.00     0.002 A 
ATOM     89  C   UNL A   1      43.988  37.688  30.623  1.00  0.00     0.091 A 
ATOM     90  F   UNL A   1      43.213  36.207  28.920  1.00  0.00    -0.205 F 
ATOM     91  C   UNL A   1      44.234  37.931  31.984  1.00  0.00     0.022 A 
BRANCH  89  92
ATOM     92  S   UNL A   1      44.396  38.999  29.465  1.00  0.00     0.127 S 
ATOM     93  O   UNL A   1      43.081  39.575  29.190  1.00  0.00    -0.237 OA
ATOM     94  O   UNL A   1      45.282  39.852  30.258  1.00  0.00    -0.237 OA
ATOM     95  O   UNL A   1      45.044  38.347  28.334  1.00  0.00    -0.744 OA
ENDBRANCH  89  92
ENDBRANCH  62  85
ENDBRANCH  36  37
ENDBRANCH  28  31
ENDBRANCH  26  27
ENDBRANCH  25  26
ENDBRANCH   1  25
TORSDOF 17
ENDMDL
MODEL 3
REMARK VINA RESULT:     -10.8      6.404     11.487
REMARK SMILES O=C(Cc1ccccc1Cl)Nc1ccc(C(=O)NCCCCNC(=O)c2ccc(-c3c4nc(c(-c5cccc(S(=O)(=O)[O-])c5F)c5ccc([nH]5)c(-c5cccc(S(=O)(=O)[O-])c5F)c5nc(c(-c6cccc(S(=O)(=O)[O-])c6F)c6ccc3[nH]6)C=C5)C=C4)cc2)cc1
REMARK SMILES IDX 20 1 19 2 18 3 16 4 17 5 15 7 12 8 13 9 90 10 14 11 89 12
REMARK SMILES IDX 11 13 1 14 2 15 3 17 4 18 5 19 9 20 6 21 8 22 10 23 7 24
REMARK SMILES IDX 21 25 22 26 23 27 24 28 25 30 26 31 27 32 88 33 28 34 87 35
REMARK SMILES IDX 29 36 30 37 31 38 81 39 32 40 86 41 80 42 82 43 33 44 85 45
REMARK SMILES IDX 79 46 78 47 34 49 66 50 46 51 65 52 47 53 50 54 64 55 83 56
REMARK SMILES IDX 48 57 49 58 63 60 84 61 51 62 35 63 36 64 44 65 37 66 39 67
REMARK SMILES IDX 45 68 38 69 40 70 41 71 42 72 43 73 67 74 68 75 76 76 69 77
REMARK SMILES IDX 71 78 77 79 70 80 72 81 73 82 74 83 75 84 52 85 53 86 61 87
REMARK SMILES IDX 54 88 56 89 62 90 55 91 57 92 58 93 59 94 60 95
REMARK H PARENT 18 6 11 16 23 29 82 48 50 59
REMARK Flexibility Score: inf
ROOT
ATOM      1  C   UNL A   1      37.526  20.851  24.634  1.00  0.00     0.023 C 
ENDROOT
BRANCH   1   2
ATOM      2  C   UNL A   1      36.160  21.006  25.304  1.00  0.00     0.116 C 
BRANCH   2   3
ATOM      3  N   UNL A   1      35.326  19.862  25.007  1.00  0.00    -0.352 N 
ATOM      4  C   UNL A   1      33.980  19.747  24.781  1.00  0.00     0.251 C 
ATOM      5  O   UNL A   1      33.529  18.619  24.572  1.00  0.00    -0.269 OA
ATOM      6  H   UNL A   1      35.816  19.010  24.956  1.00  0.00     0.163 HD
BRANCH   4   7
ATOM      7  C   UNL A   1      33.052  20.914  24.707  1.00  0.00     0.039 A 
ATOM      8  C   UNL A   1      31.412  23.183  24.341  1.00  0.00     0.041 A 
ATOM      9  C   UNL A   1      31.879  22.463  23.240  1.00  0.00     0.027 A 
ATOM     10  C   UNL A   1      31.710  22.731  25.623  1.00  0.00     0.027 A 
ATOM     11  C   UNL A   1      32.708  21.353  23.421  1.00  0.00     0.016 A 
ATOM     12  C   UNL A   1      32.492  21.582  25.800  1.00  0.00     0.016 A 
BRANCH   8  13
ATOM     13  N   UNL A   1      30.598  24.296  24.084  1.00  0.00    -0.326 N 
ATOM     14  O   UNL A   1      31.769  25.407  22.425  1.00  0.00    -0.274 OA
ATOM     15  C   UNL A   1      30.858  25.362  23.250  1.00  0.00     0.228 C 
ATOM     16  H   UNL A   1      29.735  24.317  24.558  1.00  0.00     0.169 HD
BRANCH  15  17
ATOM     17  C   UNL A   1      29.969  26.577  23.490  1.00  0.00     0.137 C 
BRANCH  17  18
ATOM     18  C   UNL A   1      30.576  27.738  24.253  1.00  0.00    -0.020 A 
ATOM     19  C   UNL A   1      31.285  27.468  25.439  1.00  0.00     0.006 A 
ATOM     20  C   UNL A   1      30.426  29.083  23.872  1.00  0.00     0.044 A 
ATOM     21  C   UNL A   1      31.830  28.503  26.205  1.00  0.00     0.000 A 
ATOM     22  C   UNL A   1      31.011  30.113  24.616  1.00  0.00     0.021 A 
ATOM     23  Cl  UNL A   1      29.494  29.557  22.495  1.00  0.00    -0.084 Cl
ATOM     24  C   UNL A   1      31.706  29.824  25.787  1.00  0.00     0.002 A 
ENDBRANCH  17  18
ENDBRANCH  15  17
ENDBRANCH   8  13
ENDBRANCH   4   7
ENDBRANCH   2   3
ENDBRANCH   1   2
BRANCH   1  25
ATOM     25  C   UNL A   1      38.252  19.554  25.001  1.00  0.00     0.023 C 
BRANCH  25  26
ATOM     26  C   UNL A   1      39.169  19.665  26.213  1.00  0.00     0.116 C 
BRANCH  26  27
ATOM     27  N   UNL A   1      40.405  18.909  26.068  1.00  0.00    -0.352 N 
ATOM     28  C   UNL A   1      41.696  19.379  26.130  1.00  0.00     0.251 C 
ATOM     29  H   UNL A   1      40.304  17.944  25.904  1.00  0.00     0.163 HD
ATOM     30  O   UNL A   1      42.640  18.643  25.882  1.00  0.00    -0.269 OA
BRANCH  28  31
ATOM     31  C   UNL A   1      41.916  20.802  26.458  1.00  0.00     0.039 A 
ATOM     32  C   UNL A   1      42.279  21.141  27.762  1.00  0.00     0.014 A 
ATOM     33  C   UNL A   1      41.824  21.780  25.466  1.00  0.00     0.014 A 
ATOM     34  C   UNL A   1      42.615  22.463  28.058  1.00  0.00     0.010 A 
ATOM     35  C   UNL A   1      42.227  23.081  25.745  1.00  0.00     0.010 A 
ATOM     36  C   UNL A   1      42.624  23.435  27.043  1.00  0.00    -0.014 A 
BRANCH  36  37
ATOM     37  C   UNL A   1      43.064  24.826  27.315  1.00  0.00     0.031 A 
ATOM     38  C   UNL A   1      42.109  25.813  27.927  1.00  0.00     0.074 A 
ATOM     39  C   UNL A   1      44.288  25.224  26.915  1.00  0.00     0.049 A 
ATOM     40  N   UNL A   1      42.290  27.083  28.183  1.00  0.00    -0.248 NA
ATOM     41  C   UNL A   1      40.764  25.319  28.269  1.00  0.00     0.031 C 
ATOM     42  C   UNL A   1      45.268  24.382  26.222  1.00  0.00     0.029 A 
ATOM     43  N   UNL A   1      44.907  26.446  27.004  1.00  0.00    -0.354 N 
ATOM     44  C   UNL A   1      41.077  27.547  28.675  1.00  0.00     0.074 A 
ATOM     45  C   UNL A   1      40.156  26.432  28.655  1.00  0.00     0.031 C 
ATOM     46  C   UNL A   1      46.360  25.114  25.947  1.00  0.00     0.029 A 
ATOM     47  C   UNL A   1      46.152  26.478  26.422  1.00  0.00     0.049 A 
ATOM     48  H   UNL A   1      44.497  27.226  27.443  1.00  0.00     0.167 HD
ATOM     49  C   UNL A   1      40.766  28.783  29.130  1.00  0.00     0.034 A 
ATOM     50  C   UNL A   1      47.027  27.494  26.284  1.00  0.00     0.034 A 
ATOM     51  C   UNL A   1      41.703  29.871  29.203  1.00  0.00     0.049 A 
ATOM     52  C   UNL A   1      46.681  28.838  26.866  1.00  0.00     0.074 A 
ATOM     53  C   UNL A   1      41.519  31.128  29.751  1.00  0.00     0.029 A 
ATOM     54  N   UNL A   1      42.997  29.834  28.710  1.00  0.00    -0.354 N 
ATOM     55  N   UNL A   1      45.592  29.208  27.496  1.00  0.00    -0.248 NA
ATOM     56  C   UNL A   1      47.698  29.894  26.756  1.00  0.00     0.031 C 
ATOM     57  C   UNL A   1      42.698  31.858  29.574  1.00  0.00     0.029 A 
ATOM     58  C   UNL A   1      43.622  31.049  28.933  1.00  0.00     0.049 A 
ATOM     59  H   UNL A   1      43.410  29.060  28.266  1.00  0.00     0.167 HD
ATOM     60  C   UNL A   1      45.807  30.524  27.888  1.00  0.00     0.074 A 
ATOM     61  C   UNL A   1      47.138  30.880  27.443  1.00  0.00     0.031 C 
ATOM     62  C   UNL A   1      44.970  31.367  28.541  1.00  0.00     0.034 A 
BRANCH  49  63
ATOM     63  C   UNL A   1      39.372  29.011  29.649  1.00  0.00     0.023 A 
ATOM     64  C   UNL A   1      39.060  28.656  30.977  1.00  0.00     0.012 A 
ATOM     65  C   UNL A   1      38.394  29.639  28.853  1.00  0.00     0.148 A 
ATOM     66  C   UNL A   1      37.789  28.897  31.497  1.00  0.00     0.002 A 
ATOM     67  C   UNL A   1      37.143  29.915  29.391  1.00  0.00     0.091 A 
ATOM     68  F   UNL A   1      38.703  29.949  27.586  1.00  0.00    -0.205 F 
ATOM     69  C   UNL A   1      36.835  29.535  30.709  1.00  0.00     0.022 A 
BRANCH  67  70
ATOM     70  S   UNL A   1      35.871  30.803  28.486  1.00  0.00     0.127 S 
ATOM     71  O   UNL A   1      34.897  31.081  29.541  1.00  0.00    -0.237 OA
ATOM     72  O   UNL A   1      36.599  31.977  28.005  1.00  0.00    -0.237 OA
ATOM     73  O   UNL A   1      35.417  29.899  27.439  1.00  0.00    -0.744 OA
ENDBRANCH  67  70
ENDBRANCH  49  63
BRANCH  50  74
ATOM     74  C   UNL A   1      48.344  27.260  25.627  1.00  0.00     0.023 A 
ATOM     75  C   UNL A   1      49.433  26.817  26.404  1.00  0.00     0.012 A 
ATOM     76  C   UNL A   1      48.520  27.448  24.243  1.00  0.00     0.148 A 
ATOM     77  C   UNL A   1      50.682  26.599  25.820  1.00  0.00     0.002 A 
ATOM     78  C   UNL A   1      49.752  27.177  23.659  1.00  0.00     0.091 A 
ATOM     79  F   UNL A   1      47.477  27.885  23.522  1.00  0.00    -0.205 F 
ATOM     80  C   UNL A   1      50.839  26.769  24.447  1.00  0.00     0.022 A 
BRANCH  78  81
ATOM     81  S   UNL A   1      50.002  27.242  21.881  1.00  0.00     0.127 S 
ATOM     82  O   UNL A   1      51.382  26.779  21.755  1.00  0.00    -0.237 OA
ATOM     83  O   UNL A   1      48.990  26.301  21.396  1.00  0.00    -0.237 OA
ATOM     84  O   UNL A   1      49.756  28.627  21.505  1.00  0.00    -0.744 OA
ENDBRANCH  78  81
ENDBRANCH  50  74
BRANCH  62  85
ATOM     85  C   UNL A   1      45.474  32.751  28.852  1.00  0.00     0.023 A 
ATOM     86  C   UNL A   1      46.157  32.991  30.061  1.00  0.00     0.012 A 
ATOM     87  C   UNL A   1      45.344  33.792  27.912  1.00  0.00     0.148 A 
ATOM     88  C   UNL A   1      46.679  34.253  30.340  1.00  0.00     0.002 A 
ATOM     89  C   UNL A   1      45.909  35.034  28.176  1.00  0.00     0.091 A 
ATOM     90  F   UNL A   1      44.674  33.548  26.776  1.00  0.00    -0.205 F 
ATOM     91  C   UNL A   1      46.567  35.269  29.395  1.00  0.00     0.022 A 
BRANCH  89  92
ATOM     92  S   UNL A   1      45.897  36.369  26.975  1.00  0.00     0.127 S 
ATOM     93  O   UNL A   1      44.472  36.692  26.903  1.00  0.00    -0.237 OA
ATOM     94  O   UNL A   1      46.720  37.386  27.630  1.00  0.00    -0.237 OA
ATOM     95  O   UNL A   1      46.477  35.818  25.757  1.00  0.00    -0.744 OA
ENDBRANCH  89  92
ENDBRANCH  62  85
ENDBRANCH  36  37
ENDBRANCH  28  31
ENDBRANCH  26  27
ENDBRANCH  25  26
ENDBRANCH   1  25
TORSDOF 17
ENDMDL
