MODEL 1
REMARK VINA RESULT:     -12.0      0.000      0.000
REMARK SMILES CCOC(=O)c1ccc(NC(=O)[C@H]2CC=CC[C@@]2(C)C(=O)NCCCCNC(=O)c2ccc(-c3c4nc(c(-c5cccc(S(=O)(=O)[O-])c5F)c5ccc([nH]5)c(-c5cccc(S(=O)(=O)[O-])c5F)c5nc(c(-c6cccc(S(=O)(=O)[O-])c6F)c6ccc3[nH]6)C=C5)C=C4)cc2)cc1
REMARK SMILES IDX 23 1 22 2 20 3 21 4 18 6 13 7 14 8 15 9 17 10 19 11 16 12
REMARK SMILES IDX 11 13 10 14 12 16 9 17 6 18 7 19 94 20 8 21 93 22 4 23 5 24
REMARK SMILES IDX 3 25 2 26 1 27 24 28 25 29 26 30 27 31 28 32 29 34 30 35
REMARK SMILES IDX 31 36 92 37 32 38 91 39 33 40 34 41 35 42 85 43 36 44 90 45
REMARK SMILES IDX 84 46 86 47 37 48 89 49 83 50 82 51 38 53 70 54 50 55 69 56
REMARK SMILES IDX 51 57 54 58 68 59 87 60 52 61 53 62 67 64 88 65 55 66 39 67
REMARK SMILES IDX 40 68 48 69 41 70 43 71 49 72 42 73 44 74 45 75 46 76 47 77
REMARK SMILES IDX 71 78 72 79 80 80 73 81 75 82 81 83 74 84 76 85 77 86 78 87
REMARK SMILES IDX 79 88 56 89 57 90 65 91 58 92 60 93 66 94 59 95 61 96 62 97
REMARK SMILES IDX 63 98 64 99
REMARK H PARENT 22 5 10 15 27 33 86 52 54 63
REMARK Flexibility Score: inf
ROOT
ATOM      1  C   UNL A   1      35.343  24.360  25.008  1.00  0.00     0.116 C 
ENDROOT
BRANCH   1   2
ATOM      2  N   UNL A   1      34.777  25.595  25.500  1.00  0.00    -0.356 N 
ATOM      3  C   UNL A   1      33.621  26.146  25.045  1.00  0.00     0.227 C 
ATOM      4  O   UNL A   1      33.709  27.181  24.382  1.00  0.00    -0.274 OA
ATOM      5  H   UNL A   1      35.263  26.069  26.214  1.00  0.00     0.163 HD
BRANCH   3   6
ATOM      6  C   UNL A   1      32.279  25.475  25.365  1.00  0.00     0.062 C 
ATOM      7  C   UNL A   1      31.531  24.896  24.117  1.00  0.00     0.098 C 
ATOM      8  C   UNL A   1      30.386  23.924  24.489  1.00  0.00     0.041 C 
ATOM      9  C   UNL A   1      30.726  22.955  25.569  1.00  0.00    -0.030 C 
ATOM     10  C   UNL A   1      32.560  24.396  26.469  1.00  0.00     0.044 C 
ATOM     11  C   UNL A   1      31.374  26.542  26.052  1.00  0.00     0.023 C 
ATOM     12  C   UNL A   1      31.700  23.171  26.456  1.00  0.00    -0.030 C 
BRANCH   7  13
ATOM     13  C   UNL A   1      32.077  24.490  22.725  1.00  0.00     0.228 C 
ATOM     14  N   UNL A   1      32.622  23.337  22.288  1.00  0.00    -0.326 N 
ATOM     15  H   UNL A   1      33.047  23.440  21.407  1.00  0.00     0.169 HD
ATOM     16  O   UNL A   1      32.111  25.394  21.865  1.00  0.00    -0.274 OA
BRANCH  14  17
ATOM     17  C   UNL A   1      32.733  22.039  22.773  1.00  0.00     0.041 A 
ATOM     18  C   UNL A   1      32.809  19.568  24.077  1.00  0.00     0.060 A 
ATOM     19  C   UNL A   1      32.074  19.725  22.895  1.00  0.00     0.018 A 
ATOM     20  C   UNL A   1      33.609  20.617  24.536  1.00  0.00     0.018 A 
ATOM     21  C   UNL A   1      32.047  20.961  22.238  1.00  0.00     0.027 A 
ATOM     22  C   UNL A   1      33.591  21.842  23.865  1.00  0.00     0.027 A 
BRANCH  18  23
ATOM     23  C   UNL A   1      32.690  18.284  24.815  1.00  0.00     0.338 C 
ATOM     24  O   UNL A   1      32.334  18.206  25.975  1.00  0.00    -0.246 OA
BRANCH  23  25
ATOM     25  O   UNL A   1      33.125  17.268  24.026  1.00  0.00    -0.462 OA
BRANCH  25  26
ATOM     26  C   UNL A   1      33.408  16.032  24.701  1.00  0.00     0.230 C 
ATOM     27  C   UNL A   1      34.887  15.936  25.034  1.00  0.00     0.049 C 
ENDBRANCH  25  26
ENDBRANCH  23  25
ENDBRANCH  18  23
ENDBRANCH  14  17
ENDBRANCH   7  13
ENDBRANCH   3   6
ENDBRANCH   1   2
BRANCH   1  28
ATOM     28  C   UNL A   1      36.210  23.727  26.099  1.00  0.00     0.023 C 
BRANCH  28  29
ATOM     29  C   UNL A   1      36.526  22.244  25.867  1.00  0.00     0.023 C 
BRANCH  29  30
ATOM     30  C   UNL A   1      37.795  21.979  25.062  1.00  0.00     0.116 C 
BRANCH  30  31
ATOM     31  N   UNL A   1      38.636  20.971  25.688  1.00  0.00    -0.352 N 
ATOM     32  C   UNL A   1      39.810  21.116  26.378  1.00  0.00     0.251 C 
ATOM     33  H   UNL A   1      38.312  20.045  25.603  1.00  0.00     0.163 HD
ATOM     34  O   UNL A   1      40.481  20.124  26.648  1.00  0.00    -0.269 OA
BRANCH  32  35
ATOM     35  C   UNL A   1      40.266  22.458  26.790  1.00  0.00     0.039 A 
ATOM     36  C   UNL A   1      41.090  22.572  27.911  1.00  0.00     0.014 A 
ATOM     37  C   UNL A   1      39.857  23.601  26.096  1.00  0.00     0.014 A 
ATOM     38  C   UNL A   1      41.536  23.831  28.314  1.00  0.00     0.010 A 
ATOM     39  C   UNL A   1      40.357  24.848  26.458  1.00  0.00     0.010 A 
ATOM     40  C   UNL A   1      41.188  24.978  27.580  1.00  0.00    -0.014 A 
BRANCH  40  41
ATOM     41  C   UNL A   1      41.693  26.314  27.980  1.00  0.00     0.031 A 
ATOM     42  C   UNL A   1      43.110  26.714  27.679  1.00  0.00     0.074 A 
ATOM     43  C   UNL A   1      40.886  27.143  28.670  1.00  0.00     0.049 A 
ATOM     44  N   UNL A   1      43.718  27.843  27.940  1.00  0.00    -0.248 NA
ATOM     45  C   UNL A   1      43.967  25.710  27.025  1.00  0.00     0.031 C 
ATOM     46  C   UNL A   1      39.523  26.829  29.104  1.00  0.00     0.029 A 
ATOM     47  N   UNL A   1      41.101  28.412  29.143  1.00  0.00    -0.354 N 
ATOM     48  C   UNL A   1      45.030  27.676  27.513  1.00  0.00     0.074 A 
ATOM     49  C   UNL A   1      45.142  26.325  27.009  1.00  0.00     0.031 C 
ATOM     50  C   UNL A   1      39.020  27.882  29.768  1.00  0.00     0.029 A 
ATOM     51  C   UNL A   1      40.026  28.937  29.820  1.00  0.00     0.049 A 
ATOM     52  H   UNL A   1      41.945  28.901  29.010  1.00  0.00     0.167 HD
ATOM     53  C   UNL A   1      46.041  28.578  27.504  1.00  0.00     0.034 A 
ATOM     54  C   UNL A   1      39.866  30.139  30.408  1.00  0.00     0.034 A 
ATOM     55  C   UNL A   1      45.910  29.937  27.957  1.00  0.00     0.049 A 
ATOM     56  C   UNL A   1      40.979  31.148  30.317  1.00  0.00     0.074 A 
ATOM     57  C   UNL A   1      46.844  30.955  27.907  1.00  0.00     0.029 A 
ATOM     58  N   UNL A   1      44.771  30.467  28.545  1.00  0.00    -0.354 N 
ATOM     59  N   UNL A   1      42.155  31.030  29.748  1.00  0.00    -0.248 NA
ATOM     60  C   UNL A   1      40.727  32.469  30.908  1.00  0.00     0.031 C 
ATOM     61  C   UNL A   1      46.273  32.100  28.475  1.00  0.00     0.029 A 
ATOM     62  C   UNL A   1      44.979  31.798  28.865  1.00  0.00     0.049 A 
ATOM     63  H   UNL A   1      43.938  29.970  28.711  1.00  0.00     0.167 HD
ATOM     64  C   UNL A   1      42.769  32.269  29.883  1.00  0.00     0.074 A 
ATOM     65  C   UNL A   1      41.824  33.131  30.564  1.00  0.00     0.031 C 
ATOM     66  C   UNL A   1      44.009  32.656  29.494  1.00  0.00     0.034 A 
BRANCH  53  67
ATOM     67  C   UNL A   1      47.361  28.143  26.923  1.00  0.00     0.023 A 
ATOM     68  C   UNL A   1      48.435  27.856  27.791  1.00  0.00     0.012 A 
ATOM     69  C   UNL A   1      47.526  27.962  25.537  1.00  0.00     0.148 A 
ATOM     70  C   UNL A   1      49.662  27.428  27.286  1.00  0.00     0.002 A 
ATOM     71  C   UNL A   1      48.740  27.494  25.044  1.00  0.00     0.091 A 
ATOM     72  F   UNL A   1      46.502  28.263  24.725  1.00  0.00    -0.205 F 
ATOM     73  C   UNL A   1      49.812  27.238  25.915  1.00  0.00     0.022 A 
BRANCH  71  74
ATOM     74  S   UNL A   1      49.007  27.145  23.302  1.00  0.00     0.127 S 
ATOM     75  O   UNL A   1      48.277  25.889  23.137  1.00  0.00    -0.237 OA
ATOM     76  O   UNL A   1      48.386  28.301  22.656  1.00  0.00    -0.237 OA
ATOM     77  O   UNL A   1      50.450  27.058  23.130  1.00  0.00    -0.744 OA
ENDBRANCH  71  74
ENDBRANCH  53  67
BRANCH  54  78
ATOM     78  C   UNL A   1      38.566  30.484  31.047  1.00  0.00     0.023 A 
ATOM     79  C   UNL A   1      38.343  30.132  32.392  1.00  0.00     0.012 A 
ATOM     80  C   UNL A   1      37.569  31.191  30.347  1.00  0.00     0.148 A 
ATOM     81  C   UNL A   1      37.139  30.448  33.020  1.00  0.00     0.002 A 
ATOM     82  C   UNL A   1      36.394  31.552  30.995  1.00  0.00     0.091 A 
ATOM     83  F   UNL A   1      37.795  31.508  29.064  1.00  0.00    -0.205 F 
ATOM     84  C   UNL A   1      36.169  31.167  32.326  1.00  0.00     0.022 A 
BRANCH  82  85
ATOM     85  S   UNL A   1      35.153  32.594  30.219  1.00  0.00     0.127 S 
ATOM     86  O   UNL A   1      34.225  32.828  31.321  1.00  0.00    -0.237 OA
ATOM     87  O   UNL A   1      35.940  33.760  29.817  1.00  0.00    -0.237 OA
ATOM     88  O   UNL A   1      34.634  31.814  29.103  1.00  0.00    -0.744 OA
ENDBRANCH  82  85
ENDBRANCH  54  78
BRANCH  66  89
ATOM     89  C   UNL A   1      44.411  34.080  29.772  1.00  0.00     0.023 A 
ATOM     90  C   UNL A   1      45.242  34.367  30.874  1.00  0.00     0.012 A 
ATOM     91  C   UNL A   1      44.022  35.123  28.909  1.00  0.00     0.148 A 
ATOM     92  C   UNL A   1      45.649  35.675  31.133  1.00  0.00     0.002 A 
ATOM     93  C   UNL A   1      44.470  36.417  29.147  1.00  0.00     0.091 A 
ATOM     94  F   UNL A   1      43.214  34.835  27.878  1.00  0.00    -0.205 F 
ATOM     95  C   UNL A   1      45.274  36.697  30.264  1.00  0.00     0.022 A 
BRANCH  93  96
ATOM     96  S   UNL A   1      44.109  37.772  28.025  1.00  0.00     0.127 S 
ATOM     97  O   UNL A   1      44.993  38.822  28.530  1.00  0.00    -0.237 OA
ATOM     98  O   UNL A   1      44.498  37.219  26.727  1.00  0.00    -0.237 OA
ATOM     99  O   UNL A   1      42.682  38.029  28.163  1.00  0.00    -0.744 OA
ENDBRANCH  93  96
ENDBRANCH  66  89
ENDBRANCH  40  41
ENDBRANCH  32  35
ENDBRANCH  30  31
ENDBRANCH  29  30
ENDBRANCH  28  29
ENDBRANCH   1  28
TORSDOF 19
ENDMDL
MODEL 2
REMARK VINA RESULT:     -11.8      5.234      8.292
REMARK SMILES CCOC(=O)c1ccc(NC(=O)[C@H]2CC=CC[C@@]2(C)C(=O)NCCCCNC(=O)c2ccc(-c3c4nc(c(-c5cccc(S(=O)(=O)[O-])c5F)c5ccc([nH]5)c(-c5cccc(S(=O)(=O)[O-])c5F)c5nc(c(-c6cccc(S(=O)(=O)[O-])c6F)c6ccc3[nH]6)C=C5)C=C4)cc2)cc1
REMARK SMILES IDX 23 1 22 2 20 3 21 4 18 6 13 7 14 8 15 9 17 10 19 11 16 12
REMARK SMILES IDX 11 13 10 14 12 16 9 17 6 18 7 19 94 20 8 21 93 22 4 23 5 24
REMARK SMILES IDX 3 25 2 26 1 27 24 28 25 29 26 30 27 31 28 32 29 34 30 35
REMARK SMILES IDX 31 36 92 37 32 38 91 39 33 40 34 41 35 42 85 43 36 44 90 45
REMARK SMILES IDX 84 46 86 47 37 48 89 49 83 50 82 51 38 53 70 54 50 55 69 56
REMARK SMILES IDX 51 57 54 58 68 59 87 60 52 61 53 62 67 64 88 65 55 66 39 67
REMARK SMILES IDX 40 68 48 69 41 70 43 71 49 72 42 73 44 74 45 75 46 76 47 77
REMARK SMILES IDX 71 78 72 79 80 80 73 81 75 82 81 83 74 84 76 85 77 86 78 87
REMARK SMILES IDX 79 88 56 89 57 90 65 91 58 92 60 93 66 94 59 95 61 96 62 97
REMARK SMILES IDX 63 98 64 99
REMARK H PARENT 22 5 10 15 27 33 86 52 54 63
REMARK Flexibility Score: inf
ROOT
ATOM      1  C   UNL A   1      31.983  29.804  25.515  1.00  0.00     0.116 C 
ENDROOT
BRANCH   1   2
ATOM      2  N   UNL A   1      31.317  28.591  25.097  1.00  0.00    -0.356 N 
ATOM      3  C   UNL A   1      31.624  27.896  23.970  1.00  0.00     0.227 C 
ATOM      4  O   UNL A   1      30.805  27.919  23.050  1.00  0.00    -0.274 OA
ATOM      5  H   UNL A   1      30.592  28.246  25.667  1.00  0.00     0.163 HD
BRANCH   3   6
ATOM      6  C   UNL A   1      32.948  27.124  23.887  1.00  0.00     0.062 C 
ATOM      7  C   UNL A   1      33.277  26.265  25.154  1.00  0.00     0.098 C 
ATOM      8  C   UNL A   1      34.403  25.231  24.914  1.00  0.00     0.041 C 
ATOM      9  C   UNL A   1      34.300  24.497  23.621  1.00  0.00    -0.030 C 
ATOM     10  C   UNL A   1      32.899  26.278  22.566  1.00  0.00     0.044 C 
ATOM     11  C   UNL A   1      34.085  28.167  23.667  1.00  0.00     0.023 C 
ATOM     12  C   UNL A   1      33.627  24.970  22.570  1.00  0.00    -0.030 C 
BRANCH   7  13
ATOM     13  C   UNL A   1      32.340  25.713  26.257  1.00  0.00     0.228 C 
ATOM     14  N   UNL A   1      31.925  24.457  26.521  1.00  0.00    -0.326 N 
ATOM     15  H   UNL A   1      31.184  24.442  27.169  1.00  0.00     0.169 HD
ATOM     16  O   UNL A   1      31.793  26.564  26.987  1.00  0.00    -0.274 OA
BRANCH  14  17
ATOM     17  C   UNL A   1      32.281  23.180  26.105  1.00  0.00     0.041 A 
ATOM     18  C   UNL A   1      32.838  20.487  25.601  1.00  0.00     0.060 A 
ATOM     19  C   UNL A   1      32.043  21.226  24.716  1.00  0.00     0.018 A 
ATOM     20  C   UNL A   1      33.459  21.134  26.673  1.00  0.00     0.018 A 
ATOM     21  C   UNL A   1      31.773  22.578  24.966  1.00  0.00     0.027 A 
ATOM     22  C   UNL A   1      33.200  22.486  26.906  1.00  0.00     0.027 A 
BRANCH  18  23
ATOM     23  C   UNL A   1      32.974  19.026  25.374  1.00  0.00     0.338 C 
ATOM     24  O   UNL A   1      32.529  18.184  26.129  1.00  0.00    -0.246 OA
BRANCH  23  25
ATOM     25  O   UNL A   1      33.737  18.810  24.271  1.00  0.00    -0.462 OA
BRANCH  25  26
ATOM     26  C   UNL A   1      34.411  17.543  24.219  1.00  0.00     0.230 C 
ATOM     27  C   UNL A   1      34.024  16.787  22.959  1.00  0.00     0.049 C 
ENDBRANCH  25  26
ENDBRANCH  23  25
ENDBRANCH  18  23
ENDBRANCH  14  17
ENDBRANCH   7  13
ENDBRANCH   3   6
ENDBRANCH   1   2
BRANCH   1  28
ATOM     28  C   UNL A   1      31.022  30.986  25.374  1.00  0.00     0.023 C 
BRANCH  28  29
ATOM     29  C   UNL A   1      31.032  31.949  26.569  1.00  0.00     0.023 C 
BRANCH  29  30
ATOM     30  C   UNL A   1      32.414  32.463  26.965  1.00  0.00     0.116 C 
BRANCH  30  31
ATOM     31  N   UNL A   1      32.389  33.874  27.315  1.00  0.00    -0.352 N 
ATOM     32  C   UNL A   1      33.096  34.549  28.274  1.00  0.00     0.251 C 
ATOM     33  H   UNL A   1      31.772  34.426  26.783  1.00  0.00     0.163 HD
ATOM     34  O   UNL A   1      32.781  35.701  28.560  1.00  0.00    -0.269 OA
BRANCH  32  35
ATOM     35  C   UNL A   1      34.226  33.894  28.962  1.00  0.00     0.039 A 
ATOM     36  C   UNL A   1      33.953  32.892  29.895  1.00  0.00     0.014 A 
ATOM     37  C   UNL A   1      35.545  34.286  28.713  1.00  0.00     0.014 A 
ATOM     38  C   UNL A   1      35.007  32.256  30.552  1.00  0.00     0.010 A 
ATOM     39  C   UNL A   1      36.597  33.606  29.318  1.00  0.00     0.010 A 
ATOM     40  C   UNL A   1      36.338  32.595  30.256  1.00  0.00    -0.014 A 
BRANCH  40  41
ATOM     41  C   UNL A   1      37.464  31.895  30.920  1.00  0.00     0.031 A 
ATOM     42  C   UNL A   1      38.256  30.852  30.181  1.00  0.00     0.074 A 
ATOM     43  C   UNL A   1      37.731  32.157  32.214  1.00  0.00     0.049 A 
ATOM     44  N   UNL A   1      39.279  30.150  30.595  1.00  0.00    -0.248 NA
ATOM     45  C   UNL A   1      37.831  30.536  28.807  1.00  0.00     0.031 C 
ATOM     46  C   UNL A   1      36.972  33.077  33.064  1.00  0.00     0.029 A 
ATOM     47  N   UNL A   1      38.703  31.662  33.046  1.00  0.00    -0.354 N 
ATOM     48  C   UNL A   1      39.600  29.291  29.551  1.00  0.00     0.074 A 
ATOM     49  C   UNL A   1      38.641  29.533  28.496  1.00  0.00     0.031 C 
ATOM     50  C   UNL A   1      37.515  33.089  34.292  1.00  0.00     0.029 A 
ATOM     51  C   UNL A   1      38.647  32.170  34.322  1.00  0.00     0.049 A 
ATOM     52  H   UNL A   1      39.376  31.005  32.756  1.00  0.00     0.167 HD
ATOM     53  C   UNL A   1      40.623  28.408  29.462  1.00  0.00     0.034 A 
ATOM     54  C   UNL A   1      39.429  31.929  35.393  1.00  0.00     0.034 A 
ATOM     55  C   UNL A   1      41.606  28.210  30.494  1.00  0.00     0.049 A 
ATOM     56  C   UNL A   1      40.603  31.001  35.243  1.00  0.00     0.074 A 
ATOM     57  C   UNL A   1      42.732  27.409  30.468  1.00  0.00     0.029 A 
ATOM     58  N   UNL A   1      41.577  28.819  31.739  1.00  0.00    -0.354 N 
ATOM     59  N   UNL A   1      40.995  30.331  34.186  1.00  0.00    -0.248 NA
ATOM     60  C   UNL A   1      41.468  30.830  36.418  1.00  0.00     0.031 C 
ATOM     61  C   UNL A   1      43.380  27.525  31.702  1.00  0.00     0.029 A 
ATOM     62  C   UNL A   1      42.665  28.411  32.492  1.00  0.00     0.049 A 
ATOM     63  H   UNL A   1      40.885  29.449  32.043  1.00  0.00     0.167 HD
ATOM     64  C   UNL A   1      42.170  29.687  34.558  1.00  0.00     0.074 A 
ATOM     65  C   UNL A   1      42.438  30.069  35.930  1.00  0.00     0.031 C 
ATOM     66  C   UNL A   1      42.947  28.842  33.836  1.00  0.00     0.034 A 
BRANCH  53  67
ATOM     67  C   UNL A   1      40.772  27.638  28.176  1.00  0.00     0.023 A 
ATOM     68  C   UNL A   1      41.392  28.256  27.070  1.00  0.00     0.012 A 
ATOM     69  C   UNL A   1      40.356  26.297  28.075  1.00  0.00     0.148 A 
ATOM     70  C   UNL A   1      41.566  27.562  25.874  1.00  0.00     0.002 A 
ATOM     71  C   UNL A   1      40.572  25.598  26.892  1.00  0.00     0.091 A 
ATOM     72  F   UNL A   1      39.748  25.733  29.128  1.00  0.00    -0.205 F 
ATOM     73  C   UNL A   1      41.165  26.231  25.787  1.00  0.00     0.022 A 
BRANCH  71  74
ATOM     74  S   UNL A   1      40.161  23.859  26.707  1.00  0.00     0.127 S 
ATOM     75  O   UNL A   1      38.803  23.931  26.171  1.00  0.00    -0.237 OA
ATOM     76  O   UNL A   1      41.170  23.403  25.750  1.00  0.00    -0.237 OA
ATOM     77  O   UNL A   1      40.281  23.277  28.036  1.00  0.00    -0.744 OA
ENDBRANCH  71  74
ENDBRANCH  53  67
BRANCH  54  78
ATOM     78  C   UNL A   1      39.181  32.655  36.669  1.00  0.00     0.023 A 
ATOM     79  C   UNL A   1      39.806  33.898  36.888  1.00  0.00     0.012 A 
ATOM     80  C   UNL A   1      38.302  32.147  37.645  1.00  0.00     0.148 A 
ATOM     81  C   UNL A   1      39.588  34.606  38.070  1.00  0.00     0.002 A 
ATOM     82  C   UNL A   1      38.046  32.883  38.796  1.00  0.00     0.091 A 
ATOM     83  F   UNL A   1      37.725  30.957  37.424  1.00  0.00    -0.205 F 
ATOM     84  C   UNL A   1      38.700  34.104  39.019  1.00  0.00     0.022 A 
BRANCH  82  85
ATOM     85  S   UNL A   1      36.815  32.376  40.002  1.00  0.00     0.127 S 
ATOM     86  O   UNL A   1      35.604  32.315  39.188  1.00  0.00    -0.237 OA
ATOM     87  O   UNL A   1      37.331  31.079  40.440  1.00  0.00    -0.237 OA
ATOM     88  O   UNL A   1      36.838  33.404  41.034  1.00  0.00    -0.744 OA
ENDBRANCH  82  85
ENDBRANCH  54  78
BRANCH  66  89
ATOM     89  C   UNL A   1      44.177  28.289  34.504  1.00  0.00     0.023 A 
ATOM     90  C   UNL A   1      45.383  29.018  34.459  1.00  0.00     0.012 A 
ATOM     91  C   UNL A   1      44.126  27.082  35.230  1.00  0.00     0.148 A 
ATOM     92  C   UNL A   1      46.526  28.537  35.095  1.00  0.00     0.002 A 
ATOM     93  C   UNL A   1      45.257  26.633  35.900  1.00  0.00     0.091 A 
ATOM     94  F   UNL A   1      42.976  26.391  35.244  1.00  0.00    -0.205 F 
ATOM     95  C   UNL A   1      46.461  27.352  35.825  1.00  0.00     0.022 A 
BRANCH  93  96
ATOM     96  S   UNL A   1      45.231  25.167  36.937  1.00  0.00     0.127 S 
ATOM     97  O   UNL A   1      44.982  24.111  35.957  1.00  0.00    -0.237 OA
ATOM     98  O   UNL A   1      46.578  25.162  37.510  1.00  0.00    -0.237 OA
ATOM     99  O   UNL A   1      44.168  25.389  37.909  1.00  0.00    -0.744 OA
ENDBRANCH  93  96
ENDBRANCH  66  89
ENDBRANCH  40  41
ENDBRANCH  32  35
ENDBRANCH  30  31
ENDBRANCH  29  30
ENDBRANCH  28  29
ENDBRANCH   1  28
TORSDOF 19
ENDMDL
MODEL 3
REMARK VINA RESULT:     -11.6      2.653      8.756
REMARK SMILES CCOC(=O)c1ccc(NC(=O)[C@H]2CC=CC[C@@]2(C)C(=O)NCCCCNC(=O)c2ccc(-c3c4nc(c(-c5cccc(S(=O)(=O)[O-])c5F)c5ccc([nH]5)c(-c5cccc(S(=O)(=O)[O-])c5F)c5nc(c(-c6cccc(S(=O)(=O)[O-])c6F)c6ccc3[nH]6)C=C5)C=C4)cc2)cc1
REMARK SMILES IDX 23 1 22 2 20 3 21 4 18 6 13 7 14 8 15 9 17 10 19 11 16 12
REMARK SMILES IDX 11 13 10 14 12 16 9 17 6 18 7 19 94 20 8 21 93 22 4 23 5 24
REMARK SMILES IDX 3 25 2 26 1 27 24 28 25 29 26 30 27 31 28 32 29 34 30 35
REMARK SMILES IDX 31 36 92 37 32 38 91 39 33 40 34 41 35 42 85 43 36 44 90 45
REMARK SMILES IDX 84 46 86 47 37 48 89 49 83 50 82 51 38 53 70 54 50 55 69 56
REMARK SMILES IDX 51 57 54 58 68 59 87 60 52 61 53 62 67 64 88 65 55 66 39 67
REMARK SMILES IDX 40 68 48 69 41 70 43 71 49 72 42 73 44 74 45 75 46 76 47 77
REMARK SMILES IDX 71 78 72 79 80 80 73 81 75 82 81 83 74 84 76 85 77 86 78 87
REMARK SMILES IDX 79 88 56 89 57 90 65 91 58 92 60 93 66 94 59 95 61 96 62 97
REMARK SMILES IDX 63 98 64 99
REMARK H PARENT 22 5 10 15 27 33 86 52 54 63
REMARK Flexibility Score: inf
ROOT
ATOM      1  C   UNL A   1      37.347  21.752  25.079  1.00  0.00     0.116 C 
ENDROOT
BRANCH   1   2
ATOM      2  N   UNL A   1      36.389  21.811  26.159  1.00  0.00    -0.356 N 
ATOM      3  C   UNL A   1      35.205  22.476  26.101  1.00  0.00     0.227 C 
ATOM      4  O   UNL A   1      35.094  23.497  26.783  1.00  0.00    -0.274 OA
ATOM      5  H   UNL A   1      36.609  21.337  26.994  1.00  0.00     0.163 HD
BRANCH   3   6
ATOM      6  C   UNL A   1      34.075  21.945  25.209  1.00  0.00     0.062 C 
ATOM      7  C   UNL A   1      32.635  22.179  25.780  1.00  0.00     0.098 C 
ATOM      8  C   UNL A   1      31.521  21.974  24.726  1.00  0.00     0.041 C 
ATOM      9  C   UNL A   1      31.813  22.575  23.394  1.00  0.00    -0.030 C 
ATOM     10  C   UNL A   1      34.282  22.576  23.787  1.00  0.00     0.044 C 
ATOM     11  C   UNL A   1      34.306  20.416  25.020  1.00  0.00     0.023 C 
ATOM     12  C   UNL A   1      33.053  22.841  22.976  1.00  0.00    -0.030 C 
BRANCH   7  13
ATOM     13  C   UNL A   1      32.131  23.206  26.825  1.00  0.00     0.228 C 
ATOM     14  N   UNL A   1      31.719  24.482  26.687  1.00  0.00    -0.326 N 
ATOM     15  H   UNL A   1      31.637  24.940  27.555  1.00  0.00     0.169 HD
ATOM     16  O   UNL A   1      32.187  22.845  28.018  1.00  0.00    -0.274 OA
BRANCH  14  17
ATOM     17  C   UNL A   1      31.382  25.313  25.625  1.00  0.00     0.041 A 
ATOM     18  C   UNL A   1      30.514  27.199  23.753  1.00  0.00     0.060 A 
ATOM     19  C   UNL A   1      31.882  26.963  23.943  1.00  0.00     0.018 A 
ATOM     20  C   UNL A   1      29.579  26.398  24.412  1.00  0.00     0.018 A 
ATOM     21  C   UNL A   1      32.313  26.010  24.874  1.00  0.00     0.027 A 
ATOM     22  C   UNL A   1      30.017  25.437  25.327  1.00  0.00     0.027 A 
BRANCH  18  23
ATOM     23  C   UNL A   1      30.109  28.319  22.865  1.00  0.00     0.338 C 
ATOM     24  O   UNL A   1      30.330  28.343  21.670  1.00  0.00    -0.246 OA
BRANCH  23  25
ATOM     25  O   UNL A   1      29.559  29.311  23.612  1.00  0.00    -0.462 OA
BRANCH  25  26
ATOM     26  C   UNL A   1      28.921  30.365  22.873  1.00  0.00     0.230 C 
ATOM     27  C   UNL A   1      28.281  31.365  23.821  1.00  0.00     0.049 C 
ENDBRANCH  25  26
ENDBRANCH  23  25
ENDBRANCH  18  23
ENDBRANCH  14  17
ENDBRANCH   7  13
ENDBRANCH   3   6
ENDBRANCH   1   2
BRANCH   1  28
ATOM     28  C   UNL A   1      37.404  20.326  24.527  1.00  0.00     0.023 C 
BRANCH  28  29
ATOM     29  C   UNL A   1      38.334  19.388  25.308  1.00  0.00     0.023 C 
BRANCH  29  30
ATOM     30  C   UNL A   1      39.583  20.054  25.878  1.00  0.00     0.116 C 
BRANCH  30  31
ATOM     31  N   UNL A   1      40.670  19.106  26.059  1.00  0.00    -0.352 N 
ATOM     32  C   UNL A   1      42.013  19.333  26.210  1.00  0.00     0.251 C 
ATOM     33  H   UNL A   1      40.402  18.159  26.077  1.00  0.00     0.163 HD
ATOM     34  O   UNL A   1      42.798  18.392  26.138  1.00  0.00    -0.269 OA
BRANCH  32  35
ATOM     35  C   UNL A   1      42.510  20.701  26.453  1.00  0.00     0.039 A 
ATOM     36  C   UNL A   1      42.897  21.479  25.360  1.00  0.00     0.014 A 
ATOM     37  C   UNL A   1      42.627  21.204  27.753  1.00  0.00     0.014 A 
ATOM     38  C   UNL A   1      43.365  22.776  25.568  1.00  0.00     0.010 A 
ATOM     39  C   UNL A   1      43.030  22.520  27.954  1.00  0.00     0.010 A 
ATOM     40  C   UNL A   1      43.418  23.314  26.865  1.00  0.00    -0.014 A 
BRANCH  40  41
ATOM     41  C   UNL A   1      43.876  24.707  27.089  1.00  0.00     0.031 A 
ATOM     42  C   UNL A   1      42.935  25.739  27.645  1.00  0.00     0.074 A 
ATOM     43  C   UNL A   1      45.127  25.055  26.731  1.00  0.00     0.049 A 
ATOM     44  N   UNL A   1      43.163  26.997  27.919  1.00  0.00    -0.248 NA
ATOM     45  C   UNL A   1      41.549  25.313  27.903  1.00  0.00     0.031 C 
ATOM     46  C   UNL A   1      46.101  24.166  26.093  1.00  0.00     0.029 A 
ATOM     47  N   UNL A   1      45.789  26.251  26.836  1.00  0.00    -0.354 N 
ATOM     48  C   UNL A   1      41.950  27.520  28.351  1.00  0.00     0.074 A 
ATOM     49  C   UNL A   1      40.978  26.453  28.268  1.00  0.00     0.031 C 
ATOM     50  C   UNL A   1      47.239  24.846  25.875  1.00  0.00     0.029 A 
ATOM     51  C   UNL A   1      47.071  26.217  26.343  1.00  0.00     0.049 A 
ATOM     52  H   UNL A   1      45.383  27.058  27.227  1.00  0.00     0.167 HD
ATOM     53  C   UNL A   1      41.678  28.764  28.811  1.00  0.00     0.034 A 
ATOM     54  C   UNL A   1      48.011  27.182  26.284  1.00  0.00     0.034 A 
ATOM     55  C   UNL A   1      42.661  29.806  28.942  1.00  0.00     0.049 A 
ATOM     56  C   UNL A   1      47.705  28.533  26.871  1.00  0.00     0.074 A 
ATOM     57  C   UNL A   1      42.509  31.070  29.481  1.00  0.00     0.029 A 
ATOM     58  N   UNL A   1      43.980  29.704  28.526  1.00  0.00    -0.354 N 
ATOM     59  N   UNL A   1      46.601  28.954  27.440  1.00  0.00    -0.248 NA
ATOM     60  C   UNL A   1      48.787  29.526  26.850  1.00  0.00     0.031 C 
ATOM     61  C   UNL A   1      43.736  31.738  29.382  1.00  0.00     0.029 A 
ATOM     62  C   UNL A   1      44.654  30.883  28.795  1.00  0.00     0.049 A 
ATOM     63  H   UNL A   1      44.378  28.910  28.103  1.00  0.00     0.167 HD
ATOM     64  C   UNL A   1      46.866  30.247  27.874  1.00  0.00     0.074 A 
ATOM     65  C   UNL A   1      48.244  30.530  27.526  1.00  0.00     0.031 C 
ATOM     66  C   UNL A   1      46.040  31.129  28.490  1.00  0.00     0.034 A 
BRANCH  53  67
ATOM     67  C   UNL A   1      40.272  29.046  29.274  1.00  0.00     0.023 A 
ATOM     68  C   UNL A   1      39.301  29.436  28.329  1.00  0.00     0.012 A 
ATOM     69  C   UNL A   1      39.897  28.874  30.620  1.00  0.00     0.148 A 
ATOM     70  C   UNL A   1      37.986  29.682  28.721  1.00  0.00     0.002 A 
ATOM     71  C   UNL A   1      38.574  29.079  30.996  1.00  0.00     0.091 A 
ATOM     72  F   UNL A   1      40.839  28.527  31.508  1.00  0.00    -0.205 F 
ATOM     73  C   UNL A   1      37.620  29.494  30.052  1.00  0.00     0.022 A 
BRANCH  71  74
ATOM     74  S   UNL A   1      37.987  28.790  32.670  1.00  0.00     0.127 S 
ATOM     75  O   UNL A   1      38.107  27.337  32.778  1.00  0.00    -0.237 OA
ATOM     76  O   UNL A   1      38.954  29.543  33.470  1.00  0.00    -0.237 OA
ATOM     77  O   UNL A   1      36.629  29.313  32.712  1.00  0.00    -0.744 OA
ENDBRANCH  71  74
ENDBRANCH  53  67
BRANCH  54  78
ATOM     78  C   UNL A   1      49.359  26.870  25.734  1.00  0.00     0.023 A 
ATOM     79  C   UNL A   1      50.271  26.136  26.517  1.00  0.00     0.012 A 
ATOM     80  C   UNL A   1      49.729  27.258  24.431  1.00  0.00     0.148 A 
ATOM     81  C   UNL A   1      51.538  25.822  26.027  1.00  0.00     0.002 A 
ATOM     82  C   UNL A   1      50.972  26.894  23.929  1.00  0.00     0.091 A 
ATOM     83  F   UNL A   1      48.852  27.965  23.705  1.00  0.00    -0.205 F 
ATOM     84  C   UNL A   1      51.885  26.190  24.730  1.00  0.00     0.022 A 
BRANCH  82  85
ATOM     85  S   UNL A   1      51.446  27.209  22.225  1.00  0.00     0.127 S 
ATOM     86  O   UNL A   1      52.783  26.624  22.172  1.00  0.00    -0.237 OA
ATOM     87  O   UNL A   1      50.421  26.475  21.481  1.00  0.00    -0.237 OA
ATOM     88  O   UNL A   1      51.376  28.655  22.064  1.00  0.00    -0.744 OA
ENDBRANCH  82  85
ENDBRANCH  54  78
BRANCH  66  89
ATOM     89  C   UNL A   1      46.607  32.476  28.851  1.00  0.00     0.023 A 
ATOM     90  C   UNL A   1      47.232  32.657  30.101  1.00  0.00     0.012 A 
ATOM     91  C   UNL A   1      46.578  33.542  27.931  1.00  0.00     0.148 A 
ATOM     92  C   UNL A   1      47.788  33.889  30.443  1.00  0.00     0.002 A 
ATOM     93  C   UNL A   1      47.175  34.753  28.261  1.00  0.00     0.091 A 
ATOM     94  F   UNL A   1      45.960  33.358  26.755  1.00  0.00    -0.205 F 
ATOM     95  C   UNL A   1      47.771  34.932  29.520  1.00  0.00     0.022 A 
BRANCH  93  96
ATOM     96  S   UNL A   1      47.278  36.115  27.094  1.00  0.00     0.127 S 
ATOM     97  O   UNL A   1      47.978  35.494  25.971  1.00  0.00    -0.237 OA
ATOM     98  O   UNL A   1      45.869  36.421  26.841  1.00  0.00    -0.237 OA
ATOM     99  O   UNL A   1      48.006  37.172  27.785  1.00  0.00    -0.744 OA
ENDBRANCH  93  96
ENDBRANCH  66  89
ENDBRANCH  40  41
ENDBRANCH  32  35
ENDBRANCH  30  31
ENDBRANCH  29  30
ENDBRANCH  28  29
ENDBRANCH   1  28
TORSDOF 19
ENDMDL
