MODEL 1
REMARK VINA RESULT:     -11.9      0.000      0.000
REMARK SMILES N#Cc1cnc2cc(C(=O)NCCCCNC(=O)c3ccc(-c4c5nc(c(-c6cccc(S(=O)(=O)[O-])c6F)c6ccc([nH]6)c(-c6cccc(S(=O)(=O)[O-])c6F)c6nc(c(-c7cccc(S(=O)(=O)[O-])c7F)c7ccc4[nH]7)C=C6)C=C5)cc3)[nH]c2c1
REMARK SMILES IDX 14 1 13 2 12 3 11 4 9 5 10 6 8 8 3 9 4 10 84 11 5 12 83 13
REMARK SMILES IDX 6 14 82 15 7 16 2 18 1 19 15 20 16 21 17 22 18 24 19 25
REMARK SMILES IDX 20 26 81 27 21 28 80 29 22 30 23 31 24 32 74 33 25 34 79 35
REMARK SMILES IDX 73 36 75 37 26 38 78 39 72 40 71 41 27 43 59 44 39 45 58 46
REMARK SMILES IDX 40 47 43 48 57 49 76 50 41 51 42 52 56 54 77 55 44 56 28 57
REMARK SMILES IDX 29 58 37 59 30 60 32 61 38 62 31 63 33 64 34 65 35 66 36 67
REMARK SMILES IDX 60 68 61 69 69 70 62 71 64 72 70 73 63 74 65 75 66 76 67 77
REMARK SMILES IDX 68 78 45 79 46 80 54 81 47 82 49 83 55 84 48 85 50 86 51 87
REMARK SMILES IDX 52 88 53 89
REMARK H PARENT 11 7 82 17 16 23 75 42 43 53
REMARK Flexibility Score: inf
ROOT
ATOM      1  C   UNL A   1      37.615  19.952  24.938  1.00  0.00     0.023 C 
ENDROOT
BRANCH   1   2
ATOM      2  C   UNL A   1      36.591  21.059  24.638  1.00  0.00     0.023 C 
BRANCH   2   3
ATOM      3  C   UNL A   1      35.617  21.387  25.772  1.00  0.00     0.116 C 
BRANCH   3   4
ATOM      4  N   UNL A   1      34.366  20.662  25.683  1.00  0.00    -0.351 N 
ATOM      5  C   UNL A   1      33.228  20.852  24.943  1.00  0.00     0.267 C 
ATOM      6  O   UNL A   1      32.313  20.044  25.117  1.00  0.00    -0.268 OA
ATOM      7  H   UNL A   1      34.324  19.876  26.273  1.00  0.00     0.163 HD
BRANCH   5   8
ATOM      8  C   UNL A   1      33.034  21.974  24.047  1.00  0.00     0.107 A 
ATOM      9  C   UNL A   1      31.573  26.005  22.459  1.00  0.00     0.072 A 
ATOM     10  C   UNL A   1      32.780  25.839  21.785  1.00  0.00     0.131 A 
ATOM     11  C   UNL A   1      31.106  24.978  23.286  1.00  0.00     0.049 A 
ATOM     12  N   UNL A   1      33.572  24.748  21.846  1.00  0.00    -0.253 NA
ATOM     13  C   UNL A   1      31.943  23.866  23.397  1.00  0.00     0.066 A 
ATOM     14  C   UNL A   1      33.129  23.780  22.682  1.00  0.00     0.089 A 
ATOM     15  N   UNL A   1      31.862  22.716  24.144  1.00  0.00    -0.349 N 
ATOM     16  C   UNL A   1      33.754  22.563  23.023  1.00  0.00     0.062 A 
ATOM     17  H   UNL A   1      31.078  22.453  24.677  1.00  0.00     0.167 HD
BRANCH   9  18
ATOM     18  C   UNL A   1      30.851  27.221  22.311  1.00  0.00     0.101 C 
ATOM     19  N   UNL A   1      30.235  28.208  22.186  1.00  0.00    -0.192 NA
ENDBRANCH   9  18
ENDBRANCH   5   8
ENDBRANCH   3   4
ENDBRANCH   2   3
ENDBRANCH   1   2
BRANCH   1  20
ATOM     20  C   UNL A   1      38.842  20.405  25.724  1.00  0.00     0.116 C 
BRANCH  20  21
ATOM     21  N   UNL A   1      39.896  19.394  25.786  1.00  0.00    -0.352 N 
ATOM     22  C   UNL A   1      41.251  19.603  25.959  1.00  0.00     0.251 C 
ATOM     23  H   UNL A   1      39.607  18.458  25.693  1.00  0.00     0.163 HD
ATOM     24  O   UNL A   1      42.062  18.755  25.601  1.00  0.00    -0.269 OA
BRANCH  22  25
ATOM     25  C   UNL A   1      41.711  20.857  26.589  1.00  0.00     0.039 A 
ATOM     26  C   UNL A   1      42.075  21.959  25.811  1.00  0.00     0.014 A 
ATOM     27  C   UNL A   1      41.767  20.923  27.982  1.00  0.00     0.014 A 
ATOM     28  C   UNL A   1      42.416  23.148  26.450  1.00  0.00     0.010 A 
ATOM     29  C   UNL A   1      41.979  22.129  28.611  1.00  0.00     0.010 A 
ATOM     30  C   UNL A   1      42.336  23.237  27.854  1.00  0.00    -0.014 A 
BRANCH  30  31
ATOM     31  C   UNL A   1      42.406  24.546  28.506  1.00  0.00     0.031 A 
ATOM     32  C   UNL A   1      41.186  25.359  28.240  1.00  0.00     0.074 A 
ATOM     33  C   UNL A   1      43.357  24.905  29.400  1.00  0.00     0.049 A 
ATOM     34  N   UNL A   1      41.089  26.374  27.445  1.00  0.00    -0.248 NA
ATOM     35  C   UNL A   1      39.882  24.863  28.718  1.00  0.00     0.031 C 
ATOM     36  C   UNL A   1      44.409  24.045  29.958  1.00  0.00     0.029 A 
ATOM     37  N   UNL A   1      43.524  26.063  30.109  1.00  0.00    -0.354 N 
ATOM     38  C   UNL A   1      39.782  26.831  27.603  1.00  0.00     0.074 A 
ATOM     39  C   UNL A   1      39.040  25.732  28.151  1.00  0.00     0.031 C 
ATOM     40  C   UNL A   1      44.907  24.603  31.083  1.00  0.00     0.029 A 
ATOM     41  C   UNL A   1      44.344  25.930  31.235  1.00  0.00     0.049 A 
ATOM     42  H   UNL A   1      43.104  26.916  29.850  1.00  0.00     0.167 HD
ATOM     43  C   UNL A   1      39.538  28.171  27.641  1.00  0.00     0.034 A 
ATOM     44  C   UNL A   1      44.517  26.830  32.239  1.00  0.00     0.034 A 
ATOM     45  C   UNL A   1      40.697  28.896  27.188  1.00  0.00     0.049 A 
ATOM     46  C   UNL A   1      44.153  28.151  31.692  1.00  0.00     0.074 A 
ATOM     47  C   UNL A   1      41.363  29.103  26.002  1.00  0.00     0.029 A 
ATOM     48  N   UNL A   1      41.562  29.181  28.209  1.00  0.00    -0.354 N 
ATOM     49  N   UNL A   1      44.832  28.748  30.752  1.00  0.00    -0.248 NA
ATOM     50  C   UNL A   1      42.819  28.679  31.948  1.00  0.00     0.031 C 
ATOM     51  C   UNL A   1      42.712  29.393  26.358  1.00  0.00     0.029 A 
ATOM     52  C   UNL A   1      42.820  29.421  27.749  1.00  0.00     0.049 A 
ATOM     53  H   UNL A   1      41.306  29.209  29.160  1.00  0.00     0.167 HD
ATOM     54  C   UNL A   1      43.854  29.376  30.004  1.00  0.00     0.074 A 
ATOM     55  C   UNL A   1      42.689  29.463  30.876  1.00  0.00     0.031 C 
ATOM     56  C   UNL A   1      43.953  29.434  28.648  1.00  0.00     0.034 A 
BRANCH  43  57
ATOM     57  C   UNL A   1      38.547  28.867  28.564  1.00  0.00     0.023 A 
ATOM     58  C   UNL A   1      37.701  29.837  27.972  1.00  0.00     0.012 A 
ATOM     59  C   UNL A   1      38.602  28.861  29.976  1.00  0.00     0.148 A 
ATOM     60  C   UNL A   1      36.990  30.770  28.738  1.00  0.00     0.002 A 
ATOM     61  C   UNL A   1      37.833  29.738  30.737  1.00  0.00     0.091 A 
ATOM     62  F   UNL A   1      39.495  28.103  30.611  1.00  0.00    -0.205 F 
ATOM     63  C   UNL A   1      37.049  30.715  30.123  1.00  0.00     0.022 A 
BRANCH  61  64
ATOM     64  S   UNL A   1      37.837  29.683  32.535  1.00  0.00     0.127 S 
ATOM     65  O   UNL A   1      37.419  28.307  32.787  1.00  0.00    -0.237 OA
ATOM     66  O   UNL A   1      39.241  29.971  32.833  1.00  0.00    -0.237 OA
ATOM     67  O   UNL A   1      36.907  30.719  32.966  1.00  0.00    -0.744 OA
ENDBRANCH  61  64
ENDBRANCH  43  57
BRANCH  44  68
ATOM     68  C   UNL A   1      44.751  26.656  33.698  1.00  0.00     0.023 A 
ATOM     69  C   UNL A   1      45.940  27.157  34.276  1.00  0.00     0.012 A 
ATOM     70  C   UNL A   1      43.687  26.326  34.564  1.00  0.00     0.148 A 
ATOM     71  C   UNL A   1      46.039  27.392  35.655  1.00  0.00     0.002 A 
ATOM     72  C   UNL A   1      43.787  26.568  35.933  1.00  0.00     0.091 A 
ATOM     73  F   UNL A   1      42.548  25.861  34.036  1.00  0.00    -0.205 F 
ATOM     74  C   UNL A   1      44.954  27.118  36.480  1.00  0.00     0.022 A 
BRANCH  72  75
ATOM     75  S   UNL A   1      42.409  26.296  37.058  1.00  0.00     0.127 S 
ATOM     76  O   UNL A   1      42.022  24.922  36.733  1.00  0.00    -0.237 OA
ATOM     77  O   UNL A   1      43.047  26.460  38.361  1.00  0.00    -0.237 OA
ATOM     78  O   UNL A   1      41.411  27.300  36.713  1.00  0.00    -0.744 OA
ENDBRANCH  72  75
ENDBRANCH  44  68
BRANCH  56  79
ATOM     79  C   UNL A   1      45.307  29.365  28.018  1.00  0.00     0.023 A 
ATOM     80  C   UNL A   1      46.227  30.429  28.020  1.00  0.00     0.012 A 
ATOM     81  C   UNL A   1      45.719  28.092  27.595  1.00  0.00     0.148 A 
ATOM     82  C   UNL A   1      47.550  30.209  27.622  1.00  0.00     0.002 A 
ATOM     83  C   UNL A   1      47.045  27.863  27.270  1.00  0.00     0.091 A 
ATOM     84  F   UNL A   1      44.807  27.107  27.580  1.00  0.00    -0.205 F 
ATOM     85  C   UNL A   1      47.964  28.922  27.273  1.00  0.00     0.022 A 
BRANCH  83  86
ATOM     86  S   UNL A   1      47.655  26.201  26.992  1.00  0.00     0.127 S 
ATOM     87  O   UNL A   1      49.086  26.430  26.797  1.00  0.00    -0.237 OA
ATOM     88  O   UNL A   1      47.306  25.531  28.245  1.00  0.00    -0.237 OA
ATOM     89  O   UNL A   1      46.940  25.695  25.827  1.00  0.00    -0.744 OA
ENDBRANCH  83  86
ENDBRANCH  56  79
ENDBRANCH  30  31
ENDBRANCH  22  25
ENDBRANCH  20  21
ENDBRANCH   1  20
TORSDOF 15
ENDMDL
MODEL 2
REMARK VINA RESULT:     -11.7      4.075      9.456
REMARK SMILES N#Cc1cnc2cc(C(=O)NCCCCNC(=O)c3ccc(-c4c5nc(c(-c6cccc(S(=O)(=O)[O-])c6F)c6ccc([nH]6)c(-c6cccc(S(=O)(=O)[O-])c6F)c6nc(c(-c7cccc(S(=O)(=O)[O-])c7F)c7ccc4[nH]7)C=C6)C=C5)cc3)[nH]c2c1
REMARK SMILES IDX 14 1 13 2 12 3 11 4 9 5 10 6 8 8 3 9 4 10 84 11 5 12 83 13
REMARK SMILES IDX 6 14 82 15 7 16 2 18 1 19 15 20 16 21 17 22 18 24 19 25
REMARK SMILES IDX 20 26 81 27 21 28 80 29 22 30 23 31 24 32 74 33 25 34 79 35
REMARK SMILES IDX 73 36 75 37 26 38 78 39 72 40 71 41 27 43 59 44 39 45 58 46
REMARK SMILES IDX 40 47 43 48 57 49 76 50 41 51 42 52 56 54 77 55 44 56 28 57
REMARK SMILES IDX 29 58 37 59 30 60 32 61 38 62 31 63 33 64 34 65 35 66 36 67
REMARK SMILES IDX 60 68 61 69 69 70 62 71 64 72 70 73 63 74 65 75 66 76 67 77
REMARK SMILES IDX 68 78 45 79 46 80 54 81 47 82 49 83 55 84 48 85 50 86 51 87
REMARK SMILES IDX 52 88 53 89
REMARK H PARENT 11 7 82 17 16 23 75 42 43 53
REMARK Flexibility Score: inf
ROOT
ATOM      1  C   UNL A   1      31.630  32.077  26.784  1.00  0.00     0.023 C 
ENDROOT
BRANCH   1   2
ATOM      2  C   UNL A   1      31.781  30.550  26.868  1.00  0.00     0.023 C 
BRANCH   2   3
ATOM      3  C   UNL A   1      32.529  29.893  25.705  1.00  0.00     0.116 C 
BRANCH   3   4
ATOM      4  N   UNL A   1      31.704  29.693  24.531  1.00  0.00    -0.351 N 
ATOM      5  C   UNL A   1      30.977  28.627  24.071  1.00  0.00     0.267 C 
ATOM      6  O   UNL A   1      30.385  28.781  23.001  1.00  0.00    -0.268 OA
ATOM      7  H   UNL A   1      31.657  30.483  23.945  1.00  0.00     0.163 HD
BRANCH   5   8
ATOM      8  C   UNL A   1      30.941  27.339  24.732  1.00  0.00     0.107 A 
ATOM      9  C   UNL A   1      31.524  22.864  25.466  1.00  0.00     0.072 A 
ATOM     10  C   UNL A   1      31.558  23.383  26.756  1.00  0.00     0.131 A 
ATOM     11  C   UNL A   1      31.255  23.718  24.391  1.00  0.00     0.049 A 
ATOM     12  N   UNL A   1      31.345  24.673  27.091  1.00  0.00    -0.253 NA
ATOM     13  C   UNL A   1      31.085  25.064  24.721  1.00  0.00     0.066 A 
ATOM     14  C   UNL A   1      31.127  25.496  26.039  1.00  0.00     0.089 A 
ATOM     15  N   UNL A   1      30.875  26.186  23.957  1.00  0.00    -0.349 N 
ATOM     16  C   UNL A   1      30.946  26.895  26.043  1.00  0.00     0.062 A 
ATOM     17  H   UNL A   1      30.702  26.175  22.988  1.00  0.00     0.167 HD
BRANCH   9  18
ATOM     18  C   UNL A   1      31.786  21.480  25.262  1.00  0.00     0.101 C 
ATOM     19  N   UNL A   1      32.018  20.349  25.074  1.00  0.00    -0.192 NA
ENDBRANCH   9  18
ENDBRANCH   5   8
ENDBRANCH   3   4
ENDBRANCH   2   3
ENDBRANCH   1   2
BRANCH   1  20
ATOM     20  C   UNL A   1      32.875  32.870  27.169  1.00  0.00     0.116 C 
BRANCH  20  21
ATOM     21  N   UNL A   1      32.577  34.103  27.895  1.00  0.00    -0.352 N 
ATOM     22  C   UNL A   1      33.167  34.557  29.058  1.00  0.00     0.251 C 
ATOM     23  H   UNL A   1      31.873  34.675  27.510  1.00  0.00     0.163 HD
ATOM     24  O   UNL A   1      32.586  35.363  29.778  1.00  0.00    -0.269 OA
BRANCH  22  25
ATOM     25  C   UNL A   1      34.511  34.066  29.422  1.00  0.00     0.039 A 
ATOM     26  C   UNL A   1      34.688  33.185  30.492  1.00  0.00     0.014 A 
ATOM     27  C   UNL A   1      35.605  34.495  28.668  1.00  0.00     0.014 A 
ATOM     28  C   UNL A   1      35.962  32.679  30.740  1.00  0.00     0.010 A 
ATOM     29  C   UNL A   1      36.836  33.900  28.832  1.00  0.00     0.010 A 
ATOM     30  C   UNL A   1      37.029  33.016  29.886  1.00  0.00    -0.014 A 
BRANCH  30  31
ATOM     31  C   UNL A   1      38.287  32.270  29.961  1.00  0.00     0.031 A 
ATOM     32  C   UNL A   1      38.148  30.900  29.392  1.00  0.00     0.074 A 
ATOM     33  C   UNL A   1      39.477  32.810  30.315  1.00  0.00     0.049 A 
ATOM     34  N   UNL A   1      38.088  29.789  30.050  1.00  0.00    -0.248 NA
ATOM     35  C   UNL A   1      37.806  30.754  27.964  1.00  0.00     0.031 C 
ATOM     36  C   UNL A   1      39.754  34.229  30.579  1.00  0.00     0.029 A 
ATOM     37  N   UNL A   1      40.723  32.252  30.391  1.00  0.00    -0.354 N 
ATOM     38  C   UNL A   1      38.041  28.795  29.075  1.00  0.00     0.074 A 
ATOM     39  C   UNL A   1      37.594  29.438  27.872  1.00  0.00     0.031 C 
ATOM     40  C   UNL A   1      41.085  34.454  30.509  1.00  0.00     0.029 A 
ATOM     41  C   UNL A   1      41.768  33.183  30.371  1.00  0.00     0.049 A 
ATOM     42  H   UNL A   1      40.873  31.281  30.454  1.00  0.00     0.167 HD
ATOM     43  C   UNL A   1      38.749  27.645  29.254  1.00  0.00     0.034 A 
ATOM     44  C   UNL A   1      43.093  32.929  30.214  1.00  0.00     0.034 A 
ATOM     45  C   UNL A   1      39.193  27.546  30.620  1.00  0.00     0.049 A 
ATOM     46  C   UNL A   1      43.308  31.526  30.616  1.00  0.00     0.074 A 
ATOM     47  C   UNL A   1      38.628  27.329  31.855  1.00  0.00     0.029 A 
ATOM     48  N   UNL A   1      40.409  28.141  30.815  1.00  0.00    -0.354 N 
ATOM     49  N   UNL A   1      43.154  31.101  31.839  1.00  0.00    -0.248 NA
ATOM     50  C   UNL A   1      43.368  30.497  29.586  1.00  0.00     0.031 C 
ATOM     51  C   UNL A   1      39.500  27.947  32.797  1.00  0.00     0.029 A 
ATOM     52  C   UNL A   1      40.605  28.466  32.122  1.00  0.00     0.049 A 
ATOM     53  H   UNL A   1      41.062  28.313  30.098  1.00  0.00     0.167 HD
ATOM     54  C   UNL A   1      42.625  29.836  31.671  1.00  0.00     0.074 A 
ATOM     55  C   UNL A   1      42.956  29.450  30.305  1.00  0.00     0.031 C 
ATOM     56  C   UNL A   1      41.662  29.372  32.514  1.00  0.00     0.034 A 
BRANCH  43  57
ATOM     57  C   UNL A   1      39.520  26.899  28.172  1.00  0.00     0.023 A 
ATOM     58  C   UNL A   1      39.336  25.496  28.113  1.00  0.00     0.012 A 
ATOM     59  C   UNL A   1      40.612  27.420  27.441  1.00  0.00     0.148 A 
ATOM     60  C   UNL A   1      40.211  24.661  27.406  1.00  0.00     0.002 A 
ATOM     61  C   UNL A   1      41.433  26.597  26.675  1.00  0.00     0.091 A 
ATOM     62  F   UNL A   1      40.963  28.698  27.576  1.00  0.00    -0.205 F 
ATOM     63  C   UNL A   1      41.256  25.212  26.678  1.00  0.00     0.022 A 
BRANCH  61  64
ATOM     64  S   UNL A   1      42.775  27.261  25.679  1.00  0.00     0.127 S 
ATOM     65  O   UNL A   1      42.072  28.241  24.856  1.00  0.00    -0.237 OA
ATOM     66  O   UNL A   1      43.650  27.825  26.707  1.00  0.00    -0.237 OA
ATOM     67  O   UNL A   1      43.343  26.123  24.967  1.00  0.00    -0.744 OA
ENDBRANCH  61  64
ENDBRANCH  43  57
BRANCH  44  68
ATOM     68  C   UNL A   1      44.177  33.695  29.540  1.00  0.00     0.023 A 
ATOM     69  C   UNL A   1      45.270  34.171  30.302  1.00  0.00     0.012 A 
ATOM     70  C   UNL A   1      44.320  33.659  28.137  1.00  0.00     0.148 A 
ATOM     71  C   UNL A   1      46.484  34.523  29.695  1.00  0.00     0.002 A 
ATOM     72  C   UNL A   1      45.531  34.004  27.539  1.00  0.00     0.091 A 
ATOM     73  F   UNL A   1      43.301  33.201  27.398  1.00  0.00    -0.205 F 
ATOM     74  C   UNL A   1      46.621  34.419  28.315  1.00  0.00     0.022 A 
BRANCH  72  75
ATOM     75  S   UNL A   1      45.807  33.840  25.768  1.00  0.00     0.127 S 
ATOM     76  O   UNL A   1      45.539  32.417  25.552  1.00  0.00    -0.237 OA
ATOM     77  O   UNL A   1      44.798  34.742  25.222  1.00  0.00    -0.237 OA
ATOM     78  O   UNL A   1      47.192  34.232  25.545  1.00  0.00    -0.744 OA
ENDBRANCH  72  75
ENDBRANCH  44  68
BRANCH  56  79
ATOM     79  C   UNL A   1      41.586  29.928  33.900  1.00  0.00     0.023 A 
ATOM     80  C   UNL A   1      42.467  29.572  34.937  1.00  0.00     0.012 A 
ATOM     81  C   UNL A   1      40.707  31.008  34.077  1.00  0.00     0.148 A 
ATOM     82  C   UNL A   1      42.478  30.306  36.127  1.00  0.00     0.002 A 
ATOM     83  C   UNL A   1      40.771  31.775  35.227  1.00  0.00     0.091 A 
ATOM     84  F   UNL A   1      39.861  31.302  33.076  1.00  0.00    -0.205 F 
ATOM     85  C   UNL A   1      41.649  31.423  36.261  1.00  0.00     0.022 A 
BRANCH  83  86
ATOM     86  S   UNL A   1      39.859  33.312  35.365  1.00  0.00     0.127 S 
ATOM     87  O   UNL A   1      40.293  34.032  34.169  1.00  0.00    -0.237 OA
ATOM     88  O   UNL A   1      38.470  32.851  35.335  1.00  0.00    -0.237 OA
ATOM     89  O   UNL A   1      40.261  33.910  36.633  1.00  0.00    -0.744 OA
ENDBRANCH  83  86
ENDBRANCH  56  79
ENDBRANCH  30  31
ENDBRANCH  22  25
ENDBRANCH  20  21
ENDBRANCH   1  20
TORSDOF 15
ENDMDL
MODEL 3
REMARK VINA RESULT:     -11.6      1.764      2.153
REMARK SMILES N#Cc1cnc2cc(C(=O)NCCCCNC(=O)c3ccc(-c4c5nc(c(-c6cccc(S(=O)(=O)[O-])c6F)c6ccc([nH]6)c(-c6cccc(S(=O)(=O)[O-])c6F)c6nc(c(-c7cccc(S(=O)(=O)[O-])c7F)c7ccc4[nH]7)C=C6)C=C5)cc3)[nH]c2c1
REMARK SMILES IDX 14 1 13 2 12 3 11 4 9 5 10 6 8 8 3 9 4 10 84 11 5 12 83 13
REMARK SMILES IDX 6 14 82 15 7 16 2 18 1 19 15 20 16 21 17 22 18 24 19 25
REMARK SMILES IDX 20 26 81 27 21 28 80 29 22 30 23 31 24 32 74 33 25 34 79 35
REMARK SMILES IDX 73 36 75 37 26 38 78 39 72 40 71 41 27 43 59 44 39 45 58 46
REMARK SMILES IDX 40 47 43 48 57 49 76 50 41 51 42 52 56 54 77 55 44 56 28 57
REMARK SMILES IDX 29 58 37 59 30 60 32 61 38 62 31 63 33 64 34 65 35 66 36 67
REMARK SMILES IDX 60 68 61 69 69 70 62 71 64 72 70 73 63 74 65 75 66 76 67 77
REMARK SMILES IDX 68 78 45 79 46 80 54 81 47 82 49 83 55 84 48 85 50 86 51 87
REMARK SMILES IDX 52 88 53 89
REMARK H PARENT 11 7 82 17 16 23 75 42 43 53
REMARK Flexibility Score: inf
ROOT
ATOM      1  C   UNL A   1      38.105  20.098  24.650  1.00  0.00     0.023 C 
ENDROOT
BRANCH   1   2
ATOM      2  C   UNL A   1      36.781  19.394  24.990  1.00  0.00     0.023 C 
BRANCH   2   3
ATOM      3  C   UNL A   1      35.540  20.290  25.011  1.00  0.00     0.116 C 
BRANCH   3   4
ATOM      4  N   UNL A   1      34.296  19.548  25.029  1.00  0.00    -0.351 N 
ATOM      5  C   UNL A   1      32.984  19.927  25.135  1.00  0.00     0.267 C 
ATOM      6  O   UNL A   1      32.144  19.025  25.134  1.00  0.00    -0.268 OA
ATOM      7  H   UNL A   1      34.418  18.574  24.949  1.00  0.00     0.163 HD
BRANCH   5   8
ATOM      8  C   UNL A   1      32.561  21.300  25.320  1.00  0.00     0.107 A 
ATOM      9  C   UNL A   1      30.412  25.272  24.601  1.00  0.00     0.072 A 
ATOM     10  C   UNL A   1      30.581  25.271  25.982  1.00  0.00     0.131 A 
ATOM     11  C   UNL A   1      30.959  24.231  23.844  1.00  0.00     0.049 A 
ATOM     12  N   UNL A   1      31.248  24.338  26.693  1.00  0.00    -0.253 NA
ATOM     13  C   UNL A   1      31.607  23.232  24.575  1.00  0.00     0.066 A 
ATOM     14  C   UNL A   1      31.737  23.314  25.954  1.00  0.00     0.089 A 
ATOM     15  N   UNL A   1      32.198  22.049  24.205  1.00  0.00    -0.349 N 
ATOM     16  C   UNL A   1      32.409  22.156  26.397  1.00  0.00     0.062 A 
ATOM     17  H   UNL A   1      32.346  21.768  23.273  1.00  0.00     0.167 HD
BRANCH   9  18
ATOM     18  C   UNL A   1      29.667  26.318  23.988  1.00  0.00     0.101 C 
ATOM     19  N   UNL A   1      29.033  27.171  23.499  1.00  0.00    -0.192 NA
ENDBRANCH   9  18
ENDBRANCH   5   8
ENDBRANCH   3   4
ENDBRANCH   2   3
ENDBRANCH   1   2
BRANCH   1  20
ATOM     20  C   UNL A   1      39.075  20.246  25.818  1.00  0.00     0.116 C 
BRANCH  20  21
ATOM     21  N   UNL A   1      40.205  19.322  25.755  1.00  0.00    -0.352 N 
ATOM     22  C   UNL A   1      41.549  19.630  25.838  1.00  0.00     0.251 C 
ATOM     23  H   UNL A   1      39.982  18.370  25.639  1.00  0.00     0.163 HD
ATOM     24  O   UNL A   1      42.392  18.866  25.382  1.00  0.00    -0.269 OA
BRANCH  22  25
ATOM     25  C   UNL A   1      41.959  20.889  26.491  1.00  0.00     0.039 A 
ATOM     26  C   UNL A   1      42.236  22.032  25.736  1.00  0.00     0.014 A 
ATOM     27  C   UNL A   1      42.056  20.919  27.883  1.00  0.00     0.014 A 
ATOM     28  C   UNL A   1      42.530  23.220  26.401  1.00  0.00     0.010 A 
ATOM     29  C   UNL A   1      42.222  22.117  28.542  1.00  0.00     0.010 A 
ATOM     30  C   UNL A   1      42.492  23.264  27.808  1.00  0.00    -0.014 A 
BRANCH  30  31
ATOM     31  C   UNL A   1      42.510  24.556  28.498  1.00  0.00     0.031 A 
ATOM     32  C   UNL A   1      41.278  25.346  28.218  1.00  0.00     0.074 A 
ATOM     33  C   UNL A   1      43.425  24.913  29.429  1.00  0.00     0.049 A 
ATOM     34  N   UNL A   1      41.178  26.379  27.448  1.00  0.00    -0.248 NA
ATOM     35  C   UNL A   1      39.973  24.805  28.644  1.00  0.00     0.031 C 
ATOM     36  C   UNL A   1      44.483  24.063  29.993  1.00  0.00     0.029 A 
ATOM     37  N   UNL A   1      43.543  26.055  30.174  1.00  0.00    -0.354 N 
ATOM     38  C   UNL A   1      39.856  26.800  27.580  1.00  0.00     0.074 A 
ATOM     39  C   UNL A   1      39.126  25.668  28.077  1.00  0.00     0.031 C 
ATOM     40  C   UNL A   1      44.934  24.602  31.147  1.00  0.00     0.029 A 
ATOM     41  C   UNL A   1      44.333  25.910  31.319  1.00  0.00     0.049 A 
ATOM     42  H   UNL A   1      43.109  26.903  29.926  1.00  0.00     0.167 HD
ATOM     43  C   UNL A   1      39.577  28.132  27.647  1.00  0.00     0.034 A 
ATOM     44  C   UNL A   1      44.454  26.786  32.351  1.00  0.00     0.034 A 
ATOM     45  C   UNL A   1      40.730  28.897  27.249  1.00  0.00     0.049 A 
ATOM     46  C   UNL A   1      44.073  28.112  31.830  1.00  0.00     0.074 A 
ATOM     47  C   UNL A   1      41.424  29.154  26.089  1.00  0.00     0.029 A 
ATOM     48  N   UNL A   1      41.558  29.175  28.302  1.00  0.00    -0.354 N 
ATOM     49  N   UNL A   1      44.763  28.752  30.927  1.00  0.00    -0.248 NA
ATOM     50  C   UNL A   1      42.720  28.600  32.061  1.00  0.00     0.031 C 
ATOM     51  C   UNL A   1      42.755  29.466  26.492  1.00  0.00     0.029 A 
ATOM     52  C   UNL A   1      42.822  29.459  27.885  1.00  0.00     0.049 A 
ATOM     53  H   UNL A   1      41.274  29.170  29.245  1.00  0.00     0.167 HD
ATOM     54  C   UNL A   1      43.792  29.376  30.168  1.00  0.00     0.074 A 
ATOM     55  C   UNL A   1      42.601  29.411  31.008  1.00  0.00     0.031 C 
ATOM     56  C   UNL A   1      43.928  29.474  28.818  1.00  0.00     0.034 A 
BRANCH  43  57
ATOM     57  C   UNL A   1      38.543  28.778  28.559  1.00  0.00     0.023 A 
ATOM     58  C   UNL A   1      37.640  29.686  27.953  1.00  0.00     0.012 A 
ATOM     59  C   UNL A   1      38.595  28.794  29.972  1.00  0.00     0.148 A 
ATOM     60  C   UNL A   1      36.871  30.583  28.705  1.00  0.00     0.002 A 
ATOM     61  C   UNL A   1      37.772  29.632  30.720  1.00  0.00     0.091 A 
ATOM     62  F   UNL A   1      39.532  28.101  30.618  1.00  0.00    -0.205 F 
ATOM     63  C   UNL A   1      36.929  30.550  30.091  1.00  0.00     0.022 A 
BRANCH  61  64
ATOM     64  S   UNL A   1      37.775  29.601  32.518  1.00  0.00     0.127 S 
ATOM     65  O   UNL A   1      36.713  30.554  32.829  1.00  0.00    -0.237 OA
ATOM     66  O   UNL A   1      37.452  28.199  32.787  1.00  0.00    -0.237 OA
ATOM     67  O   UNL A   1      39.120  29.994  32.920  1.00  0.00    -0.744 OA
ENDBRANCH  61  64
ENDBRANCH  43  57
BRANCH  44  68
ATOM     68  C   UNL A   1      44.651  26.576  33.811  1.00  0.00     0.023 A 
ATOM     69  C   UNL A   1      45.843  27.028  34.425  1.00  0.00     0.012 A 
ATOM     70  C   UNL A   1      43.558  26.265  34.648  1.00  0.00     0.148 A 
ATOM     71  C   UNL A   1      45.918  27.234  35.809  1.00  0.00     0.002 A 
ATOM     72  C   UNL A   1      43.636  26.478  36.023  1.00  0.00     0.091 A 
ATOM     73  F   UNL A   1      42.417  25.848  34.087  1.00  0.00    -0.205 F 
ATOM     74  C   UNL A   1      44.808  26.979  36.606  1.00  0.00     0.022 A 
BRANCH  72  75
ATOM     75  S   UNL A   1      42.226  26.229  37.113  1.00  0.00     0.127 S 
ATOM     76  O   UNL A   1      42.834  26.392  38.435  1.00  0.00    -0.237 OA
ATOM     77  O   UNL A   1      41.338  27.316  36.710  1.00  0.00    -0.237 OA
ATOM     78  O   UNL A   1      41.743  24.883  36.836  1.00  0.00    -0.744 OA
ENDBRANCH  72  75
ENDBRANCH  44  68
BRANCH  56  79
ATOM     79  C   UNL A   1      45.301  29.456  28.226  1.00  0.00     0.023 A 
ATOM     80  C   UNL A   1      45.880  28.326  27.622  1.00  0.00     0.012 A 
ATOM     81  C   UNL A   1      45.930  30.706  28.106  1.00  0.00     0.148 A 
ATOM     82  C   UNL A   1      47.063  28.456  26.887  1.00  0.00     0.002 A 
ATOM     83  C   UNL A   1      47.061  30.842  27.321  1.00  0.00     0.091 A 
ATOM     84  F   UNL A   1      45.364  31.757  28.720  1.00  0.00    -0.205 F 
ATOM     85  C   UNL A   1      47.638  29.717  26.715  1.00  0.00     0.022 A 
BRANCH  83  86
ATOM     86  S   UNL A   1      47.725  32.460  26.928  1.00  0.00     0.127 S 
ATOM     87  O   UNL A   1      49.009  32.122  26.318  1.00  0.00    -0.237 OA
ATOM     88  O   UNL A   1      46.723  32.987  26.000  1.00  0.00    -0.237 OA
ATOM     89  O   UNL A   1      47.805  33.184  28.191  1.00  0.00    -0.744 OA
ENDBRANCH  83  86
ENDBRANCH  56  79
ENDBRANCH  30  31
ENDBRANCH  22  25
ENDBRANCH  20  21
ENDBRANCH   1  20
TORSDOF 15
ENDMDL
