MODEL 1
REMARK VINA RESULT:     -13.3      0.000      0.000
REMARK SMILES Cc1ccc2[nH]cc([C@@H](C(=O)NCCCCNC(=O)c3ccc(-c4c5nc(c(-c6cccc(S(=O)(=O)[O-])c6F)c6ccc([nH]6)c(-c6cccc(S(=O)(=O)[O-])c6F)c6nc(c(-c7cccc(S(=O)(=O)[O-])c7F)c7ccc4[nH]7)C=C6)C=C5)cc3)[NH+]3CCN(c4cccc(Cl)c4)CC3)c2c1
REMARK SMILES IDX 15 1 14 2 13 3 12 4 10 5 11 6 9 8 8 9 1 10 2 11 3 12 97 13
REMARK SMILES IDX 4 14 96 15 5 16 6 17 7 18 83 20 84 21 95 22 85 24 94 25
REMARK SMILES IDX 86 26 87 27 88 28 93 29 89 30 91 31 90 32 92 33 16 34 17 35
REMARK SMILES IDX 18 36 19 38 20 39 21 40 82 41 22 42 81 43 23 44 24 45 25 46
REMARK SMILES IDX 75 47 26 48 80 49 74 50 76 51 27 52 79 53 73 54 72 55 28 57
REMARK SMILES IDX 60 58 40 59 59 60 41 61 44 62 58 63 77 64 42 65 43 66 57 68
REMARK SMILES IDX 78 69 45 70 29 71 30 72 38 73 31 74 33 75 39 76 32 77 34 78
REMARK SMILES IDX 35 79 36 80 37 81 61 82 62 83 70 84 63 85 65 86 71 87 64 88
REMARK SMILES IDX 66 89 67 90 68 91 69 92 46 93 47 94 55 95 48 96 50 97 56 98
REMARK SMILES IDX 49 99 51 100 52 101 53 102 54 103
REMARK H PARENT 12 7 6 19 83 23 17 37 76 56 44 67
REMARK Flexibility Score: inf
ROOT
ATOM      1  C   UNL A   1      31.812  31.240  26.575  1.00  0.00     0.023 C 
ENDROOT
BRANCH   1   2
ATOM      2  C   UNL A   1      31.761  29.793  27.053  1.00  0.00     0.023 C 
BRANCH   2   3
ATOM      3  C   UNL A   1      32.953  28.933  26.635  1.00  0.00     0.116 C 
BRANCH   3   4
ATOM      4  N   UNL A   1      32.668  27.518  26.753  1.00  0.00    -0.351 N 
ATOM      5  C   UNL A   1      32.104  26.665  25.836  1.00  0.00     0.283 C 
ATOM      6  O   UNL A   1      31.956  25.498  26.210  1.00  0.00    -0.268 OA
ATOM      7  H   UNL A   1      32.915  27.108  27.613  1.00  0.00     0.163 HD
BRANCH   5   8
ATOM      8  C   UNL A   1      31.764  27.179  24.393  1.00  0.00     0.307 C 
BRANCH   8   9
ATOM      9  C   UNL A   1      30.286  27.150  24.085  1.00  0.00     0.044 A 
ATOM     10  C   UNL A   1      28.979  32.008  23.068  1.00  0.00     0.044 C 
ATOM     11  C   UNL A   1      28.705  30.534  23.149  1.00  0.00    -0.050 A 
ATOM     12  C   UNL A   1      27.414  30.036  22.968  1.00  0.00     0.005 A 
ATOM     13  C   UNL A   1      29.752  29.652  23.471  1.00  0.00     0.014 A 
ATOM     14  C   UNL A   1      27.126  28.677  23.134  1.00  0.00     0.027 A 
ATOM     15  C   UNL A   1      29.485  28.278  23.675  1.00  0.00     0.009 A 
ATOM     16  C   UNL A   1      28.174  27.833  23.516  1.00  0.00     0.046 A 
ATOM     17  N   UNL A   1      28.160  26.496  23.830  1.00  0.00    -0.361 N 
ATOM     18  C   UNL A   1      29.403  26.094  24.237  1.00  0.00     0.094 A 
ATOM     19  H   UNL A   1      27.369  25.911  23.773  1.00  0.00     0.166 HD
ENDBRANCH   8   9
BRANCH   8  20
ATOM     20  N   UNL A   1      32.600  26.547  23.345  1.00  0.00    -0.318 N 
ATOM     21  C   UNL A   1      34.024  26.307  23.631  1.00  0.00     0.284 C 
ATOM     22  C   UNL A   1      32.003  25.369  22.694  1.00  0.00     0.284 C 
ATOM     23  H   UNL A   1      32.605  27.320  22.679  1.00  0.00     0.349 HD
ATOM     24  C   UNL A   1      34.416  24.949  24.251  1.00  0.00     0.178 C 
ATOM     25  C   UNL A   1      32.283  23.999  23.355  1.00  0.00     0.178 C 
ATOM     26  N   UNL A   1      33.715  23.816  23.630  1.00  0.00    -0.360 N 
BRANCH  26  27
ATOM     27  C   UNL A   1      34.070  22.544  24.080  1.00  0.00     0.038 A 
ATOM     28  C   UNL A   1      35.316  22.266  24.665  1.00  0.00     0.026 A 
ATOM     29  C   UNL A   1      33.154  21.496  23.942  1.00  0.00     0.046 A 
ATOM     30  C   UNL A   1      35.655  20.971  25.064  1.00  0.00     0.004 A 
ATOM     31  C   UNL A   1      33.494  20.203  24.335  1.00  0.00     0.043 A 
ATOM     32  C   UNL A   1      34.743  19.934  24.890  1.00  0.00     0.020 A 
ATOM     33  Cl  UNL A   1      32.363  18.922  24.120  1.00  0.00    -0.084 Cl
ENDBRANCH  26  27
ENDBRANCH   8  20
ENDBRANCH   5   8
ENDBRANCH   3   4
ENDBRANCH   2   3
ENDBRANCH   1   2
BRANCH   1  34
ATOM     34  C   UNL A   1      32.970  32.047  27.135  1.00  0.00     0.116 C 
BRANCH  34  35
ATOM     35  N   UNL A   1      32.613  33.430  27.418  1.00  0.00    -0.352 N 
ATOM     36  C   UNL A   1      33.133  34.262  28.381  1.00  0.00     0.251 C 
ATOM     37  H   UNL A   1      31.910  33.817  26.848  1.00  0.00     0.163 HD
ATOM     38  O   UNL A   1      32.644  35.364  28.578  1.00  0.00    -0.269 OA
BRANCH  36  39
ATOM     39  C   UNL A   1      34.270  33.782  29.193  1.00  0.00     0.039 A 
ATOM     40  C   UNL A   1      34.020  32.893  30.241  1.00  0.00     0.014 A 
ATOM     41  C   UNL A   1      35.576  34.168  28.883  1.00  0.00     0.014 A 
ATOM     42  C   UNL A   1      35.094  32.350  30.948  1.00  0.00     0.010 A 
ATOM     43  C   UNL A   1      36.644  33.558  29.529  1.00  0.00     0.010 A 
ATOM     44  C   UNL A   1      36.414  32.658  30.578  1.00  0.00    -0.014 A 
BRANCH  44  45
ATOM     45  C   UNL A   1      37.570  32.060  31.290  1.00  0.00     0.031 A 
ATOM     46  C   UNL A   1      38.343  30.937  30.653  1.00  0.00     0.074 A 
ATOM     47  C   UNL A   1      37.870  32.470  32.537  1.00  0.00     0.049 A 
ATOM     48  N   UNL A   1      39.359  30.264  31.127  1.00  0.00    -0.248 NA
ATOM     49  C   UNL A   1      37.897  30.485  29.323  1.00  0.00     0.031 C 
ATOM     50  C   UNL A   1      37.133  33.484  33.296  1.00  0.00     0.029 A 
ATOM     51  N   UNL A   1      38.862  32.069  33.395  1.00  0.00    -0.354 N 
ATOM     52  C   UNL A   1      39.647  29.293  30.177  1.00  0.00     0.074 A 
ATOM     53  C   UNL A   1      38.674  29.433  29.118  1.00  0.00     0.031 C 
ATOM     54  C   UNL A   1      37.705  33.630  34.503  1.00  0.00     0.029 A 
ATOM     55  C   UNL A   1      38.833  32.711  34.612  1.00  0.00     0.049 A 
ATOM     56  H   UNL A   1      39.531  31.385  33.163  1.00  0.00     0.167 HD
ATOM     57  C   UNL A   1      40.654  28.388  30.167  1.00  0.00     0.034 A 
ATOM     58  C   UNL A   1      39.628  32.574  35.690  1.00  0.00     0.034 A 
ATOM     59  C   UNL A   1      41.654  28.292  31.196  1.00  0.00     0.049 A 
ATOM     60  C   UNL A   1      40.785  31.612  35.622  1.00  0.00     0.074 A 
ATOM     61  C   UNL A   1      42.770  27.477  31.236  1.00  0.00     0.029 A 
ATOM     62  N   UNL A   1      41.655  29.034  32.366  1.00  0.00    -0.354 N 
ATOM     63  N   UNL A   1      41.144  30.821  34.641  1.00  0.00    -0.248 NA
ATOM     64  C   UNL A   1      41.671  31.557  36.794  1.00  0.00     0.031 C 
ATOM     65  C   UNL A   1      43.441  27.717  32.440  1.00  0.00     0.029 A 
ATOM     66  C   UNL A   1      42.752  28.697  33.139  1.00  0.00     0.049 A 
ATOM     67  H   UNL A   1      40.976  29.702  32.611  1.00  0.00     0.167 HD
ATOM     68  C   UNL A   1      42.317  30.204  35.058  1.00  0.00     0.074 A 
ATOM     69  C   UNL A   1      42.619  30.731  36.374  1.00  0.00     0.031 C 
ATOM     70  C   UNL A   1      43.070  29.273  34.419  1.00  0.00     0.034 A 
BRANCH  57  71
ATOM     71  C   UNL A   1      40.762  27.476  28.973  1.00  0.00     0.023 A 
ATOM     72  C   UNL A   1      39.885  26.378  28.857  1.00  0.00     0.012 A 
ATOM     73  C   UNL A   1      41.693  27.727  27.947  1.00  0.00     0.148 A 
ATOM     74  C   UNL A   1      39.956  25.523  27.758  1.00  0.00     0.002 A 
ATOM     75  C   UNL A   1      41.726  26.898  26.832  1.00  0.00     0.091 A 
ATOM     76  F   UNL A   1      42.536  28.761  28.086  1.00  0.00    -0.205 F 
ATOM     77  C   UNL A   1      40.868  25.789  26.742  1.00  0.00     0.022 A 
BRANCH  75  78
ATOM     78  S   UNL A   1      42.809  27.202  25.431  1.00  0.00     0.127 S 
ATOM     79  O   UNL A   1      44.088  27.454  26.096  1.00  0.00    -0.237 OA
ATOM     80  O   UNL A   1      42.740  25.932  24.707  1.00  0.00    -0.237 OA
ATOM     81  O   UNL A   1      42.239  28.337  24.722  1.00  0.00    -0.744 OA
ENDBRANCH  75  78
ENDBRANCH  57  71
BRANCH  58  82
ATOM     82  C   UNL A   1      39.411  33.431  36.889  1.00  0.00     0.023 A 
ATOM     83  C   UNL A   1      39.858  34.768  36.871  1.00  0.00     0.012 A 
ATOM     84  C   UNL A   1      38.742  32.946  38.029  1.00  0.00     0.148 A 
ATOM     85  C   UNL A   1      39.675  35.595  37.980  1.00  0.00     0.002 A 
ATOM     86  C   UNL A   1      38.515  33.792  39.109  1.00  0.00     0.091 A 
ATOM     87  F   UNL A   1      38.334  31.671  38.031  1.00  0.00    -0.205 F 
ATOM     88  C   UNL A   1      38.995  35.111  39.094  1.00  0.00     0.022 A 
BRANCH  86  89
ATOM     89  S   UNL A   1      37.532  33.295  40.529  1.00  0.00     0.127 S 
ATOM     90  O   UNL A   1      37.523  34.518  41.329  1.00  0.00    -0.237 OA
ATOM     91  O   UNL A   1      36.251  32.956  39.908  1.00  0.00    -0.237 OA
ATOM     92  O   UNL A   1      38.233  32.159  41.112  1.00  0.00    -0.744 OA
ENDBRANCH  86  89
ENDBRANCH  58  82
BRANCH  70  93
ATOM     93  C   UNL A   1      44.316  28.789  35.111  1.00  0.00     0.023 A 
ATOM     94  C   UNL A   1      45.554  29.403  34.836  1.00  0.00     0.012 A 
ATOM     95  C   UNL A   1      44.247  27.775  36.086  1.00  0.00     0.148 A 
ATOM     96  C   UNL A   1      46.710  28.990  35.496  1.00  0.00     0.002 A 
ATOM     97  C   UNL A   1      45.396  27.402  36.775  1.00  0.00     0.091 A 
ATOM     98  F   UNL A   1      43.064  27.189  36.318  1.00  0.00    -0.205 F 
ATOM     99  C   UNL A   1      46.630  27.999  36.472  1.00  0.00     0.022 A 
BRANCH  97 100
ATOM    100  S   UNL A   1      45.361  26.207  38.114  1.00  0.00     0.127 S 
ATOM    101  O   UNL A   1      45.052  24.969  37.402  1.00  0.00    -0.237 OA
ATOM    102  O   UNL A   1      46.726  26.283  38.638  1.00  0.00    -0.237 OA
ATOM    103  O   UNL A   1      44.338  26.673  39.039  1.00  0.00    -0.744 OA
ENDBRANCH  97 100
ENDBRANCH  70  93
ENDBRANCH  44  45
ENDBRANCH  36  39
ENDBRANCH  34  35
ENDBRANCH   1  34
TORSDOF 17
ENDMDL
MODEL 2
REMARK VINA RESULT:     -13.2      1.684      7.509
REMARK SMILES Cc1ccc2[nH]cc([C@@H](C(=O)NCCCCNC(=O)c3ccc(-c4c5nc(c(-c6cccc(S(=O)(=O)[O-])c6F)c6ccc([nH]6)c(-c6cccc(S(=O)(=O)[O-])c6F)c6nc(c(-c7cccc(S(=O)(=O)[O-])c7F)c7ccc4[nH]7)C=C6)C=C5)cc3)[NH+]3CCN(c4cccc(Cl)c4)CC3)c2c1
REMARK SMILES IDX 15 1 14 2 13 3 12 4 10 5 11 6 9 8 8 9 1 10 2 11 3 12 97 13
REMARK SMILES IDX 4 14 96 15 5 16 6 17 7 18 83 20 84 21 95 22 85 24 94 25
REMARK SMILES IDX 86 26 87 27 88 28 93 29 89 30 91 31 90 32 92 33 16 34 17 35
REMARK SMILES IDX 18 36 19 38 20 39 21 40 82 41 22 42 81 43 23 44 24 45 25 46
REMARK SMILES IDX 75 47 26 48 80 49 74 50 76 51 27 52 79 53 73 54 72 55 28 57
REMARK SMILES IDX 60 58 40 59 59 60 41 61 44 62 58 63 77 64 42 65 43 66 57 68
REMARK SMILES IDX 78 69 45 70 29 71 30 72 38 73 31 74 33 75 39 76 32 77 34 78
REMARK SMILES IDX 35 79 36 80 37 81 61 82 62 83 70 84 63 85 65 86 71 87 64 88
REMARK SMILES IDX 66 89 67 90 68 91 69 92 46 93 47 94 55 95 48 96 50 97 56 98
REMARK SMILES IDX 49 99 51 100 52 101 53 102 54 103
REMARK H PARENT 12 7 6 19 83 23 17 37 76 56 44 67
REMARK Flexibility Score: inf
ROOT
ATOM      1  C   UNL A   1      31.734  30.746  26.660  1.00  0.00     0.023 C 
ENDROOT
BRANCH   1   2
ATOM      2  C   UNL A   1      31.717  29.324  27.210  1.00  0.00     0.023 C 
BRANCH   2   3
ATOM      3  C   UNL A   1      32.855  28.429  26.723  1.00  0.00     0.116 C 
BRANCH   3   4
ATOM      4  N   UNL A   1      32.497  27.026  26.763  1.00  0.00    -0.351 N 
ATOM      5  C   UNL A   1      31.899  26.253  25.798  1.00  0.00     0.283 C 
ATOM      6  O   UNL A   1      31.689  25.077  26.109  1.00  0.00    -0.268 OA
ATOM      7  H   UNL A   1      32.714  26.560  27.603  1.00  0.00     0.163 HD
BRANCH   5   8
ATOM      8  C   UNL A   1      31.601  26.859  24.382  1.00  0.00     0.307 C 
BRANCH   8   9
ATOM      9  C   UNL A   1      30.126  26.949  24.073  1.00  0.00     0.044 A 
ATOM     10  C   UNL A   1      29.204  31.909  23.128  1.00  0.00     0.044 C 
ATOM     11  C   UNL A   1      28.815  30.460  23.187  1.00  0.00    -0.050 A 
ATOM     12  C   UNL A   1      27.489  30.067  22.999  1.00  0.00     0.005 A 
ATOM     13  C   UNL A   1      29.789  29.494  23.496  1.00  0.00     0.014 A 
ATOM     14  C   UNL A   1      27.096  28.733  23.146  1.00  0.00     0.027 A 
ATOM     15  C   UNL A   1      29.416  28.143  23.680  1.00  0.00     0.009 A 
ATOM     16  C   UNL A   1      28.074  27.803  23.515  1.00  0.00     0.046 A 
ATOM     17  N   UNL A   1      27.955  26.468  23.810  1.00  0.00    -0.361 N 
ATOM     18  C   UNL A   1      29.163  25.964  24.210  1.00  0.00     0.094 A 
ATOM     19  H   UNL A   1      27.122  25.947  23.744  1.00  0.00     0.166 HD
ENDBRANCH   8   9
BRANCH   8  20
ATOM     20  N   UNL A   1      32.394  26.220  23.304  1.00  0.00    -0.318 N 
ATOM     21  C   UNL A   1      33.832  26.000  23.525  1.00  0.00     0.284 C 
ATOM     22  C   UNL A   1      31.780  25.026  22.700  1.00  0.00     0.284 C 
ATOM     23  H   UNL A   1      32.357  26.983  22.628  1.00  0.00     0.349 HD
ATOM     24  C   UNL A   1      34.270  24.656  24.145  1.00  0.00     0.178 C 
ATOM     25  C   UNL A   1      32.107  23.669  23.368  1.00  0.00     0.178 C 
ATOM     26  N   UNL A   1      33.553  23.506  23.575  1.00  0.00    -0.360 N 
BRANCH  26  27
ATOM     27  C   UNL A   1      33.944  22.245  24.026  1.00  0.00     0.038 A 
ATOM     28  C   UNL A   1      35.204  21.999  24.594  1.00  0.00     0.026 A 
ATOM     29  C   UNL A   1      33.051  21.176  23.908  1.00  0.00     0.046 A 
ATOM     30  C   UNL A   1      35.579  20.715  24.994  1.00  0.00     0.004 A 
ATOM     31  C   UNL A   1      33.426  19.893  24.301  1.00  0.00     0.043 A 
ATOM     32  C   UNL A   1      34.689  19.655  24.839  1.00  0.00     0.020 A 
ATOM     33  Cl  UNL A   1      32.323  18.584  24.110  1.00  0.00    -0.084 Cl
ENDBRANCH  26  27
ENDBRANCH   8  20
ENDBRANCH   5   8
ENDBRANCH   3   4
ENDBRANCH   2   3
ENDBRANCH   1   2
BRANCH   1  34
ATOM     34  C   UNL A   1      33.092  31.425  26.713  1.00  0.00     0.116 C 
BRANCH  34  35
ATOM     35  N   UNL A   1      33.025  32.786  27.223  1.00  0.00    -0.352 N 
ATOM     36  C   UNL A   1      33.855  33.394  28.136  1.00  0.00     0.251 C 
ATOM     37  H   UNL A   1      32.293  33.342  26.871  1.00  0.00     0.163 HD
ATOM     38  O   UNL A   1      33.598  34.511  28.560  1.00  0.00    -0.269 OA
BRANCH  36  39
ATOM     39  C   UNL A   1      35.039  32.655  28.618  1.00  0.00     0.039 A 
ATOM     40  C   UNL A   1      36.310  33.143  28.307  1.00  0.00     0.014 A 
ATOM     41  C   UNL A   1      34.889  31.518  29.415  1.00  0.00     0.014 A 
ATOM     42  C   UNL A   1      37.434  32.514  28.843  1.00  0.00     0.010 A 
ATOM     43  C   UNL A   1      36.003  30.950  30.019  1.00  0.00     0.010 A 
ATOM     44  C   UNL A   1      37.287  31.431  29.726  1.00  0.00    -0.014 A 
BRANCH  44  45
ATOM     45  C   UNL A   1      38.467  30.774  30.339  1.00  0.00     0.031 A 
ATOM     46  C   UNL A   1      38.933  31.195  31.707  1.00  0.00     0.074 A 
ATOM     47  C   UNL A   1      39.164  29.862  29.635  1.00  0.00     0.049 A 
ATOM     48  N   UNL A   1      39.958  30.766  32.396  1.00  0.00    -0.248 NA
ATOM     49  C   UNL A   1      38.168  32.262  32.377  1.00  0.00     0.031 C 
ATOM     50  C   UNL A   1      38.867  29.443  28.263  1.00  0.00     0.029 A 
ATOM     51  N   UNL A   1      40.281  29.139  29.968  1.00  0.00    -0.354 N 
ATOM     52  C   UNL A   1      39.983  31.532  33.555  1.00  0.00     0.074 A 
ATOM     53  C   UNL A   1      38.897  32.481  33.460  1.00  0.00     0.031 C 
ATOM     54  C   UNL A   1      39.774  28.529  27.877  1.00  0.00     0.029 A 
ATOM     55  C   UNL A   1      40.725  28.313  28.961  1.00  0.00     0.049 A 
ATOM     56  H   UNL A   1      40.724  29.204  30.845  1.00  0.00     0.167 HD
ATOM     57  C   UNL A   1      40.811  31.430  34.621  1.00  0.00     0.034 A 
ATOM     58  C   UNL A   1      41.780  27.475  28.920  1.00  0.00     0.034 A 
ATOM     59  C   UNL A   1      41.852  30.445  34.735  1.00  0.00     0.049 A 
ATOM     60  C   UNL A   1      42.639  27.329  30.147  1.00  0.00     0.074 A 
ATOM     61  C   UNL A   1      42.683  30.194  35.811  1.00  0.00     0.029 A 
ATOM     62  N   UNL A   1      42.205  29.551  33.736  1.00  0.00    -0.354 N 
ATOM     63  N   UNL A   1      42.541  27.942  31.301  1.00  0.00    -0.248 NA
ATOM     64  C   UNL A   1      43.729  26.344  30.081  1.00  0.00     0.031 C 
ATOM     65  C   UNL A   1      43.551  29.155  35.457  1.00  0.00     0.029 A 
ATOM     66  C   UNL A   1      43.243  28.746  34.168  1.00  0.00     0.049 A 
ATOM     67  H   UNL A   1      41.779  29.497  32.851  1.00  0.00     0.167 HD
ATOM     68  C   UNL A   1      43.527  27.391  32.112  1.00  0.00     0.074 A 
ATOM     69  C   UNL A   1      44.198  26.379  31.321  1.00  0.00     0.031 C 
ATOM     70  C   UNL A   1      43.860  27.704  33.389  1.00  0.00     0.034 A 
BRANCH  57  71
ATOM     71  C   UNL A   1      40.579  32.367  35.777  1.00  0.00     0.023 A 
ATOM     72  C   UNL A   1      41.388  33.514  35.915  1.00  0.00     0.012 A 
ATOM     73  C   UNL A   1      39.537  32.143  36.697  1.00  0.00     0.148 A 
ATOM     74  C   UNL A   1      41.189  34.403  36.970  1.00  0.00     0.002 A 
ATOM     75  C   UNL A   1      39.315  33.059  37.719  1.00  0.00     0.091 A 
ATOM     76  F   UNL A   1      38.793  31.036  36.566  1.00  0.00    -0.205 F 
ATOM     77  C   UNL A   1      40.147  34.182  37.865  1.00  0.00     0.022 A 
BRANCH  75  78
ATOM     78  S   UNL A   1      37.948  32.908  38.875  1.00  0.00     0.127 S 
ATOM     79  O   UNL A   1      38.146  34.084  39.722  1.00  0.00    -0.237 OA
ATOM     80  O   UNL A   1      36.786  32.983  37.990  1.00  0.00    -0.237 OA
ATOM     81  O   UNL A   1      38.124  31.623  39.538  1.00  0.00    -0.744 OA
ENDBRANCH  75  78
ENDBRANCH  57  71
BRANCH  58  82
ATOM     82  C   UNL A   1      42.024  26.646  27.707  1.00  0.00     0.023 A 
ATOM     83  C   UNL A   1      42.673  27.221  26.597  1.00  0.00     0.012 A 
ATOM     84  C   UNL A   1      41.648  25.290  27.656  1.00  0.00     0.148 A 
ATOM     85  C   UNL A   1      42.911  26.472  25.444  1.00  0.00     0.002 A 
ATOM     86  C   UNL A   1      41.939  24.534  26.524  1.00  0.00     0.091 A 
ATOM     87  F   UNL A   1      41.024  24.763  28.717  1.00  0.00    -0.205 F 
ATOM     88  C   UNL A   1      42.554  25.128  25.412  1.00  0.00     0.022 A 
BRANCH  86  89
ATOM     89  S   UNL A   1      41.635  22.765  26.446  1.00  0.00     0.127 S 
ATOM     90  O   UNL A   1      40.179  22.716  26.336  1.00  0.00    -0.237 OA
ATOM     91  O   UNL A   1      42.358  22.387  25.231  1.00  0.00    -0.237 OA
ATOM     92  O   UNL A   1      42.199  22.217  27.672  1.00  0.00    -0.744 OA
ENDBRANCH  86  89
ENDBRANCH  58  82
BRANCH  70  93
ATOM     93  C   UNL A   1      44.973  26.920  34.032  1.00  0.00     0.023 A 
ATOM     94  C   UNL A   1      46.309  27.335  33.866  1.00  0.00     0.012 A 
ATOM     95  C   UNL A   1      44.688  25.815  34.858  1.00  0.00     0.148 A 
ATOM     96  C   UNL A   1      47.347  26.641  34.485  1.00  0.00     0.002 A 
ATOM     97  C   UNL A   1      45.724  25.158  35.511  1.00  0.00     0.091 A 
ATOM     98  F   UNL A   1      43.412  25.423  34.986  1.00  0.00    -0.205 F 
ATOM     99  C   UNL A   1      47.055  25.561  35.316  1.00  0.00     0.022 A 
BRANCH  97 100
ATOM    100  S   UNL A   1      45.427  23.823  36.674  1.00  0.00     0.127 S 
ATOM    101  O   UNL A   1      44.798  22.817  35.820  1.00  0.00    -0.237 OA
ATOM    102  O   UNL A   1      46.781  23.485  37.117  1.00  0.00    -0.237 OA
ATOM    103  O   UNL A   1      44.578  24.384  37.716  1.00  0.00    -0.744 OA
ENDBRANCH  97 100
ENDBRANCH  70  93
ENDBRANCH  44  45
ENDBRANCH  36  39
ENDBRANCH  34  35
ENDBRANCH   1  34
TORSDOF 17
ENDMDL
MODEL 3
REMARK VINA RESULT:     -12.8      5.311      8.146
REMARK SMILES Cc1ccc2[nH]cc([C@@H](C(=O)NCCCCNC(=O)c3ccc(-c4c5nc(c(-c6cccc(S(=O)(=O)[O-])c6F)c6ccc([nH]6)c(-c6cccc(S(=O)(=O)[O-])c6F)c6nc(c(-c7cccc(S(=O)(=O)[O-])c7F)c7ccc4[nH]7)C=C6)C=C5)cc3)[NH+]3CCN(c4cccc(Cl)c4)CC3)c2c1
REMARK SMILES IDX 15 1 14 2 13 3 12 4 10 5 11 6 9 8 8 9 1 10 2 11 3 12 97 13
REMARK SMILES IDX 4 14 96 15 5 16 6 17 7 18 83 20 84 21 95 22 85 24 94 25
REMARK SMILES IDX 86 26 87 27 88 28 93 29 89 30 91 31 90 32 92 33 16 34 17 35
REMARK SMILES IDX 18 36 19 38 20 39 21 40 82 41 22 42 81 43 23 44 24 45 25 46
REMARK SMILES IDX 75 47 26 48 80 49 74 50 76 51 27 52 79 53 73 54 72 55 28 57
REMARK SMILES IDX 60 58 40 59 59 60 41 61 44 62 58 63 77 64 42 65 43 66 57 68
REMARK SMILES IDX 78 69 45 70 29 71 30 72 38 73 31 74 33 75 39 76 32 77 34 78
REMARK SMILES IDX 35 79 36 80 37 81 61 82 62 83 70 84 63 85 65 86 71 87 64 88
REMARK SMILES IDX 66 89 67 90 68 91 69 92 46 93 47 94 55 95 48 96 50 97 56 98
REMARK SMILES IDX 49 99 51 100 52 101 53 102 54 103
REMARK H PARENT 12 7 6 19 83 23 17 37 76 56 44 67
REMARK Flexibility Score: inf
ROOT
ATOM      1  C   UNL A   1      36.473  22.201  26.058  1.00  0.00     0.023 C 
ENDROOT
BRANCH   1   2
ATOM      2  C   UNL A   1      35.239  22.687  25.305  1.00  0.00     0.023 C 
BRANCH   2   3
ATOM      3  C   UNL A   1      34.873  24.151  25.543  1.00  0.00     0.116 C 
BRANCH   3   4
ATOM      4  N   UNL A   1      33.612  24.289  26.241  1.00  0.00    -0.351 N 
ATOM      5  C   UNL A   1      32.541  25.099  25.951  1.00  0.00     0.283 C 
ATOM      6  O   UNL A   1      31.589  25.030  26.734  1.00  0.00    -0.268 OA
ATOM      7  H   UNL A   1      33.506  23.720  27.037  1.00  0.00     0.163 HD
BRANCH   5   8
ATOM      8  C   UNL A   1      32.551  25.975  24.649  1.00  0.00     0.307 C 
BRANCH   8   9
ATOM      9  C   UNL A   1      32.155  27.411  24.896  1.00  0.00     0.044 A 
ATOM     10  C   UNL A   1      35.756  29.333  28.008  1.00  0.00     0.044 C 
ATOM     11  C   UNL A   1      34.545  29.444  27.128  1.00  0.00    -0.050 A 
ATOM     12  C   UNL A   1      33.807  30.628  27.074  1.00  0.00     0.005 A 
ATOM     13  C   UNL A   1      34.115  28.324  26.396  1.00  0.00     0.014 A 
ATOM     14  C   UNL A   1      32.624  30.717  26.334  1.00  0.00     0.027 A 
ATOM     15  C   UNL A   1      32.906  28.375  25.663  1.00  0.00     0.009 A 
ATOM     16  C   UNL A   1      32.186  29.568  25.667  1.00  0.00     0.046 A 
ATOM     17  N   UNL A   1      31.035  29.348  24.951  1.00  0.00    -0.361 N 
ATOM     18  C   UNL A   1      30.975  28.044  24.544  1.00  0.00     0.094 A 
ATOM     19  H   UNL A   1      30.350  30.030  24.759  1.00  0.00     0.166 HD
ENDBRANCH   8   9
BRANCH   8  20
ATOM     20  N   UNL A   1      31.818  25.343  23.525  1.00  0.00    -0.318 N 
ATOM     21  C   UNL A   1      32.595  24.743  22.428  1.00  0.00     0.284 C 
ATOM     22  C   UNL A   1      30.716  24.451  23.920  1.00  0.00     0.284 C 
ATOM     23  H   UNL A   1      31.422  26.191  23.118  1.00  0.00     0.349 HD
ATOM     24  C   UNL A   1      32.971  23.251  22.543  1.00  0.00     0.178 C 
ATOM     25  C   UNL A   1      31.080  22.966  24.155  1.00  0.00     0.178 C 
ATOM     26  N   UNL A   1      31.864  22.421  23.037  1.00  0.00    -0.360 N 
BRANCH  26  27
ATOM     27  C   UNL A   1      32.096  21.046  23.097  1.00  0.00     0.038 A 
ATOM     28  C   UNL A   1      32.072  20.222  21.961  1.00  0.00     0.026 A 
ATOM     29  C   UNL A   1      32.362  20.457  24.337  1.00  0.00     0.046 A 
ATOM     30  C   UNL A   1      32.265  18.843  22.064  1.00  0.00     0.004 A 
ATOM     31  C   UNL A   1      32.549  19.080  24.442  1.00  0.00     0.043 A 
ATOM     32  C   UNL A   1      32.496  18.268  23.311  1.00  0.00     0.020 A 
ATOM     33  Cl  UNL A   1      32.837  18.373  25.985  1.00  0.00    -0.084 Cl
ENDBRANCH  26  27
ENDBRANCH   8  20
ENDBRANCH   5   8
ENDBRANCH   3   4
ENDBRANCH   2   3
ENDBRANCH   1   2
BRANCH   1  34
ATOM     34  C   UNL A   1      37.706  22.017  25.192  1.00  0.00     0.116 C 
BRANCH  34  35
ATOM     35  N   UNL A   1      38.602  20.986  25.694  1.00  0.00    -0.352 N 
ATOM     36  C   UNL A   1      39.756  21.143  26.425  1.00  0.00     0.251 C 
ATOM     37  H   UNL A   1      38.351  20.057  25.482  1.00  0.00     0.163 HD
ATOM     38  O   UNL A   1      40.470  20.183  26.671  1.00  0.00    -0.269 OA
BRANCH  36  39
ATOM     39  C   UNL A   1      40.129  22.500  26.874  1.00  0.00     0.039 A 
ATOM     40  C   UNL A   1      40.967  22.635  27.983  1.00  0.00     0.014 A 
ATOM     41  C   UNL A   1      39.696  23.624  26.168  1.00  0.00     0.014 A 
ATOM     42  C   UNL A   1      41.411  23.905  28.354  1.00  0.00     0.010 A 
ATOM     43  C   UNL A   1      40.211  24.875  26.484  1.00  0.00     0.010 A 
ATOM     44  C   UNL A   1      41.059  25.030  27.590  1.00  0.00    -0.014 A 
BRANCH  44  45
ATOM     45  C   UNL A   1      41.555  26.383  27.941  1.00  0.00     0.031 A 
ATOM     46  C   UNL A   1      42.967  26.777  27.601  1.00  0.00     0.074 A 
ATOM     47  C   UNL A   1      40.764  27.223  28.637  1.00  0.00     0.049 A 
ATOM     48  N   UNL A   1      43.593  27.896  27.853  1.00  0.00    -0.248 NA
ATOM     49  C   UNL A   1      43.797  25.770  26.916  1.00  0.00     0.031 C 
ATOM     50  C   UNL A   1      39.411  26.917  29.108  1.00  0.00     0.029 A 
ATOM     51  N   UNL A   1      40.993  28.498  29.088  1.00  0.00    -0.354 N 
ATOM     52  C   UNL A   1      44.892  27.716  27.396  1.00  0.00     0.074 A 
ATOM     53  C   UNL A   1      44.980  26.365  26.889  1.00  0.00     0.031 C 
ATOM     54  C   UNL A   1      38.928  27.980  29.774  1.00  0.00     0.029 A 
ATOM     55  C   UNL A   1      39.940  29.031  29.795  1.00  0.00     0.049 A 
ATOM     56  H   UNL A   1      41.832  28.985  28.923  1.00  0.00     0.167 HD
ATOM     57  C   UNL A   1      45.912  28.605  27.365  1.00  0.00     0.034 A 
ATOM     58  C   UNL A   1      39.806  30.233  30.389  1.00  0.00     0.034 A 
ATOM     59  C   UNL A   1      45.802  29.965  27.817  1.00  0.00     0.049 A 
ATOM     60  C   UNL A   1      40.930  31.228  30.275  1.00  0.00     0.074 A 
ATOM     61  C   UNL A   1      46.744  30.975  27.742  1.00  0.00     0.029 A 
ATOM     62  N   UNL A   1      44.682  30.504  28.431  1.00  0.00    -0.354 N 
ATOM     63  N   UNL A   1      42.092  31.096  29.685  1.00  0.00    -0.248 NA
ATOM     64  C   UNL A   1      40.705  32.553  30.871  1.00  0.00     0.031 C 
ATOM     65  C   UNL A   1      46.197  32.123  28.325  1.00  0.00     0.029 A 
ATOM     66  C   UNL A   1      44.907  31.833  28.742  1.00  0.00     0.049 A 
ATOM     67  H   UNL A   1      43.850  30.014  28.617  1.00  0.00     0.167 HD
ATOM     68  C   UNL A   1      42.723  32.329  29.803  1.00  0.00     0.074 A 
ATOM     69  C   UNL A   1      41.801  33.202  30.502  1.00  0.00     0.031 C 
ATOM     70  C   UNL A   1      43.958  32.704  29.385  1.00  0.00     0.034 A 
BRANCH  57  71
ATOM     71  C   UNL A   1      47.216  28.152  26.761  1.00  0.00     0.023 A 
ATOM     72  C   UNL A   1      48.301  27.840  27.606  1.00  0.00     0.012 A 
ATOM     73  C   UNL A   1      47.356  27.990  25.370  1.00  0.00     0.148 A 
ATOM     74  C   UNL A   1      49.515  27.409  27.075  1.00  0.00     0.002 A 
ATOM     75  C   UNL A   1      48.555  27.515  24.851  1.00  0.00     0.091 A 
ATOM     76  F   UNL A   1      46.323  28.315  24.579  1.00  0.00    -0.205 F 
ATOM     77  C   UNL A   1      49.639  27.236  25.701  1.00  0.00     0.022 A 
BRANCH  75  78
ATOM     78  S   UNL A   1      48.789  27.182  23.102  1.00  0.00     0.127 S 
ATOM     79  O   UNL A   1      48.138  25.880  22.959  1.00  0.00    -0.237 OA
ATOM     80  O   UNL A   1      48.071  28.293  22.478  1.00  0.00    -0.237 OA
ATOM     81  O   UNL A   1      50.228  27.188  22.881  1.00  0.00    -0.744 OA
ENDBRANCH  75  78
ENDBRANCH  57  71
BRANCH  58  82
ATOM     82  C   UNL A   1      38.528  30.590  31.065  1.00  0.00     0.023 A 
ATOM     83  C   UNL A   1      38.276  30.108  32.365  1.00  0.00     0.012 A 
ATOM     84  C   UNL A   1      37.578  31.426  30.447  1.00  0.00     0.148 A 
ATOM     85  C   UNL A   1      37.085  30.421  33.022  1.00  0.00     0.002 A 
ATOM     86  C   UNL A   1      36.419  31.778  31.130  1.00  0.00     0.091 A 
ATOM     87  F   UNL A   1      37.830  31.867  29.207  1.00  0.00    -0.205 F 
ATOM     88  C   UNL A   1      36.163  31.263  32.409  1.00  0.00     0.022 A 
BRANCH  86  89
ATOM     89  S   UNL A   1      35.239  32.963  30.472  1.00  0.00     0.127 S 
ATOM     90  O   UNL A   1      34.262  33.046  31.556  1.00  0.00    -0.237 OA
ATOM     91  O   UNL A   1      36.070  34.155  30.300  1.00  0.00    -0.237 OA
ATOM     92  O   UNL A   1      34.756  32.385  29.226  1.00  0.00    -0.744 OA
ENDBRANCH  86  89
ENDBRANCH  58  82
BRANCH  70  93
ATOM     93  C   UNL A   1      44.376  34.128  29.634  1.00  0.00     0.023 A 
ATOM     94  C   UNL A   1      44.975  34.479  30.860  1.00  0.00     0.012 A 
ATOM     95  C   UNL A   1      44.242  35.102  28.626  1.00  0.00     0.148 A 
ATOM     96  C   UNL A   1      45.401  35.786  31.091  1.00  0.00     0.002 A 
ATOM     97  C   UNL A   1      44.714  36.391  28.845  1.00  0.00     0.091 A 
ATOM     98  F   UNL A   1      43.651  34.754  27.473  1.00  0.00    -0.205 F 
ATOM     99  C   UNL A   1      45.282  36.738  30.081  1.00  0.00     0.022 A 
BRANCH  97 100
ATOM    100  S   UNL A   1      44.689  37.649  27.564  1.00  0.00     0.127 S 
ATOM    101  O   UNL A   1      45.133  38.832  28.298  1.00  0.00    -0.237 OA
ATOM    102  O   UNL A   1      45.659  37.132  26.597  1.00  0.00    -0.237 OA
ATOM    103  O   UNL A   1      43.318  37.692  27.074  1.00  0.00    -0.744 OA
ENDBRANCH  97 100
ENDBRANCH  70  93
ENDBRANCH  44  45
ENDBRANCH  36  39
ENDBRANCH  34  35
ENDBRANCH   1  34
TORSDOF 17
ENDMDL
