MODEL 1
REMARK VINA RESULT:     -13.6      0.000      0.000
REMARK SMILES Cc1ccccc1-c1c(Cl)ccc2c1C=C(C(=O)NCCCCNC(=O)c1ccc(-c3c4nc(c(-c5cccc(S(=O)(=O)[O-])c5F)c5ccc([nH]5)c(-c5cccc(S(=O)(=O)[O-])c5F)c5nc(c(-c6cccc(S(=O)(=O)[O-])c6F)c6ccc3[nH]6)C=C5)C=C4)cc1)[C@@H](C(F)(F)F)O2
REMARK SMILES IDX 22 1 21 2 20 3 19 4 17 5 18 6 16 8 8 9 9 10 14 11 10 12
REMARK SMILES IDX 11 13 13 14 15 15 12 16 95 17 90 18 7 19 1 20 2 21 3 22 4 23
REMARK SMILES IDX 6 24 5 25 91 26 92 27 93 28 94 29 23 30 24 31 25 32 26 34
REMARK SMILES IDX 27 35 28 36 89 37 29 38 88 39 30 40 31 41 32 42 82 43 33 44
REMARK SMILES IDX 87 45 81 46 83 47 34 48 86 49 80 50 79 51 35 53 67 54 47 55
REMARK SMILES IDX 66 56 48 57 51 58 65 59 84 60 49 61 50 62 64 64 85 65 52 66
REMARK SMILES IDX 36 67 37 68 45 69 38 70 40 71 46 72 39 73 41 74 42 75 43 76
REMARK SMILES IDX 44 77 68 78 69 79 77 80 70 81 72 82 78 83 71 84 73 85 74 86
REMARK SMILES IDX 75 87 76 88 53 89 54 90 62 91 55 92 57 93 63 94 56 95 58 96
REMARK SMILES IDX 59 97 60 98 61 99
REMARK H PARENT 19 7 24 33 83 52 51 63
REMARK Flexibility Score: inf
ROOT
ATOM      1  C   UNL A   1      34.164  31.551  28.075  1.00  0.00     0.023 C 
ENDROOT
BRANCH   1   2
ATOM      2  C   UNL A   1      35.183  30.451  27.719  1.00  0.00     0.023 C 
BRANCH   2   3
ATOM      3  C   UNL A   1      34.644  29.180  27.050  1.00  0.00     0.116 C 
BRANCH   3   4
ATOM      4  N   UNL A   1      33.430  28.700  27.676  1.00  0.00    -0.352 N 
ATOM      5  C   UNL A   1      32.381  27.990  27.188  1.00  0.00     0.251 C 
ATOM      6  O   UNL A   1      31.394  27.861  27.911  1.00  0.00    -0.270 OA
ATOM      7  H   UNL A   1      33.352  28.930  28.631  1.00  0.00     0.163 HD
BRANCH   5   8
ATOM      8  C   UNL A   1      32.392  27.431  25.786  1.00  0.00     0.067 C 
ATOM      9  C   UNL A   1      33.124  23.769  25.780  1.00  0.00     0.012 A 
ATOM     10  C   UNL A   1      32.394  22.632  26.211  1.00  0.00     0.049 A 
ATOM     11  C   UNL A   1      32.440  25.013  25.770  1.00  0.00     0.027 A 
ATOM     12  Cl  UNL A   1      33.127  21.067  26.380  1.00  0.00    -0.084 Cl
ATOM     13  C   UNL A   1      31.033  22.709  26.530  1.00  0.00     0.025 A 
ATOM     14  C   UNL A   1      31.045  25.046  25.980  1.00  0.00     0.128 A 
ATOM     15  C   UNL A   1      33.137  26.318  25.631  1.00  0.00     0.026 C 
ATOM     16  C   UNL A   1      30.351  23.909  26.378  1.00  0.00     0.049 A 
ATOM     17  O   UNL A   1      30.274  26.171  25.811  1.00  0.00    -0.475 OA
ATOM     18  C   UNL A   1      30.959  27.328  25.274  1.00  0.00     0.314 C 
BRANCH   9  19
ATOM     19  C   UNL A   1      34.502  23.617  25.231  1.00  0.00    -0.013 A 
ATOM     20  C   UNL A   1      33.783  23.230  22.795  1.00  0.00     0.045 C 
ATOM     21  C   UNL A   1      34.815  23.375  23.878  1.00  0.00    -0.043 A 
ATOM     22  C   UNL A   1      36.164  23.226  23.491  1.00  0.00     0.004 A 
ATOM     23  C   UNL A   1      37.202  23.355  24.411  1.00  0.00     0.000 A 
ATOM     24  C   UNL A   1      35.580  23.726  26.144  1.00  0.00     0.009 A 
ATOM     25  C   UNL A   1      36.910  23.614  25.742  1.00  0.00     0.001 A 
ENDBRANCH   9  19
BRANCH  18  26
ATOM     26  C   UNL A   1      30.890  27.371  23.740  1.00  0.00     0.429 C 
ATOM     27  F   UNL A   1      29.641  27.669  23.306  1.00  0.00    -0.167 F 
ATOM     28  F   UNL A   1      31.710  28.333  23.243  1.00  0.00    -0.167 F 
ATOM     29  F   UNL A   1      31.250  26.207  23.152  1.00  0.00    -0.167 F 
ENDBRANCH  18  26
ENDBRANCH   5   8
ENDBRANCH   3   4
ENDBRANCH   2   3
ENDBRANCH   1   2
BRANCH   1  30
ATOM     30  C   UNL A   1      34.650  32.976  27.858  1.00  0.00     0.116 C 
BRANCH  30  31
ATOM     31  N   UNL A   1      33.999  33.917  28.765  1.00  0.00    -0.352 N 
ATOM     32  C   UNL A   1      34.154  34.101  30.120  1.00  0.00     0.251 C 
ATOM     33  H   UNL A   1      33.344  34.515  28.339  1.00  0.00     0.163 HD
ATOM     34  O   UNL A   1      33.200  34.590  30.745  1.00  0.00    -0.269 OA
BRANCH  32  35
ATOM     35  C   UNL A   1      35.435  33.832  30.798  1.00  0.00     0.039 A 
ATOM     36  C   UNL A   1      36.653  34.315  30.291  1.00  0.00     0.014 A 
ATOM     37  C   UNL A   1      35.449  32.896  31.823  1.00  0.00     0.014 A 
ATOM     38  C   UNL A   1      37.849  33.731  30.711  1.00  0.00     0.010 A 
ATOM     39  C   UNL A   1      36.610  32.507  32.405  1.00  0.00     0.010 A 
ATOM     40  C   UNL A   1      37.782  32.767  31.707  1.00  0.00    -0.014 A 
BRANCH  40  41
ATOM     41  C   UNL A   1      38.774  31.757  32.013  1.00  0.00     0.031 A 
ATOM     42  C   UNL A   1      38.698  30.465  31.343  1.00  0.00     0.074 A 
ATOM     43  C   UNL A   1      39.942  32.289  32.449  1.00  0.00     0.049 A 
ATOM     44  N   UNL A   1      39.566  29.531  31.491  1.00  0.00    -0.248 NA
ATOM     45  C   UNL A   1      37.614  30.122  30.433  1.00  0.00     0.031 C 
ATOM     46  C   UNL A   1      41.310  31.899  32.136  1.00  0.00     0.029 A 
ATOM     47  N   UNL A   1      40.128  33.407  33.243  1.00  0.00    -0.354 N 
ATOM     48  C   UNL A   1      39.371  28.650  30.453  1.00  0.00     0.074 A 
ATOM     49  C   UNL A   1      38.050  28.951  29.962  1.00  0.00     0.031 C 
ATOM     50  C   UNL A   1      42.156  32.586  32.930  1.00  0.00     0.029 A 
ATOM     51  C   UNL A   1      41.344  33.297  33.907  1.00  0.00     0.049 A 
ATOM     52  H   UNL A   1      39.499  34.160  33.325  1.00  0.00     0.167 HD
ATOM     53  C   UNL A   1      40.441  27.922  30.029  1.00  0.00     0.034 A 
ATOM     54  C   UNL A   1      41.319  33.019  35.251  1.00  0.00     0.034 A 
ATOM     55  C   UNL A   1      41.593  28.143  30.931  1.00  0.00     0.049 A 
ATOM     56  C   UNL A   1      41.792  31.602  35.554  1.00  0.00     0.074 A 
ATOM     57  C   UNL A   1      42.762  28.878  30.816  1.00  0.00     0.029 A 
ATOM     58  N   UNL A   1      41.469  27.828  32.285  1.00  0.00    -0.354 N 
ATOM     59  N   UNL A   1      41.974  30.679  34.648  1.00  0.00    -0.248 NA
ATOM     60  C   UNL A   1      42.142  31.125  36.887  1.00  0.00     0.031 C 
ATOM     61  C   UNL A   1      43.269  29.105  32.131  1.00  0.00     0.029 A 
ATOM     62  C   UNL A   1      42.436  28.474  33.042  1.00  0.00     0.049 A 
ATOM     63  H   UNL A   1      40.784  27.226  32.656  1.00  0.00     0.167 HD
ATOM     64  C   UNL A   1      42.346  29.500  35.225  1.00  0.00     0.074 A 
ATOM     65  C   UNL A   1      42.503  29.854  36.628  1.00  0.00     0.031 C 
ATOM     66  C   UNL A   1      42.450  28.337  34.502  1.00  0.00     0.034 A 
BRANCH  53  67
ATOM     67  C   UNL A   1      40.576  27.208  28.686  1.00  0.00     0.023 A 
ATOM     68  C   UNL A   1      39.609  26.220  28.394  1.00  0.00     0.012 A 
ATOM     69  C   UNL A   1      41.597  27.366  27.713  1.00  0.00     0.148 A 
ATOM     70  C   UNL A   1      39.663  25.421  27.244  1.00  0.00     0.002 A 
ATOM     71  C   UNL A   1      41.640  26.588  26.550  1.00  0.00     0.091 A 
ATOM     72  F   UNL A   1      42.574  28.249  27.892  1.00  0.00    -0.205 F 
ATOM     73  C   UNL A   1      40.678  25.606  26.318  1.00  0.00     0.022 A 
BRANCH  71  74
ATOM     74  S   UNL A   1      42.921  26.785  25.293  1.00  0.00     0.127 S 
ATOM     75  O   UNL A   1      42.790  25.545  24.526  1.00  0.00    -0.237 OA
ATOM     76  O   UNL A   1      42.478  27.986  24.583  1.00  0.00    -0.237 OA
ATOM     77  O   UNL A   1      44.186  26.930  26.001  1.00  0.00    -0.744 OA
ENDBRANCH  71  74
ENDBRANCH  53  67
BRANCH  54  78
ATOM     78  C   UNL A   1      40.187  33.752  35.930  1.00  0.00     0.023 A 
ATOM     79  C   UNL A   1      38.957  33.047  36.008  1.00  0.00     0.012 A 
ATOM     80  C   UNL A   1      40.431  34.776  36.865  1.00  0.00     0.148 A 
ATOM     81  C   UNL A   1      38.108  33.203  37.107  1.00  0.00     0.002 A 
ATOM     82  C   UNL A   1      39.560  34.946  37.946  1.00  0.00     0.091 A 
ATOM     83  F   UNL A   1      41.537  35.521  36.732  1.00  0.00    -0.205 F 
ATOM     84  C   UNL A   1      38.435  34.119  38.101  1.00  0.00     0.022 A 
BRANCH  82  85
ATOM     85  S   UNL A   1      39.892  36.161  39.233  1.00  0.00     0.127 S 
ATOM     86  O   UNL A   1      41.350  36.107  39.317  1.00  0.00    -0.237 OA
ATOM     87  O   UNL A   1      39.365  37.403  38.664  1.00  0.00    -0.237 OA
ATOM     88  O   UNL A   1      39.160  35.687  40.396  1.00  0.00    -0.744 OA
ENDBRANCH  82  85
ENDBRANCH  54  78
BRANCH  66  89
ATOM     89  C   UNL A   1      42.574  26.946  35.105  1.00  0.00     0.023 A 
ATOM     90  C   UNL A   1      41.508  26.317  35.776  1.00  0.00     0.012 A 
ATOM     91  C   UNL A   1      43.733  26.153  34.883  1.00  0.00     0.148 A 
ATOM     92  C   UNL A   1      41.605  25.012  36.270  1.00  0.00     0.002 A 
ATOM     93  C   UNL A   1      43.773  24.813  35.257  1.00  0.00     0.091 A 
ATOM     94  F   UNL A   1      44.825  26.696  34.327  1.00  0.00    -0.205 F 
ATOM     95  C   UNL A   1      42.727  24.249  35.988  1.00  0.00     0.022 A 
BRANCH  93  96
ATOM     96  S   UNL A   1      45.079  23.723  34.674  1.00  0.00     0.127 S 
ATOM     97  O   UNL A   1      46.262  24.303  35.308  1.00  0.00    -0.237 OA
ATOM     98  O   UNL A   1      44.670  22.426  35.219  1.00  0.00    -0.237 OA
ATOM     99  O   UNL A   1      45.025  23.801  33.221  1.00  0.00    -0.744 OA
ENDBRANCH  93  96
ENDBRANCH  66  89
ENDBRANCH  40  41
ENDBRANCH  32  35
ENDBRANCH  30  31
ENDBRANCH   1  30
TORSDOF 16
ENDMDL
MODEL 2
REMARK VINA RESULT:     -13.5      5.366     10.639
REMARK SMILES Cc1ccccc1-c1c(Cl)ccc2c1C=C(C(=O)NCCCCNC(=O)c1ccc(-c3c4nc(c(-c5cccc(S(=O)(=O)[O-])c5F)c5ccc([nH]5)c(-c5cccc(S(=O)(=O)[O-])c5F)c5nc(c(-c6cccc(S(=O)(=O)[O-])c6F)c6ccc3[nH]6)C=C5)C=C4)cc1)[C@@H](C(F)(F)F)O2
REMARK SMILES IDX 22 1 21 2 20 3 19 4 17 5 18 6 16 8 8 9 9 10 14 11 10 12
REMARK SMILES IDX 11 13 13 14 15 15 12 16 95 17 90 18 7 19 1 20 2 21 3 22 4 23
REMARK SMILES IDX 6 24 5 25 91 26 92 27 93 28 94 29 23 30 24 31 25 32 26 34
REMARK SMILES IDX 27 35 28 36 89 37 29 38 88 39 30 40 31 41 32 42 82 43 33 44
REMARK SMILES IDX 87 45 81 46 83 47 34 48 86 49 80 50 79 51 35 53 67 54 47 55
REMARK SMILES IDX 66 56 48 57 51 58 65 59 84 60 49 61 50 62 64 64 85 65 52 66
REMARK SMILES IDX 36 67 37 68 45 69 38 70 40 71 46 72 39 73 41 74 42 75 43 76
REMARK SMILES IDX 44 77 68 78 69 79 77 80 70 81 72 82 78 83 71 84 73 85 74 86
REMARK SMILES IDX 75 87 76 88 53 89 54 90 62 91 55 92 57 93 63 94 56 95 58 96
REMARK SMILES IDX 59 97 60 98 61 99
REMARK H PARENT 19 7 24 33 83 52 51 63
REMARK Flexibility Score: inf
ROOT
ATOM      1  C   UNL A   1      39.482  22.027  26.186  1.00  0.00     0.023 C 
ENDROOT
BRANCH   1   2
ATOM      2  C   UNL A   1      38.937  23.415  26.574  1.00  0.00     0.023 C 
BRANCH   2   3
ATOM      3  C   UNL A   1      37.530  23.783  26.087  1.00  0.00     0.116 C 
BRANCH   3   4
ATOM      4  N   UNL A   1      37.380  23.616  24.657  1.00  0.00    -0.352 N 
ATOM      5  C   UNL A   1      36.297  23.337  23.888  1.00  0.00     0.251 C 
ATOM      6  O   UNL A   1      36.491  23.083  22.699  1.00  0.00    -0.270 OA
ATOM      7  H   UNL A   1      38.217  23.725  24.149  1.00  0.00     0.163 HD
BRANCH   5   8
ATOM      8  C   UNL A   1      34.908  23.276  24.475  1.00  0.00     0.067 C 
ATOM      9  C   UNL A   1      33.011  26.429  23.832  1.00  0.00     0.012 A 
ATOM     10  C   UNL A   1      32.473  27.015  22.658  1.00  0.00     0.049 A 
ATOM     11  C   UNL A   1      33.519  25.107  23.721  1.00  0.00     0.027 A 
ATOM     12  Cl  UNL A   1      31.916  28.659  22.614  1.00  0.00    -0.084 Cl
ATOM     13  C   UNL A   1      32.361  26.297  21.461  1.00  0.00     0.025 A 
ATOM     14  C   UNL A   1      33.289  24.365  22.543  1.00  0.00     0.128 A 
ATOM     15  C   UNL A   1      34.367  24.477  24.766  1.00  0.00     0.026 C 
ATOM     16  C   UNL A   1      32.735  24.961  21.415  1.00  0.00     0.049 A 
ATOM     17  O   UNL A   1      33.581  23.029  22.413  1.00  0.00    -0.475 OA
ATOM     18  C   UNL A   1      34.037  22.365  23.616  1.00  0.00     0.314 C 
BRANCH   9  19
ATOM     19  C   UNL A   1      32.909  27.132  25.142  1.00  0.00    -0.013 A 
ATOM     20  C   UNL A   1      30.615  26.172  25.787  1.00  0.00     0.045 C 
ATOM     21  C   UNL A   1      31.828  27.022  26.040  1.00  0.00    -0.043 A 
ATOM     22  C   UNL A   1      31.843  27.763  27.242  1.00  0.00     0.004 A 
ATOM     23  C   UNL A   1      32.925  28.573  27.583  1.00  0.00     0.000 A 
ATOM     24  C   UNL A   1      33.986  27.976  25.511  1.00  0.00     0.009 A 
ATOM     25  C   UNL A   1      34.004  28.673  26.719  1.00  0.00     0.001 A 
ENDBRANCH   9  19
BRANCH  18  26
ATOM     26  C   UNL A   1      32.870  21.763  24.413  1.00  0.00     0.429 C 
ATOM     27  F   UNL A   1      32.496  20.558  23.916  1.00  0.00    -0.167 F 
ATOM     28  F   UNL A   1      33.224  21.551  25.708  1.00  0.00    -0.167 F 
ATOM     29  F   UNL A   1      31.768  22.547  24.431  1.00  0.00    -0.167 F 
ENDBRANCH  18  26
ENDBRANCH   5   8
ENDBRANCH   3   4
ENDBRANCH   2   3
ENDBRANCH   1   2
BRANCH   1  30
ATOM     30  C   UNL A   1      40.375  21.370  27.226  1.00  0.00     0.116 C 
BRANCH  30  31
ATOM     31  N   UNL A   1      41.499  20.668  26.613  1.00  0.00    -0.352 N 
ATOM     32  C   UNL A   1      42.708  21.144  26.161  1.00  0.00     0.251 C 
ATOM     33  H   UNL A   1      41.371  19.698  26.505  1.00  0.00     0.163 HD
ATOM     34  O   UNL A   1      43.285  20.496  25.275  1.00  0.00    -0.269 OA
BRANCH  32  35
ATOM     35  C   UNL A   1      43.355  22.321  26.770  1.00  0.00     0.039 A 
ATOM     36  C   UNL A   1      43.339  22.534  28.158  1.00  0.00     0.014 A 
ATOM     37  C   UNL A   1      43.784  23.339  25.930  1.00  0.00     0.014 A 
ATOM     38  C   UNL A   1      43.599  23.812  28.658  1.00  0.00     0.010 A 
ATOM     39  C   UNL A   1      44.272  24.502  26.428  1.00  0.00     0.010 A 
ATOM     40  C   UNL A   1      43.976  24.794  27.753  1.00  0.00    -0.014 A 
BRANCH  40  41
ATOM     41  C   UNL A   1      43.899  26.228  27.940  1.00  0.00     0.031 A 
ATOM     42  C   UNL A   1      42.592  26.873  27.936  1.00  0.00     0.074 A 
ATOM     43  C   UNL A   1      44.958  26.722  28.625  1.00  0.00     0.049 A 
ATOM     44  N   UNL A   1      42.411  28.123  28.162  1.00  0.00    -0.248 NA
ATOM     45  C   UNL A   1      41.362  26.138  27.674  1.00  0.00     0.031 C 
ATOM     46  C   UNL A   1      44.993  27.744  29.663  1.00  0.00     0.029 A 
ATOM     47  N   UNL A   1      46.278  26.311  28.571  1.00  0.00    -0.354 N 
ATOM     48  C   UNL A   1      41.073  28.278  28.439  1.00  0.00     0.074 A 
ATOM     49  C   UNL A   1      40.452  27.080  27.933  1.00  0.00     0.031 C 
ATOM     50  C   UNL A   1      46.277  28.048  29.938  1.00  0.00     0.029 A 
ATOM     51  C   UNL A   1      47.099  27.367  28.950  1.00  0.00     0.049 A 
ATOM     52  H   UNL A   1      46.586  25.414  28.307  1.00  0.00     0.167 HD
ATOM     53  C   UNL A   1      40.708  29.317  29.242  1.00  0.00     0.034 A 
ATOM     54  C   UNL A   1      47.825  27.998  27.970  1.00  0.00     0.034 A 
ATOM     55  C   UNL A   1      41.879  30.179  29.519  1.00  0.00     0.049 A 
ATOM     56  C   UNL A   1      47.299  29.397  27.675  1.00  0.00     0.074 A 
ATOM     57  C   UNL A   1      42.694  30.345  30.627  1.00  0.00     0.029 A 
ATOM     58  N   UNL A   1      42.552  30.778  28.453  1.00  0.00    -0.354 N 
ATOM     59  N   UNL A   1      46.160  29.861  28.116  1.00  0.00    -0.248 NA
ATOM     60  C   UNL A   1      48.027  30.399  26.904  1.00  0.00     0.031 C 
ATOM     61  C   UNL A   1      43.916  30.939  30.188  1.00  0.00     0.029 A 
ATOM     62  C   UNL A   1      43.830  31.173  28.824  1.00  0.00     0.049 A 
ATOM     63  H   UNL A   1      42.171  30.902  27.554  1.00  0.00     0.167 HD
ATOM     64  C   UNL A   1      45.934  31.121  27.643  1.00  0.00     0.074 A 
ATOM     65  C   UNL A   1      47.170  31.437  26.942  1.00  0.00     0.031 C 
ATOM     66  C   UNL A   1      44.739  31.768  27.839  1.00  0.00     0.034 A 
BRANCH  53  67
ATOM     67  C   UNL A   1      39.390  29.458  29.999  1.00  0.00     0.023 A 
ATOM     68  C   UNL A   1      39.053  28.410  30.885  1.00  0.00     0.012 A 
ATOM     69  C   UNL A   1      38.419  30.486  29.876  1.00  0.00     0.148 A 
ATOM     70  C   UNL A   1      37.834  28.359  31.573  1.00  0.00     0.002 A 
ATOM     71  C   UNL A   1      37.211  30.453  30.583  1.00  0.00     0.091 A 
ATOM     72  F   UNL A   1      38.617  31.511  29.055  1.00  0.00    -0.205 F 
ATOM     73  C   UNL A   1      36.911  29.383  31.425  1.00  0.00     0.022 A 
BRANCH  71  74
ATOM     74  S   UNL A   1      35.971  31.759  30.453  1.00  0.00     0.127 S 
ATOM     75  O   UNL A   1      35.230  31.603  31.707  1.00  0.00    -0.237 OA
ATOM     76  O   UNL A   1      36.795  32.966  30.382  1.00  0.00    -0.237 OA
ATOM     77  O   UNL A   1      35.194  31.482  29.252  1.00  0.00    -0.744 OA
ENDBRANCH  71  74
ENDBRANCH  53  67
BRANCH  54  78
ATOM     78  C   UNL A   1      48.345  27.003  26.961  1.00  0.00     0.023 A 
ATOM     79  C   UNL A   1      47.586  26.886  25.766  1.00  0.00     0.012 A 
ATOM     80  C   UNL A   1      49.701  26.625  26.930  1.00  0.00     0.148 A 
ATOM     81  C   UNL A   1      48.207  26.621  24.542  1.00  0.00     0.002 A 
ATOM     82  C   UNL A   1      50.309  26.331  25.705  1.00  0.00     0.091 A 
ATOM     83  F   UNL A   1      50.395  26.625  28.076  1.00  0.00    -0.205 F 
ATOM     84  C   UNL A   1      49.578  26.392  24.507  1.00  0.00     0.022 A 
BRANCH  82  85
ATOM     85  S   UNL A   1      52.067  25.961  25.599  1.00  0.00     0.127 S 
ATOM     86  O   UNL A   1      52.133  24.661  26.263  1.00  0.00    -0.237 OA
ATOM     87  O   UNL A   1      52.313  25.917  24.156  1.00  0.00    -0.237 OA
ATOM     88  O   UNL A   1      52.726  27.067  26.276  1.00  0.00    -0.744 OA
ENDBRANCH  82  85
ENDBRANCH  54  78
BRANCH  66  89
ATOM     89  C   UNL A   1      44.304  33.033  27.113  1.00  0.00     0.023 A 
ATOM     90  C   UNL A   1      44.154  33.085  25.714  1.00  0.00     0.012 A 
ATOM     91  C   UNL A   1      43.884  34.182  27.835  1.00  0.00     0.148 A 
ATOM     92  C   UNL A   1      43.690  34.230  25.058  1.00  0.00     0.002 A 
ATOM     93  C   UNL A   1      43.298  35.266  27.187  1.00  0.00     0.091 A 
ATOM     94  F   UNL A   1      44.069  34.251  29.160  1.00  0.00    -0.205 F 
ATOM     95  C   UNL A   1      43.236  35.312  25.795  1.00  0.00     0.022 A 
BRANCH  93  96
ATOM     96  S   UNL A   1      42.453  36.556  28.113  1.00  0.00     0.127 S 
ATOM     97  O   UNL A   1      41.450  35.792  28.851  1.00  0.00    -0.237 OA
ATOM     98  O   UNL A   1      43.531  37.104  28.939  1.00  0.00    -0.237 OA
ATOM     99  O   UNL A   1      41.947  37.482  27.108  1.00  0.00    -0.744 OA
ENDBRANCH  93  96
ENDBRANCH  66  89
ENDBRANCH  40  41
ENDBRANCH  32  35
ENDBRANCH  30  31
ENDBRANCH   1  30
TORSDOF 16
ENDMDL
MODEL 3
REMARK VINA RESULT:     -13.4      1.113      1.449
REMARK SMILES Cc1ccccc1-c1c(Cl)ccc2c1C=C(C(=O)NCCCCNC(=O)c1ccc(-c3c4nc(c(-c5cccc(S(=O)(=O)[O-])c5F)c5ccc([nH]5)c(-c5cccc(S(=O)(=O)[O-])c5F)c5nc(c(-c6cccc(S(=O)(=O)[O-])c6F)c6ccc3[nH]6)C=C5)C=C4)cc1)[C@@H](C(F)(F)F)O2
REMARK SMILES IDX 22 1 21 2 20 3 19 4 17 5 18 6 16 8 8 9 9 10 14 11 10 12
REMARK SMILES IDX 11 13 13 14 15 15 12 16 95 17 90 18 7 19 1 20 2 21 3 22 4 23
REMARK SMILES IDX 6 24 5 25 91 26 92 27 93 28 94 29 23 30 24 31 25 32 26 34
REMARK SMILES IDX 27 35 28 36 89 37 29 38 88 39 30 40 31 41 32 42 82 43 33 44
REMARK SMILES IDX 87 45 81 46 83 47 34 48 86 49 80 50 79 51 35 53 67 54 47 55
REMARK SMILES IDX 66 56 48 57 51 58 65 59 84 60 49 61 50 62 64 64 85 65 52 66
REMARK SMILES IDX 36 67 37 68 45 69 38 70 40 71 46 72 39 73 41 74 42 75 43 76
REMARK SMILES IDX 44 77 68 78 69 79 77 80 70 81 72 82 78 83 71 84 73 85 74 86
REMARK SMILES IDX 75 87 76 88 53 89 54 90 62 91 55 92 57 93 63 94 56 95 58 96
REMARK SMILES IDX 59 97 60 98 61 99
REMARK H PARENT 19 7 24 33 83 52 51 63
REMARK Flexibility Score: inf
ROOT
ATOM      1  C   UNL A   1      35.383  31.315  27.698  1.00  0.00     0.023 C 
ENDROOT
BRANCH   1   2
ATOM      2  C   UNL A   1      35.583  29.788  27.641  1.00  0.00     0.023 C 
BRANCH   2   3
ATOM      3  C   UNL A   1      34.631  28.984  26.746  1.00  0.00     0.116 C 
BRANCH   3   4
ATOM      4  N   UNL A   1      33.438  28.563  27.449  1.00  0.00    -0.352 N 
ATOM      5  C   UNL A   1      32.353  27.853  27.045  1.00  0.00     0.251 C 
ATOM      6  O   UNL A   1      31.398  27.782  27.817  1.00  0.00    -0.270 OA
ATOM      7  H   UNL A   1      33.408  28.841  28.394  1.00  0.00     0.163 HD
BRANCH   5   8
ATOM      8  C   UNL A   1      32.289  27.225  25.674  1.00  0.00     0.067 C 
ATOM      9  C   UNL A   1      33.152  23.593  25.793  1.00  0.00     0.012 A 
ATOM     10  C   UNL A   1      32.494  22.456  26.328  1.00  0.00     0.049 A 
ATOM     11  C   UNL A   1      32.424  24.812  25.771  1.00  0.00     0.027 A 
ATOM     12  Cl  UNL A   1      33.294  20.927  26.520  1.00  0.00    -0.084 Cl
ATOM     13  C   UNL A   1      31.157  22.504  26.737  1.00  0.00     0.025 A 
ATOM     14  C   UNL A   1      31.046  24.809  26.076  1.00  0.00     0.128 A 
ATOM     15  C   UNL A   1      33.062  26.130  25.521  1.00  0.00     0.026 C 
ATOM     16  C   UNL A   1      30.422  23.671  26.576  1.00  0.00     0.049 A 
ATOM     17  O   UNL A   1      30.225  25.898  25.908  1.00  0.00    -0.475 OA
ATOM     18  C   UNL A   1      30.829  27.049  25.270  1.00  0.00     0.314 C 
BRANCH   9  19
ATOM     19  C   UNL A   1      34.493  23.459  25.157  1.00  0.00    -0.013 A 
ATOM     20  C   UNL A   1      33.625  22.905  22.804  1.00  0.00     0.045 C 
ATOM     21  C   UNL A   1      34.722  23.150  23.801  1.00  0.00    -0.043 A 
ATOM     22  C   UNL A   1      36.047  23.028  23.328  1.00  0.00     0.004 A 
ATOM     23  C   UNL A   1      37.140  23.247  24.164  1.00  0.00     0.000 A 
ATOM     24  C   UNL A   1      35.626  23.661  25.984  1.00  0.00     0.009 A 
ATOM     25  C   UNL A   1      36.929  23.573  25.495  1.00  0.00     0.001 A 
ENDBRANCH   9  19
BRANCH  18  26
ATOM     26  C   UNL A   1      30.654  27.012  23.743  1.00  0.00     0.429 C 
ATOM     27  F   UNL A   1      31.652  27.677  23.112  1.00  0.00    -0.167 F 
ATOM     28  F   UNL A   1      30.690  25.735  23.280  1.00  0.00    -0.167 F 
ATOM     29  F   UNL A   1      29.487  27.550  23.322  1.00  0.00    -0.167 F 
ENDBRANCH  18  26
ENDBRANCH   5   8
ENDBRANCH   3   4
ENDBRANCH   2   3
ENDBRANCH   1   2
BRANCH   1  30
ATOM     30  C   UNL A   1      34.305  31.789  28.660  1.00  0.00     0.116 C 
BRANCH  30  31
ATOM     31  N   UNL A   1      34.242  33.247  28.730  1.00  0.00    -0.352 N 
ATOM     32  C   UNL A   1      34.875  34.127  29.577  1.00  0.00     0.251 C 
ATOM     33  H   UNL A   1      33.649  33.666  28.066  1.00  0.00     0.163 HD
ATOM     34  O   UNL A   1      34.332  35.224  29.776  1.00  0.00    -0.269 OA
BRANCH  32  35
ATOM     35  C   UNL A   1      36.202  33.833  30.149  1.00  0.00     0.039 A 
ATOM     36  C   UNL A   1      37.384  34.072  29.430  1.00  0.00     0.014 A 
ATOM     37  C   UNL A   1      36.259  33.099  31.326  1.00  0.00     0.014 A 
ATOM     38  C   UNL A   1      38.564  33.436  29.820  1.00  0.00     0.010 A 
ATOM     39  C   UNL A   1      37.443  32.686  31.841  1.00  0.00     0.010 A 
ATOM     40  C   UNL A   1      38.535  32.679  30.982  1.00  0.00    -0.014 A 
BRANCH  40  41
ATOM     41  C   UNL A   1      39.458  31.629  31.363  1.00  0.00     0.031 A 
ATOM     42  C   UNL A   1      39.444  30.372  30.627  1.00  0.00     0.074 A 
ATOM     43  C   UNL A   1      40.568  32.109  31.974  1.00  0.00     0.049 A 
ATOM     44  N   UNL A   1      40.266  29.410  30.840  1.00  0.00    -0.248 NA
ATOM     45  C   UNL A   1      38.481  30.100  29.568  1.00  0.00     0.031 C 
ATOM     46  C   UNL A   1      41.958  31.698  31.822  1.00  0.00     0.029 A 
ATOM     47  N   UNL A   1      40.671  33.184  32.839  1.00  0.00    -0.354 N 
ATOM     48  C   UNL A   1      40.190  28.583  29.743  1.00  0.00     0.074 A 
ATOM     49  C   UNL A   1      38.951  28.942  29.099  1.00  0.00     0.031 C 
ATOM     50  C   UNL A   1      42.706  32.325  32.752  1.00  0.00     0.029 A 
ATOM     51  C   UNL A   1      41.788  33.011  33.649  1.00  0.00     0.049 A 
ATOM     52  H   UNL A   1      40.053  33.948  32.876  1.00  0.00     0.167 HD
ATOM     53  C   UNL A   1      41.292  27.848  29.425  1.00  0.00     0.034 A 
ATOM     54  C   UNL A   1      41.581  32.671  34.963  1.00  0.00     0.034 A 
ATOM     55  C   UNL A   1      42.320  27.995  30.480  1.00  0.00     0.049 A 
ATOM     56  C   UNL A   1      41.981  31.230  35.255  1.00  0.00     0.074 A 
ATOM     57  C   UNL A   1      43.508  28.704  30.554  1.00  0.00     0.029 A 
ATOM     58  N   UNL A   1      42.013  27.621  31.789  1.00  0.00    -0.354 N 
ATOM     59  N   UNL A   1      42.262  30.346  34.335  1.00  0.00    -0.248 NA
ATOM     60  C   UNL A   1      42.145  30.683  36.597  1.00  0.00     0.031 C 
ATOM     61  C   UNL A   1      43.843  28.856  31.933  1.00  0.00     0.029 A 
ATOM     62  C   UNL A   1      42.885  28.206  32.696  1.00  0.00     0.049 A 
ATOM     63  H   UNL A   1      41.273  27.021  32.037  1.00  0.00     0.167 HD
ATOM     64  C   UNL A   1      42.531  29.131  34.897  1.00  0.00     0.074 A 
ATOM     65  C   UNL A   1      42.510  29.416  36.324  1.00  0.00     0.031 C 
ATOM     66  C   UNL A   1      42.705  28.001  34.137  1.00  0.00     0.034 A 
BRANCH  53  67
ATOM     67  C   UNL A   1      41.587  27.193  28.078  1.00  0.00     0.023 A 
ATOM     68  C   UNL A   1      41.446  28.010  26.933  1.00  0.00     0.012 A 
ATOM     69  C   UNL A   1      41.926  25.840  27.821  1.00  0.00     0.148 A 
ATOM     70  C   UNL A   1      41.593  27.520  25.628  1.00  0.00     0.002 A 
ATOM     71  C   UNL A   1      42.100  25.353  26.520  1.00  0.00     0.091 A 
ATOM     72  F   UNL A   1      42.062  24.974  28.819  1.00  0.00    -0.205 F 
ATOM     73  C   UNL A   1      41.922  26.190  25.420  1.00  0.00     0.022 A 
BRANCH  71  74
ATOM     74  S   UNL A   1      42.547  23.638  26.174  1.00  0.00     0.127 S 
ATOM     75  O   UNL A   1      43.607  23.394  27.153  1.00  0.00    -0.237 OA
ATOM     76  O   UNL A   1      41.296  22.929  26.445  1.00  0.00    -0.237 OA
ATOM     77  O   UNL A   1      42.983  23.590  24.784  1.00  0.00    -0.744 OA
ENDBRANCH  71  74
ENDBRANCH  53  67
BRANCH  54  78
ATOM     78  C   UNL A   1      40.386  33.402  35.525  1.00  0.00     0.023 A 
ATOM     79  C   UNL A   1      39.154  32.696  35.475  1.00  0.00     0.012 A 
ATOM     80  C   UNL A   1      40.532  34.424  36.483  1.00  0.00     0.148 A 
ATOM     81  C   UNL A   1      38.197  32.849  36.482  1.00  0.00     0.002 A 
ATOM     82  C   UNL A   1      39.555  34.591  37.469  1.00  0.00     0.091 A 
ATOM     83  F   UNL A   1      41.645  35.169  36.465  1.00  0.00    -0.205 F 
ATOM     84  C   UNL A   1      38.421  33.762  37.507  1.00  0.00     0.022 A 
BRANCH  82  85
ATOM     85  S   UNL A   1      39.753  35.801  38.787  1.00  0.00     0.127 S 
ATOM     86  O   UNL A   1      39.606  37.057  38.054  1.00  0.00    -0.237 OA
ATOM     87  O   UNL A   1      38.643  35.496  39.692  1.00  0.00    -0.237 OA
ATOM     88  O   UNL A   1      41.066  35.532  39.351  1.00  0.00    -0.744 OA
ENDBRANCH  82  85
ENDBRANCH  54  78
BRANCH  66  89
ATOM     89  C   UNL A   1      42.721  26.580  34.681  1.00  0.00     0.023 A 
ATOM     90  C   UNL A   1      41.640  26.037  35.400  1.00  0.00     0.012 A 
ATOM     91  C   UNL A   1      43.774  25.683  34.354  1.00  0.00     0.148 A 
ATOM     92  C   UNL A   1      41.631  24.709  35.841  1.00  0.00     0.002 A 
ATOM     93  C   UNL A   1      43.697  24.332  34.678  1.00  0.00     0.091 A 
ATOM     94  F   UNL A   1      44.879  26.135  33.745  1.00  0.00    -0.205 F 
ATOM     95  C   UNL A   1      42.647  23.848  35.457  1.00  0.00     0.022 A 
BRANCH  93  96
ATOM     96  S   UNL A   1      44.843  23.140  33.970  1.00  0.00     0.127 S 
ATOM     97  O   UNL A   1      44.366  21.884  34.545  1.00  0.00    -0.237 OA
ATOM     98  O   UNL A   1      44.596  23.285  32.533  1.00  0.00    -0.237 OA
ATOM     99  O   UNL A   1      46.165  23.580  34.392  1.00  0.00    -0.744 OA
ENDBRANCH  93  96
ENDBRANCH  66  89
ENDBRANCH  40  41
ENDBRANCH  32  35
ENDBRANCH  30  31
ENDBRANCH   1  30
TORSDOF 16
ENDMDL
