MODEL 1
REMARK VINA RESULT:     -13.0      0.000      0.000
REMARK SMILES Cc1cc(OC(F)(F)F)cc2c1O[C@H](C(F)(F)F)C(C(=O)NCCCCNC(=O)c1ccc(-c3c4nc(c(-c5cccc(S(=O)(=O)[O-])c5F)c5ccc([nH]5)c(-c5cccc(S(=O)(=O)[O-])c5F)c5nc(c(-c6cccc(S(=O)(=O)[O-])c6F)c6ccc3[nH]6)C=C5)C=C4)cc1)=C2
REMARK SMILES IDX 25 1 24 2 23 3 22 4 20 5 21 6 19 8 1 9 2 10 3 11 12 12 4 13
REMARK SMILES IDX 11 14 13 15 10 16 93 17 14 18 5 19 6 20 7 21 8 22 9 23 15 24
REMARK SMILES IDX 16 25 17 26 18 27 26 28 27 29 28 30 29 32 30 33 31 34 92 35
REMARK SMILES IDX 32 36 91 37 33 38 34 39 35 40 85 41 36 42 90 43 84 44 86 45
REMARK SMILES IDX 37 46 89 47 83 48 82 49 38 51 70 52 50 53 69 54 51 55 54 56
REMARK SMILES IDX 68 57 87 58 52 59 53 60 67 62 88 63 55 64 39 65 40 66 48 67
REMARK SMILES IDX 41 68 43 69 49 70 42 71 44 72 45 73 46 74 47 75 71 76 72 77
REMARK SMILES IDX 80 78 73 79 75 80 81 81 74 82 76 83 77 84 78 85 79 86 56 87
REMARK SMILES IDX 57 88 65 89 58 90 60 91 66 92 59 93 61 94 62 95 63 96 64 97
REMARK H PARENT 22 7 27 31 86 50 54 61
REMARK Flexibility Score: inf
ROOT
ATOM      1  C   UNL A   1      35.606  21.937  24.326  1.00  0.00     0.023 C 
ENDROOT
BRANCH   1   2
ATOM      2  C   UNL A   1      34.210  21.377  24.616  1.00  0.00     0.023 C 
BRANCH   2   3
ATOM      3  C   UNL A   1      33.068  22.232  24.073  1.00  0.00     0.116 C 
BRANCH   3   4
ATOM      4  N   UNL A   1      31.915  22.228  24.955  1.00  0.00    -0.352 N 
ATOM      5  C   UNL A   1      31.121  23.149  25.548  1.00  0.00     0.251 C 
ATOM      6  O   UNL A   1      30.208  22.695  26.244  1.00  0.00    -0.270 OA
ATOM      7  H   UNL A   1      31.637  21.311  25.183  1.00  0.00     0.163 HD
BRANCH   5   8
ATOM      8  C   UNL A   1      31.272  24.630  25.420  1.00  0.00     0.067 C 
ATOM      9  C   UNL A   1      32.106  29.657  26.056  1.00  0.00     0.048 C 
ATOM     10  C   UNL A   1      31.375  28.817  25.046  1.00  0.00    -0.005 A 
ATOM     11  C   UNL A   1      30.797  29.416  23.914  1.00  0.00     0.054 A 
ATOM     12  C   UNL A   1      31.294  27.428  25.196  1.00  0.00     0.131 A 
ATOM     13  C   UNL A   1      30.127  28.643  22.962  1.00  0.00     0.130 A 
ATOM     14  C   UNL A   1      30.624  26.646  24.256  1.00  0.00     0.021 A 
ATOM     15  O   UNL A   1      31.854  26.878  26.318  1.00  0.00    -0.475 OA
ATOM     16  C   UNL A   1      30.043  27.258  23.142  1.00  0.00     0.058 A 
ATOM     17  C   UNL A   1      30.513  25.207  24.469  1.00  0.00     0.025 C 
ATOM     18  C   UNL A   1      32.216  25.469  26.231  1.00  0.00     0.314 C 
BRANCH  13  19
ATOM     19  O   UNL A   1      29.517  29.102  21.829  1.00  0.00    -0.406 OA
BRANCH  19  20
ATOM     20  C   UNL A   1      28.483  30.059  21.975  1.00  0.00     0.573 C 
ATOM     21  F   UNL A   1      27.663  29.743  23.001  1.00  0.00    -0.132 F 
ATOM     22  F   UNL A   1      28.985  31.297  22.164  1.00  0.00    -0.132 F 
ATOM     23  F   UNL A   1      27.745  30.077  20.843  1.00  0.00    -0.132 F 
ENDBRANCH  19  20
ENDBRANCH  13  19
BRANCH  18  24
ATOM     24  C   UNL A   1      33.676  25.351  25.755  1.00  0.00     0.429 C 
ATOM     25  F   UNL A   1      33.720  25.184  24.408  1.00  0.00    -0.167 F 
ATOM     26  F   UNL A   1      34.405  26.457  26.031  1.00  0.00    -0.167 F 
ATOM     27  F   UNL A   1      34.324  24.302  26.310  1.00  0.00    -0.167 F 
ENDBRANCH  18  24
ENDBRANCH   5   8
ENDBRANCH   3   4
ENDBRANCH   2   3
ENDBRANCH   1   2
BRANCH   1  28
ATOM     28  C   UNL A   1      36.553  21.997  25.524  1.00  0.00     0.116 C 
BRANCH  28  29
ATOM     29  N   UNL A   1      37.571  20.954  25.522  1.00  0.00    -0.352 N 
ATOM     30  C   UNL A   1      38.874  21.065  25.948  1.00  0.00     0.251 C 
ATOM     31  H   UNL A   1      37.296  20.074  25.176  1.00  0.00     0.163 HD
ATOM     32  O   UNL A   1      39.659  20.130  25.839  1.00  0.00    -0.269 OA
BRANCH  30  33
ATOM     33  C   UNL A   1      39.312  22.358  26.501  1.00  0.00     0.039 A 
ATOM     34  C   UNL A   1      40.403  22.382  27.372  1.00  0.00     0.014 A 
ATOM     35  C   UNL A   1      38.713  23.540  26.060  1.00  0.00     0.014 A 
ATOM     36  C   UNL A   1      40.948  23.609  27.747  1.00  0.00     0.010 A 
ATOM     37  C   UNL A   1      39.280  24.761  26.407  1.00  0.00     0.010 A 
ATOM     38  C   UNL A   1      40.413  24.802  27.238  1.00  0.00    -0.014 A 
BRANCH  38  39
ATOM     39  C   UNL A   1      41.041  26.110  27.528  1.00  0.00     0.031 A 
ATOM     40  C   UNL A   1      42.457  26.370  27.115  1.00  0.00     0.074 A 
ATOM     41  C   UNL A   1      40.360  27.023  28.249  1.00  0.00     0.049 A 
ATOM     42  N   UNL A   1      43.202  27.416  27.353  1.00  0.00    -0.248 NA
ATOM     43  C   UNL A   1      43.130  25.308  26.348  1.00  0.00     0.031 C 
ATOM     44  C   UNL A   1      38.997  26.854  28.758  1.00  0.00     0.029 A 
ATOM     45  N   UNL A   1      40.734  28.264  28.701  1.00  0.00    -0.354 N 
ATOM     46  C   UNL A   1      44.440  27.130  26.795  1.00  0.00     0.074 A 
ATOM     47  C   UNL A   1      44.353  25.806  26.218  1.00  0.00     0.031 C 
ATOM     48  C   UNL A   1      38.650  27.949  29.453  1.00  0.00     0.029 A 
ATOM     49  C   UNL A   1      39.768  28.888  29.454  1.00  0.00     0.049 A 
ATOM     50  H   UNL A   1      41.609  28.667  28.505  1.00  0.00     0.167 HD
ATOM     51  C   UNL A   1      45.542  27.912  26.744  1.00  0.00     0.034 A 
ATOM     52  C   UNL A   1      39.782  30.085  30.074  1.00  0.00     0.034 A 
ATOM     53  C   UNL A   1      45.611  29.245  27.274  1.00  0.00     0.049 A 
ATOM     54  C   UNL A   1      41.002  30.956  29.960  1.00  0.00     0.074 A 
ATOM     55  C   UNL A   1      46.666  30.138  27.216  1.00  0.00     0.029 A 
ATOM     56  N   UNL A   1      44.582  29.879  27.952  1.00  0.00    -0.354 N 
ATOM     57  N   UNL A   1      42.124  30.715  29.328  1.00  0.00    -0.248 NA
ATOM     58  C   UNL A   1      40.948  32.272  30.613  1.00  0.00     0.031 C 
ATOM     59  C   UNL A   1      46.270  31.320  27.851  1.00  0.00     0.029 A 
ATOM     60  C   UNL A   1      44.971  31.157  28.308  1.00  0.00     0.049 A 
ATOM     61  H   UNL A   1      43.704  29.479  28.149  1.00  0.00     0.167 HD
ATOM     62  C   UNL A   1      42.900  31.858  29.481  1.00  0.00     0.074 A 
ATOM     63  C   UNL A   1      42.117  32.795  30.260  1.00  0.00     0.031 C 
ATOM     64  C   UNL A   1      44.154  32.099  29.028  1.00  0.00     0.034 A 
BRANCH  51  65
ATOM     65  C   UNL A   1      46.742  27.372  26.022  1.00  0.00     0.023 A 
ATOM     66  C   UNL A   1      46.821  27.527  24.625  1.00  0.00     0.012 A 
ATOM     67  C   UNL A   1      47.805  26.768  26.719  1.00  0.00     0.148 A 
ATOM     68  C   UNL A   1      47.938  27.076  23.925  1.00  0.00     0.002 A 
ATOM     69  C   UNL A   1      48.927  26.344  26.018  1.00  0.00     0.091 A 
ATOM     70  F   UNL A   1      47.694  26.611  28.046  1.00  0.00    -0.205 F 
ATOM     71  C   UNL A   1      48.993  26.492  24.621  1.00  0.00     0.022 A 
BRANCH  69  72
ATOM     72  S   UNL A   1      50.359  25.620  26.825  1.00  0.00     0.127 S 
ATOM     73  O   UNL A   1      50.766  26.697  27.726  1.00  0.00    -0.237 OA
ATOM     74  O   UNL A   1      49.779  24.453  27.491  1.00  0.00    -0.237 OA
ATOM     75  O   UNL A   1      51.303  25.305  25.762  1.00  0.00    -0.744 OA
ENDBRANCH  69  72
ENDBRANCH  51  65
BRANCH  52  76
ATOM     76  C   UNL A   1      38.557  30.558  30.773  1.00  0.00     0.023 A 
ATOM     77  C   UNL A   1      38.442  30.343  32.159  1.00  0.00     0.012 A 
ATOM     78  C   UNL A   1      37.555  31.280  30.098  1.00  0.00     0.148 A 
ATOM     79  C   UNL A   1      37.341  30.831  32.863  1.00  0.00     0.002 A 
ATOM     80  C   UNL A   1      36.478  31.795  30.812  1.00  0.00     0.091 A 
ATOM     81  F   UNL A   1      37.692  31.472  28.779  1.00  0.00    -0.205 F 
ATOM     82  C   UNL A   1      36.365  31.563  32.192  1.00  0.00     0.022 A 
BRANCH  80  83
ATOM     83  S   UNL A   1      35.221  32.836  30.063  1.00  0.00     0.127 S 
ATOM     84  O   UNL A   1      34.648  31.940  29.061  1.00  0.00    -0.237 OA
ATOM     85  O   UNL A   1      34.352  33.121  31.205  1.00  0.00    -0.237 OA
ATOM     86  O   UNL A   1      35.928  33.994  29.534  1.00  0.00    -0.744 OA
ENDBRANCH  80  83
ENDBRANCH  52  76
BRANCH  64  87
ATOM     87  C   UNL A   1      44.769  33.436  29.331  1.00  0.00     0.023 A 
ATOM     88  C   UNL A   1      45.508  33.598  30.517  1.00  0.00     0.012 A 
ATOM     89  C   UNL A   1      44.728  34.477  28.384  1.00  0.00     0.148 A 
ATOM     90  C   UNL A   1      46.200  34.784  30.759  1.00  0.00     0.002 A 
ATOM     91  C   UNL A   1      45.445  35.645  28.619  1.00  0.00     0.091 A 
ATOM     92  F   UNL A   1      44.002  34.300  27.271  1.00  0.00    -0.205 F 
ATOM     93  C   UNL A   1      46.179  35.801  29.806  1.00  0.00     0.022 A 
BRANCH  91  94
ATOM     94  S   UNL A   1      45.538  36.975  27.415  1.00  0.00     0.127 S 
ATOM     95  O   UNL A   1      44.149  37.427  27.363  1.00  0.00    -0.237 OA
ATOM     96  O   UNL A   1      46.462  37.912  28.058  1.00  0.00    -0.237 OA
ATOM     97  O   UNL A   1      46.045  36.373  26.189  1.00  0.00    -0.744 OA
ENDBRANCH  91  94
ENDBRANCH  64  87
ENDBRANCH  38  39
ENDBRANCH  30  33
ENDBRANCH  28  29
ENDBRANCH   1  28
TORSDOF 17
ENDMDL
MODEL 2
REMARK VINA RESULT:     -12.9      0.644      7.645
REMARK SMILES Cc1cc(OC(F)(F)F)cc2c1O[C@H](C(F)(F)F)C(C(=O)NCCCCNC(=O)c1ccc(-c3c4nc(c(-c5cccc(S(=O)(=O)[O-])c5F)c5ccc([nH]5)c(-c5cccc(S(=O)(=O)[O-])c5F)c5nc(c(-c6cccc(S(=O)(=O)[O-])c6F)c6ccc3[nH]6)C=C5)C=C4)cc1)=C2
REMARK SMILES IDX 25 1 24 2 23 3 22 4 20 5 21 6 19 8 1 9 2 10 3 11 12 12 4 13
REMARK SMILES IDX 11 14 13 15 10 16 93 17 14 18 5 19 6 20 7 21 8 22 9 23 15 24
REMARK SMILES IDX 16 25 17 26 18 27 26 28 27 29 28 30 29 32 30 33 31 34 92 35
REMARK SMILES IDX 32 36 91 37 33 38 34 39 35 40 85 41 36 42 90 43 84 44 86 45
REMARK SMILES IDX 37 46 89 47 83 48 82 49 38 51 70 52 50 53 69 54 51 55 54 56
REMARK SMILES IDX 68 57 87 58 52 59 53 60 67 62 88 63 55 64 39 65 40 66 48 67
REMARK SMILES IDX 41 68 43 69 49 70 42 71 44 72 45 73 46 74 47 75 71 76 72 77
REMARK SMILES IDX 80 78 73 79 75 80 81 81 74 82 76 83 77 84 78 85 79 86 56 87
REMARK SMILES IDX 57 88 65 89 58 90 60 91 66 92 59 93 61 94 62 95 63 96 64 97
REMARK H PARENT 22 7 27 31 86 50 54 61
REMARK Flexibility Score: inf
ROOT
ATOM      1  C   UNL A   1      35.263  21.985  24.722  1.00  0.00     0.023 C 
ENDROOT
BRANCH   1   2
ATOM      2  C   UNL A   1      35.363  22.769  23.410  1.00  0.00     0.023 C 
BRANCH   2   3
ATOM      3  C   UNL A   1      34.039  23.364  22.935  1.00  0.00     0.116 C 
BRANCH   3   4
ATOM      4  N   UNL A   1      32.934  22.999  23.803  1.00  0.00    -0.352 N 
ATOM      5  C   UNL A   1      31.987  23.645  24.522  1.00  0.00     0.251 C 
ATOM      6  O   UNL A   1      31.202  22.919  25.141  1.00  0.00    -0.270 OA
ATOM      7  H   UNL A   1      32.851  22.022  23.892  1.00  0.00     0.163 HD
BRANCH   5   8
ATOM      8  C   UNL A   1      31.835  25.128  24.615  1.00  0.00     0.067 C 
ATOM      9  C   UNL A   1      31.519  30.057  26.023  1.00  0.00     0.048 C 
ATOM     10  C   UNL A   1      31.091  29.262  24.821  1.00  0.00    -0.005 A 
ATOM     11  C   UNL A   1      30.521  29.909  23.712  1.00  0.00     0.054 A 
ATOM     12  C   UNL A   1      31.289  27.877  24.772  1.00  0.00     0.131 A 
ATOM     13  C   UNL A   1      30.132  29.182  22.584  1.00  0.00     0.130 A 
ATOM     14  C   UNL A   1      30.901  27.139  23.655  1.00  0.00     0.021 A 
ATOM     15  O   UNL A   1      31.833  27.276  25.876  1.00  0.00    -0.475 OA
ATOM     16  C   UNL A   1      30.323  27.796  22.565  1.00  0.00     0.058 A 
ATOM     17  C   UNL A   1      31.075  25.691  23.657  1.00  0.00     0.025 C 
ATOM     18  C   UNL A   1      32.490  25.995  25.650  1.00  0.00     0.314 C 
BRANCH  13  19
ATOM     19  O   UNL A   1      29.561  29.688  21.451  1.00  0.00    -0.406 OA
BRANCH  19  20
ATOM     20  C   UNL A   1      28.356  30.421  21.587  1.00  0.00     0.573 C 
ATOM     21  F   UNL A   1      28.591  31.669  22.046  1.00  0.00    -0.132 F 
ATOM     22  F   UNL A   1      27.691  30.490  20.415  1.00  0.00    -0.132 F 
ATOM     23  F   UNL A   1      27.562  29.791  22.481  1.00  0.00    -0.132 F 
ENDBRANCH  19  20
ENDBRANCH  13  19
BRANCH  18  24
ATOM     24  C   UNL A   1      33.985  26.238  25.364  1.00  0.00     0.429 C 
ATOM     25  F   UNL A   1      34.432  27.307  26.072  1.00  0.00    -0.167 F 
ATOM     26  F   UNL A   1      34.761  25.189  25.718  1.00  0.00    -0.167 F 
ATOM     27  F   UNL A   1      34.233  26.491  24.058  1.00  0.00    -0.167 F 
ENDBRANCH  18  24
ENDBRANCH   5   8
ENDBRANCH   3   4
ENDBRANCH   2   3
ENDBRANCH   1   2
BRANCH   1  28
ATOM     28  C   UNL A   1      36.463  22.115  25.659  1.00  0.00     0.116 C 
BRANCH  28  29
ATOM     29  N   UNL A   1      37.441  21.044  25.515  1.00  0.00    -0.352 N 
ATOM     30  C   UNL A   1      38.770  21.081  25.865  1.00  0.00     0.251 C 
ATOM     31  H   UNL A   1      37.114  20.203  25.123  1.00  0.00     0.163 HD
ATOM     32  O   UNL A   1      39.513  20.133  25.638  1.00  0.00    -0.269 OA
BRANCH  30  33
ATOM     33  C   UNL A   1      39.287  22.314  26.484  1.00  0.00     0.039 A 
ATOM     34  C   UNL A   1      40.334  22.217  27.403  1.00  0.00     0.014 A 
ATOM     35  C   UNL A   1      38.809  23.557  26.061  1.00  0.00     0.014 A 
ATOM     36  C   UNL A   1      40.960  23.381  27.847  1.00  0.00     0.010 A 
ATOM     37  C   UNL A   1      39.458  24.713  26.478  1.00  0.00     0.010 A 
ATOM     38  C   UNL A   1      40.549  24.631  27.359  1.00  0.00    -0.014 A 
BRANCH  38  39
ATOM     39  C   UNL A   1      41.269  25.871  27.725  1.00  0.00     0.031 A 
ATOM     40  C   UNL A   1      40.563  26.951  28.487  1.00  0.00     0.074 A 
ATOM     41  C   UNL A   1      42.529  26.058  27.284  1.00  0.00     0.049 A 
ATOM     42  N   UNL A   1      40.997  28.135  28.824  1.00  0.00    -0.248 NA
ATOM     43  C   UNL A   1      39.180  26.669  28.910  1.00  0.00     0.031 C 
ATOM     44  C   UNL A   1      43.295  25.101  26.482  1.00  0.00     0.029 A 
ATOM     45  N   UNL A   1      43.376  27.127  27.426  1.00  0.00    -0.354 N 
ATOM     46  C   UNL A   1      39.937  28.754  29.471  1.00  0.00     0.074 A 
ATOM     47  C   UNL A   1      38.831  27.821  29.468  1.00  0.00     0.031 C 
ATOM     48  C   UNL A   1      44.498  25.628  26.202  1.00  0.00     0.029 A 
ATOM     49  C   UNL A   1      44.583  26.962  26.788  1.00  0.00     0.049 A 
ATOM     50  H   UNL A   1      43.143  27.935  27.937  1.00  0.00     0.167 HD
ATOM     51  C   UNL A   1      39.898  29.980  30.041  1.00  0.00     0.034 A 
ATOM     52  C   UNL A   1      45.640  27.792  26.690  1.00  0.00     0.034 A 
ATOM     53  C   UNL A   1      41.012  30.885  30.086  1.00  0.00     0.049 A 
ATOM     54  C   UNL A   1      45.589  29.129  27.375  1.00  0.00     0.074 A 
ATOM     55  C   UNL A   1      41.086  32.125  30.696  1.00  0.00     0.029 A 
ATOM     56  N   UNL A   1      42.247  30.645  29.507  1.00  0.00    -0.354 N 
ATOM     57  N   UNL A   1      44.617  29.651  28.082  1.00  0.00    -0.248 NA
ATOM     58  C   UNL A   1      46.786  29.978  27.278  1.00  0.00     0.031 C 
ATOM     59  C   UNL A   1      42.373  32.632  30.493  1.00  0.00     0.029 A 
ATOM     60  C   UNL A   1      43.096  31.708  29.754  1.00  0.00     0.049 A 
ATOM     61  H   UNL A   1      42.485  29.838  28.996  1.00  0.00     0.167 HD
ATOM     62  C   UNL A   1      45.092  30.874  28.539  1.00  0.00     0.074 A 
ATOM     63  C   UNL A   1      46.443  31.014  28.035  1.00  0.00     0.031 C 
ATOM     64  C   UNL A   1      44.458  31.802  29.297  1.00  0.00     0.034 A 
BRANCH  51  65
ATOM     65  C   UNL A   1      38.627  30.382  30.731  1.00  0.00     0.023 A 
ATOM     66  C   UNL A   1      38.455  30.046  32.088  1.00  0.00     0.012 A 
ATOM     67  C   UNL A   1      37.638  31.131  30.067  1.00  0.00     0.148 A 
ATOM     68  C   UNL A   1      37.307  30.438  32.774  1.00  0.00     0.002 A 
ATOM     69  C   UNL A   1      36.508  31.541  30.764  1.00  0.00     0.091 A 
ATOM     70  F   UNL A   1      37.816  31.417  28.769  1.00  0.00    -0.205 F 
ATOM     71  C   UNL A   1      36.339  31.191  32.115  1.00  0.00     0.022 A 
BRANCH  69  72
ATOM     72  S   UNL A   1      35.223  32.551  30.021  1.00  0.00     0.127 S 
ATOM     73  O   UNL A   1      34.292  32.713  31.137  1.00  0.00    -0.237 OA
ATOM     74  O   UNL A   1      35.957  33.764  29.657  1.00  0.00    -0.237 OA
ATOM     75  O   UNL A   1      34.716  31.787  28.890  1.00  0.00    -0.744 OA
ENDBRANCH  69  72
ENDBRANCH  51  65
BRANCH  52  76
ATOM     76  C   UNL A   1      46.868  27.329  25.989  1.00  0.00     0.023 A 
ATOM     77  C   UNL A   1      47.016  27.617  24.620  1.00  0.00     0.012 A 
ATOM     78  C   UNL A   1      47.911  26.683  26.679  1.00  0.00     0.148 A 
ATOM     79  C   UNL A   1      48.182  27.259  23.943  1.00  0.00     0.002 A 
ATOM     80  C   UNL A   1      49.085  26.363  26.007  1.00  0.00     0.091 A 
ATOM     81  F   UNL A   1      47.743  26.425  27.983  1.00  0.00    -0.205 F 
ATOM     82  C   UNL A   1      49.218  26.641  24.637  1.00  0.00     0.022 A 
BRANCH  80  83
ATOM     83  S   UNL A   1      50.518  25.657  26.830  1.00  0.00     0.127 S 
ATOM     84  O   UNL A   1      51.449  25.487  25.718  1.00  0.00    -0.237 OA
ATOM     85  O   UNL A   1      50.870  26.719  27.773  1.00  0.00    -0.237 OA
ATOM     86  O   UNL A   1      50.052  24.425  27.450  1.00  0.00    -0.744 OA
ENDBRANCH  80  83
ENDBRANCH  52  76
BRANCH  64  87
ATOM     87  C   UNL A   1      45.211  33.050  29.660  1.00  0.00     0.023 A 
ATOM     88  C   UNL A   1      46.010  33.057  30.818  1.00  0.00     0.012 A 
ATOM     89  C   UNL A   1      45.232  34.155  28.788  1.00  0.00     0.148 A 
ATOM     90  C   UNL A   1      46.822  34.153  31.106  1.00  0.00     0.002 A 
ATOM     91  C   UNL A   1      46.066  35.232  29.067  1.00  0.00     0.091 A 
ATOM     92  F   UNL A   1      44.447  34.127  27.701  1.00  0.00    -0.205 F 
ATOM     93  C   UNL A   1      46.860  35.233  30.226  1.00  0.00     0.022 A 
BRANCH  91  94
ATOM     94  S   UNL A   1      46.238  36.630  27.953  1.00  0.00     0.127 S 
ATOM     95  O   UNL A   1      46.650  35.974  26.713  1.00  0.00    -0.237 OA
ATOM     96  O   UNL A   1      44.882  37.180  27.932  1.00  0.00    -0.237 OA
ATOM     97  O   UNL A   1      47.235  37.505  28.556  1.00  0.00    -0.744 OA
ENDBRANCH  91  94
ENDBRANCH  64  87
ENDBRANCH  38  39
ENDBRANCH  30  33
ENDBRANCH  28  29
ENDBRANCH   1  28
TORSDOF 17
ENDMDL
MODEL 3
REMARK VINA RESULT:     -12.8      5.314      8.003
REMARK SMILES Cc1cc(OC(F)(F)F)cc2c1O[C@H](C(F)(F)F)C(C(=O)NCCCCNC(=O)c1ccc(-c3c4nc(c(-c5cccc(S(=O)(=O)[O-])c5F)c5ccc([nH]5)c(-c5cccc(S(=O)(=O)[O-])c5F)c5nc(c(-c6cccc(S(=O)(=O)[O-])c6F)c6ccc3[nH]6)C=C5)C=C4)cc1)=C2
REMARK SMILES IDX 25 1 24 2 23 3 22 4 20 5 21 6 19 8 1 9 2 10 3 11 12 12 4 13
REMARK SMILES IDX 11 14 13 15 10 16 93 17 14 18 5 19 6 20 7 21 8 22 9 23 15 24
REMARK SMILES IDX 16 25 17 26 18 27 26 28 27 29 28 30 29 32 30 33 31 34 92 35
REMARK SMILES IDX 32 36 91 37 33 38 34 39 35 40 85 41 36 42 90 43 84 44 86 45
REMARK SMILES IDX 37 46 89 47 83 48 82 49 38 51 70 52 50 53 69 54 51 55 54 56
REMARK SMILES IDX 68 57 87 58 52 59 53 60 67 62 88 63 55 64 39 65 40 66 48 67
REMARK SMILES IDX 41 68 43 69 49 70 42 71 44 72 45 73 46 74 47 75 71 76 72 77
REMARK SMILES IDX 80 78 73 79 75 80 81 81 74 82 76 83 77 84 78 85 79 86 56 87
REMARK SMILES IDX 57 88 65 89 58 90 60 91 66 92 59 93 61 94 62 95 63 96 64 97
REMARK H PARENT 22 7 27 31 86 50 54 61
REMARK Flexibility Score: inf
ROOT
ATOM      1  C   UNL A   1      31.742  28.083  25.779  1.00  0.00     0.023 C 
ENDROOT
BRANCH   1   2
ATOM      2  C   UNL A   1      31.156  27.831  24.386  1.00  0.00     0.023 C 
BRANCH   2   3
ATOM      3  C   UNL A   1      31.208  26.372  23.940  1.00  0.00     0.116 C 
BRANCH   3   4
ATOM      4  N   UNL A   1      31.904  26.211  22.676  1.00  0.00    -0.352 N 
ATOM      5  C   UNL A   1      32.869  25.406  22.175  1.00  0.00     0.251 C 
ATOM      6  O   UNL A   1      33.175  25.614  20.996  1.00  0.00    -0.270 OA
ATOM      7  H   UNL A   1      31.590  26.861  22.005  1.00  0.00     0.163 HD
BRANCH   5   8
ATOM      8  C   UNL A   1      33.566  24.321  22.928  1.00  0.00     0.067 C 
ATOM      9  C   UNL A   1      36.867  21.236  25.369  1.00  0.00     0.048 C 
ATOM     10  C   UNL A   1      35.489  21.077  24.789  1.00  0.00    -0.005 A 
ATOM     11  C   UNL A   1      34.791  19.868  24.945  1.00  0.00     0.054 A 
ATOM     12  C   UNL A   1      34.868  22.140  24.122  1.00  0.00     0.131 A 
ATOM     13  C   UNL A   1      33.505  19.714  24.421  1.00  0.00     0.130 A 
ATOM     14  C   UNL A   1      33.586  21.997  23.590  1.00  0.00     0.021 A 
ATOM     15  O   UNL A   1      35.581  23.299  23.973  1.00  0.00    -0.475 OA
ATOM     16  C   UNL A   1      32.911  20.784  23.743  1.00  0.00     0.058 A 
ATOM     17  C   UNL A   1      32.988  23.107  22.857  1.00  0.00     0.025 C 
ATOM     18  C   UNL A   1      34.801  24.510  23.759  1.00  0.00     0.314 C 
BRANCH  13  19
ATOM     19  O   UNL A   1      32.728  18.594  24.497  1.00  0.00    -0.406 OA
BRANCH  19  20
ATOM     20  C   UNL A   1      32.940  17.575  23.536  1.00  0.00     0.573 C 
ATOM     21  F   UNL A   1      32.201  17.786  22.425  1.00  0.00    -0.132 F 
ATOM     22  F   UNL A   1      34.244  17.484  23.198  1.00  0.00    -0.132 F 
ATOM     23  F   UNL A   1      32.563  16.390  24.067  1.00  0.00    -0.132 F 
ENDBRANCH  19  20
ENDBRANCH  13  19
BRANCH  18  24
ATOM     24  C   UNL A   1      34.506  25.168  25.121  1.00  0.00     0.429 C 
ATOM     25  F   UNL A   1      33.329  24.710  25.620  1.00  0.00    -0.167 F 
ATOM     26  F   UNL A   1      35.451  24.892  26.049  1.00  0.00    -0.167 F 
ATOM     27  F   UNL A   1      34.411  26.515  25.043  1.00  0.00    -0.167 F 
ENDBRANCH  18  24
ENDBRANCH   5   8
ENDBRANCH   3   4
ENDBRANCH   2   3
ENDBRANCH   1   2
BRANCH   1  28
ATOM     28  C   UNL A   1      32.834  29.150  25.850  1.00  0.00     0.116 C 
BRANCH  28  29
ATOM     29  N   UNL A   1      32.356  30.451  26.299  1.00  0.00    -0.352 N 
ATOM     30  C   UNL A   1      33.015  31.344  27.111  1.00  0.00     0.251 C 
ATOM     31  H   UNL A   1      31.461  30.720  25.988  1.00  0.00     0.163 HD
ATOM     32  O   UNL A   1      32.483  32.387  27.473  1.00  0.00    -0.269 OA
BRANCH  30  33
ATOM     33  C   UNL A   1      34.369  30.988  27.570  1.00  0.00     0.039 A 
ATOM     34  C   UNL A   1      35.321  32.001  27.703  1.00  0.00     0.014 A 
ATOM     35  C   UNL A   1      34.644  29.680  27.974  1.00  0.00     0.014 A 
ATOM     36  C   UNL A   1      36.539  31.714  28.318  1.00  0.00     0.010 A 
ATOM     37  C   UNL A   1      35.845  29.405  28.619  1.00  0.00     0.010 A 
ATOM     38  C   UNL A   1      36.792  30.424  28.812  1.00  0.00    -0.014 A 
BRANCH  38  39
ATOM     39  C   UNL A   1      38.027  30.121  29.568  1.00  0.00     0.031 A 
ATOM     40  C   UNL A   1      39.035  29.167  29.005  1.00  0.00     0.074 A 
ATOM     41  C   UNL A   1      38.187  30.635  30.804  1.00  0.00     0.049 A 
ATOM     42  N   UNL A   1      40.131  28.714  29.553  1.00  0.00    -0.248 NA
ATOM     43  C   UNL A   1      38.769  28.637  27.657  1.00  0.00     0.031 C 
ATOM     44  C   UNL A   1      37.240  31.526  31.478  1.00  0.00     0.029 A 
ATOM     45  N   UNL A   1      39.191  30.459  31.722  1.00  0.00    -0.354 N 
ATOM     46  C   UNL A   1      40.671  27.825  28.635  1.00  0.00     0.074 A 
ATOM     47  C   UNL A   1      39.776  27.789  27.498  1.00  0.00     0.031 C 
ATOM     48  C   UNL A   1      37.709  31.818  32.702  1.00  0.00     0.029 A 
ATOM     49  C   UNL A   1      38.976  31.122  32.906  1.00  0.00     0.049 A 
ATOM     50  H   UNL A   1      39.989  29.910  31.549  1.00  0.00     0.167 HD
ATOM     51  C   UNL A   1      41.824  27.123  28.719  1.00  0.00     0.034 A 
ATOM     52  C   UNL A   1      39.719  31.167  34.030  1.00  0.00     0.034 A 
ATOM     53  C   UNL A   1      42.736  27.198  29.826  1.00  0.00     0.049 A 
ATOM     54  C   UNL A   1      41.021  30.417  34.079  1.00  0.00     0.074 A 
ATOM     55  C   UNL A   1      43.959  26.570  29.975  1.00  0.00     0.029 A 
ATOM     56  N   UNL A   1      42.527  27.952  30.970  1.00  0.00    -0.354 N 
ATOM     57  N   UNL A   1      41.573  29.672  33.153  1.00  0.00    -0.248 NA
ATOM     58  C   UNL A   1      41.817  30.537  35.309  1.00  0.00     0.031 C 
ATOM     59  C   UNL A   1      44.497  26.954  31.207  1.00  0.00     0.029 A 
ATOM     60  C   UNL A   1      43.605  27.816  31.825  1.00  0.00     0.049 A 
ATOM     61  H   UNL A   1      41.731  28.503  31.147  1.00  0.00     0.167 HD
ATOM     62  C   UNL A   1      42.792  29.257  33.673  1.00  0.00     0.074 A 
ATOM     63  C   UNL A   1      42.903  29.840  34.995  1.00  0.00     0.031 C 
ATOM     64  C   UNL A   1      43.727  28.454  33.110  1.00  0.00     0.034 A 
BRANCH  51  65
ATOM     65  C   UNL A   1      42.202  26.269  27.544  1.00  0.00     0.023 A 
ATOM     66  C   UNL A   1      42.936  26.849  26.491  1.00  0.00     0.012 A 
ATOM     67  C   UNL A   1      41.887  24.898  27.503  1.00  0.00     0.148 A 
ATOM     68  C   UNL A   1      43.341  26.078  25.403  1.00  0.00     0.002 A 
ATOM     69  C   UNL A   1      42.316  24.130  26.428  1.00  0.00     0.091 A 
ATOM     70  F   UNL A   1      41.167  24.377  28.507  1.00  0.00    -0.205 F 
ATOM     71  C   UNL A   1      43.038  24.719  25.375  1.00  0.00     0.022 A 
BRANCH  69  72
ATOM     72  S   UNL A   1      42.017  22.363  26.318  1.00  0.00     0.127 S 
ATOM     73  O   UNL A   1      40.564  22.319  26.159  1.00  0.00    -0.237 OA
ATOM     74  O   UNL A   1      42.774  21.997  25.120  1.00  0.00    -0.237 OA
ATOM     75  O   UNL A   1      42.528  21.791  27.556  1.00  0.00    -0.744 OA
ENDBRANCH  69  72
ENDBRANCH  51  65
BRANCH  52  76
ATOM     76  C   UNL A   1      39.284  32.034  35.158  1.00  0.00     0.023 A 
ATOM     77  C   UNL A   1      39.469  33.425  35.054  1.00  0.00     0.012 A 
ATOM     78  C   UNL A   1      38.626  31.504  36.284  1.00  0.00     0.148 A 
ATOM     79  C   UNL A   1      39.015  34.278  36.060  1.00  0.00     0.002 A 
ATOM     80  C   UNL A   1      38.143  32.363  37.265  1.00  0.00     0.091 A 
ATOM     81  F   UNL A   1      38.461  30.176  36.355  1.00  0.00    -0.205 F 
ATOM     82  C   UNL A   1      38.345  33.748  37.160  1.00  0.00     0.022 A 
BRANCH  80  83
ATOM     83  S   UNL A   1      37.180  31.792  38.670  1.00  0.00     0.127 S 
ATOM     84  O   UNL A   1      36.014  32.669  38.610  1.00  0.00    -0.237 OA
ATOM     85  O   UNL A   1      36.923  30.398  38.307  1.00  0.00    -0.237 OA
ATOM     86  O   UNL A   1      38.035  31.968  39.836  1.00  0.00    -0.744 OA
ENDBRANCH  80  83
ENDBRANCH  52  76
BRANCH  64  87
ATOM     87  C   UNL A   1      44.975  28.165  33.895  1.00  0.00     0.023 A 
ATOM     88  C   UNL A   1      46.064  29.049  33.802  1.00  0.00     0.012 A 
ATOM     89  C   UNL A   1      45.012  27.102  34.818  1.00  0.00     0.148 A 
ATOM     90  C   UNL A   1      47.181  28.879  34.620  1.00  0.00     0.002 A 
ATOM     91  C   UNL A   1      46.116  26.957  35.650  1.00  0.00     0.091 A 
ATOM     92  F   UNL A   1      43.965  26.266  34.873  1.00  0.00    -0.205 F 
ATOM     93  C   UNL A   1      47.202  27.843  35.551  1.00  0.00     0.022 A 
BRANCH  91  94
ATOM     94  S   UNL A   1      46.198  25.699  36.931  1.00  0.00     0.127 S 
ATOM     95  O   UNL A   1      46.207  24.470  36.140  1.00  0.00    -0.237 OA
ATOM     96  O   UNL A   1      47.466  26.011  37.592  1.00  0.00    -0.237 OA
ATOM     97  O   UNL A   1      45.018  25.896  37.763  1.00  0.00    -0.744 OA
ENDBRANCH  91  94
ENDBRANCH  64  87
ENDBRANCH  38  39
ENDBRANCH  30  33
ENDBRANCH  28  29
ENDBRANCH   1  28
TORSDOF 17
ENDMDL
