MODEL 1
REMARK VINA RESULT:     -13.0      0.000      0.000
REMARK SMILES Cc1ccc(S(=O)(=O)N(c2ccccc2)[C@H](C)C(=O)NCCCCNC(=O)c2ccc(-c3c4nc(c(-c5cccc(S(=O)(=O)[O-])c5F)c5ccc([nH]5)c(-c5cccc(S(=O)(=O)[O-])c5F)c5nc(c(-c6cccc(S(=O)(=O)[O-])c6F)c6ccc3[nH]6)C=C5)C=C4)cc2)cc1
REMARK SMILES IDX 22 1 21 2 20 3 18 4 19 5 16 7 17 8 9 9 6 10 7 11 8 12 5 13
REMARK SMILES IDX 1 14 2 15 3 16 92 17 4 18 91 19 10 20 11 21 15 22 12 23
REMARK SMILES IDX 14 24 13 25 23 26 24 27 25 28 26 29 27 31 28 32 29 33 90 34
REMARK SMILES IDX 30 35 89 36 31 37 32 38 33 39 83 40 34 41 88 42 82 43 84 44
REMARK SMILES IDX 35 45 87 46 81 47 80 48 36 50 68 51 48 52 67 53 49 54 52 55
REMARK SMILES IDX 66 56 85 57 50 58 51 59 65 61 86 62 53 63 37 64 38 65 46 66
REMARK SMILES IDX 39 67 41 68 47 69 40 70 42 71 43 72 44 73 45 74 69 75 70 76
REMARK SMILES IDX 78 77 71 78 73 79 79 80 72 81 74 82 75 83 76 84 77 85 54 86
REMARK SMILES IDX 55 87 63 88 56 89 58 90 64 91 57 92 59 93 60 94 61 95 62 96
REMARK H PARENT 20 6 25 30 84 49 52 60
REMARK Flexibility Score: inf
ROOT
ATOM      1  C   UNL A   1      35.637  21.864  24.593  1.00  0.00     0.023 C 
ENDROOT
BRANCH   1   2
ATOM      2  C   UNL A   1      34.344  22.661  24.734  1.00  0.00     0.116 C 
BRANCH   2   3
ATOM      3  N   UNL A   1      33.902  22.919  26.090  1.00  0.00    -0.354 N 
ATOM      4  C   UNL A   1      32.666  23.289  26.553  1.00  0.00     0.243 C 
ATOM      5  O   UNL A   1      32.471  23.113  27.763  1.00  0.00    -0.273 OA
ATOM      6  H   UNL A   1      34.593  22.815  26.783  1.00  0.00     0.163 HD
BRANCH   4   7
ATOM      7  C   UNL A   1      31.576  23.945  25.685  1.00  0.00     0.185 C 
ATOM      8  C   UNL A   1      30.208  23.955  26.370  1.00  0.00     0.043 C 
BRANCH   7   9
ATOM      9  N   UNL A   1      31.949  25.238  25.012  1.00  0.00    -0.254 N 
BRANCH   9  10
ATOM     10  S   UNL A   1      31.345  25.447  23.430  1.00  0.00     0.265 S 
ATOM     11  O   UNL A   1      30.423  24.330  23.214  1.00  0.00    -0.201 OA
ATOM     12  O   UNL A   1      32.468  25.614  22.550  1.00  0.00    -0.201 OA
BRANCH  10  13
ATOM     13  C   UNL A   1      30.332  26.916  23.265  1.00  0.00     0.088 A 
ATOM     14  C   UNL A   1      27.922  30.295  22.086  1.00  0.00     0.044 C 
ATOM     15  C   UNL A   1      28.776  29.145  22.530  1.00  0.00    -0.051 A 
ATOM     16  C   UNL A   1      30.156  29.143  22.303  1.00  0.00     0.005 A 
ATOM     17  C   UNL A   1      28.209  28.078  23.230  1.00  0.00     0.005 A 
ATOM     18  C   UNL A   1      30.924  28.025  22.643  1.00  0.00     0.022 A 
ATOM     19  C   UNL A   1      28.994  26.995  23.637  1.00  0.00     0.022 A 
ENDBRANCH  10  13
ENDBRANCH   9  10
BRANCH   9  20
ATOM     20  C   UNL A   1      32.288  26.363  25.804  1.00  0.00     0.053 A 
ATOM     21  C   UNL A   1      33.595  26.845  25.677  1.00  0.00     0.027 A 
ATOM     22  C   UNL A   1      31.394  26.966  26.689  1.00  0.00     0.027 A 
ATOM     23  C   UNL A   1      34.013  27.929  26.436  1.00  0.00     0.002 A 
ATOM     24  C   UNL A   1      31.821  28.055  27.452  1.00  0.00     0.002 A 
ATOM     25  C   UNL A   1      33.131  28.526  27.331  1.00  0.00     0.000 A 
ENDBRANCH   9  20
ENDBRANCH   7   9
ENDBRANCH   4   7
ENDBRANCH   2   3
ENDBRANCH   1   2
BRANCH   1  26
ATOM     26  C   UNL A   1      36.604  21.946  25.776  1.00  0.00     0.023 C 
BRANCH  26  27
ATOM     27  C   UNL A   1      38.032  22.293  25.392  1.00  0.00     0.116 C 
BRANCH  27  28
ATOM     28  N   UNL A   1      39.017  22.001  26.407  1.00  0.00    -0.352 N 
ATOM     29  C   UNL A   1      39.914  22.849  27.026  1.00  0.00     0.251 C 
ATOM     30  H   UNL A   1      39.056  21.062  26.699  1.00  0.00     0.163 HD
ATOM     31  O   UNL A   1      40.876  22.328  27.585  1.00  0.00    -0.269 OA
BRANCH  29  32
ATOM     32  C   UNL A   1      39.646  24.311  27.177  1.00  0.00     0.039 A 
ATOM     33  C   UNL A   1      40.410  25.198  26.400  1.00  0.00     0.014 A 
ATOM     34  C   UNL A   1      38.920  24.818  28.246  1.00  0.00     0.014 A 
ATOM     35  C   UNL A   1      40.669  26.485  26.861  1.00  0.00     0.010 A 
ATOM     36  C   UNL A   1      39.263  26.029  28.774  1.00  0.00     0.010 A 
ATOM     37  C   UNL A   1      40.201  26.820  28.118  1.00  0.00    -0.014 A 
BRANCH  37  38
ATOM     38  C   UNL A   1      40.517  28.015  28.859  1.00  0.00     0.031 A 
ATOM     39  C   UNL A   1      39.597  29.150  28.727  1.00  0.00     0.074 A 
ATOM     40  C   UNL A   1      41.328  27.832  29.925  1.00  0.00     0.049 A 
ATOM     41  N   UNL A   1      39.798  30.291  29.271  1.00  0.00    -0.248 NA
ATOM     42  C   UNL A   1      38.349  29.070  27.974  1.00  0.00     0.031 C 
ATOM     43  C   UNL A   1      41.357  28.566  31.179  1.00  0.00     0.029 A 
ATOM     44  N   UNL A   1      42.414  26.956  30.026  1.00  0.00    -0.354 N 
ATOM     45  C   UNL A   1      38.604  30.978  29.214  1.00  0.00     0.074 A 
ATOM     46  C   UNL A   1      37.771  30.228  28.307  1.00  0.00     0.031 C 
ATOM     47  C   UNL A   1      42.527  28.321  31.794  1.00  0.00     0.029 A 
ATOM     48  C   UNL A   1      43.358  27.601  30.842  1.00  0.00     0.049 A 
ATOM     49  H   UNL A   1      42.499  26.068  29.611  1.00  0.00     0.167 HD
ATOM     50  C   UNL A   1      38.412  32.003  30.088  1.00  0.00     0.034 A 
ATOM     51  C   UNL A   1      44.555  28.042  30.346  1.00  0.00     0.034 A 
ATOM     52  C   UNL A   1      39.602  32.163  30.944  1.00  0.00     0.049 A 
ATOM     53  C   UNL A   1      44.674  29.566  30.374  1.00  0.00     0.074 A 
ATOM     54  C   UNL A   1      39.931  31.766  32.230  1.00  0.00     0.029 A 
ATOM     55  N   UNL A   1      40.801  32.501  30.340  1.00  0.00    -0.354 N 
ATOM     56  N   UNL A   1      43.760  30.379  30.833  1.00  0.00    -0.248 NA
ATOM     57  C   UNL A   1      45.813  30.290  29.817  1.00  0.00     0.031 C 
ATOM     58  C   UNL A   1      41.348  31.878  32.382  1.00  0.00     0.029 A 
ATOM     59  C   UNL A   1      41.874  32.371  31.201  1.00  0.00     0.049 A 
ATOM     60  H   UNL A   1      40.879  32.799  29.405  1.00  0.00     0.167 HD
ATOM     61  C   UNL A   1      44.071  31.676  30.507  1.00  0.00     0.074 A 
ATOM     62  C   UNL A   1      45.392  31.564  29.903  1.00  0.00     0.031 C 
ATOM     63  C   UNL A   1      43.200  32.721  30.699  1.00  0.00     0.034 A 
BRANCH  50  64
ATOM     64  C   UNL A   1      37.085  32.683  30.372  1.00  0.00     0.023 A 
ATOM     65  C   UNL A   1      36.491  33.385  29.298  1.00  0.00     0.012 A 
ATOM     66  C   UNL A   1      36.377  32.713  31.598  1.00  0.00     0.148 A 
ATOM     67  C   UNL A   1      35.325  34.142  29.442  1.00  0.00     0.002 A 
ATOM     68  C   UNL A   1      35.240  33.516  31.760  1.00  0.00     0.091 A 
ATOM     69  F   UNL A   1      36.745  31.908  32.600  1.00  0.00    -0.205 F 
ATOM     70  C   UNL A   1      34.715  34.234  30.681  1.00  0.00     0.022 A 
BRANCH  68  71
ATOM     71  S   UNL A   1      34.420  33.751  33.349  1.00  0.00     0.127 S 
ATOM     72  O   UNL A   1      34.245  35.205  33.393  1.00  0.00    -0.237 OA
ATOM     73  O   UNL A   1      33.180  32.998  33.180  1.00  0.00    -0.237 OA
ATOM     74  O   UNL A   1      35.338  33.236  34.358  1.00  0.00    -0.744 OA
ENDBRANCH  68  71
ENDBRANCH  50  64
BRANCH  51  75
ATOM     75  C   UNL A   1      45.091  27.147  29.266  1.00  0.00     0.023 A 
ATOM     76  C   UNL A   1      45.380  25.809  29.636  1.00  0.00     0.012 A 
ATOM     77  C   UNL A   1      44.865  27.436  27.908  1.00  0.00     0.148 A 
ATOM     78  C   UNL A   1      45.261  24.769  28.710  1.00  0.00     0.002 A 
ATOM     79  C   UNL A   1      44.743  26.391  26.992  1.00  0.00     0.091 A 
ATOM     80  F   UNL A   1      44.667  28.711  27.551  1.00  0.00    -0.205 F 
ATOM     81  C   UNL A   1      44.886  25.055  27.403  1.00  0.00     0.022 A 
BRANCH  79  82
ATOM     82  S   UNL A   1      44.275  26.688  25.281  1.00  0.00     0.127 S 
ATOM     83  O   UNL A   1      45.579  26.854  24.648  1.00  0.00    -0.237 OA
ATOM     84  O   UNL A   1      43.572  25.456  24.927  1.00  0.00    -0.237 OA
ATOM     85  O   UNL A   1      43.425  27.868  25.327  1.00  0.00    -0.744 OA
ENDBRANCH  79  82
ENDBRANCH  51  75
BRANCH  63  86
ATOM     86  C   UNL A   1      43.494  34.184  30.366  1.00  0.00     0.023 A 
ATOM     87  C   UNL A   1      43.570  35.162  31.373  1.00  0.00     0.012 A 
ATOM     88  C   UNL A   1      43.605  34.663  29.029  1.00  0.00     0.148 A 
ATOM     89  C   UNL A   1      43.876  36.499  31.088  1.00  0.00     0.002 A 
ATOM     90  C   UNL A   1      43.869  35.997  28.741  1.00  0.00     0.091 A 
ATOM     91  F   UNL A   1      43.426  33.839  27.995  1.00  0.00    -0.205 F 
ATOM     92  C   UNL A   1      44.040  36.915  29.773  1.00  0.00     0.022 A 
BRANCH  90  93
ATOM     93  S   UNL A   1      43.955  36.622  27.053  1.00  0.00     0.127 S 
ATOM     94  O   UNL A   1      42.564  36.480  26.621  1.00  0.00    -0.237 OA
ATOM     95  O   UNL A   1      44.390  38.001  27.271  1.00  0.00    -0.237 OA
ATOM     96  O   UNL A   1      44.909  35.781  26.347  1.00  0.00    -0.744 OA
ENDBRANCH  90  93
ENDBRANCH  63  86
ENDBRANCH  37  38
ENDBRANCH  29  32
ENDBRANCH  27  28
ENDBRANCH  26  27
ENDBRANCH   1  26
TORSDOF 18
ENDMDL
MODEL 2
REMARK VINA RESULT:     -12.4      1.876      2.268
REMARK SMILES Cc1ccc(S(=O)(=O)N(c2ccccc2)[C@H](C)C(=O)NCCCCNC(=O)c2ccc(-c3c4nc(c(-c5cccc(S(=O)(=O)[O-])c5F)c5ccc([nH]5)c(-c5cccc(S(=O)(=O)[O-])c5F)c5nc(c(-c6cccc(S(=O)(=O)[O-])c6F)c6ccc3[nH]6)C=C5)C=C4)cc2)cc1
REMARK SMILES IDX 22 1 21 2 20 3 18 4 19 5 16 7 17 8 9 9 6 10 7 11 8 12 5 13
REMARK SMILES IDX 1 14 2 15 3 16 92 17 4 18 91 19 10 20 11 21 15 22 12 23
REMARK SMILES IDX 14 24 13 25 23 26 24 27 25 28 26 29 27 31 28 32 29 33 90 34
REMARK SMILES IDX 30 35 89 36 31 37 32 38 33 39 83 40 34 41 88 42 82 43 84 44
REMARK SMILES IDX 35 45 87 46 81 47 80 48 36 50 68 51 48 52 67 53 49 54 52 55
REMARK SMILES IDX 66 56 85 57 50 58 51 59 65 61 86 62 53 63 37 64 38 65 46 66
REMARK SMILES IDX 39 67 41 68 47 69 40 70 42 71 43 72 44 73 45 74 69 75 70 76
REMARK SMILES IDX 78 77 71 78 73 79 79 80 72 81 74 82 75 83 76 84 77 85 54 86
REMARK SMILES IDX 55 87 63 88 56 89 58 90 64 91 57 92 59 93 60 94 61 95 62 96
REMARK H PARENT 20 6 25 30 84 49 52 60
REMARK Flexibility Score: inf
ROOT
ATOM      1  C   UNL A   1      36.364  23.255  23.979  1.00  0.00     0.023 C 
ENDROOT
BRANCH   1   2
ATOM      2  C   UNL A   1      35.109  23.451  24.824  1.00  0.00     0.116 C 
BRANCH   2   3
ATOM      3  N   UNL A   1      34.092  22.426  24.698  1.00  0.00    -0.354 N 
ATOM      4  C   UNL A   1      32.729  22.529  24.791  1.00  0.00     0.243 C 
ATOM      5  O   UNL A   1      32.085  21.585  24.314  1.00  0.00    -0.273 OA
ATOM      6  H   UNL A   1      34.432  21.519  24.521  1.00  0.00     0.163 HD
BRANCH   4   7
ATOM      7  C   UNL A   1      31.992  23.685  25.492  1.00  0.00     0.185 C 
ATOM      8  C   UNL A   1      32.202  23.681  27.007  1.00  0.00     0.043 C 
BRANCH   7   9
ATOM      9  N   UNL A   1      32.110  25.039  24.846  1.00  0.00    -0.254 N 
BRANCH   9  10
ATOM     10  S   UNL A   1      31.393  25.187  23.305  1.00  0.00     0.265 S 
ATOM     11  O   UNL A   1      30.246  24.276  23.320  1.00  0.00    -0.201 OA
ATOM     12  O   UNL A   1      32.424  25.004  22.322  1.00  0.00    -0.201 OA
BRANCH  10  13
ATOM     13  C   UNL A   1      30.687  26.809  23.022  1.00  0.00     0.088 A 
ATOM     14  C   UNL A   1      28.943  30.754  23.136  1.00  0.00     0.044 C 
ATOM     15  C   UNL A   1      29.527  29.375  23.057  1.00  0.00    -0.051 A 
ATOM     16  C   UNL A   1      28.751  28.247  23.342  1.00  0.00     0.005 A 
ATOM     17  C   UNL A   1      30.849  29.195  22.644  1.00  0.00     0.005 A 
ATOM     18  C   UNL A   1      29.333  26.975  23.350  1.00  0.00     0.022 A 
ATOM     19  C   UNL A   1      31.408  27.915  22.580  1.00  0.00     0.022 A 
ENDBRANCH  10  13
ENDBRANCH   9  10
BRANCH   9  20
ATOM     20  C   UNL A   1      32.304  26.183  25.659  1.00  0.00     0.053 A 
ATOM     21  C   UNL A   1      33.586  26.743  25.653  1.00  0.00     0.027 A 
ATOM     22  C   UNL A   1      31.294  26.732  26.450  1.00  0.00     0.027 A 
ATOM     23  C   UNL A   1      33.863  27.852  26.441  1.00  0.00     0.002 A 
ATOM     24  C   UNL A   1      31.581  27.846  27.243  1.00  0.00     0.002 A 
ATOM     25  C   UNL A   1      32.865  28.395  27.244  1.00  0.00     0.000 A 
ENDBRANCH   9  20
ENDBRANCH   7   9
ENDBRANCH   4   7
ENDBRANCH   2   3
ENDBRANCH   1   2
BRANCH   1  26
ATOM     26  C   UNL A   1      37.692  23.288  24.738  1.00  0.00     0.023 C 
BRANCH  26  27
ATOM     27  C   UNL A   1      37.745  22.367  25.945  1.00  0.00     0.116 C 
BRANCH  27  28
ATOM     28  N   UNL A   1      39.061  22.193  26.513  1.00  0.00    -0.352 N 
ATOM     29  C   UNL A   1      40.037  23.137  26.765  1.00  0.00     0.251 C 
ATOM     30  H   UNL A   1      39.298  21.269  26.754  1.00  0.00     0.163 HD
ATOM     31  O   UNL A   1      41.185  22.722  26.915  1.00  0.00    -0.269 OA
BRANCH  29  32
ATOM     32  C   UNL A   1      39.705  24.569  27.029  1.00  0.00     0.039 A 
ATOM     33  C   UNL A   1      40.387  25.545  26.283  1.00  0.00     0.014 A 
ATOM     34  C   UNL A   1      39.006  24.964  28.162  1.00  0.00     0.014 A 
ATOM     35  C   UNL A   1      40.603  26.810  26.821  1.00  0.00     0.010 A 
ATOM     36  C   UNL A   1      39.313  26.153  28.757  1.00  0.00     0.010 A 
ATOM     37  C   UNL A   1      40.179  27.034  28.117  1.00  0.00    -0.014 A 
BRANCH  37  38
ATOM     38  C   UNL A   1      40.469  28.192  28.925  1.00  0.00     0.031 A 
ATOM     39  C   UNL A   1      39.546  29.327  28.830  1.00  0.00     0.074 A 
ATOM     40  C   UNL A   1      41.256  27.959  30.000  1.00  0.00     0.049 A 
ATOM     41  N   UNL A   1      39.726  30.441  29.435  1.00  0.00    -0.248 NA
ATOM     42  C   UNL A   1      38.315  29.279  28.044  1.00  0.00     0.031 C 
ATOM     43  C   UNL A   1      41.251  28.629  31.290  1.00  0.00     0.029 A 
ATOM     44  N   UNL A   1      42.345  27.085  30.082  1.00  0.00    -0.354 N 
ATOM     45  C   UNL A   1      38.529  31.123  29.385  1.00  0.00     0.074 A 
ATOM     46  C   UNL A   1      37.723  30.416  28.422  1.00  0.00     0.031 C 
ATOM     47  C   UNL A   1      42.408  28.359  31.919  1.00  0.00     0.029 A 
ATOM     48  C   UNL A   1      43.265  27.693  30.952  1.00  0.00     0.049 A 
ATOM     49  H   UNL A   1      42.446  26.219  29.625  1.00  0.00     0.167 HD
ATOM     50  C   UNL A   1      38.310  32.101  30.305  1.00  0.00     0.034 A 
ATOM     51  C   UNL A   1      44.471  28.165  30.507  1.00  0.00     0.034 A 
ATOM     52  C   UNL A   1      39.479  32.223  31.196  1.00  0.00     0.049 A 
ATOM     53  C   UNL A   1      44.579  29.686  30.615  1.00  0.00     0.074 A 
ATOM     54  C   UNL A   1      39.780  31.763  32.467  1.00  0.00     0.029 A 
ATOM     55  N   UNL A   1      40.689  32.598  30.638  1.00  0.00    -0.354 N 
ATOM     56  N   UNL A   1      43.649  30.470  31.093  1.00  0.00    -0.248 NA
ATOM     57  C   UNL A   1      45.727  30.443  30.123  1.00  0.00     0.031 C 
ATOM     58  C   UNL A   1      41.192  31.875  32.659  1.00  0.00     0.029 A 
ATOM     59  C   UNL A   1      41.743  32.430  31.517  1.00  0.00     0.049 A 
ATOM     60  H   UNL A   1      40.787  32.944  29.722  1.00  0.00     0.167 HD
ATOM     61  C   UNL A   1      43.960  31.783  30.841  1.00  0.00     0.074 A 
ATOM     62  C   UNL A   1      45.295  31.709  30.264  1.00  0.00     0.031 C 
ATOM     63  C   UNL A   1      43.078  32.812  31.066  1.00  0.00     0.034 A 
BRANCH  50  64
ATOM     64  C   UNL A   1      36.973  32.758  30.591  1.00  0.00     0.023 A 
ATOM     65  C   UNL A   1      36.488  32.657  31.915  1.00  0.00     0.012 A 
ATOM     66  C   UNL A   1      36.139  33.450  29.680  1.00  0.00     0.148 A 
ATOM     67  C   UNL A   1      35.228  33.123  32.299  1.00  0.00     0.002 A 
ATOM     68  C   UNL A   1      34.853  33.868  30.046  1.00  0.00     0.091 A 
ATOM     69  F   UNL A   1      36.604  33.782  28.471  1.00  0.00    -0.205 F 
ATOM     70  C   UNL A   1      34.395  33.702  31.357  1.00  0.00     0.022 A 
BRANCH  68  71
ATOM     71  S   UNL A   1      33.675  34.568  28.873  1.00  0.00     0.127 S 
ATOM     72  O   UNL A   1      32.548  34.919  29.740  1.00  0.00    -0.237 OA
ATOM     73  O   UNL A   1      34.404  35.715  28.337  1.00  0.00    -0.237 OA
ATOM     74  O   UNL A   1      33.377  33.508  27.917  1.00  0.00    -0.744 OA
ENDBRANCH  68  71
ENDBRANCH  50  64
BRANCH  51  75
ATOM     75  C   UNL A   1      45.038  27.328  29.397  1.00  0.00     0.023 A 
ATOM     76  C   UNL A   1      45.341  25.979  29.709  1.00  0.00     0.012 A 
ATOM     77  C   UNL A   1      44.830  27.677  28.050  1.00  0.00     0.148 A 
ATOM     78  C   UNL A   1      45.253  24.982  28.734  1.00  0.00     0.002 A 
ATOM     79  C   UNL A   1      44.739  26.674  27.084  1.00  0.00     0.091 A 
ATOM     80  F   UNL A   1      44.619  28.964  27.748  1.00  0.00    -0.205 F 
ATOM     81  C   UNL A   1      44.895  25.323  27.435  1.00  0.00     0.022 A 
BRANCH  79  82
ATOM     82  S   UNL A   1      44.293  27.043  25.381  1.00  0.00     0.127 S 
ATOM     83  O   UNL A   1      43.676  25.788  24.965  1.00  0.00    -0.237 OA
ATOM     84  O   UNL A   1      43.367  28.163  25.532  1.00  0.00    -0.237 OA
ATOM     85  O   UNL A   1      45.550  27.390  24.734  1.00  0.00    -0.744 OA
ENDBRANCH  79  82
ENDBRANCH  51  75
BRANCH  63  86
ATOM     86  C   UNL A   1      43.370  34.292  30.814  1.00  0.00     0.023 A 
ATOM     87  C   UNL A   1      43.544  34.792  29.512  1.00  0.00     0.012 A 
ATOM     88  C   UNL A   1      43.587  35.225  31.869  1.00  0.00     0.148 A 
ATOM     89  C   UNL A   1      43.775  36.151  29.263  1.00  0.00     0.002 A 
ATOM     90  C   UNL A   1      43.856  36.567  31.625  1.00  0.00     0.091 A 
ATOM     91  F   UNL A   1      43.567  34.828  33.142  1.00  0.00    -0.205 F 
ATOM     92  C   UNL A   1      43.916  37.042  30.319  1.00  0.00     0.022 A 
BRANCH  90  93
ATOM     93  S   UNL A   1      44.186  37.741  32.951  1.00  0.00     0.127 S 
ATOM     94  O   UNL A   1      44.332  38.990  32.202  1.00  0.00    -0.237 OA
ATOM     95  O   UNL A   1      42.960  37.645  33.744  1.00  0.00    -0.237 OA
ATOM     96  O   UNL A   1      45.390  37.281  33.624  1.00  0.00    -0.744 OA
ENDBRANCH  90  93
ENDBRANCH  63  86
ENDBRANCH  37  38
ENDBRANCH  29  32
ENDBRANCH  27  28
ENDBRANCH  26  27
ENDBRANCH   1  26
TORSDOF 18
ENDMDL
MODEL 3
REMARK VINA RESULT:     -12.2      1.572      3.182
REMARK SMILES Cc1ccc(S(=O)(=O)N(c2ccccc2)[C@H](C)C(=O)NCCCCNC(=O)c2ccc(-c3c4nc(c(-c5cccc(S(=O)(=O)[O-])c5F)c5ccc([nH]5)c(-c5cccc(S(=O)(=O)[O-])c5F)c5nc(c(-c6cccc(S(=O)(=O)[O-])c6F)c6ccc3[nH]6)C=C5)C=C4)cc2)cc1
REMARK SMILES IDX 22 1 21 2 20 3 18 4 19 5 16 7 17 8 9 9 6 10 7 11 8 12 5 13
REMARK SMILES IDX 1 14 2 15 3 16 92 17 4 18 91 19 10 20 11 21 15 22 12 23
REMARK SMILES IDX 14 24 13 25 23 26 24 27 25 28 26 29 27 31 28 32 29 33 90 34
REMARK SMILES IDX 30 35 89 36 31 37 32 38 33 39 83 40 34 41 88 42 82 43 84 44
REMARK SMILES IDX 35 45 87 46 81 47 80 48 36 50 68 51 48 52 67 53 49 54 52 55
REMARK SMILES IDX 66 56 85 57 50 58 51 59 65 61 86 62 53 63 37 64 38 65 46 66
REMARK SMILES IDX 39 67 41 68 47 69 40 70 42 71 43 72 44 73 45 74 69 75 70 76
REMARK SMILES IDX 78 77 71 78 73 79 79 80 72 81 74 82 75 83 76 84 77 85 54 86
REMARK SMILES IDX 55 87 63 88 56 89 58 90 64 91 57 92 59 93 60 94 61 95 62 96
REMARK H PARENT 20 6 25 30 84 49 52 60
REMARK Flexibility Score: inf
ROOT
ATOM      1  C   UNL A   1      35.878  23.633  25.578  1.00  0.00     0.023 C 
ENDROOT
BRANCH   1   2
ATOM      2  C   UNL A   1      36.064  24.071  24.129  1.00  0.00     0.116 C 
BRANCH   2   3
ATOM      3  N   UNL A   1      34.914  23.905  23.262  1.00  0.00    -0.354 N 
ATOM      4  C   UNL A   1      33.872  24.760  23.017  1.00  0.00     0.243 C 
ATOM      5  O   UNL A   1      33.213  24.524  21.995  1.00  0.00    -0.273 OA
ATOM      6  H   UNL A   1      34.875  23.048  22.779  1.00  0.00     0.163 HD
BRANCH   4   7
ATOM      7  C   UNL A   1      33.460  25.914  23.948  1.00  0.00     0.185 C 
ATOM      8  C   UNL A   1      34.133  27.237  23.576  1.00  0.00     0.043 C 
BRANCH   7   9
ATOM      9  N   UNL A   1      31.992  26.025  24.264  1.00  0.00    -0.254 N 
BRANCH   9  10
ATOM     10  S   UNL A   1      31.436  25.039  25.540  1.00  0.00     0.265 S 
ATOM     11  O   UNL A   1      29.987  24.935  25.349  1.00  0.00    -0.201 OA
ATOM     12  O   UNL A   1      31.947  25.581  26.768  1.00  0.00    -0.201 OA
BRANCH  10  13
ATOM     13  C   UNL A   1      32.036  23.355  25.426  1.00  0.00     0.088 A 
ATOM     14  C   UNL A   1      32.936  19.145  25.710  1.00  0.00     0.044 C 
ATOM     15  C   UNL A   1      32.668  20.616  25.602  1.00  0.00    -0.051 A 
ATOM     16  C   UNL A   1      33.060  21.496  26.615  1.00  0.00     0.005 A 
ATOM     17  C   UNL A   1      32.064  21.137  24.455  1.00  0.00     0.005 A 
ATOM     18  C   UNL A   1      32.724  22.852  26.540  1.00  0.00     0.022 A 
ATOM     19  C   UNL A   1      31.797  22.505  24.349  1.00  0.00     0.022 A 
ENDBRANCH  10  13
ENDBRANCH   9  10
BRANCH   9  20
ATOM     20  C   UNL A   1      31.292  27.205  23.912  1.00  0.00     0.053 A 
ATOM     21  C   UNL A   1      31.424  28.292  24.784  1.00  0.00     0.027 A 
ATOM     22  C   UNL A   1      30.489  27.302  22.775  1.00  0.00     0.027 A 
ATOM     23  C   UNL A   1      30.751  29.477  24.523  1.00  0.00     0.002 A 
ATOM     24  C   UNL A   1      29.813  28.497  22.520  1.00  0.00     0.002 A 
ATOM     25  C   UNL A   1      29.937  29.576  23.398  1.00  0.00     0.000 A 
ENDBRANCH   9  20
ENDBRANCH   7   9
ENDBRANCH   4   7
ENDBRANCH   2   3
ENDBRANCH   1   2
BRANCH   1  26
ATOM     26  C   UNL A   1      36.625  22.363  25.993  1.00  0.00     0.023 C 
BRANCH  26  27
ATOM     27  C   UNL A   1      38.041  22.267  25.454  1.00  0.00     0.116 C 
BRANCH  27  28
ATOM     28  N   UNL A   1      39.047  21.985  26.450  1.00  0.00    -0.352 N 
ATOM     29  C   UNL A   1      39.955  22.839  27.044  1.00  0.00     0.251 C 
ATOM     30  H   UNL A   1      39.094  21.048  26.749  1.00  0.00     0.163 HD
ATOM     31  O   UNL A   1      40.930  22.323  27.587  1.00  0.00    -0.269 OA
BRANCH  29  32
ATOM     32  C   UNL A   1      39.688  24.302  27.190  1.00  0.00     0.039 A 
ATOM     33  C   UNL A   1      40.463  25.186  26.421  1.00  0.00     0.014 A 
ATOM     34  C   UNL A   1      38.949  24.811  28.250  1.00  0.00     0.014 A 
ATOM     35  C   UNL A   1      40.718  26.473  26.884  1.00  0.00     0.010 A 
ATOM     36  C   UNL A   1      39.288  26.022  28.780  1.00  0.00     0.010 A 
ATOM     37  C   UNL A   1      40.235  26.811  28.134  1.00  0.00    -0.014 A 
BRANCH  37  38
ATOM     38  C   UNL A   1      40.543  28.006  28.878  1.00  0.00     0.031 A 
ATOM     39  C   UNL A   1      39.612  29.132  28.756  1.00  0.00     0.074 A 
ATOM     40  C   UNL A   1      41.364  27.828  29.938  1.00  0.00     0.049 A 
ATOM     41  N   UNL A   1      39.804  30.274  29.302  1.00  0.00    -0.248 NA
ATOM     42  C   UNL A   1      38.359  29.042  28.011  1.00  0.00     0.031 C 
ATOM     43  C   UNL A   1      41.393  28.558  31.194  1.00  0.00     0.029 A 
ATOM     44  N   UNL A   1      42.459  26.963  30.029  1.00  0.00    -0.354 N 
ATOM     45  C   UNL A   1      38.603  30.949  29.256  1.00  0.00     0.074 A 
ATOM     46  C   UNL A   1      37.771  30.193  28.352  1.00  0.00     0.031 C 
ATOM     47  C   UNL A   1      42.570  28.323  31.801  1.00  0.00     0.029 A 
ATOM     48  C   UNL A   1      43.401  27.615  30.841  1.00  0.00     0.049 A 
ATOM     49  H   UNL A   1      42.551  26.077  29.610  1.00  0.00     0.167 HD
ATOM     50  C   UNL A   1      38.406  31.968  30.135  1.00  0.00     0.034 A 
ATOM     51  C   UNL A   1      44.591  28.070  30.338  1.00  0.00     0.034 A 
ATOM     52  C   UNL A   1      39.600  32.137  30.984  1.00  0.00     0.049 A 
ATOM     53  C   UNL A   1      44.694  29.595  30.371  1.00  0.00     0.074 A 
ATOM     54  C   UNL A   1      39.942  31.739  32.266  1.00  0.00     0.029 A 
ATOM     55  N   UNL A   1      40.791  32.489  30.373  1.00  0.00    -0.354 N 
ATOM     56  N   UNL A   1      43.775  30.397  30.839  1.00  0.00    -0.248 NA
ATOM     57  C   UNL A   1      45.823  30.332  29.809  1.00  0.00     0.031 C 
ATOM     58  C   UNL A   1      41.358  31.866  32.409  1.00  0.00     0.029 A 
ATOM     59  C   UNL A   1      41.872  32.367  31.226  1.00  0.00     0.049 A 
ATOM     60  H   UNL A   1      40.860  32.792  29.438  1.00  0.00     0.167 HD
ATOM     61  C   UNL A   1      44.071  31.698  30.515  1.00  0.00     0.074 A 
ATOM     62  C   UNL A   1      45.389  31.602  29.902  1.00  0.00     0.031 C 
ATOM     63  C   UNL A   1      43.190  32.733  30.717  1.00  0.00     0.034 A 
BRANCH  50  64
ATOM     64  C   UNL A   1      37.075  32.633  30.430  1.00  0.00     0.023 A 
ATOM     65  C   UNL A   1      36.606  32.548  31.761  1.00  0.00     0.012 A 
ATOM     66  C   UNL A   1      36.232  33.318  29.521  1.00  0.00     0.148 A 
ATOM     67  C   UNL A   1      35.351  33.023  32.154  1.00  0.00     0.002 A 
ATOM     68  C   UNL A   1      34.951  33.744  29.897  1.00  0.00     0.091 A 
ATOM     69  F   UNL A   1      36.683  33.635  28.303  1.00  0.00    -0.205 F 
ATOM     70  C   UNL A   1      34.509  33.594  31.215  1.00  0.00     0.022 A 
BRANCH  68  71
ATOM     71  S   UNL A   1      33.762  34.435  28.731  1.00  0.00     0.127 S 
ATOM     72  O   UNL A   1      32.623  34.744  29.598  1.00  0.00    -0.237 OA
ATOM     73  O   UNL A   1      34.465  35.607  28.217  1.00  0.00    -0.237 OA
ATOM     74  O   UNL A   1      33.493  33.384  27.756  1.00  0.00    -0.744 OA
ENDBRANCH  68  71
ENDBRANCH  50  64
BRANCH  51  75
ATOM     75  C   UNL A   1      45.129  27.184  29.252  1.00  0.00     0.023 A 
ATOM     76  C   UNL A   1      45.454  25.854  29.620  1.00  0.00     0.012 A 
ATOM     77  C   UNL A   1      44.874  27.464  27.897  1.00  0.00     0.148 A 
ATOM     78  C   UNL A   1      45.343  24.809  28.698  1.00  0.00     0.002 A 
ATOM     79  C   UNL A   1      44.761  26.414  26.985  1.00  0.00     0.091 A 
ATOM     80  F   UNL A   1      44.642  28.733  27.540  1.00  0.00    -0.205 F 
ATOM     81  C   UNL A   1      44.940  25.083  27.397  1.00  0.00     0.022 A 
BRANCH  79  82
ATOM     82  S   UNL A   1      44.257  26.696  25.282  1.00  0.00     0.127 S 
ATOM     83  O   UNL A   1      45.549  26.843  24.618  1.00  0.00    -0.237 OA
ATOM     84  O   UNL A   1      43.536  25.467  24.957  1.00  0.00    -0.237 OA
ATOM     85  O   UNL A   1      43.419  27.884  25.333  1.00  0.00    -0.744 OA
ENDBRANCH  79  82
ENDBRANCH  51  75
BRANCH  63  86
ATOM     86  C   UNL A   1      43.467  34.201  30.388  1.00  0.00     0.023 A 
ATOM     87  C   UNL A   1      43.528  35.177  31.396  1.00  0.00     0.012 A 
ATOM     88  C   UNL A   1      43.577  34.683  29.051  1.00  0.00     0.148 A 
ATOM     89  C   UNL A   1      43.818  36.519  31.115  1.00  0.00     0.002 A 
ATOM     90  C   UNL A   1      43.825  36.020  28.767  1.00  0.00     0.091 A 
ATOM     91  F   UNL A   1      43.412  33.858  28.016  1.00  0.00    -0.205 F 
ATOM     92  C   UNL A   1      43.981  36.939  29.801  1.00  0.00     0.022 A 
BRANCH  90  93
ATOM     93  S   UNL A   1      43.909  36.649  27.080  1.00  0.00     0.127 S 
ATOM     94  O   UNL A   1      44.059  38.086  27.314  1.00  0.00    -0.237 OA
ATOM     95  O   UNL A   1      45.110  35.983  26.576  1.00  0.00    -0.237 OA
ATOM     96  O   UNL A   1      42.670  36.256  26.428  1.00  0.00    -0.744 OA
ENDBRANCH  90  93
ENDBRANCH  63  86
ENDBRANCH  37  38
ENDBRANCH  29  32
ENDBRANCH  27  28
ENDBRANCH  26  27
ENDBRANCH   1  26
TORSDOF 18
ENDMDL
