MODEL 1
REMARK VINA RESULT:     -12.4      0.000      0.000
REMARK SMILES O=C(NCCCCNC(=O)c1coc(-c2csc(-c3ccc(Cl)cn3)n2)c1)c1ccc(-c2c3nc(c(-c4cccc(S(=O)(=O)[O-])c4F)c4ccc([nH]4)c(-c4cccc(S(=O)(=O)[O-])c4F)c4nc(c(-c5cccc(S(=O)(=O)[O-])c5F)c5ccc2[nH]5)C=C4)C=C3)cc1
REMARK SMILES IDX 5 1 4 2 3 3 1 4 2 5 28 7 29 8 90 9 30 10 89 11 31 12 32 13
REMARK SMILES IDX 33 14 83 15 34 16 88 17 82 18 84 19 35 20 87 21 81 22 80 23
REMARK SMILES IDX 36 25 68 26 48 27 67 28 49 29 52 30 66 31 85 32 50 33 51 34
REMARK SMILES IDX 65 36 86 37 53 38 37 39 38 40 46 41 39 42 41 43 47 44 40 45
REMARK SMILES IDX 42 46 43 47 44 48 45 49 69 50 70 51 78 52 71 53 73 54 79 55
REMARK SMILES IDX 72 56 74 57 75 58 76 59 77 60 54 61 55 62 63 63 56 64 58 65
REMARK SMILES IDX 64 66 57 67 59 68 60 69 61 70 62 71 6 72 7 73 8 74 9 75
REMARK SMILES IDX 10 77 11 78 12 79 27 80 13 81 14 82 15 83 16 84 26 85 17 86
REMARK SMILES IDX 18 87 19 88 20 89 25 90 21 91 24 92 22 93 23 94
REMARK H PARENT 3 6 84 24 52 35 8 76
REMARK Flexibility Score: inf
ROOT
ATOM      1  C   UNL A   1      35.170  22.546  24.933  1.00  0.00     0.023 C 
ENDROOT
BRANCH   1   2
ATOM      2  C   UNL A   1      36.241  22.532  26.028  1.00  0.00     0.116 C 
BRANCH   2   3
ATOM      3  N   UNL A   1      37.182  21.435  25.882  1.00  0.00    -0.352 N 
ATOM      4  O   UNL A   1      39.167  20.400  25.756  1.00  0.00    -0.269 OA
ATOM      5  C   UNL A   1      38.548  21.425  26.034  1.00  0.00     0.251 C 
ATOM      6  H   UNL A   1      36.782  20.569  25.638  1.00  0.00     0.163 HD
BRANCH   5   7
ATOM      7  C   UNL A   1      39.282  22.629  26.492  1.00  0.00     0.039 A 
ATOM      8  C   UNL A   1      40.313  22.559  27.429  1.00  0.00     0.014 A 
ATOM      9  C   UNL A   1      38.960  23.863  25.913  1.00  0.00     0.014 A 
ATOM     10  C   UNL A   1      40.954  23.726  27.852  1.00  0.00     0.010 A 
ATOM     11  C   UNL A   1      39.623  25.028  26.313  1.00  0.00     0.010 A 
ATOM     12  C   UNL A   1      40.605  24.972  27.309  1.00  0.00    -0.014 A 
BRANCH  12  13
ATOM     13  C   UNL A   1      41.297  26.191  27.784  1.00  0.00     0.031 A 
ATOM     14  C   UNL A   1      42.709  26.484  27.365  1.00  0.00     0.074 A 
ATOM     15  C   UNL A   1      40.635  27.065  28.565  1.00  0.00     0.049 A 
ATOM     16  N   UNL A   1      43.397  27.587  27.518  1.00  0.00    -0.248 NA
ATOM     17  C   UNL A   1      43.441  25.404  26.686  1.00  0.00     0.031 C 
ATOM     18  C   UNL A   1      39.277  26.878  29.079  1.00  0.00     0.029 A 
ATOM     19  N   UNL A   1      41.010  28.296  29.043  1.00  0.00    -0.354 N 
ATOM     20  C   UNL A   1      44.640  27.335  26.955  1.00  0.00     0.074 A 
ATOM     21  C   UNL A   1      44.621  25.972  26.469  1.00  0.00     0.031 C 
ATOM     22  C   UNL A   1      38.916  27.976  29.763  1.00  0.00     0.029 A 
ATOM     23  C   UNL A   1      40.015  28.941  29.737  1.00  0.00     0.049 A 
ATOM     24  H   UNL A   1      41.905  28.680  28.902  1.00  0.00     0.167 HD
ATOM     25  C   UNL A   1      45.692  28.177  26.818  1.00  0.00     0.034 A 
ATOM     26  C   UNL A   1      39.974  30.183  30.258  1.00  0.00     0.034 A 
ATOM     27  C   UNL A   1      45.702  29.547  27.253  1.00  0.00     0.049 A 
ATOM     28  C   UNL A   1      41.152  31.099  30.084  1.00  0.00     0.074 A 
ATOM     29  C   UNL A   1      46.687  30.503  27.074  1.00  0.00     0.029 A 
ATOM     30  N   UNL A   1      44.677  30.158  27.958  1.00  0.00    -0.354 N 
ATOM     31  N   UNL A   1      42.252  30.904  29.400  1.00  0.00    -0.248 NA
ATOM     32  C   UNL A   1      41.069  32.417  30.734  1.00  0.00     0.031 C 
ATOM     33  C   UNL A   1      46.253  31.697  27.664  1.00  0.00     0.029 A 
ATOM     34  C   UNL A   1      45.009  31.475  28.228  1.00  0.00     0.049 A 
ATOM     35  H   UNL A   1      43.837  29.720  28.227  1.00  0.00     0.167 HD
ATOM     36  C   UNL A   1      42.980  32.083  29.510  1.00  0.00     0.074 A 
ATOM     37  C   UNL A   1      42.196  32.989  30.329  1.00  0.00     0.031 C 
ATOM     38  C   UNL A   1      44.195  32.383  28.993  1.00  0.00     0.034 A 
BRANCH  25  39
ATOM     39  C   UNL A   1      46.885  27.664  26.065  1.00  0.00     0.023 A 
ATOM     40  C   UNL A   1      46.946  27.882  24.682  1.00  0.00     0.012 A 
ATOM     41  C   UNL A   1      47.947  26.999  26.701  1.00  0.00     0.148 A 
ATOM     42  C   UNL A   1      48.049  27.437  23.952  1.00  0.00     0.002 A 
ATOM     43  C   UNL A   1      49.046  26.561  25.965  1.00  0.00     0.091 A 
ATOM     44  F   UNL A   1      47.875  26.784  28.020  1.00  0.00    -0.205 F 
ATOM     45  C   UNL A   1      49.107  26.777  24.583  1.00  0.00     0.022 A 
BRANCH  43  46
ATOM     46  S   UNL A   1      50.373  25.689  26.808  1.00  0.00     0.127 S 
ATOM     47  O   UNL A   1      49.725  24.455  27.246  1.00  0.00    -0.237 OA
ATOM     48  O   UNL A   1      51.364  25.509  25.747  1.00  0.00    -0.237 OA
ATOM     49  O   UNL A   1      50.779  26.615  27.858  1.00  0.00    -0.744 OA
ENDBRANCH  43  46
ENDBRANCH  25  39
BRANCH  26  50
ATOM     50  C   UNL A   1      38.711  30.677  30.868  1.00  0.00     0.023 A 
ATOM     51  C   UNL A   1      38.551  30.584  32.260  1.00  0.00     0.012 A 
ATOM     52  C   UNL A   1      37.702  31.287  30.107  1.00  0.00     0.148 A 
ATOM     53  C   UNL A   1      37.402  31.087  32.873  1.00  0.00     0.002 A 
ATOM     54  C   UNL A   1      36.572  31.814  30.729  1.00  0.00     0.091 A 
ATOM     55  F   UNL A   1      37.862  31.374  28.779  1.00  0.00    -0.205 F 
ATOM     56  C   UNL A   1      36.410  31.709  32.115  1.00  0.00     0.022 A 
BRANCH  54  57
ATOM     57  S   UNL A   1      35.357  32.683  29.738  1.00  0.00     0.127 S 
ATOM     58  O   UNL A   1      34.905  31.654  28.808  1.00  0.00    -0.237 OA
ATOM     59  O   UNL A   1      34.360  33.094  30.727  1.00  0.00    -0.237 OA
ATOM     60  O   UNL A   1      36.126  33.785  29.170  1.00  0.00    -0.744 OA
ENDBRANCH  54  57
ENDBRANCH  26  50
BRANCH  38  61
ATOM     61  C   UNL A   1      44.764  33.738  29.300  1.00  0.00     0.023 A 
ATOM     62  C   UNL A   1      45.619  33.879  30.402  1.00  0.00     0.012 A 
ATOM     63  C   UNL A   1      44.518  34.848  28.474  1.00  0.00     0.148 A 
ATOM     64  C   UNL A   1      46.208  35.115  30.674  1.00  0.00     0.002 A 
ATOM     65  C   UNL A   1      45.123  36.073  28.744  1.00  0.00     0.091 A 
ATOM     66  F   UNL A   1      43.703  34.701  27.421  1.00  0.00    -0.205 F 
ATOM     67  C   UNL A   1      45.970  36.217  29.849  1.00  0.00     0.022 A 
BRANCH  65  68
ATOM     68  S   UNL A   1      44.814  37.461  27.649  1.00  0.00     0.127 S 
ATOM     69  O   UNL A   1      46.047  37.550  26.871  1.00  0.00    -0.237 OA
ATOM     70  O   UNL A   1      43.646  37.017  26.887  1.00  0.00    -0.237 OA
ATOM     71  O   UNL A   1      44.549  38.565  28.564  1.00  0.00    -0.744 OA
ENDBRANCH  65  68
ENDBRANCH  38  61
ENDBRANCH  12  13
ENDBRANCH   5   7
ENDBRANCH   2   3
ENDBRANCH   1   2
BRANCH   1  72
ATOM     72  C   UNL A   1      34.471  21.207  24.654  1.00  0.00     0.023 C 
BRANCH  72  73
ATOM     73  C   UNL A   1      32.979  21.160  24.999  1.00  0.00     0.116 C 
BRANCH  73  74
ATOM     74  N   UNL A   1      32.743  21.424  26.407  1.00  0.00    -0.352 N 
ATOM     75  C   UNL A   1      32.377  22.594  27.029  1.00  0.00     0.254 C 
ATOM     76  H   UNL A   1      32.863  20.651  27.005  1.00  0.00     0.163 HD
ATOM     77  O   UNL A   1      32.527  22.702  28.232  1.00  0.00    -0.269 OA
BRANCH  75  78
ATOM     78  C   UNL A   1      31.840  23.678  26.231  1.00  0.00     0.078 A 
ATOM     79  C   UNL A   1      30.799  23.592  25.331  1.00  0.00     0.209 A 
ATOM     80  C   UNL A   1      32.162  25.062  26.303  1.00  0.00     0.066 A 
ATOM     81  O   UNL A   1      30.464  24.818  24.855  1.00  0.00    -0.462 OA
ATOM     82  C   UNL A   1      31.296  25.723  25.454  1.00  0.00     0.153 A 
BRANCH  82  83
ATOM     83  C   UNL A   1      31.245  27.196  25.250  1.00  0.00     0.117 A 
ATOM     84  C   UNL A   1      31.986  28.080  26.002  1.00  0.00     0.099 A 
ATOM     85  N   UNL A   1      30.452  27.768  24.275  1.00  0.00    -0.231 NA
ATOM     86  S   UNL A   1      31.743  29.678  25.434  1.00  0.00    -0.120 S 
ATOM     87  C   UNL A   1      30.629  29.077  24.262  1.00  0.00     0.142 A 
BRANCH  87  88
ATOM     88  C   UNL A   1      29.908  30.008  23.384  1.00  0.00     0.099 A 
ATOM     89  C   UNL A   1      29.422  31.216  23.882  1.00  0.00     0.033 A 
ATOM     90  N   UNL A   1      29.725  29.624  22.095  1.00  0.00    -0.252 NA
ATOM     91  C   UNL A   1      28.727  32.077  23.031  1.00  0.00     0.024 A 
ATOM     92  C   UNL A   1      29.026  30.469  21.296  1.00  0.00     0.132 A 
ATOM     93  C   UNL A   1      28.520  31.690  21.714  1.00  0.00     0.059 A 
ATOM     94  Cl  UNL A   1      27.660  32.702  20.630  1.00  0.00    -0.083 Cl
ENDBRANCH  87  88
ENDBRANCH  82  83
ENDBRANCH  75  78
ENDBRANCH  73  74
ENDBRANCH  72  73
ENDBRANCH   1  72
TORSDOF 16
ENDMDL
MODEL 2
REMARK VINA RESULT:     -12.4      2.014      2.784
REMARK SMILES O=C(NCCCCNC(=O)c1coc(-c2csc(-c3ccc(Cl)cn3)n2)c1)c1ccc(-c2c3nc(c(-c4cccc(S(=O)(=O)[O-])c4F)c4ccc([nH]4)c(-c4cccc(S(=O)(=O)[O-])c4F)c4nc(c(-c5cccc(S(=O)(=O)[O-])c5F)c5ccc2[nH]5)C=C4)C=C3)cc1
REMARK SMILES IDX 5 1 4 2 3 3 1 4 2 5 28 7 29 8 90 9 30 10 89 11 31 12 32 13
REMARK SMILES IDX 33 14 83 15 34 16 88 17 82 18 84 19 35 20 87 21 81 22 80 23
REMARK SMILES IDX 36 25 68 26 48 27 67 28 49 29 52 30 66 31 85 32 50 33 51 34
REMARK SMILES IDX 65 36 86 37 53 38 37 39 38 40 46 41 39 42 41 43 47 44 40 45
REMARK SMILES IDX 42 46 43 47 44 48 45 49 69 50 70 51 78 52 71 53 73 54 79 55
REMARK SMILES IDX 72 56 74 57 75 58 76 59 77 60 54 61 55 62 63 63 56 64 58 65
REMARK SMILES IDX 64 66 57 67 59 68 60 69 61 70 62 71 6 72 7 73 8 74 9 75
REMARK SMILES IDX 10 77 11 78 12 79 27 80 13 81 14 82 15 83 16 84 26 85 17 86
REMARK SMILES IDX 18 87 19 88 20 89 25 90 21 91 24 92 22 93 23 94
REMARK H PARENT 3 6 84 24 52 35 8 76
REMARK Flexibility Score: inf
ROOT
ATOM      1  C   UNL A   1      35.566  23.453  24.929  1.00  0.00     0.023 C 
ENDROOT
BRANCH   1   2
ATOM      2  C   UNL A   1      36.490  23.574  26.145  1.00  0.00     0.116 C 
BRANCH   2   3
ATOM      3  N   UNL A   1      37.645  22.696  26.065  1.00  0.00    -0.352 N 
ATOM      4  O   UNL A   1      39.802  22.087  26.114  1.00  0.00    -0.269 OA
ATOM      5  C   UNL A   1      38.963  22.953  26.357  1.00  0.00     0.251 C 
ATOM      6  H   UNL A   1      37.455  21.781  25.756  1.00  0.00     0.163 HD
BRANCH   5   7
ATOM      7  C   UNL A   1      39.389  24.255  26.922  1.00  0.00     0.039 A 
ATOM      8  C   UNL A   1      40.073  25.206  26.164  1.00  0.00     0.014 A 
ATOM      9  C   UNL A   1      39.034  24.552  28.244  1.00  0.00     0.014 A 
ATOM     10  C   UNL A   1      40.480  26.407  26.752  1.00  0.00     0.010 A 
ATOM     11  C   UNL A   1      39.414  25.768  28.823  1.00  0.00     0.010 A 
ATOM     12  C   UNL A   1      40.167  26.692  28.089  1.00  0.00    -0.014 A 
BRANCH  12  13
ATOM     13  C   UNL A   1      40.620  27.969  28.685  1.00  0.00     0.031 A 
ATOM     14  C   UNL A   1      42.074  28.210  28.970  1.00  0.00     0.074 A 
ATOM     15  C   UNL A   1      39.720  28.939  28.933  1.00  0.00     0.049 A 
ATOM     16  N   UNL A   1      42.671  29.327  29.298  1.00  0.00    -0.248 NA
ATOM     17  C   UNL A   1      42.974  27.050  28.870  1.00  0.00     0.031 C 
ATOM     18  C   UNL A   1      38.274  28.817  28.743  1.00  0.00     0.029 A 
ATOM     19  N   UNL A   1      39.895  30.227  29.375  1.00  0.00    -0.354 N 
ATOM     20  C   UNL A   1      44.014  29.007  29.444  1.00  0.00     0.074 A 
ATOM     21  C   UNL A   1      44.146  27.590  29.183  1.00  0.00     0.031 C 
ATOM     22  C   UNL A   1      37.697  29.997  29.025  1.00  0.00     0.029 A 
ATOM     23  C   UNL A   1      38.730  30.955  29.414  1.00  0.00     0.049 A 
ATOM     24  H   UNL A   1      40.769  30.593  29.639  1.00  0.00     0.167 HD
ATOM     25  C   UNL A   1      45.052  29.828  29.731  1.00  0.00     0.034 A 
ATOM     26  C   UNL A   1      38.521  32.257  29.693  1.00  0.00     0.034 A 
ATOM     27  C   UNL A   1      44.937  31.245  29.942  1.00  0.00     0.049 A 
ATOM     28  C   UNL A   1      39.692  33.148  29.999  1.00  0.00     0.074 A 
ATOM     29  C   UNL A   1      45.944  32.173  30.147  1.00  0.00     0.029 A 
ATOM     30  N   UNL A   1      43.739  31.942  29.981  1.00  0.00    -0.354 N 
ATOM     31  N   UNL A   1      40.971  32.866  29.963  1.00  0.00    -0.248 NA
ATOM     32  C   UNL A   1      39.389  34.542  30.358  1.00  0.00     0.031 C 
ATOM     33  C   UNL A   1      45.355  33.434  30.299  1.00  0.00     0.029 A 
ATOM     34  C   UNL A   1      43.981  33.285  30.213  1.00  0.00     0.049 A 
ATOM     35  H   UNL A   1      42.848  31.540  29.861  1.00  0.00     0.167 HD
ATOM     36  C   UNL A   1      41.628  34.053  30.265  1.00  0.00     0.074 A 
ATOM     37  C   UNL A   1      40.605  35.059  30.482  1.00  0.00     0.031 C 
ATOM     38  C   UNL A   1      42.958  34.286  30.369  1.00  0.00     0.034 A 
BRANCH  25  39
ATOM     39  C   UNL A   1      46.425  29.223  29.720  1.00  0.00     0.023 A 
ATOM     40  C   UNL A   1      46.971  28.781  30.933  1.00  0.00     0.012 A 
ATOM     41  C   UNL A   1      47.167  29.063  28.537  1.00  0.00     0.148 A 
ATOM     42  C   UNL A   1      48.238  28.195  30.957  1.00  0.00     0.002 A 
ATOM     43  C   UNL A   1      48.430  28.474  28.570  1.00  0.00     0.091 A 
ATOM     44  F   UNL A   1      46.645  29.499  27.385  1.00  0.00    -0.205 F 
ATOM     45  C   UNL A   1      48.975  28.034  29.782  1.00  0.00     0.022 A 
BRANCH  43  46
ATOM     46  S   UNL A   1      49.361  28.311  27.042  1.00  0.00     0.127 S 
ATOM     47  O   UNL A   1      49.420  29.685  26.550  1.00  0.00    -0.237 OA
ATOM     48  O   UNL A   1      50.642  27.776  27.501  1.00  0.00    -0.237 OA
ATOM     49  O   UNL A   1      48.567  27.375  26.254  1.00  0.00    -0.744 OA
ENDBRANCH  43  46
ENDBRANCH  25  39
BRANCH  26  50
ATOM     50  C   UNL A   1      37.154  32.823  29.548  1.00  0.00     0.023 A 
ATOM     51  C   UNL A   1      36.581  32.887  28.268  1.00  0.00     0.012 A 
ATOM     52  C   UNL A   1      36.396  33.237  30.654  1.00  0.00     0.148 A 
ATOM     53  C   UNL A   1      35.278  33.363  28.101  1.00  0.00     0.002 A 
ATOM     54  C   UNL A   1      35.086  33.682  30.483  1.00  0.00     0.091 A 
ATOM     55  F   UNL A   1      36.948  33.172  31.874  1.00  0.00    -0.205 F 
ATOM     56  C   UNL A   1      34.522  33.756  29.205  1.00  0.00     0.022 A 
BRANCH  54  57
ATOM     57  S   UNL A   1      34.111  34.098  31.929  1.00  0.00     0.127 S 
ATOM     58  O   UNL A   1      33.891  32.798  32.554  1.00  0.00    -0.237 OA
ATOM     59  O   UNL A   1      34.995  34.994  32.675  1.00  0.00    -0.237 OA
ATOM     60  O   UNL A   1      32.940  34.754  31.355  1.00  0.00    -0.744 OA
ENDBRANCH  54  57
ENDBRANCH  26  50
BRANCH  38  61
ATOM     61  C   UNL A   1      43.392  35.673  30.742  1.00  0.00     0.023 A 
ATOM     62  C   UNL A   1      43.626  35.968  32.092  1.00  0.00     0.012 A 
ATOM     63  C   UNL A   1      43.636  36.659  29.771  1.00  0.00     0.148 A 
ATOM     64  C   UNL A   1      44.088  37.234  32.459  1.00  0.00     0.002 A 
ATOM     65  C   UNL A   1      44.112  37.913  30.144  1.00  0.00     0.091 A 
ATOM     66  F   UNL A   1      43.414  36.365  28.483  1.00  0.00    -0.205 F 
ATOM     67  C   UNL A   1      44.338  38.212  31.493  1.00  0.00     0.022 A 
BRANCH  65  68
ATOM     68  S   UNL A   1      44.446  39.137  28.875  1.00  0.00     0.127 S 
ATOM     69  O   UNL A   1      43.150  39.300  28.222  1.00  0.00    -0.237 OA
ATOM     70  O   UNL A   1      44.883  40.297  29.653  1.00  0.00    -0.237 OA
ATOM     71  O   UNL A   1      45.499  38.521  28.075  1.00  0.00    -0.744 OA
ENDBRANCH  65  68
ENDBRANCH  38  61
ENDBRANCH  12  13
ENDBRANCH   5   7
ENDBRANCH   2   3
ENDBRANCH   1   2
BRANCH   1  72
ATOM     72  C   UNL A   1      35.051  22.041  24.610  1.00  0.00     0.023 C 
BRANCH  72  73
ATOM     73  C   UNL A   1      33.552  21.822  24.837  1.00  0.00     0.116 C 
BRANCH  73  74
ATOM     74  N   UNL A   1      33.227  21.743  26.250  1.00  0.00    -0.352 N 
ATOM     75  C   UNL A   1      32.616  22.670  27.061  1.00  0.00     0.254 C 
ATOM     76  H   UNL A   1      33.482  20.901  26.693  1.00  0.00     0.163 HD
ATOM     77  O   UNL A   1      32.707  22.557  28.270  1.00  0.00    -0.269 OA
BRANCH  75  78
ATOM     78  C   UNL A   1      31.897  23.772  26.453  1.00  0.00     0.078 A 
ATOM     79  C   UNL A   1      30.555  23.798  26.141  1.00  0.00     0.209 A 
ATOM     80  C   UNL A   1      32.372  25.086  26.185  1.00  0.00     0.066 A 
ATOM     81  O   UNL A   1      30.179  25.029  25.707  1.00  0.00    -0.462 OA
ATOM     82  C   UNL A   1      31.292  25.822  25.738  1.00  0.00     0.153 A 
BRANCH  82  83
ATOM     83  C   UNL A   1      31.321  27.267  25.383  1.00  0.00     0.117 A 
ATOM     84  C   UNL A   1      32.212  28.156  25.942  1.00  0.00     0.099 A 
ATOM     85  N   UNL A   1      30.453  27.805  24.453  1.00  0.00    -0.231 NA
ATOM     86  S   UNL A   1      32.014  29.705  25.237  1.00  0.00    -0.120 S 
ATOM     87  C   UNL A   1      30.721  29.087  24.277  1.00  0.00     0.142 A 
BRANCH  87  88
ATOM     88  C   UNL A   1      29.962  29.984  23.395  1.00  0.00     0.099 A 
ATOM     89  C   UNL A   1      29.390  31.151  23.898  1.00  0.00     0.033 A 
ATOM     90  N   UNL A   1      29.833  29.609  22.097  1.00  0.00    -0.252 NA
ATOM     91  C   UNL A   1      28.662  31.980  23.043  1.00  0.00     0.024 A 
ATOM     92  C   UNL A   1      29.102  30.420  21.293  1.00  0.00     0.132 A 
ATOM     93  C   UNL A   1      28.510  31.601  21.716  1.00  0.00     0.059 A 
ATOM     94  Cl  UNL A   1      27.612  32.573  20.626  1.00  0.00    -0.083 Cl
ENDBRANCH  87  88
ENDBRANCH  82  83
ENDBRANCH  75  78
ENDBRANCH  73  74
ENDBRANCH  72  73
ENDBRANCH   1  72
TORSDOF 16
ENDMDL
MODEL 3
REMARK VINA RESULT:     -12.4      1.746      2.403
REMARK SMILES O=C(NCCCCNC(=O)c1coc(-c2csc(-c3ccc(Cl)cn3)n2)c1)c1ccc(-c2c3nc(c(-c4cccc(S(=O)(=O)[O-])c4F)c4ccc([nH]4)c(-c4cccc(S(=O)(=O)[O-])c4F)c4nc(c(-c5cccc(S(=O)(=O)[O-])c5F)c5ccc2[nH]5)C=C4)C=C3)cc1
REMARK SMILES IDX 5 1 4 2 3 3 1 4 2 5 28 7 29 8 90 9 30 10 89 11 31 12 32 13
REMARK SMILES IDX 33 14 83 15 34 16 88 17 82 18 84 19 35 20 87 21 81 22 80 23
REMARK SMILES IDX 36 25 68 26 48 27 67 28 49 29 52 30 66 31 85 32 50 33 51 34
REMARK SMILES IDX 65 36 86 37 53 38 37 39 38 40 46 41 39 42 41 43 47 44 40 45
REMARK SMILES IDX 42 46 43 47 44 48 45 49 69 50 70 51 78 52 71 53 73 54 79 55
REMARK SMILES IDX 72 56 74 57 75 58 76 59 77 60 54 61 55 62 63 63 56 64 58 65
REMARK SMILES IDX 64 66 57 67 59 68 60 69 61 70 62 71 6 72 7 73 8 74 9 75
REMARK SMILES IDX 10 77 11 78 12 79 27 80 13 81 14 82 15 83 16 84 26 85 17 86
REMARK SMILES IDX 18 87 19 88 20 89 25 90 21 91 24 92 22 93 23 94
REMARK H PARENT 3 6 84 24 52 35 8 76
REMARK Flexibility Score: inf
ROOT
ATOM      1  C   UNL A   1      35.450  23.131  24.691  1.00  0.00     0.023 C 
ENDROOT
BRANCH   1   2
ATOM      2  C   UNL A   1      36.469  23.598  25.735  1.00  0.00     0.116 C 
BRANCH   2   3
ATOM      3  N   UNL A   1      37.516  22.620  25.976  1.00  0.00    -0.352 N 
ATOM      4  O   UNL A   1      39.550  21.838  26.502  1.00  0.00    -0.269 OA
ATOM      5  C   UNL A   1      38.782  22.798  26.481  1.00  0.00     0.251 C 
ATOM      6  H   UNL A   1      37.284  21.692  25.745  1.00  0.00     0.163 HD
BRANCH   5   7
ATOM      7  C   UNL A   1      39.241  24.122  26.964  1.00  0.00     0.039 A 
ATOM      8  C   UNL A   1      39.881  25.037  26.126  1.00  0.00     0.014 A 
ATOM      9  C   UNL A   1      38.965  24.478  28.290  1.00  0.00     0.014 A 
ATOM     10  C   UNL A   1      40.323  26.260  26.636  1.00  0.00     0.010 A 
ATOM     11  C   UNL A   1      39.379  25.716  28.792  1.00  0.00     0.010 A 
ATOM     12  C   UNL A   1      40.089  26.604  27.976  1.00  0.00    -0.014 A 
BRANCH  12  13
ATOM     13  C   UNL A   1      40.578  27.905  28.488  1.00  0.00     0.031 A 
ATOM     14  C   UNL A   1      42.026  28.282  28.365  1.00  0.00     0.074 A 
ATOM     15  C   UNL A   1      39.703  28.772  29.030  1.00  0.00     0.049 A 
ATOM     16  N   UNL A   1      42.590  29.445  28.572  1.00  0.00    -0.248 NA
ATOM     17  C   UNL A   1      42.959  27.222  27.955  1.00  0.00     0.031 C 
ATOM     18  C   UNL A   1      38.279  28.511  29.248  1.00  0.00     0.029 A 
ATOM     19  N   UNL A   1      39.881  30.059  29.473  1.00  0.00    -0.354 N 
ATOM     20  C   UNL A   1      43.941  29.258  28.318  1.00  0.00     0.074 A 
ATOM     21  C   UNL A   1      44.119  27.868  27.955  1.00  0.00     0.031 C 
ATOM     22  C   UNL A   1      37.705  29.620  29.742  1.00  0.00     0.029 A 
ATOM     23  C   UNL A   1      38.717  30.666  29.877  1.00  0.00     0.049 A 
ATOM     24  H   UNL A   1      40.759  30.504  29.500  1.00  0.00     0.167 HD
ATOM     25  C   UNL A   1      44.941  30.171  28.345  1.00  0.00     0.034 A 
ATOM     26  C   UNL A   1      38.481  31.933  30.272  1.00  0.00     0.034 A 
ATOM     27  C   UNL A   1      44.765  31.563  28.656  1.00  0.00     0.049 A 
ATOM     28  C   UNL A   1      39.607  32.928  30.284  1.00  0.00     0.074 A 
ATOM     29  C   UNL A   1      45.703  32.581  28.618  1.00  0.00     0.029 A 
ATOM     30  N   UNL A   1      43.571  32.135  29.066  1.00  0.00    -0.354 N 
ATOM     31  N   UNL A   1      40.843  32.777  29.876  1.00  0.00    -0.248 NA
ATOM     32  C   UNL A   1      39.296  34.275  30.787  1.00  0.00     0.031 C 
ATOM     33  C   UNL A   1      45.072  33.773  28.997  1.00  0.00     0.029 A 
ATOM     34  C   UNL A   1      43.750  33.489  29.292  1.00  0.00     0.049 A 
ATOM     35  H   UNL A   1      42.723  31.649  29.180  1.00  0.00     0.167 HD
ATOM     36  C   UNL A   1      41.450  34.016  30.043  1.00  0.00     0.074 A 
ATOM     37  C   UNL A   1      40.446  34.908  30.593  1.00  0.00     0.031 C 
ATOM     38  C   UNL A   1      42.728  34.378  29.782  1.00  0.00     0.034 A 
BRANCH  25  39
ATOM     39  C   UNL A   1      46.302  29.707  27.917  1.00  0.00     0.023 A 
ATOM     40  C   UNL A   1      46.612  29.715  26.550  1.00  0.00     0.012 A 
ATOM     41  C   UNL A   1      47.280  29.290  28.837  1.00  0.00     0.148 A 
ATOM     42  C   UNL A   1      47.875  29.309  26.116  1.00  0.00     0.002 A 
ATOM     43  C   UNL A   1      48.539  28.890  28.395  1.00  0.00     0.091 A 
ATOM     44  F   UNL A   1      46.972  29.273  30.139  1.00  0.00    -0.205 F 
ATOM     45  C   UNL A   1      48.848  28.897  27.030  1.00  0.00     0.022 A 
BRANCH  43  46
ATOM     46  S   UNL A   1      49.754  28.337  29.599  1.00  0.00     0.127 S 
ATOM     47  O   UNL A   1      50.966  28.196  28.797  1.00  0.00    -0.237 OA
ATOM     48  O   UNL A   1      49.786  29.443  30.555  1.00  0.00    -0.237 OA
ATOM     49  O   UNL A   1      49.179  27.105  30.126  1.00  0.00    -0.744 OA
ENDBRANCH  43  46
ENDBRANCH  25  39
BRANCH  26  50
ATOM     50  C   UNL A   1      37.084  32.363  30.547  1.00  0.00     0.023 A 
ATOM     51  C   UNL A   1      36.616  32.332  31.870  1.00  0.00     0.012 A 
ATOM     52  C   UNL A   1      36.241  32.856  29.539  1.00  0.00     0.148 A 
ATOM     53  C   UNL A   1      35.328  32.779  32.174  1.00  0.00     0.002 A 
ATOM     54  C   UNL A   1      34.969  33.329  29.854  1.00  0.00     0.091 A 
ATOM     55  F   UNL A   1      36.695  32.884  28.278  1.00  0.00    -0.205 F 
ATOM     56  C   UNL A   1      34.501  33.285  31.172  1.00  0.00     0.022 A 
BRANCH  54  57
ATOM     57  S   UNL A   1      33.962  34.052  28.559  1.00  0.00     0.127 S 
ATOM     58  O   UNL A   1      34.850  35.058  27.985  1.00  0.00    -0.237 OA
ATOM     59  O   UNL A   1      33.683  32.913  27.685  1.00  0.00    -0.237 OA
ATOM     60  O   UNL A   1      32.798  34.547  29.287  1.00  0.00    -0.744 OA
ENDBRANCH  54  57
ENDBRANCH  26  50
BRANCH  38  61
ATOM     61  C   UNL A   1      43.126  35.791  30.092  1.00  0.00     0.023 A 
ATOM     62  C   UNL A   1      43.719  36.071  31.331  1.00  0.00     0.012 A 
ATOM     63  C   UNL A   1      42.982  36.824  29.150  1.00  0.00     0.148 A 
ATOM     64  C   UNL A   1      44.152  37.367  31.620  1.00  0.00     0.002 A 
ATOM     65  C   UNL A   1      43.432  38.110  29.441  1.00  0.00     0.091 A 
ATOM     66  F   UNL A   1      42.418  36.545  27.967  1.00  0.00    -0.205 F 
ATOM     67  C   UNL A   1      44.017  38.392  30.680  1.00  0.00     0.022 A 
BRANCH  65  68
ATOM     68  S   UNL A   1      43.265  39.397  28.201  1.00  0.00     0.127 S 
ATOM     69  O   UNL A   1      43.907  38.812  27.027  1.00  0.00    -0.237 OA
ATOM     70  O   UNL A   1      41.814  39.548  28.087  1.00  0.00    -0.237 OA
ATOM     71  O   UNL A   1      43.941  40.540  28.803  1.00  0.00    -0.744 OA
ENDBRANCH  65  68
ENDBRANCH  38  61
ENDBRANCH  12  13
ENDBRANCH   5   7
ENDBRANCH   2   3
ENDBRANCH   1   2
BRANCH   1  72
ATOM     72  C   UNL A   1      34.989  21.670  24.803  1.00  0.00     0.023 C 
BRANCH  72  73
ATOM     73  C   UNL A   1      33.488  21.471  25.040  1.00  0.00     0.116 C 
BRANCH  73  74
ATOM     74  N   UNL A   1      33.151  21.546  26.450  1.00  0.00    -0.352 N 
ATOM     75  C   UNL A   1      32.586  22.578  27.161  1.00  0.00     0.254 C 
ATOM     76  H   UNL A   1      33.358  20.739  26.975  1.00  0.00     0.163 HD
ATOM     77  O   UNL A   1      32.663  22.578  28.376  1.00  0.00    -0.269 OA
BRANCH  75  78
ATOM     78  C   UNL A   1      31.930  23.652  26.442  1.00  0.00     0.078 A 
ATOM     79  C   UNL A   1      30.669  23.615  25.889  1.00  0.00     0.209 A 
ATOM     80  C   UNL A   1      32.373  24.995  26.278  1.00  0.00     0.066 A 
ATOM     81  O   UNL A   1      30.311  24.832  25.405  1.00  0.00    -0.462 OA
ATOM     82  C   UNL A   1      31.354  25.682  25.648  1.00  0.00     0.153 A 
BRANCH  82  83
ATOM     83  C   UNL A   1      31.367  27.132  25.318  1.00  0.00     0.117 A 
ATOM     84  C   UNL A   1      32.260  28.018  25.880  1.00  0.00     0.099 A 
ATOM     85  N   UNL A   1      30.484  27.680  24.410  1.00  0.00    -0.231 NA
ATOM     86  S   UNL A   1      32.041  29.577  25.205  1.00  0.00    -0.120 S 
ATOM     87  C   UNL A   1      30.740  28.967  24.252  1.00  0.00     0.142 A 
BRANCH  87  88
ATOM     88  C   UNL A   1      29.962  29.874  23.397  1.00  0.00     0.099 A 
ATOM     89  C   UNL A   1      29.777  29.585  22.046  1.00  0.00     0.033 A 
ATOM     90  N   UNL A   1      29.466  30.995  23.977  1.00  0.00    -0.252 NA
ATOM     91  C   UNL A   1      29.046  30.469  21.250  1.00  0.00     0.024 A 
ATOM     92  C   UNL A   1      28.779  31.849  23.177  1.00  0.00     0.132 A 
ATOM     93  C   UNL A   1      28.545  31.627  21.828  1.00  0.00     0.059 A 
ATOM     94  Cl  UNL A   1      27.655  32.756  20.894  1.00  0.00    -0.083 Cl
ENDBRANCH  87  88
ENDBRANCH  82  83
ENDBRANCH  75  78
ENDBRANCH  73  74
ENDBRANCH  72  73
ENDBRANCH   1  72
TORSDOF 16
ENDMDL
