MODEL 1
REMARK VINA RESULT:     -13.1      0.000      0.000
REMARK SMILES Cc1c(Cl)cccc1NC(=O)C[C@](C)(C(=O)NCCCCNC(=O)c1ccc(-c2c3nc(c(-c4cccc(S(=O)(=O)[O-])c4F)c4ccc([nH]4)c(-c4cccc(S(=O)(=O)[O-])c4F)c4nc(c(-c5cccc(S(=O)(=O)[O-])c5F)c5ccc2[nH]5)C=C4)C=C3)cc1)c1ccccc1
REMARK SMILES IDX 19 1 18 2 17 3 15 4 16 5 13 7 14 8 12 9 10 10 9 11 11 13
REMARK SMILES IDX 8 14 1 15 2 16 3 17 4 18 5 19 7 20 6 21 88 22 89 23 93 24
REMARK SMILES IDX 90 25 92 26 91 27 20 28 21 29 22 30 23 31 24 33 25 34 26 35
REMARK SMILES IDX 87 36 27 37 86 38 28 39 29 40 30 41 80 42 31 43 85 44 79 45
REMARK SMILES IDX 81 46 32 47 84 48 78 49 77 50 33 52 65 53 45 54 64 55 46 56
REMARK SMILES IDX 49 57 63 58 82 59 47 60 48 61 62 63 83 64 50 65 34 66 35 67
REMARK SMILES IDX 43 68 36 69 38 70 44 71 37 72 39 73 40 74 41 75 42 76 66 77
REMARK SMILES IDX 67 78 75 79 68 80 70 81 76 82 69 83 71 84 72 85 73 86 74 87
REMARK SMILES IDX 51 88 52 89 60 90 53 91 55 92 61 93 54 94 56 95 57 96 58 97
REMARK SMILES IDX 59 98
REMARK H PARENT 17 6 9 12 22 32 81 51 49 62
REMARK Flexibility Score: inf
ROOT
ATOM      1  C   UNL A   1      38.017  22.403  25.371  1.00  0.00     0.023 C 
ENDROOT
BRANCH   1   2
ATOM      2  C   UNL A   1      36.690  22.564  24.278  1.00  0.00     0.116 C 
BRANCH   2   3
ATOM      3  N   UNL A   1      34.723  21.855  24.354  1.00  0.00    -0.355 N 
ATOM      4  C   UNL A   1      33.296  22.017  24.392  1.00  0.00     0.230 C 
ATOM      5  O   UNL A   1      32.758  20.894  24.354  1.00  0.00    -0.274 OA
ATOM      6  H   UNL A   1      34.838  20.877  24.375  1.00  0.00     0.163 HD
BRANCH   4   7
ATOM      7  C   UNL A   1      32.369  23.340  24.547  1.00  0.00     0.080 C 
ATOM      8  C   UNL A   1      30.979  22.997  23.887  1.00  0.00     0.027 C 
BRANCH   7   9
ATOM      9  C   UNL A   1      32.230  23.933  25.995  1.00  0.00     0.121 C 
BRANCH   9  10
ATOM     10  C   UNL A   1      30.853  24.132  26.599  1.00  0.00     0.225 C 
ATOM     11  N   UNL A   1      30.208  25.329  26.497  1.00  0.00    -0.326 N 
ATOM     12  H   UNL A   1      29.498  25.530  27.148  1.00  0.00     0.169 HD
ATOM     13  O   UNL A   1      30.310  23.230  27.243  1.00  0.00    -0.275 OA
BRANCH  11  14
ATOM     14  C   UNL A   1      30.495  26.283  25.522  1.00  0.00     0.045 A 
ATOM     15  C   UNL A   1      32.490  27.526  27.185  1.00  0.00     0.048 C 
ATOM     16  C   UNL A   1      31.431  27.705  26.134  1.00  0.00    -0.009 A 
ATOM     17  C   UNL A   1      31.355  29.270  25.242  1.00  0.00     0.046 A 
ATOM     18  Cl  UNL A   1      32.316  30.606  25.732  1.00  0.00    -0.084 Cl
ATOM     19  C   UNL A   1      30.266  29.459  23.820  1.00  0.00     0.021 A 
ATOM     20  C   UNL A   1      29.487  26.418  23.997  1.00  0.00     0.026 A 
ATOM     21  C   UNL A   1      29.348  28.031  23.174  1.00  0.00     0.004 A 
ENDBRANCH  11  14
ENDBRANCH   9  10
ENDBRANCH   7   9
BRANCH   7  22
ATOM     22  C   UNL A   1      32.794  24.602  23.684  1.00  0.00    -0.032 A 
ATOM     23  C   UNL A   1      33.694  25.541  24.274  1.00  0.00     0.005 A 
ATOM     24  C   UNL A   1      32.355  24.889  22.392  1.00  0.00     0.005 A 
ATOM     25  C   UNL A   1      34.010  26.756  23.676  1.00  0.00     0.000 A 
ATOM     26  C   UNL A   1      32.688  26.108  21.779  1.00  0.00     0.000 A 
ATOM     27  C   UNL A   1      33.488  27.048  22.427  1.00  0.00     0.000 A 
ENDBRANCH   7  22
ENDBRANCH   4   7
ENDBRANCH   2   3
ENDBRANCH   1   2
BRANCH   1  28
ATOM     28  C   UNL A   1      38.685  21.027  25.382  1.00  0.00     0.023 C 
BRANCH  28  29
ATOM     29  C   UNL A   1      39.709  20.834  26.478  1.00  0.00     0.116 C 
BRANCH  29  30
ATOM     30  N   UNL A   1      40.452  19.590  26.318  1.00  0.00    -0.352 N 
ATOM     31  C   UNL A   1      41.805  19.508  26.091  1.00  0.00     0.251 C 
ATOM     32  H   UNL A   1      39.947  18.746  26.377  1.00  0.00     0.163 HD
ATOM     33  O   UNL A   1      42.357  18.468  25.769  1.00  0.00    -0.269 OA
BRANCH  31  34
ATOM     34  C   UNL A   1      42.538  20.773  26.248  1.00  0.00     0.039 A 
ATOM     35  C   UNL A   1      42.737  21.581  25.132  1.00  0.00     0.014 A 
ATOM     36  C   UNL A   1      42.720  21.255  27.551  1.00  0.00     0.014 A 
ATOM     37  C   UNL A   1      43.141  22.897  25.326  1.00  0.00     0.010 A 
ATOM     38  C   UNL A   1      43.006  22.598  27.736  1.00  0.00     0.010 A 
ATOM     39  C   UNL A   1      43.271  23.417  26.628  1.00  0.00    -0.014 A 
BRANCH  39  40
ATOM     40  C   UNL A   1      43.786  24.790  26.837  1.00  0.00     0.031 A 
ATOM     41  C   UNL A   1      42.863  25.831  27.415  1.00  0.00     0.074 A 
ATOM     42  C   UNL A   1      45.060  25.098  26.529  1.00  0.00     0.049 A 
ATOM     43  N   UNL A   1      43.120  27.070  27.736  1.00  0.00    -0.248 NA
ATOM     44  C   UNL A   1      41.459  25.437  27.639  1.00  0.00     0.031 C 
ATOM     45  C   UNL A   1      46.027  24.192  25.905  1.00  0.00     0.029 A 
ATOM     46  N   UNL A   1      45.761  26.264  26.704  1.00  0.00    -0.354 N 
ATOM     47  C   UNL A   1      41.914  27.602  28.174  1.00  0.00     0.074 A 
ATOM     48  C   UNL A   1      40.910  26.579  28.018  1.00  0.00     0.031 C 
ATOM     49  C   UNL A   1      47.205  24.825  25.783  1.00  0.00     0.029 A 
ATOM     50  C   UNL A   1      47.069  26.189  26.283  1.00  0.00     0.049 A 
ATOM     51  H   UNL A   1      45.368  27.076  27.094  1.00  0.00     0.167 HD
ATOM     52  C   UNL A   1      41.667  28.822  28.701  1.00  0.00     0.034 A 
ATOM     53  C   UNL A   1      48.042  27.122  26.297  1.00  0.00     0.034 A 
ATOM     54  C   UNL A   1      42.674  29.828  28.881  1.00  0.00     0.049 A 
ATOM     55  C   UNL A   1      47.740  28.476  26.884  1.00  0.00     0.074 A 
ATOM     56  C   UNL A   1      42.545  31.075  29.460  1.00  0.00     0.029 A 
ATOM     57  N   UNL A   1      43.990  29.708  28.465  1.00  0.00    -0.354 N 
ATOM     58  N   UNL A   1      46.627  28.914  27.423  1.00  0.00    -0.248 NA
ATOM     59  C   UNL A   1      48.837  29.454  26.894  1.00  0.00     0.031 C 
ATOM     60  C   UNL A   1      43.774  31.731  29.349  1.00  0.00     0.029 A 
ATOM     61  C   UNL A   1      44.682  30.868  28.756  1.00  0.00     0.049 A 
ATOM     62  H   UNL A   1      44.374  28.915  28.028  1.00  0.00     0.167 HD
ATOM     63  C   UNL A   1      46.900  30.201  27.870  1.00  0.00     0.074 A 
ATOM     64  C   UNL A   1      48.291  30.462  27.559  1.00  0.00     0.031 C 
ATOM     65  C   UNL A   1      46.076  31.092  28.475  1.00  0.00     0.034 A 
BRANCH  52  66
ATOM     66  C   UNL A   1      40.258  29.120  29.140  1.00  0.00     0.023 A 
ATOM     67  C   UNL A   1      39.293  29.524  28.193  1.00  0.00     0.012 A 
ATOM     68  C   UNL A   1      39.881  28.964  30.487  1.00  0.00     0.148 A 
ATOM     69  C   UNL A   1      37.986  29.806  28.587  1.00  0.00     0.002 A 
ATOM     70  C   UNL A   1      38.564  29.194  30.862  1.00  0.00     0.091 A 
ATOM     71  F   UNL A   1      40.818  28.604  31.375  1.00  0.00    -0.205 F 
ATOM     72  C   UNL A   1      37.619  29.630  29.918  1.00  0.00     0.022 A 
BRANCH  70  73
ATOM     73  S   UNL A   1      37.972  28.915  32.534  1.00  0.00     0.127 S 
ATOM     74  O   UNL A   1      38.882  29.754  33.311  1.00  0.00    -0.237 OA
ATOM     75  O   UNL A   1      36.598  29.413  32.455  1.00  0.00    -0.237 OA
ATOM     76  O   UNL A   1      38.090  27.484  32.772  1.00  0.00    -0.744 OA
ENDBRANCH  70  73
ENDBRANCH  52  66
BRANCH  53  77
ATOM     77  C   UNL A   1      49.402  26.803  25.775  1.00  0.00     0.023 A 
ATOM     78  C   UNL A   1      50.336  26.146  26.599  1.00  0.00     0.012 A 
ATOM     79  C   UNL A   1      49.774  27.156  24.463  1.00  0.00     0.148 A 
ATOM     80  C   UNL A   1      51.630  25.886  26.142  1.00  0.00     0.002 A 
ATOM     81  C   UNL A   1      51.043  26.841  23.994  1.00  0.00     0.091 A 
ATOM     82  F   UNL A   1      48.873  27.788  23.697  1.00  0.00    -0.205 F 
ATOM     83  C   UNL A   1      51.980  26.227  24.838  1.00  0.00     0.022 A 
BRANCH  81  84
ATOM     84  S   UNL A   1      51.540  27.129  22.293  1.00  0.00     0.127 S 
ATOM     85  O   UNL A   1      52.716  26.269  22.176  1.00  0.00    -0.237 OA
ATOM     86  O   UNL A   1      50.363  26.668  21.556  1.00  0.00    -0.237 OA
ATOM     87  O   UNL A   1      51.793  28.559  22.191  1.00  0.00    -0.744 OA
ENDBRANCH  81  84
ENDBRANCH  53  77
BRANCH  65  88
ATOM     88  C   UNL A   1      46.662  32.415  28.894  1.00  0.00     0.023 A 
ATOM     89  C   UNL A   1      47.274  32.554  30.155  1.00  0.00     0.012 A 
ATOM     90  C   UNL A   1      46.665  33.502  27.997  1.00  0.00     0.148 A 
ATOM     91  C   UNL A   1      47.844  33.770  30.533  1.00  0.00     0.002 A 
ATOM     92  C   UNL A   1      47.287  34.690  28.358  1.00  0.00     0.091 A 
ATOM     93  F   UNL A   1      46.066  33.351  26.807  1.00  0.00    -0.205 F 
ATOM     94  C   UNL A   1      47.861  34.831  29.630  1.00  0.00     0.022 A 
BRANCH  92  95
ATOM     95  S   UNL A   1      47.448  36.074  27.226  1.00  0.00     0.127 S 
ATOM     96  O   UNL A   1      46.053  36.467  27.037  1.00  0.00    -0.237 OA
ATOM     97  O   UNL A   1      48.247  37.018  28.009  1.00  0.00    -0.237 OA
ATOM     98  O   UNL A   1      48.113  35.554  26.040  1.00  0.00    -0.744 OA
ENDBRANCH  92  95
ENDBRANCH  65  88
ENDBRANCH  39  40
ENDBRANCH  31  34
ENDBRANCH  29  30
ENDBRANCH  28  29
ENDBRANCH   1  28
TORSDOF 18
ENDMDL
MODEL 2
REMARK VINA RESULT:     -13.0      1.745      7.533
REMARK SMILES Cc1c(Cl)cccc1NC(=O)C[C@](C)(C(=O)NCCCCNC(=O)c1ccc(-c2c3nc(c(-c4cccc(S(=O)(=O)[O-])c4F)c4ccc([nH]4)c(-c4cccc(S(=O)(=O)[O-])c4F)c4nc(c(-c5cccc(S(=O)(=O)[O-])c5F)c5ccc2[nH]5)C=C4)C=C3)cc1)c1ccccc1
REMARK SMILES IDX 19 1 18 2 17 3 15 4 16 5 13 7 14 8 12 9 10 10 9 11 11 13
REMARK SMILES IDX 8 14 1 15 2 16 3 17 4 18 5 19 7 20 6 21 88 22 89 23 93 24
REMARK SMILES IDX 90 25 92 26 91 27 20 28 21 29 22 30 23 31 24 33 25 34 26 35
REMARK SMILES IDX 87 36 27 37 86 38 28 39 29 40 30 41 80 42 31 43 85 44 79 45
REMARK SMILES IDX 81 46 32 47 84 48 78 49 77 50 33 52 65 53 45 54 64 55 46 56
REMARK SMILES IDX 49 57 63 58 82 59 47 60 48 61 62 63 83 64 50 65 34 66 35 67
REMARK SMILES IDX 43 68 36 69 38 70 44 71 37 72 39 73 40 74 41 75 42 76 66 77
REMARK SMILES IDX 67 78 75 79 68 80 70 81 76 82 69 83 71 84 72 85 73 86 74 87
REMARK SMILES IDX 51 88 52 89 60 90 53 91 55 92 61 93 54 94 56 95 57 96 58 97
REMARK SMILES IDX 59 98
REMARK H PARENT 17 6 9 12 22 32 81 51 49 62
REMARK Flexibility Score: inf
ROOT
ATOM      1  C   UNL A   1      37.777  21.982  25.066  1.00  0.00     0.023 C 
ENDROOT
BRANCH   1   2
ATOM      2  C   UNL A   1      36.147  22.052  25.636  1.00  0.00     0.116 C 
BRANCH   2   3
ATOM      3  N   UNL A   1      34.318  21.719  24.678  1.00  0.00    -0.355 N 
ATOM      4  C   UNL A   1      33.025  22.118  24.196  1.00  0.00     0.230 C 
ATOM      5  O   UNL A   1      32.513  21.169  23.571  1.00  0.00    -0.274 OA
ATOM      6  H   UNL A   1      34.373  20.772  24.413  1.00  0.00     0.163 HD
BRANCH   4   7
ATOM      7  C   UNL A   1      32.176  23.486  24.403  1.00  0.00     0.080 C 
ATOM      8  C   UNL A   1      30.768  23.250  23.736  1.00  0.00     0.027 C 
BRANCH   7   9
ATOM      9  C   UNL A   1      32.075  24.033  25.872  1.00  0.00     0.121 C 
BRANCH   9  10
ATOM     10  C   UNL A   1      30.713  24.269  26.496  1.00  0.00     0.225 C 
ATOM     11  N   UNL A   1      30.119  25.495  26.442  1.00  0.00    -0.326 N 
ATOM     12  H   UNL A   1      29.423  25.703  27.107  1.00  0.00     0.169 HD
ATOM     13  O   UNL A   1      30.137  23.369  27.113  1.00  0.00    -0.275 OA
BRANCH  11  14
ATOM     14  C   UNL A   1      30.439  26.469  25.499  1.00  0.00     0.045 A 
ATOM     15  C   UNL A   1      32.384  27.669  27.251  1.00  0.00     0.048 C 
ATOM     16  C   UNL A   1      31.359  27.875  26.171  1.00  0.00    -0.009 A 
ATOM     17  C   UNL A   1      31.315  29.459  25.313  1.00  0.00     0.046 A 
ATOM     18  Cl  UNL A   1      32.263  30.781  25.863  1.00  0.00    -0.084 Cl
ATOM     19  C   UNL A   1      30.272  29.684  23.862  1.00  0.00     0.021 A 
ATOM     20  C   UNL A   1      29.480  26.642  23.946  1.00  0.00     0.026 A 
ATOM     21  C   UNL A   1      29.370  28.274  23.156  1.00  0.00     0.004 A 
ENDBRANCH  11  14
ENDBRANCH   9  10
ENDBRANCH   7   9
BRANCH   7  22
ATOM     22  C   UNL A   1      32.674  24.753  23.585  1.00  0.00    -0.032 A 
ATOM     23  C   UNL A   1      33.534  25.679  24.249  1.00  0.00     0.005 A 
ATOM     24  C   UNL A   1      32.332  25.054  22.267  1.00  0.00     0.005 A 
ATOM     25  C   UNL A   1      33.902  26.897  23.687  1.00  0.00     0.000 A 
ATOM     26  C   UNL A   1      32.719  26.276  21.692  1.00  0.00     0.000 A 
ATOM     27  C   UNL A   1      33.476  27.204  22.406  1.00  0.00     0.000 A 
ENDBRANCH   7  22
ENDBRANCH   4   7
ENDBRANCH   2   3
ENDBRANCH   1   2
BRANCH   1  28
ATOM     28  C   UNL A   1      38.478  20.639  25.271  1.00  0.00     0.023 C 
BRANCH  28  29
ATOM     29  C   UNL A   1      39.610  20.667  26.273  1.00  0.00     0.116 C 
BRANCH  29  30
ATOM     30  N   UNL A   1      40.540  19.563  26.077  1.00  0.00    -0.352 N 
ATOM     31  C   UNL A   1      41.907  19.691  26.010  1.00  0.00     0.251 C 
ATOM     32  H   UNL A   1      40.163  18.658  25.987  1.00  0.00     0.163 HD
ATOM     33  O   UNL A   1      42.638  18.781  25.652  1.00  0.00    -0.269 OA
BRANCH  31  34
ATOM     34  C   UNL A   1      42.425  21.015  26.386  1.00  0.00     0.039 A 
ATOM     35  C   UNL A   1      42.445  22.028  25.430  1.00  0.00     0.014 A 
ATOM     36  C   UNL A   1      42.573  21.286  27.752  1.00  0.00     0.014 A 
ATOM     37  C   UNL A   1      42.630  23.340  25.854  1.00  0.00     0.010 A 
ATOM     38  C   UNL A   1      42.638  22.605  28.173  1.00  0.00     0.010 A 
ATOM     39  C   UNL A   1      42.721  23.638  27.227  1.00  0.00    -0.014 A 
BRANCH  39  40
ATOM     40  C   UNL A   1      43.008  25.020  27.675  1.00  0.00     0.031 A 
ATOM     41  C   UNL A   1      44.420  25.534  27.583  1.00  0.00     0.074 A 
ATOM     42  C   UNL A   1      42.020  25.806  28.144  1.00  0.00     0.049 A 
ATOM     43  N   UNL A   1      44.881  26.725  27.860  1.00  0.00    -0.248 NA
ATOM     44  C   UNL A   1      45.458  24.582  27.145  1.00  0.00     0.031 C 
ATOM     45  C   UNL A   1      40.628  25.398  28.340  1.00  0.00     0.029 A 
ATOM     46  N   UNL A   1      42.040  27.120  28.538  1.00  0.00    -0.354 N 
ATOM     47  C   UNL A   1      46.253  26.653  27.653  1.00  0.00     0.074 A 
ATOM     48  C   UNL A   1      46.564  25.292  27.291  1.00  0.00     0.031 C 
ATOM     49  C   UNL A   1      39.920  26.450  28.783  1.00  0.00     0.029 A 
ATOM     50  C   UNL A   1      40.812  27.594  28.939  1.00  0.00     0.049 A 
ATOM     51  H   UNL A   1      42.854  27.672  28.534  1.00  0.00     0.167 HD
ATOM     52  C   UNL A   1      47.173  27.642  27.715  1.00  0.00     0.034 A 
ATOM     53  C   UNL A   1      40.454  28.815  29.384  1.00  0.00     0.034 A 
ATOM     54  C   UNL A   1      46.856  29.001  28.047  1.00  0.00     0.049 A 
ATOM     55  C   UNL A   1      41.499  29.898  29.451  1.00  0.00     0.074 A 
ATOM     56  C   UNL A   1      47.700  30.094  28.079  1.00  0.00     0.029 A 
ATOM     57  N   UNL A   1      45.599  29.447  28.423  1.00  0.00    -0.354 N 
ATOM     58  N   UNL A   1      42.766  29.846  29.115  1.00  0.00    -0.248 NA
ATOM     59  C   UNL A   1      41.057  31.217  29.926  1.00  0.00     0.031 C 
ATOM     60  C   UNL A   1      46.963  31.195  28.525  1.00  0.00     0.029 A 
ATOM     61  C   UNL A   1      45.648  30.798  28.710  1.00  0.00     0.049 A 
ATOM     62  H   UNL A   1      44.793  28.886  28.476  1.00  0.00     0.167 HD
ATOM     63  C   UNL A   1      43.263  31.131  29.301  1.00  0.00     0.074 A 
ATOM     64  C   UNL A   1      42.153  31.943  29.757  1.00  0.00     0.031 C 
ATOM     65  C   UNL A   1      44.523  31.597  29.121  1.00  0.00     0.034 A 
BRANCH  52  66
ATOM     66  C   UNL A   1      48.600  27.287  27.394  1.00  0.00     0.023 A 
ATOM     67  C   UNL A   1      49.408  26.656  28.364  1.00  0.00     0.012 A 
ATOM     68  C   UNL A   1      49.131  27.548  26.116  1.00  0.00     0.148 A 
ATOM     69  C   UNL A   1      50.732  26.326  28.080  1.00  0.00     0.002 A 
ATOM     70  C   UNL A   1      50.434  27.167  25.824  1.00  0.00     0.091 A 
ATOM     71  F   UNL A   1      48.357  28.171  25.217  1.00  0.00    -0.205 F 
ATOM     72  C   UNL A   1      51.241  26.570  26.807  1.00  0.00     0.022 A 
BRANCH  70  73
ATOM     73  S   UNL A   1      51.155  27.361  24.192  1.00  0.00     0.127 S 
ATOM     74  O   UNL A   1      52.420  26.644  24.342  1.00  0.00    -0.237 OA
ATOM     75  O   UNL A   1      50.170  26.690  23.343  1.00  0.00    -0.237 OA
ATOM     76  O   UNL A   1      51.277  28.795  23.971  1.00  0.00    -0.744 OA
ENDBRANCH  70  73
ENDBRANCH  52  66
BRANCH  53  77
ATOM     77  C   UNL A   1      39.040  29.094  29.769  1.00  0.00     0.023 A 
ATOM     78  C   UNL A   1      38.597  28.809  31.075  1.00  0.00     0.012 A 
ATOM     79  C   UNL A   1      38.131  29.635  28.840  1.00  0.00     0.148 A 
ATOM     80  C   UNL A   1      37.264  29.017  31.436  1.00  0.00     0.002 A 
ATOM     81  C   UNL A   1      36.822  29.895  29.222  1.00  0.00     0.091 A 
ATOM     82  F   UNL A   1      38.570  29.893  27.599  1.00  0.00    -0.205 F 
ATOM     83  C   UNL A   1      36.379  29.566  30.512  1.00  0.00     0.022 A 
BRANCH  81  84
ATOM     84  S   UNL A   1      35.647  30.717  28.140  1.00  0.00     0.127 S 
ATOM     85  O   UNL A   1      36.413  31.878  27.694  1.00  0.00    -0.237 OA
ATOM     86  O   UNL A   1      35.421  29.697  27.116  1.00  0.00    -0.237 OA
ATOM     87  O   UNL A   1      34.484  31.008  28.967  1.00  0.00    -0.744 OA
ENDBRANCH  81  84
ENDBRANCH  53  77
BRANCH  65  88
ATOM     88  C   UNL A   1      44.768  33.063  29.363  1.00  0.00     0.023 A 
ATOM     89  C   UNL A   1      45.209  33.512  30.623  1.00  0.00     0.012 A 
ATOM     90  C   UNL A   1      44.627  33.987  28.308  1.00  0.00     0.148 A 
ATOM     91  C   UNL A   1      45.466  34.866  30.841  1.00  0.00     0.002 A 
ATOM     92  C   UNL A   1      44.942  35.323  28.516  1.00  0.00     0.091 A 
ATOM     93  F   UNL A   1      44.195  33.540  27.120  1.00  0.00    -0.205 F 
ATOM     94  C   UNL A   1      45.344  35.767  29.785  1.00  0.00     0.022 A 
BRANCH  92  95
ATOM     95  S   UNL A   1      44.914  36.536  27.193  1.00  0.00     0.127 S 
ATOM     96  O   UNL A   1      43.543  36.409  26.703  1.00  0.00    -0.237 OA
ATOM     97  O   UNL A   1      45.191  37.781  27.913  1.00  0.00    -0.237 OA
ATOM     98  O   UNL A   1      45.950  36.135  26.252  1.00  0.00    -0.744 OA
ENDBRANCH  92  95
ENDBRANCH  65  88
ENDBRANCH  39  40
ENDBRANCH  31  34
ENDBRANCH  29  30
ENDBRANCH  28  29
ENDBRANCH   1  28
TORSDOF 18
ENDMDL
MODEL 3
REMARK VINA RESULT:     -12.9      2.145      7.794
REMARK SMILES Cc1c(Cl)cccc1NC(=O)C[C@](C)(C(=O)NCCCCNC(=O)c1ccc(-c2c3nc(c(-c4cccc(S(=O)(=O)[O-])c4F)c4ccc([nH]4)c(-c4cccc(S(=O)(=O)[O-])c4F)c4nc(c(-c5cccc(S(=O)(=O)[O-])c5F)c5ccc2[nH]5)C=C4)C=C3)cc1)c1ccccc1
REMARK SMILES IDX 19 1 18 2 17 3 15 4 16 5 13 7 14 8 12 9 10 10 9 11 11 13
REMARK SMILES IDX 8 14 1 15 2 16 3 17 4 18 5 19 7 20 6 21 88 22 89 23 93 24
REMARK SMILES IDX 90 25 92 26 91 27 20 28 21 29 22 30 23 31 24 33 25 34 26 35
REMARK SMILES IDX 87 36 27 37 86 38 28 39 29 40 30 41 80 42 31 43 85 44 79 45
REMARK SMILES IDX 81 46 32 47 84 48 78 49 77 50 33 52 65 53 45 54 64 55 46 56
REMARK SMILES IDX 49 57 63 58 82 59 47 60 48 61 62 63 83 64 50 65 34 66 35 67
REMARK SMILES IDX 43 68 36 69 38 70 44 71 37 72 39 73 40 74 41 75 42 76 66 77
REMARK SMILES IDX 67 78 75 79 68 80 70 81 76 82 69 83 71 84 72 85 73 86 74 87
REMARK SMILES IDX 51 88 52 89 60 90 53 91 55 92 61 93 54 94 56 95 57 96 58 97
REMARK SMILES IDX 59 98
REMARK H PARENT 17 6 9 12 22 32 81 51 49 62
REMARK Flexibility Score: inf
ROOT
ATOM      1  C   UNL A   1      37.672  19.770  24.590  1.00  0.00     0.023 C 
ENDROOT
BRANCH   1   2
ATOM      2  C   UNL A   1      36.255  18.783  24.645  1.00  0.00     0.116 C 
BRANCH   2   3
ATOM      3  N   UNL A   1      34.280  19.204  25.188  1.00  0.00    -0.355 N 
ATOM      4  C   UNL A   1      33.143  20.069  25.344  1.00  0.00     0.230 C 
ATOM      5  O   UNL A   1      32.173  19.397  25.742  1.00  0.00    -0.274 OA
ATOM      6  H   UNL A   1      33.948  18.337  25.515  1.00  0.00     0.163 HD
BRANCH   4   7
ATOM      7  C   UNL A   1      32.983  21.674  25.167  1.00  0.00     0.080 C 
ATOM      8  C   UNL A   1      32.310  21.909  23.761  1.00  0.00     0.027 C 
BRANCH   7   9
ATOM      9  C   UNL A   1      32.254  22.438  26.330  1.00  0.00     0.121 C 
BRANCH   9  10
ATOM     10  C   UNL A   1      30.772  22.744  26.219  1.00  0.00     0.225 C 
ATOM     11  N   UNL A   1      30.329  24.023  26.058  1.00  0.00    -0.326 N 
ATOM     12  H   UNL A   1      29.400  24.228  26.310  1.00  0.00     0.169 HD
ATOM     13  O   UNL A   1      29.933  21.846  26.326  1.00  0.00    -0.275 OA
BRANCH  11  14
ATOM     14  C   UNL A   1      31.116  25.058  25.555  1.00  0.00     0.045 A 
ATOM     15  C   UNL A   1      30.120  24.650  22.884  1.00  0.00     0.048 C 
ATOM     16  C   UNL A   1      31.278  25.054  23.753  1.00  0.00    -0.009 A 
ATOM     17  C   UNL A   1      32.692  25.868  22.986  1.00  0.00     0.046 A 
ATOM     18  Cl  UNL A   1      32.820  25.977  21.277  1.00  0.00    -0.084 Cl
ATOM     19  C   UNL A   1      33.999  26.578  24.000  1.00  0.00     0.021 A 
ATOM     20  C   UNL A   1      32.367  25.896  26.601  1.00  0.00     0.026 A 
ATOM     21  C   UNL A   1      33.833  26.621  25.809  1.00  0.00     0.004 A 
ENDBRANCH  11  14
ENDBRANCH   9  10
ENDBRANCH   7   9
BRANCH   7  22
ATOM     22  C   UNL A   1      34.326  22.500  24.985  1.00  0.00    -0.032 A 
ATOM     23  C   UNL A   1      34.898  22.564  23.678  1.00  0.00     0.005 A 
ATOM     24  C   UNL A   1      35.014  23.166  25.999  1.00  0.00     0.005 A 
ATOM     25  C   UNL A   1      36.148  23.123  23.433  1.00  0.00     0.000 A 
ATOM     26  C   UNL A   1      36.268  23.746  25.748  1.00  0.00     0.000 A 
ATOM     27  C   UNL A   1      36.845  23.702  24.479  1.00  0.00     0.000 A 
ENDBRANCH   7  22
ENDBRANCH   4   7
ENDBRANCH   2   3
ENDBRANCH   1   2
BRANCH   1  28
ATOM     28  C   UNL A   1      37.849  20.717  25.777  1.00  0.00     0.023 C 
BRANCH  28  29
ATOM     29  C   UNL A   1      39.286  21.065  26.094  1.00  0.00     0.116 C 
BRANCH  29  30
ATOM     30  N   UNL A   1      40.160  19.901  26.018  1.00  0.00    -0.352 N 
ATOM     31  C   UNL A   1      41.532  19.945  26.087  1.00  0.00     0.251 C 
ATOM     32  H   UNL A   1      39.737  19.019  25.909  1.00  0.00     0.163 HD
ATOM     33  O   UNL A   1      42.236  18.982  25.825  1.00  0.00    -0.269 OA
BRANCH  31  34
ATOM     34  C   UNL A   1      42.092  21.245  26.485  1.00  0.00     0.039 A 
ATOM     35  C   UNL A   1      42.224  22.245  25.525  1.00  0.00     0.014 A 
ATOM     36  C   UNL A   1      42.168  21.523  27.856  1.00  0.00     0.014 A 
ATOM     37  C   UNL A   1      42.449  23.550  25.949  1.00  0.00     0.010 A 
ATOM     38  C   UNL A   1      42.273  22.841  28.269  1.00  0.00     0.010 A 
ATOM     39  C   UNL A   1      42.469  23.858  27.323  1.00  0.00    -0.014 A 
BRANCH  39  40
ATOM     40  C   UNL A   1      42.797  25.229  27.777  1.00  0.00     0.031 A 
ATOM     41  C   UNL A   1      44.222  25.705  27.676  1.00  0.00     0.074 A 
ATOM     42  C   UNL A   1      41.835  26.038  28.260  1.00  0.00     0.049 A 
ATOM     43  N   UNL A   1      44.717  26.881  27.956  1.00  0.00    -0.248 NA
ATOM     44  C   UNL A   1      45.229  24.728  27.222  1.00  0.00     0.031 C 
ATOM     45  C   UNL A   1      40.434  25.667  28.467  1.00  0.00     0.029 A 
ATOM     46  N   UNL A   1      41.894  27.348  28.663  1.00  0.00    -0.354 N 
ATOM     47  C   UNL A   1      46.085  26.774  27.736  1.00  0.00     0.074 A 
ATOM     48  C   UNL A   1      46.355  25.407  27.363  1.00  0.00     0.031 C 
ATOM     49  C   UNL A   1      39.759  26.734  28.923  1.00  0.00     0.029 A 
ATOM     50  C   UNL A   1      40.683  27.853  29.078  1.00  0.00     0.049 A 
ATOM     51  H   UNL A   1      42.723  27.878  28.655  1.00  0.00     0.167 HD
ATOM     52  C   UNL A   1      47.031  27.736  27.796  1.00  0.00     0.034 A 
ATOM     53  C   UNL A   1      40.363  29.080  29.535  1.00  0.00     0.034 A 
ATOM     54  C   UNL A   1      46.755  29.101  28.140  1.00  0.00     0.049 A 
ATOM     55  C   UNL A   1      41.437  30.134  29.599  1.00  0.00     0.074 A 
ATOM     56  C   UNL A   1      47.629  30.171  28.172  1.00  0.00     0.029 A 
ATOM     57  N   UNL A   1      45.514  29.579  28.530  1.00  0.00    -0.354 N 
ATOM     58  N   UNL A   1      42.699  30.049  29.251  1.00  0.00    -0.248 NA
ATOM     59  C   UNL A   1      41.036  31.461  30.087  1.00  0.00     0.031 C 
ATOM     60  C   UNL A   1      46.926  31.288  28.631  1.00  0.00     0.029 A 
ATOM     61  C   UNL A   1      45.602  30.926  28.826  1.00  0.00     0.049 A 
ATOM     62  H   UNL A   1      44.694  29.040  28.588  1.00  0.00     0.167 HD
ATOM     63  C   UNL A   1      43.232  31.319  29.441  1.00  0.00     0.074 A 
ATOM     64  C   UNL A   1      42.149  32.158  29.912  1.00  0.00     0.031 C 
ATOM     65  C   UNL A   1      44.503  31.752  29.253  1.00  0.00     0.034 A 
BRANCH  52  66
ATOM     66  C   UNL A   1      48.446  27.345  27.459  1.00  0.00     0.023 A 
ATOM     67  C   UNL A   1      49.254  26.711  28.427  1.00  0.00     0.012 A 
ATOM     68  C   UNL A   1      48.963  27.575  26.170  1.00  0.00     0.148 A 
ATOM     69  C   UNL A   1      50.566  26.348  28.129  1.00  0.00     0.002 A 
ATOM     70  C   UNL A   1      50.253  27.160  25.865  1.00  0.00     0.091 A 
ATOM     71  F   UNL A   1      48.189  28.201  25.273  1.00  0.00    -0.205 F 
ATOM     72  C   UNL A   1      51.061  26.561  26.845  1.00  0.00     0.022 A 
BRANCH  70  73
ATOM     73  S   UNL A   1      50.953  27.313  24.219  1.00  0.00     0.127 S 
ATOM     74  O   UNL A   1      52.189  26.544  24.353  1.00  0.00    -0.237 OA
ATOM     75  O   UNL A   1      49.926  26.680  23.392  1.00  0.00    -0.237 OA
ATOM     76  O   UNL A   1      51.131  28.739  23.986  1.00  0.00    -0.744 OA
ENDBRANCH  70  73
ENDBRANCH  52  66
BRANCH  53  77
ATOM     77  C   UNL A   1      38.961  29.394  29.935  1.00  0.00     0.023 A 
ATOM     78  C   UNL A   1      38.531  29.143  31.252  1.00  0.00     0.012 A 
ATOM     79  C   UNL A   1      38.049  29.936  29.009  1.00  0.00     0.148 A 
ATOM     80  C   UNL A   1      37.208  29.384  31.628  1.00  0.00     0.002 A 
ATOM     81  C   UNL A   1      36.750  30.230  29.405  1.00  0.00     0.091 A 
ATOM     82  F   UNL A   1      38.475  30.161  27.757  1.00  0.00    -0.205 F 
ATOM     83  C   UNL A   1      36.321  29.934  30.707  1.00  0.00     0.022 A 
BRANCH  81  84
ATOM     84  S   UNL A   1      35.576  31.054  28.324  1.00  0.00     0.127 S 
ATOM     85  O   UNL A   1      36.367  32.175  27.822  1.00  0.00    -0.237 OA
ATOM     86  O   UNL A   1      35.293  30.009  27.340  1.00  0.00    -0.237 OA
ATOM     87  O   UNL A   1      34.444  31.409  29.168  1.00  0.00    -0.744 OA
ENDBRANCH  81  84
ENDBRANCH  53  77
BRANCH  65  88
ATOM     88  C   UNL A   1      44.790  33.210  29.502  1.00  0.00     0.023 A 
ATOM     89  C   UNL A   1      45.151  33.653  30.790  1.00  0.00     0.012 A 
ATOM     90  C   UNL A   1      44.770  34.127  28.433  1.00  0.00     0.148 A 
ATOM     91  C   UNL A   1      45.446  34.998  31.017  1.00  0.00     0.002 A 
ATOM     92  C   UNL A   1      45.124  35.451  28.655  1.00  0.00     0.091 A 
ATOM     93  F   UNL A   1      44.413  33.685  27.218  1.00  0.00    -0.205 F 
ATOM     94  C   UNL A   1      45.445  35.892  29.948  1.00  0.00     0.022 A 
BRANCH  92  95
ATOM     95  S   UNL A   1      45.250  36.650  27.325  1.00  0.00     0.127 S 
ATOM     96  O   UNL A   1      43.843  36.902  27.018  1.00  0.00    -0.237 OA
ATOM     97  O   UNL A   1      45.940  37.763  27.980  1.00  0.00    -0.237 OA
ATOM     98  O   UNL A   1      46.010  36.003  26.265  1.00  0.00    -0.744 OA
ENDBRANCH  92  95
ENDBRANCH  65  88
ENDBRANCH  39  40
ENDBRANCH  31  34
ENDBRANCH  29  30
ENDBRANCH  28  29
ENDBRANCH   1  28
TORSDOF 18
ENDMDL
