MODEL 1
REMARK VINA RESULT:     -13.5      0.000      0.000
REMARK SMILES COc1cc(C)cc2c1[C@@H](C)[C@@H](CC(=O)N[C@@H](Cc1c[nH]c3ccccc13)C(=O)NCCCCNC(=O)c1ccc(-c3c4nc(c(-c5cccc(S(=O)(=O)[O-])c5F)c5ccc([nH]5)c(-c5cccc(S(=O)(=O)[O-])c5F)c5nc(c(-c6cccc(S(=O)(=O)[O-])c6F)c6ccc3[nH]6)C=C5)C=C4)cc1)C(=O)O2
REMARK SMILES IDX 32 1 31 2 30 3 28 4 29 5 17 7 16 8 14 9 15 10 13 12 12 13
REMARK SMILES IDX 3 14 4 15 9 16 5 17 8 18 10 19 6 20 7 21 103 22 11 23 101 24
REMARK SMILES IDX 102 25 2 26 1 27 18 28 19 29 20 30 27 31 21 32 22 33 26 34
REMARK SMILES IDX 23 36 25 37 24 38 33 39 34 40 35 41 36 42 37 44 38 45 39 46
REMARK SMILES IDX 100 47 40 48 99 49 41 50 42 51 43 52 93 53 44 54 98 55 92 56
REMARK SMILES IDX 94 57 45 58 97 59 91 60 90 61 46 63 78 64 58 65 77 66 59 67
REMARK SMILES IDX 62 68 76 69 95 70 60 71 61 72 75 74 96 75 63 76 47 77 48 78
REMARK SMILES IDX 56 79 49 80 51 81 57 82 50 83 52 84 53 85 54 86 55 87 79 88
REMARK SMILES IDX 80 89 88 90 81 91 83 92 89 93 82 94 84 95 85 96 86 97 87 98
REMARK SMILES IDX 64 99 65 100 73 101 66 102 68 103 74 104 67 105 69 106
REMARK SMILES IDX 70 107 71 108 72 109
REMARK H PARENT 30 6 16 11 21 35 35 43 94 62 62 73
REMARK Flexibility Score: inf
ROOT
ATOM      1  C   UNL A   1      34.762  30.181  27.355  1.00  0.00     0.023 C 
ENDROOT
BRANCH   1   2
ATOM      2  C   UNL A   1      34.123  28.869  26.911  1.00  0.00     0.116 C 
BRANCH   2   3
ATOM      3  N   UNL A   1      32.923  28.619  27.669  1.00  0.00    -0.354 N 
ATOM      4  C   UNL A   1      31.878  27.807  27.384  1.00  0.00     0.242 C 
ATOM      5  O   UNL A   1      30.856  27.976  28.065  1.00  0.00    -0.273 OA
ATOM      6  H   UNL A   1      32.853  29.110  28.519  1.00  0.00     0.163 HD
BRANCH   4   7
ATOM      7  C   UNL A   1      31.886  26.703  26.299  1.00  0.00     0.175 C 
BRANCH   7   8
ATOM      8  N   UNL A   1      31.498  25.385  26.785  1.00  0.00    -0.344 N 
ATOM      9  C   UNL A   1      31.740  24.173  26.209  1.00  0.00     0.221 C 
ATOM     10  O   UNL A   1      30.997  23.225  26.459  1.00  0.00    -0.275 OA
ATOM     11  H   UNL A   1      30.998  25.367  27.632  1.00  0.00     0.164 HD
BRANCH   9  12
ATOM     12  C   UNL A   1      32.996  23.988  25.380  1.00  0.00     0.116 C 
BRANCH  12  13
ATOM     13  C   UNL A   1      32.826  23.459  23.937  1.00  0.00     0.116 C 
ATOM     14  C   UNL A   1      35.186  20.662  24.822  1.00  0.00     0.126 A 
ATOM     15  C   UNL A   1      36.506  20.682  25.303  1.00  0.00     0.050 A 
ATOM     16  C   UNL A   1      34.638  21.790  24.207  1.00  0.00     0.041 A 
ATOM     17  C   UNL A   1      37.302  21.833  25.195  1.00  0.00    -0.044 A 
ATOM     18  C   UNL A   1      35.502  22.880  23.997  1.00  0.00     0.138 A 
ATOM     19  C   UNL A   1      33.184  21.957  23.781  1.00  0.00     0.038 C 
ATOM     20  C   UNL A   1      38.691  21.862  25.759  1.00  0.00     0.044 C 
ATOM     21  C   UNL A   1      36.802  22.928  24.496  1.00  0.00     0.051 A 
ATOM     22  O   UNL A   1      35.100  24.004  23.253  1.00  0.00    -0.426 OA
ATOM     23  C   UNL A   1      32.124  21.097  24.476  1.00  0.00     0.014 C 
ATOM     24  C   UNL A   1      33.760  24.099  22.936  1.00  0.00     0.315 C 
ATOM     25  O   UNL A   1      33.383  24.648  21.907  1.00  0.00    -0.251 OA
BRANCH  14  26
ATOM     26  O   UNL A   1      34.446  19.512  24.849  1.00  0.00    -0.496 OA
ATOM     27  C   UNL A   1      35.193  18.352  24.495  1.00  0.00     0.278 C 
ENDBRANCH  14  26
ENDBRANCH  12  13
ENDBRANCH   9  12
ENDBRANCH   7   8
BRANCH   7  28
ATOM     28  C   UNL A   1      31.565  26.919  24.823  1.00  0.00     0.072 C 
BRANCH  28  29
ATOM     29  C   UNL A   1      30.229  27.198  24.182  1.00  0.00    -0.020 A 
ATOM     30  C   UNL A   1      29.291  26.173  24.135  1.00  0.00     0.087 A 
ATOM     31  C   UNL A   1      29.547  28.373  23.695  1.00  0.00     0.003 A 
ATOM     32  N   UNL A   1      28.105  26.661  23.689  1.00  0.00    -0.361 N 
ATOM     33  C   UNL A   1      28.225  27.997  23.412  1.00  0.00     0.046 A 
ATOM     34  C   UNL A   1      29.867  29.730  23.468  1.00  0.00     0.010 A 
ATOM     35  H   UNL A   1      27.280  26.134  23.580  1.00  0.00     0.166 HD
ATOM     36  C   UNL A   1      27.244  28.885  22.950  1.00  0.00     0.026 A 
ATOM     37  C   UNL A   1      28.907  30.628  22.976  1.00  0.00     0.001 A 
ATOM     38  C   UNL A   1      27.608  30.210  22.730  1.00  0.00     0.002 A 
ENDBRANCH  28  29
ENDBRANCH   7  28
ENDBRANCH   4   7
ENDBRANCH   2   3
ENDBRANCH   1   2
BRANCH   1  39
ATOM     39  C   UNL A   1      33.758  31.284  27.681  1.00  0.00     0.023 C 
BRANCH  39  40
ATOM     40  C   UNL A   1      34.293  32.692  27.475  1.00  0.00     0.116 C 
BRANCH  40  41
ATOM     41  N   UNL A   1      33.352  33.743  27.843  1.00  0.00    -0.352 N 
ATOM     42  C   UNL A   1      33.360  34.484  29.007  1.00  0.00     0.251 C 
ATOM     43  H   UNL A   1      32.638  33.945  27.196  1.00  0.00     0.163 HD
ATOM     44  O   UNL A   1      32.494  35.309  29.247  1.00  0.00    -0.269 OA
BRANCH  42  45
ATOM     45  C   UNL A   1      34.435  34.185  29.972  1.00  0.00     0.039 A 
ATOM     46  C   UNL A   1      35.737  34.593  29.682  1.00  0.00     0.014 A 
ATOM     47  C   UNL A   1      34.165  33.317  31.029  1.00  0.00     0.014 A 
ATOM     48  C   UNL A   1      36.794  33.985  30.343  1.00  0.00     0.010 A 
ATOM     49  C   UNL A   1      35.230  32.775  31.750  1.00  0.00     0.010 A 
ATOM     50  C   UNL A   1      36.552  33.057  31.372  1.00  0.00    -0.014 A 
BRANCH  50  51
ATOM     51  C   UNL A   1      37.700  32.382  32.027  1.00  0.00     0.031 A 
ATOM     52  C   UNL A   1      38.455  31.280  31.331  1.00  0.00     0.074 A 
ATOM     53  C   UNL A   1      38.086  32.801  33.247  1.00  0.00     0.049 A 
ATOM     54  N   UNL A   1      39.477  30.590  31.766  1.00  0.00    -0.248 NA
ATOM     55  C   UNL A   1      38.010  30.898  29.980  1.00  0.00     0.031 C 
ATOM     56  C   UNL A   1      37.425  33.852  34.021  1.00  0.00     0.029 A 
ATOM     57  N   UNL A   1      39.132  32.409  34.041  1.00  0.00    -0.354 N 
ATOM     58  C   UNL A   1      39.763  29.659  30.774  1.00  0.00     0.074 A 
ATOM     59  C   UNL A   1      38.814  29.877  29.704  1.00  0.00     0.031 C 
ATOM     60  C   UNL A   1      38.106  34.056  35.157  1.00  0.00     0.029 A 
ATOM     61  C   UNL A   1      39.215  33.109  35.219  1.00  0.00     0.049 A 
ATOM     62  H   UNL A   1      39.762  31.695  33.791  1.00  0.00     0.167 HD
ATOM     63  C   UNL A   1      40.738  28.721  30.751  1.00  0.00     0.034 A 
ATOM     64  C   UNL A   1      40.078  32.999  36.246  1.00  0.00     0.034 A 
ATOM     65  C   UNL A   1      41.725  28.553  31.783  1.00  0.00     0.049 A 
ATOM     66  C   UNL A   1      41.165  31.971  36.182  1.00  0.00     0.074 A 
ATOM     67  C   UNL A   1      42.787  27.667  31.817  1.00  0.00     0.029 A 
ATOM     68  N   UNL A   1      41.780  29.291  32.955  1.00  0.00    -0.354 N 
ATOM     69  N   UNL A   1      41.455  31.146  35.205  1.00  0.00    -0.248 NA
ATOM     70  C   UNL A   1      42.046  31.858  37.353  1.00  0.00     0.031 C 
ATOM     71  C   UNL A   1      43.484  27.867  33.012  1.00  0.00     0.029 A 
ATOM     72  C   UNL A   1      42.857  28.879  33.719  1.00  0.00     0.049 A 
ATOM     73  H   UNL A   1      41.147  30.001  33.205  1.00  0.00     0.167 HD
ATOM     74  C   UNL A   1      42.555  30.418  35.640  1.00  0.00     0.074 A 
ATOM     75  C   UNL A   1      42.894  30.916  36.957  1.00  0.00     0.031 C 
ATOM     76  C   UNL A   1      43.207  29.412  35.010  1.00  0.00     0.034 A 
BRANCH  63  77
ATOM     77  C   UNL A   1      40.834  27.821  29.550  1.00  0.00     0.023 A 
ATOM     78  C   UNL A   1      39.982  26.704  29.457  1.00  0.00     0.012 A 
ATOM     79  C   UNL A   1      41.680  28.143  28.471  1.00  0.00     0.148 A 
ATOM     80  C   UNL A   1      39.971  25.917  28.307  1.00  0.00     0.002 A 
ATOM     81  C   UNL A   1      41.645  27.370  27.316  1.00  0.00     0.091 A 
ATOM     82  F   UNL A   1      42.491  29.204  28.591  1.00  0.00    -0.205 F 
ATOM     83  C   UNL A   1      40.794  26.255  27.234  1.00  0.00     0.022 A 
BRANCH  81  84
ATOM     84  S   UNL A   1      42.621  27.751  25.858  1.00  0.00     0.127 S 
ATOM     85  O   UNL A   1      42.327  26.604  24.999  1.00  0.00    -0.237 OA
ATOM     86  O   UNL A   1      42.030  29.013  25.413  1.00  0.00    -0.237 OA
ATOM     87  O   UNL A   1      44.002  27.847  26.310  1.00  0.00    -0.744 OA
ENDBRANCH  81  84
ENDBRANCH  63  77
BRANCH  64  88
ATOM     88  C   UNL A   1      39.950  33.936  37.394  1.00  0.00     0.023 A 
ATOM     89  C   UNL A   1      40.392  35.263  37.248  1.00  0.00     0.012 A 
ATOM     90  C   UNL A   1      39.288  33.550  38.576  1.00  0.00     0.148 A 
ATOM     91  C   UNL A   1      40.175  36.195  38.262  1.00  0.00     0.002 A 
ATOM     92  C   UNL A   1      39.033  34.495  39.561  1.00  0.00     0.091 A 
ATOM     93  F   UNL A   1      38.881  32.278  38.686  1.00  0.00    -0.205 F 
ATOM     94  C   UNL A   1      39.484  35.815  39.410  1.00  0.00     0.022 A 
BRANCH  92  95
ATOM     95  S   UNL A   1      38.036  34.134  41.011  1.00  0.00     0.127 S 
ATOM     96  O   UNL A   1      36.946  33.351  40.433  1.00  0.00    -0.237 OA
ATOM     97  O   UNL A   1      38.974  33.372  41.835  1.00  0.00    -0.237 OA
ATOM     98  O   UNL A   1      37.657  35.426  41.564  1.00  0.00    -0.744 OA
ENDBRANCH  92  95
ENDBRANCH  64  88
BRANCH  76  99
ATOM     99  C   UNL A   1      44.356  28.766  35.728  1.00  0.00     0.023 A 
ATOM    100  C   UNL A   1      45.647  29.307  35.576  1.00  0.00     0.012 A 
ATOM    101  C   UNL A   1      44.141  27.713  36.637  1.00  0.00     0.148 A 
ATOM    102  C   UNL A   1      46.715  28.801  36.317  1.00  0.00     0.002 A 
ATOM    103  C   UNL A   1      45.204  27.236  37.394  1.00  0.00     0.091 A 
ATOM    104  F   UNL A   1      42.903  27.213  36.753  1.00  0.00    -0.205 F 
ATOM    105  C   UNL A   1      46.491  27.776  37.233  1.00  0.00     0.022 A 
BRANCH 103 106
ATOM    106  S   UNL A   1      45.004  25.967  38.650  1.00  0.00     0.127 S 
ATOM    107  O   UNL A   1      44.087  26.616  39.585  1.00  0.00    -0.237 OA
ATOM    108  O   UNL A   1      44.418  24.865  37.885  1.00  0.00    -0.237 OA
ATOM    109  O   UNL A   1      46.338  25.701  39.172  1.00  0.00    -0.744 OA
ENDBRANCH 103 106
ENDBRANCH  76  99
ENDBRANCH  50  51
ENDBRANCH  42  45
ENDBRANCH  40  41
ENDBRANCH  39  40
ENDBRANCH   1  39
TORSDOF 20
ENDMDL
MODEL 2
REMARK VINA RESULT:     -13.4      6.205     11.606
REMARK SMILES COc1cc(C)cc2c1[C@@H](C)[C@@H](CC(=O)N[C@@H](Cc1c[nH]c3ccccc13)C(=O)NCCCCNC(=O)c1ccc(-c3c4nc(c(-c5cccc(S(=O)(=O)[O-])c5F)c5ccc([nH]5)c(-c5cccc(S(=O)(=O)[O-])c5F)c5nc(c(-c6cccc(S(=O)(=O)[O-])c6F)c6ccc3[nH]6)C=C5)C=C4)cc1)C(=O)O2
REMARK SMILES IDX 32 1 31 2 30 3 28 4 29 5 17 7 16 8 14 9 15 10 13 12 12 13
REMARK SMILES IDX 3 14 4 15 9 16 5 17 8 18 10 19 6 20 7 21 103 22 11 23 101 24
REMARK SMILES IDX 102 25 2 26 1 27 18 28 19 29 20 30 27 31 21 32 22 33 26 34
REMARK SMILES IDX 23 36 25 37 24 38 33 39 34 40 35 41 36 42 37 44 38 45 39 46
REMARK SMILES IDX 100 47 40 48 99 49 41 50 42 51 43 52 93 53 44 54 98 55 92 56
REMARK SMILES IDX 94 57 45 58 97 59 91 60 90 61 46 63 78 64 58 65 77 66 59 67
REMARK SMILES IDX 62 68 76 69 95 70 60 71 61 72 75 74 96 75 63 76 47 77 48 78
REMARK SMILES IDX 56 79 49 80 51 81 57 82 50 83 52 84 53 85 54 86 55 87 79 88
REMARK SMILES IDX 80 89 88 90 81 91 83 92 89 93 82 94 84 95 85 96 86 97 87 98
REMARK SMILES IDX 64 99 65 100 73 101 66 102 68 103 74 104 67 105 69 106
REMARK SMILES IDX 70 107 71 108 72 109
REMARK H PARENT 30 6 16 11 21 35 35 43 94 62 62 73
REMARK Flexibility Score: inf
ROOT
ATOM      1  C   UNL A   1      37.445  21.934  24.599  1.00  0.00     0.023 C 
ENDROOT
BRANCH   1   2
ATOM      2  C   UNL A   1      37.151  23.273  25.267  1.00  0.00     0.116 C 
BRANCH   2   3
ATOM      3  N   UNL A   1      36.099  23.123  26.240  1.00  0.00    -0.354 N 
ATOM      4  C   UNL A   1      34.760  23.053  26.056  1.00  0.00     0.242 C 
ATOM      5  O   UNL A   1      34.063  23.195  27.071  1.00  0.00    -0.273 OA
ATOM      6  H   UNL A   1      36.398  23.063  27.175  1.00  0.00     0.163 HD
BRANCH   4   7
ATOM      7  C   UNL A   1      34.066  22.800  24.696  1.00  0.00     0.175 C 
BRANCH   7   8
ATOM      8  N   UNL A   1      34.414  23.764  23.659  1.00  0.00    -0.344 N 
ATOM      9  C   UNL A   1      33.786  24.936  23.360  1.00  0.00     0.221 C 
ATOM     10  O   UNL A   1      33.886  25.404  22.225  1.00  0.00    -0.275 OA
ATOM     11  H   UNL A   1      35.197  23.541  23.108  1.00  0.00     0.164 HD
BRANCH   9  12
ATOM     12  C   UNL A   1      33.091  25.705  24.466  1.00  0.00     0.116 C 
BRANCH  12  13
ATOM     13  C   UNL A   1      31.601  25.384  24.730  1.00  0.00     0.116 C 
ATOM     14  C   UNL A   1      30.894  29.073  24.472  1.00  0.00     0.126 A 
ATOM     15  C   UNL A   1      31.409  30.167  25.189  1.00  0.00     0.050 A 
ATOM     16  C   UNL A   1      31.006  27.777  24.980  1.00  0.00     0.041 A 
ATOM     17  C   UNL A   1      32.060  29.988  26.419  1.00  0.00    -0.044 A 
ATOM     18  C   UNL A   1      31.546  27.646  26.273  1.00  0.00     0.138 A 
ATOM     19  C   UNL A   1      30.632  26.495  24.244  1.00  0.00     0.038 C 
ATOM     20  C   UNL A   1      32.653  31.155  27.150  1.00  0.00     0.044 C 
ATOM     21  C   UNL A   1      32.089  28.715  26.981  1.00  0.00     0.051 A 
ATOM     22  O   UNL A   1      31.563  26.409  26.940  1.00  0.00    -0.426 OA
ATOM     23  C   UNL A   1      30.602  26.523  22.713  1.00  0.00     0.014 C 
ATOM     24  C   UNL A   1      31.246  25.290  26.196  1.00  0.00     0.315 C 
ATOM     25  O   UNL A   1      30.701  24.317  26.704  1.00  0.00    -0.251 OA
BRANCH  14  26
ATOM     26  O   UNL A   1      30.182  29.262  23.319  1.00  0.00    -0.496 OA
ATOM     27  C   UNL A   1      29.265  30.348  23.394  1.00  0.00     0.278 C 
ENDBRANCH  14  26
ENDBRANCH  12  13
ENDBRANCH   9  12
ENDBRANCH   7   8
BRANCH   7  28
ATOM     28  C   UNL A   1      33.696  21.428  24.140  1.00  0.00     0.072 C 
BRANCH  28  29
ATOM     29  C   UNL A   1      33.549  20.122  24.879  1.00  0.00    -0.020 A 
ATOM     30  C   UNL A   1      33.142  20.156  26.209  1.00  0.00     0.087 A 
ATOM     31  C   UNL A   1      33.575  18.725  24.515  1.00  0.00     0.003 A 
ATOM     32  N   UNL A   1      32.898  18.892  26.643  1.00  0.00    -0.361 N 
ATOM     33  C   UNL A   1      33.151  17.997  25.637  1.00  0.00     0.046 A 
ATOM     34  C   UNL A   1      33.887  17.965  23.366  1.00  0.00     0.010 A 
ATOM     35  H   UNL A   1      32.585  18.654  27.545  1.00  0.00     0.166 HD
ATOM     36  C   UNL A   1      33.012  16.602  25.655  1.00  0.00     0.026 A 
ATOM     37  C   UNL A   1      33.784  16.565  23.373  1.00  0.00     0.001 A 
ATOM     38  C   UNL A   1      33.343  15.895  24.503  1.00  0.00     0.002 A 
ENDBRANCH  28  29
ENDBRANCH   7  28
ENDBRANCH   4   7
ENDBRANCH   2   3
ENDBRANCH   1   2
BRANCH   1  39
ATOM     39  C   UNL A   1      37.883  20.838  25.566  1.00  0.00     0.023 C 
BRANCH  39  40
ATOM     40  C   UNL A   1      39.338  20.932  25.996  1.00  0.00     0.116 C 
BRANCH  40  41
ATOM     41  N   UNL A   1      40.063  19.670  25.915  1.00  0.00    -0.352 N 
ATOM     42  C   UNL A   1      41.423  19.491  26.065  1.00  0.00     0.251 C 
ATOM     43  H   UNL A   1      39.529  18.864  25.734  1.00  0.00     0.163 HD
ATOM     44  O   UNL A   1      41.944  18.397  25.926  1.00  0.00    -0.269 OA
BRANCH  42  45
ATOM     45  C   UNL A   1      42.221  20.699  26.343  1.00  0.00     0.039 A 
ATOM     46  C   UNL A   1      42.394  21.106  27.667  1.00  0.00     0.014 A 
ATOM     47  C   UNL A   1      42.587  21.522  25.278  1.00  0.00     0.014 A 
ATOM     48  C   UNL A   1      42.771  22.416  27.922  1.00  0.00     0.010 A 
ATOM     49  C   UNL A   1      43.051  22.810  25.544  1.00  0.00     0.010 A 
ATOM     50  C   UNL A   1      43.086  23.287  26.864  1.00  0.00    -0.014 A 
BRANCH  50  51
ATOM     51  C   UNL A   1      43.435  24.698  27.164  1.00  0.00     0.031 A 
ATOM     52  C   UNL A   1      42.440  25.625  27.812  1.00  0.00     0.074 A 
ATOM     53  C   UNL A   1      44.679  25.131  26.881  1.00  0.00     0.049 A 
ATOM     54  N   UNL A   1      42.588  26.883  28.137  1.00  0.00    -0.248 NA
ATOM     55  C   UNL A   1      41.112  25.079  28.135  1.00  0.00     0.031 C 
ATOM     56  C   UNL A   1      45.722  24.326  26.244  1.00  0.00     0.029 A 
ATOM     57  N   UNL A   1      45.281  26.341  27.107  1.00  0.00    -0.354 N 
ATOM     58  C   UNL A   1      41.363  27.295  28.649  1.00  0.00     0.074 A 
ATOM     59  C   UNL A   1      40.481  26.149  28.604  1.00  0.00     0.031 C 
ATOM     60  C   UNL A   1      46.850  25.047  26.172  1.00  0.00     0.029 A 
ATOM     61  C   UNL A   1      46.592  26.382  26.701  1.00  0.00     0.049 A 
ATOM     62  H   UNL A   1      44.819  27.106  27.519  1.00  0.00     0.167 HD
ATOM     63  C   UNL A   1      41.013  28.511  29.127  1.00  0.00     0.034 A 
ATOM     64  C   UNL A   1      47.490  27.384  26.737  1.00  0.00     0.034 A 
ATOM     65  C   UNL A   1      41.913  29.628  29.237  1.00  0.00     0.049 A 
ATOM     66  C   UNL A   1      47.084  28.712  27.298  1.00  0.00     0.074 A 
ATOM     67  C   UNL A   1      41.660  30.882  29.764  1.00  0.00     0.029 A 
ATOM     68  N   UNL A   1      43.235  29.624  28.825  1.00  0.00    -0.354 N 
ATOM     69  N   UNL A   1      45.939  29.058  27.835  1.00  0.00    -0.248 NA
ATOM     70  C   UNL A   1      48.087  29.786  27.264  1.00  0.00     0.031 C 
ATOM     71  C   UNL A   1      42.831  31.639  29.669  1.00  0.00     0.029 A 
ATOM     72  C   UNL A   1      43.812  30.854  29.085  1.00  0.00     0.049 A 
ATOM     73  H   UNL A   1      43.695  28.860  28.409  1.00  0.00     0.167 HD
ATOM     74  C   UNL A   1      46.084  30.388  28.208  1.00  0.00     0.074 A 
ATOM     75  C   UNL A   1      47.435  30.778  27.858  1.00  0.00     0.031 C 
ATOM     76  C   UNL A   1      45.169  31.214  28.769  1.00  0.00     0.034 A 
BRANCH  63  77
ATOM     77  C   UNL A   1      39.607  28.705  29.623  1.00  0.00     0.023 A 
ATOM     78  C   UNL A   1      39.274  28.294  30.928  1.00  0.00     0.012 A 
ATOM     79  C   UNL A   1      38.654  29.393  28.846  1.00  0.00     0.148 A 
ATOM     80  C   UNL A   1      38.011  28.562  31.453  1.00  0.00     0.002 A 
ATOM     81  C   UNL A   1      37.406  29.681  29.386  1.00  0.00     0.091 A 
ATOM     82  F   UNL A   1      38.992  29.762  27.602  1.00  0.00    -0.205 F 
ATOM     83  C   UNL A   1      37.082  29.263  30.687  1.00  0.00     0.022 A 
BRANCH  81  84
ATOM     84  S   UNL A   1      36.158  30.626  28.506  1.00  0.00     0.127 S 
ATOM     85  O   UNL A   1      35.810  29.713  27.418  1.00  0.00    -0.237 OA
ATOM     86  O   UNL A   1      35.119  30.785  29.525  1.00  0.00    -0.237 OA
ATOM     87  O   UNL A   1      36.804  31.864  28.094  1.00  0.00    -0.744 OA
ENDBRANCH  81  84
ENDBRANCH  63  77
BRANCH  64  88
ATOM     88  C   UNL A   1      48.874  27.124  26.258  1.00  0.00     0.023 A 
ATOM     89  C   UNL A   1      49.757  26.399  27.078  1.00  0.00     0.012 A 
ATOM     90  C   UNL A   1      49.271  27.487  24.956  1.00  0.00     0.148 A 
ATOM     91  C   UNL A   1      51.019  26.036  26.607  1.00  0.00     0.002 A 
ATOM     92  C   UNL A   1      50.510  27.080  24.478  1.00  0.00     0.091 A 
ATOM     93  F   UNL A   1      48.408  28.179  24.201  1.00  0.00    -0.205 F 
ATOM     94  C   UNL A   1      51.389  26.363  25.304  1.00  0.00     0.022 A 
BRANCH  92  95
ATOM     95  S   UNL A   1      51.019  27.336  22.774  1.00  0.00     0.127 S 
ATOM     96  O   UNL A   1      51.065  28.794  22.695  1.00  0.00    -0.237 OA
ATOM     97  O   UNL A   1      52.323  26.675  22.750  1.00  0.00    -0.237 OA
ATOM     98  O   UNL A   1      50.001  26.694  21.955  1.00  0.00    -0.744 OA
ENDBRANCH  92  95
ENDBRANCH  64  88
BRANCH  76  99
ATOM     99  C   UNL A   1      45.582  32.632  29.041  1.00  0.00     0.023 A 
ATOM    100  C   UNL A   1      46.254  32.929  30.242  1.00  0.00     0.012 A 
ATOM    101  C   UNL A   1      45.415  33.634  28.067  1.00  0.00     0.148 A 
ATOM    102  C   UNL A   1      46.750  34.211  30.474  1.00  0.00     0.002 A 
ATOM    103  C   UNL A   1      45.940  34.900  28.292  1.00  0.00     0.091 A 
ATOM    104  F   UNL A   1      44.764  33.324  26.937  1.00  0.00    -0.205 F 
ATOM    105  C   UNL A   1      46.603  35.192  29.496  1.00  0.00     0.022 A 
BRANCH 103 106
ATOM    106  S   UNL A   1      45.865  36.210  27.065  1.00  0.00     0.127 S 
ATOM    107  O   UNL A   1      44.427  36.456  26.979  1.00  0.00    -0.237 OA
ATOM    108  O   UNL A   1      46.632  37.279  27.707  1.00  0.00    -0.237 OA
ATOM    109  O   UNL A   1      46.474  35.668  25.857  1.00  0.00    -0.744 OA
ENDBRANCH 103 106
ENDBRANCH  76  99
ENDBRANCH  50  51
ENDBRANCH  42  45
ENDBRANCH  40  41
ENDBRANCH  39  40
ENDBRANCH   1  39
TORSDOF 20
ENDMDL
MODEL 3
REMARK VINA RESULT:     -13.3      2.253      7.672
REMARK SMILES COc1cc(C)cc2c1[C@@H](C)[C@@H](CC(=O)N[C@@H](Cc1c[nH]c3ccccc13)C(=O)NCCCCNC(=O)c1ccc(-c3c4nc(c(-c5cccc(S(=O)(=O)[O-])c5F)c5ccc([nH]5)c(-c5cccc(S(=O)(=O)[O-])c5F)c5nc(c(-c6cccc(S(=O)(=O)[O-])c6F)c6ccc3[nH]6)C=C5)C=C4)cc1)C(=O)O2
REMARK SMILES IDX 32 1 31 2 30 3 28 4 29 5 17 7 16 8 14 9 15 10 13 12 12 13
REMARK SMILES IDX 3 14 4 15 9 16 5 17 8 18 10 19 6 20 7 21 103 22 11 23 101 24
REMARK SMILES IDX 102 25 2 26 1 27 18 28 19 29 20 30 27 31 21 32 22 33 26 34
REMARK SMILES IDX 23 36 25 37 24 38 33 39 34 40 35 41 36 42 37 44 38 45 39 46
REMARK SMILES IDX 100 47 40 48 99 49 41 50 42 51 43 52 93 53 44 54 98 55 92 56
REMARK SMILES IDX 94 57 45 58 97 59 91 60 90 61 46 63 78 64 58 65 77 66 59 67
REMARK SMILES IDX 62 68 76 69 95 70 60 71 61 72 75 74 96 75 63 76 47 77 48 78
REMARK SMILES IDX 56 79 49 80 51 81 57 82 50 83 52 84 53 85 54 86 55 87 79 88
REMARK SMILES IDX 80 89 88 90 81 91 83 92 89 93 82 94 84 95 85 96 86 97 87 98
REMARK SMILES IDX 64 99 65 100 73 101 66 102 68 103 74 104 67 105 69 106
REMARK SMILES IDX 70 107 71 108 72 109
REMARK H PARENT 30 6 16 11 21 35 35 43 94 62 62 73
REMARK Flexibility Score: inf
ROOT
ATOM      1  C   UNL A   1      32.281  28.636  27.504  1.00  0.00     0.023 C 
ENDROOT
BRANCH   1   2
ATOM      2  C   UNL A   1      32.303  27.421  26.582  1.00  0.00     0.116 C 
BRANCH   2   3
ATOM      3  N   UNL A   1      31.195  26.549  26.882  1.00  0.00    -0.354 N 
ATOM      4  C   UNL A   1      30.389  25.861  26.039  1.00  0.00     0.242 C 
ATOM      5  O   UNL A   1      29.349  25.402  26.534  1.00  0.00    -0.273 OA
ATOM      6  H   UNL A   1      30.995  26.438  27.839  1.00  0.00     0.163 HD
BRANCH   4   7
ATOM      7  C   UNL A   1      30.685  25.609  24.541  1.00  0.00     0.175 C 
BRANCH   7   8
ATOM      8  N   UNL A   1      30.478  24.230  24.115  1.00  0.00    -0.344 N 
ATOM      9  C   UNL A   1      31.416  23.326  23.715  1.00  0.00     0.221 C 
ATOM     10  O   UNL A   1      31.086  22.399  22.975  1.00  0.00    -0.275 OA
ATOM     11  H   UNL A   1      29.546  23.914  24.116  1.00  0.00     0.164 HD
BRANCH   9  12
ATOM     12  C   UNL A   1      32.813  23.404  24.298  1.00  0.00     0.116 C 
BRANCH  12  13
ATOM     13  C   UNL A   1      32.947  23.339  25.837  1.00  0.00     0.116 C 
ATOM     14  C   UNL A   1      35.476  20.590  25.372  1.00  0.00     0.126 A 
ATOM     15  C   UNL A   1      35.383  19.346  24.723  1.00  0.00     0.050 A 
ATOM     16  C   UNL A   1      34.323  21.279  25.750  1.00  0.00     0.041 A 
ATOM     17  C   UNL A   1      34.138  18.774  24.424  1.00  0.00    -0.044 A 
ATOM     18  C   UNL A   1      33.096  20.618  25.555  1.00  0.00     0.138 A 
ATOM     19  C   UNL A   1      34.274  22.693  26.318  1.00  0.00     0.038 C 
ATOM     20  C   UNL A   1      34.049  17.472  23.684  1.00  0.00     0.044 C 
ATOM     21  C   UNL A   1      32.985  19.403  24.885  1.00  0.00     0.051 A 
ATOM     22  O   UNL A   1      31.888  21.153  26.038  1.00  0.00    -0.426 OA
ATOM     23  C   UNL A   1      35.445  23.633  26.018  1.00  0.00     0.014 C 
ATOM     24  C   UNL A   1      31.919  22.452  26.504  1.00  0.00     0.315 C 
ATOM     25  O   UNL A   1      31.174  22.828  27.401  1.00  0.00    -0.251 OA
BRANCH  14  26
ATOM     26  O   UNL A   1      36.690  21.100  25.741  1.00  0.00    -0.496 OA
ATOM     27  C   UNL A   1      37.604  21.223  24.655  1.00  0.00     0.278 C 
ENDBRANCH  14  26
ENDBRANCH  12  13
ENDBRANCH   9  12
ENDBRANCH   7   8
BRANCH   7  28
ATOM     28  C   UNL A   1      30.474  26.623  23.421  1.00  0.00     0.072 C 
BRANCH  28  29
ATOM     29  C   UNL A   1      29.299  27.539  23.189  1.00  0.00    -0.020 A 
ATOM     30  C   UNL A   1      28.045  27.130  23.632  1.00  0.00     0.087 A 
ATOM     31  C   UNL A   1      29.127  28.895  22.728  1.00  0.00     0.003 A 
ATOM     32  N   UNL A   1      27.160  28.152  23.495  1.00  0.00    -0.361 N 
ATOM     33  C   UNL A   1      27.785  29.241  22.949  1.00  0.00     0.046 A 
ATOM     34  C   UNL A   1      29.940  29.902  22.162  1.00  0.00     0.010 A 
ATOM     35  H   UNL A   1      26.210  28.115  23.752  1.00  0.00     0.166 HD
ATOM     36  C   UNL A   1      27.246  30.502  22.659  1.00  0.00     0.026 A 
ATOM     37  C   UNL A   1      29.413  31.161  21.835  1.00  0.00     0.001 A 
ATOM     38  C   UNL A   1      28.083  31.458  22.091  1.00  0.00     0.002 A 
ENDBRANCH  28  29
ENDBRANCH   7  28
ENDBRANCH   4   7
ENDBRANCH   2   3
ENDBRANCH   1   2
BRANCH   1  39
ATOM     39  C   UNL A   1      31.750  29.907  26.847  1.00  0.00     0.023 C 
BRANCH  39  40
ATOM     40  C   UNL A   1      32.829  30.907  26.464  1.00  0.00     0.116 C 
BRANCH  40  41
ATOM     41  N   UNL A   1      32.669  32.217  27.082  1.00  0.00    -0.352 N 
ATOM     42  C   UNL A   1      33.599  32.881  27.855  1.00  0.00     0.251 C 
ATOM     43  H   UNL A   1      31.810  32.675  26.934  1.00  0.00     0.163 HD
ATOM     44  O   UNL A   1      33.349  33.957  28.375  1.00  0.00    -0.269 OA
BRANCH  42  45
ATOM     45  C   UNL A   1      34.888  32.198  28.070  1.00  0.00     0.039 A 
ATOM     46  C   UNL A   1      34.886  30.862  28.470  1.00  0.00     0.014 A 
ATOM     47  C   UNL A   1      36.056  32.959  28.087  1.00  0.00     0.014 A 
ATOM     48  C   UNL A   1      36.026  30.337  29.061  1.00  0.00     0.010 A 
ATOM     49  C   UNL A   1      37.225  32.396  28.601  1.00  0.00     0.010 A 
ATOM     50  C   UNL A   1      37.202  31.104  29.148  1.00  0.00    -0.014 A 
BRANCH  50  51
ATOM     51  C   UNL A   1      38.390  30.537  29.833  1.00  0.00     0.031 A 
ATOM     52  C   UNL A   1      38.714  30.897  31.259  1.00  0.00     0.074 A 
ATOM     53  C   UNL A   1      39.160  29.655  29.166  1.00  0.00     0.049 A 
ATOM     54  N   UNL A   1      39.714  30.490  31.997  1.00  0.00    -0.248 NA
ATOM     55  C   UNL A   1      37.808  31.833  31.946  1.00  0.00     0.031 C 
ATOM     56  C   UNL A   1      38.950  29.239  27.779  1.00  0.00     0.029 A 
ATOM     57  N   UNL A   1      40.259  28.940  29.567  1.00  0.00    -0.354 N 
ATOM     58  C   UNL A   1      39.592  31.157  33.210  1.00  0.00     0.074 A 
ATOM     59  C   UNL A   1      38.413  31.990  33.118  1.00  0.00     0.031 C 
ATOM     60  C   UNL A   1      39.859  28.308  27.457  1.00  0.00     0.029 A 
ATOM     61  C   UNL A   1      40.752  28.106  28.593  1.00  0.00     0.049 A 
ATOM     62  H   UNL A   1      40.656  29.017  30.464  1.00  0.00     0.167 HD
ATOM     63  C   UNL A   1      40.382  31.069  34.305  1.00  0.00     0.034 A 
ATOM     64  C   UNL A   1      41.812  27.277  28.603  1.00  0.00     0.034 A 
ATOM     65  C   UNL A   1      41.512  30.187  34.421  1.00  0.00     0.049 A 
ATOM     66  C   UNL A   1      42.652  27.179  29.839  1.00  0.00     0.074 A 
ATOM     67  C   UNL A   1      42.335  29.989  35.515  1.00  0.00     0.029 A 
ATOM     68  N   UNL A   1      41.971  29.351  33.416  1.00  0.00    -0.354 N 
ATOM     69  N   UNL A   1      42.480  27.770  30.996  1.00  0.00    -0.248 NA
ATOM     70  C   UNL A   1      43.828  26.299  29.778  1.00  0.00     0.031 C 
ATOM     71  C   UNL A   1      43.295  29.032  35.170  1.00  0.00     0.029 A 
ATOM     72  C   UNL A   1      43.066  28.635  33.863  1.00  0.00     0.049 A 
ATOM     73  H   UNL A   1      41.575  29.278  32.517  1.00  0.00     0.167 HD
ATOM     74  C   UNL A   1      43.521  27.333  31.803  1.00  0.00     0.074 A 
ATOM     75  C   UNL A   1      44.306  26.407  31.012  1.00  0.00     0.031 C 
ATOM     76  C   UNL A   1      43.812  27.687  33.078  1.00  0.00     0.034 A 
BRANCH  63  77
ATOM     77  C   UNL A   1      40.037  31.910  35.504  1.00  0.00     0.023 A 
ATOM     78  C   UNL A   1      40.625  33.181  35.645  1.00  0.00     0.012 A 
ATOM     79  C   UNL A   1      39.051  31.493  36.420  1.00  0.00     0.148 A 
ATOM     80  C   UNL A   1      40.241  34.026  36.685  1.00  0.00     0.002 A 
ATOM     81  C   UNL A   1      38.653  32.351  37.438  1.00  0.00     0.091 A 
ATOM     82  F   UNL A   1      38.517  30.272  36.270  1.00  0.00    -0.205 F 
ATOM     83  C   UNL A   1      39.249  33.616  37.574  1.00  0.00     0.022 A 
BRANCH  81  84
ATOM     84  S   UNL A   1      37.347  31.944  38.602  1.00  0.00     0.127 S 
ATOM     85  O   UNL A   1      37.108  30.534  38.295  1.00  0.00    -0.237 OA
ATOM     86  O   UNL A   1      37.997  32.186  39.890  1.00  0.00    -0.237 OA
ATOM     87  O   UNL A   1      36.241  32.840  38.297  1.00  0.00    -0.744 OA
ENDBRANCH  81  84
ENDBRANCH  63  77
BRANCH  64  88
ATOM     88  C   UNL A   1      42.087  26.450  27.399  1.00  0.00     0.023 A 
ATOM     89  C   UNL A   1      42.801  27.017  26.328  1.00  0.00     0.012 A 
ATOM     90  C   UNL A   1      41.751  25.083  27.365  1.00  0.00     0.148 A 
ATOM     91  C   UNL A   1      43.180  26.232  25.239  1.00  0.00     0.002 A 
ATOM     92  C   UNL A   1      42.173  24.297  26.300  1.00  0.00     0.091 A 
ATOM     93  F   UNL A   1      41.068  24.573  28.399  1.00  0.00    -0.205 F 
ATOM     94  C   UNL A   1      42.879  24.872  25.232  1.00  0.00     0.022 A 
BRANCH  92  95
ATOM     95  S   UNL A   1      41.951  22.515  26.267  1.00  0.00     0.127 S 
ATOM     96  O   UNL A   1      42.769  22.136  25.117  1.00  0.00    -0.237 OA
ATOM     97  O   UNL A   1      42.494  22.123  27.567  1.00  0.00    -0.237 OA
ATOM     98  O   UNL A   1      40.519  22.296  26.119  1.00  0.00    -0.744 OA
ENDBRANCH  92  95
ENDBRANCH  64  88
BRANCH  76  99
ATOM     99  C   UNL A   1      45.031  27.082  33.712  1.00  0.00     0.023 A 
ATOM    100  C   UNL A   1      46.274  27.724  33.550  1.00  0.00     0.012 A 
ATOM    101  C   UNL A   1      44.927  25.961  34.557  1.00  0.00     0.148 A 
ATOM    102  C   UNL A   1      47.403  27.252  34.218  1.00  0.00     0.002 A 
ATOM    103  C   UNL A   1      46.050  25.517  35.243  1.00  0.00     0.091 A 
ATOM    104  F   UNL A   1      43.733  25.367  34.684  1.00  0.00    -0.205 F 
ATOM    105  C   UNL A   1      47.289  26.157  35.072  1.00  0.00     0.022 A 
BRANCH 103 106
ATOM    106  S   UNL A   1      45.989  24.161  36.420  1.00  0.00     0.127 S 
ATOM    107  O   UNL A   1      45.108  24.702  37.453  1.00  0.00    -0.237 OA
ATOM    108  O   UNL A   1      45.404  23.083  35.621  1.00  0.00    -0.237 OA
ATOM    109  O   UNL A   1      47.365  23.927  36.839  1.00  0.00    -0.744 OA
ENDBRANCH 103 106
ENDBRANCH  76  99
ENDBRANCH  50  51
ENDBRANCH  42  45
ENDBRANCH  40  41
ENDBRANCH  39  40
ENDBRANCH   1  39
TORSDOF 20
ENDMDL
