MODEL 1
REMARK VINA RESULT:     -11.8      0.000      0.000
REMARK SMILES C[C@@](NC(=O)c1ccc[nH]c1=O)(C(=O)NCCCCNC(=O)c1ccc(-c2c3nc(c(-c4cccc(S(=O)(=O)[O-])c4F)c4ccc([nH]4)c(-c4cccc(S(=O)(=O)[O-])c4F)c4nc(c(-c5cccc(S(=O)(=O)[O-])c5F)c5ccc2[nH]5)C=C4)C=C3)cc1)C(F)(F)F
REMARK SMILES IDX 18 1 17 2 16 3 15 4 13 5 14 6 2 8 1 9 3 10 4 11 5 13 6 14
REMARK SMILES IDX 7 15 11 16 8 17 10 18 12 19 9 20 86 22 87 23 88 24 89 25
REMARK SMILES IDX 19 26 20 27 21 28 22 30 23 31 24 32 85 33 25 34 84 35 26 36
REMARK SMILES IDX 27 37 28 38 78 39 29 40 83 41 77 42 79 43 30 44 82 45 76 46
REMARK SMILES IDX 75 47 31 49 63 50 43 51 62 52 44 53 47 54 61 55 80 56 45 57
REMARK SMILES IDX 46 58 60 60 81 61 48 62 32 63 33 64 41 65 34 66 36 67 42 68
REMARK SMILES IDX 35 69 37 70 38 71 39 72 40 73 64 74 65 75 73 76 66 77 68 78
REMARK SMILES IDX 74 79 67 80 69 81 70 82 71 83 72 84 49 85 50 86 58 87 51 88
REMARK SMILES IDX 53 89 59 90 52 91 54 92 55 93 56 94 57 95
REMARK H PARENT 15 7 3 12 10 21 20 29 79 48 47 59
REMARK Flexibility Score: inf
ROOT
ATOM      1  C   UNL A   1      35.131  21.238  24.905  1.00  0.00     0.023 C 
ENDROOT
BRANCH   1   2
ATOM      2  C   UNL A   1      33.884  21.578  25.728  1.00  0.00     0.023 C 
BRANCH   2   3
ATOM      3  C   UNL A   1      32.836  22.397  24.979  1.00  0.00     0.116 C 
BRANCH   3   4
ATOM      4  N   UNL A   1      33.352  22.914  23.720  1.00  0.00    -0.354 N 
ATOM      5  C   UNL A   1      33.516  24.195  23.258  1.00  0.00     0.254 C 
ATOM      6  O   UNL A   1      33.891  24.304  22.090  1.00  0.00    -0.272 OA
ATOM      7  H   UNL A   1      33.635  22.217  23.083  1.00  0.00     0.163 HD
BRANCH   5   8
ATOM      8  C   UNL A   1      33.119  25.413  24.108  1.00  0.00     0.212 C 
ATOM      9  C   UNL A   1      33.429  26.667  23.241  1.00  0.00     0.056 C 
BRANCH   8  10
ATOM     10  N   UNL A   1      31.657  25.441  24.469  1.00  0.00    -0.330 N 
ATOM     11  C   UNL A   1      30.780  26.478  24.657  1.00  0.00     0.257 C 
ATOM     12  H   UNL A   1      31.257  24.550  24.591  1.00  0.00     0.165 HD
ATOM     13  O   UNL A   1      29.581  26.230  24.513  1.00  0.00    -0.269 OA
BRANCH  11  14
ATOM     14  C   UNL A   1      31.204  27.747  25.293  1.00  0.00     0.104 A 
ATOM     15  C   UNL A   1      31.451  27.707  26.619  1.00  0.00     0.021 A 
ATOM     16  C   UNL A   1      31.321  29.060  24.606  1.00  0.00     0.260 A 
ATOM     17  C   UNL A   1      31.974  28.856  27.326  1.00  0.00     0.019 A 
ATOM     18  N   UNL A   1      31.899  30.079  25.330  1.00  0.00    -0.328 N 
ATOM     19  O   UNL A   1      30.920  29.244  23.466  1.00  0.00    -0.269 OA
ATOM     20  C   UNL A   1      32.216  29.990  26.660  1.00  0.00     0.086 A 
ATOM     21  H   UNL A   1      32.097  30.923  24.863  1.00  0.00     0.169 HD
ENDBRANCH  11  14
ENDBRANCH   8  10
BRANCH   8  22
ATOM     22  C   UNL A   1      34.051  25.568  25.340  1.00  0.00     0.420 C 
ATOM     23  F   UNL A   1      35.243  24.946  25.182  1.00  0.00    -0.168 F 
ATOM     24  F   UNL A   1      34.352  26.896  25.491  1.00  0.00    -0.168 F 
ATOM     25  F   UNL A   1      33.529  25.187  26.510  1.00  0.00    -0.168 F 
ENDBRANCH   8  22
ENDBRANCH   5   8
ENDBRANCH   3   4
ENDBRANCH   2   3
ENDBRANCH   1   2
BRANCH   1  26
ATOM     26  C   UNL A   1      36.455  21.756  25.467  1.00  0.00     0.116 C 
BRANCH  26  27
ATOM     27  N   UNL A   1      37.482  20.728  25.547  1.00  0.00    -0.352 N 
ATOM     28  C   UNL A   1      38.805  20.859  25.898  1.00  0.00     0.251 C 
ATOM     29  H   UNL A   1      37.191  19.815  25.318  1.00  0.00     0.163 HD
ATOM     30  O   UNL A   1      39.570  19.905  25.787  1.00  0.00    -0.269 OA
BRANCH  28  31
ATOM     31  C   UNL A   1      39.305  22.162  26.385  1.00  0.00     0.039 A 
ATOM     32  C   UNL A   1      40.338  22.181  27.324  1.00  0.00     0.014 A 
ATOM     33  C   UNL A   1      38.769  23.357  25.896  1.00  0.00     0.014 A 
ATOM     34  C   UNL A   1      40.885  23.404  27.725  1.00  0.00     0.010 A 
ATOM     35  C   UNL A   1      39.350  24.571  26.255  1.00  0.00     0.010 A 
ATOM     36  C   UNL A   1      40.416  24.605  27.169  1.00  0.00    -0.014 A 
BRANCH  36  37
ATOM     37  C   UNL A   1      41.047  25.906  27.507  1.00  0.00     0.031 A 
ATOM     38  C   UNL A   1      42.472  26.185  27.115  1.00  0.00     0.074 A 
ATOM     39  C   UNL A   1      40.367  26.800  28.253  1.00  0.00     0.049 A 
ATOM     40  N   UNL A   1      43.203  27.239  27.369  1.00  0.00    -0.248 NA
ATOM     41  C   UNL A   1      43.175  25.133  26.363  1.00  0.00     0.031 C 
ATOM     42  C   UNL A   1      39.009  26.611  28.768  1.00  0.00     0.029 A 
ATOM     43  N   UNL A   1      40.734  28.032  28.731  1.00  0.00    -0.354 N 
ATOM     44  C   UNL A   1      44.460  26.965  26.843  1.00  0.00     0.074 A 
ATOM     45  C   UNL A   1      44.400  25.634  26.279  1.00  0.00     0.031 C 
ATOM     46  C   UNL A   1      38.658  27.688  29.488  1.00  0.00     0.029 A 
ATOM     47  C   UNL A   1      39.768  28.636  29.503  1.00  0.00     0.049 A 
ATOM     48  H   UNL A   1      41.607  28.446  28.540  1.00  0.00     0.167 HD
ATOM     49  C   UNL A   1      45.555  27.761  26.804  1.00  0.00     0.034 A 
ATOM     50  C   UNL A   1      39.775  29.820  30.148  1.00  0.00     0.034 A 
ATOM     51  C   UNL A   1      45.594  29.106  27.310  1.00  0.00     0.049 A 
ATOM     52  C   UNL A   1      40.983  30.709  30.033  1.00  0.00     0.074 A 
ATOM     53  C   UNL A   1      46.623  30.027  27.223  1.00  0.00     0.029 A 
ATOM     54  N   UNL A   1      44.561  29.723  27.996  1.00  0.00    -0.354 N 
ATOM     55  N   UNL A   1      42.100  30.503  29.379  1.00  0.00    -0.248 NA
ATOM     56  C   UNL A   1      40.918  32.011  30.714  1.00  0.00     0.031 C 
ATOM     57  C   UNL A   1      46.213  31.201  27.864  1.00  0.00     0.029 A 
ATOM     58  C   UNL A   1      44.928  31.012  28.343  1.00  0.00     0.049 A 
ATOM     59  H   UNL A   1      43.694  29.307  28.205  1.00  0.00     0.167 HD
ATOM     60  C   UNL A   1      42.856  31.658  29.539  1.00  0.00     0.074 A 
ATOM     61  C   UNL A   1      42.062  32.570  30.336  1.00  0.00     0.031 C 
ATOM     62  C   UNL A   1      44.103  31.933  29.083  1.00  0.00     0.034 A 
BRANCH  49  63
ATOM     63  C   UNL A   1      46.785  27.221  26.126  1.00  0.00     0.023 A 
ATOM     64  C   UNL A   1      46.934  27.388  24.735  1.00  0.00     0.012 A 
ATOM     65  C   UNL A   1      47.815  26.606  26.864  1.00  0.00     0.148 A 
ATOM     66  C   UNL A   1      48.075  26.927  24.081  1.00  0.00     0.002 A 
ATOM     67  C   UNL A   1      48.967  26.183  26.210  1.00  0.00     0.091 A 
ATOM     68  F   UNL A   1      47.644  26.431  28.181  1.00  0.00    -0.205 F 
ATOM     69  C   UNL A   1      49.096  26.334  24.820  1.00  0.00     0.022 A 
BRANCH  67  70
ATOM     70  S   UNL A   1      50.363  25.470  27.089  1.00  0.00     0.127 S 
ATOM     71  O   UNL A   1      51.314  25.247  26.001  1.00  0.00    -0.237 OA
ATOM     72  O   UNL A   1      50.733  26.546  28.010  1.00  0.00    -0.237 OA
ATOM     73  O   UNL A   1      49.853  24.270  27.737  1.00  0.00    -0.744 OA
ENDBRANCH  67  70
ENDBRANCH  49  63
BRANCH  50  74
ATOM     74  C   UNL A   1      38.561  30.270  30.883  1.00  0.00     0.023 A 
ATOM     75  C   UNL A   1      38.445  29.979  32.257  1.00  0.00     0.012 A 
ATOM     76  C   UNL A   1      37.544  31.009  30.249  1.00  0.00     0.148 A 
ATOM     77  C   UNL A   1      37.326  30.394  32.980  1.00  0.00     0.002 A 
ATOM     78  C   UNL A   1      36.458  31.464  30.988  1.00  0.00     0.091 A 
ATOM     79  F   UNL A   1      37.663  31.261  28.938  1.00  0.00    -0.205 F 
ATOM     80  C   UNL A   1      36.339  31.145  32.350  1.00  0.00     0.022 A 
BRANCH  78  81
ATOM     81  S   UNL A   1      35.213  32.550  30.280  1.00  0.00     0.127 S 
ATOM     82  O   UNL A   1      34.317  32.758  31.413  1.00  0.00    -0.237 OA
ATOM     83  O   UNL A   1      36.007  33.719  29.897  1.00  0.00    -0.237 OA
ATOM     84  O   UNL A   1      34.659  31.814  29.151  1.00  0.00    -0.744 OA
ENDBRANCH  78  81
ENDBRANCH  50  74
BRANCH  62  85
ATOM     85  C   UNL A   1      44.685  33.281  29.409  1.00  0.00     0.023 A 
ATOM     86  C   UNL A   1      45.377  33.463  30.621  1.00  0.00     0.012 A 
ATOM     87  C   UNL A   1      44.621  34.340  28.482  1.00  0.00     0.148 A 
ATOM     88  C   UNL A   1      45.976  34.686  30.918  1.00  0.00     0.002 A 
ATOM     89  C   UNL A   1      45.256  35.543  28.766  1.00  0.00     0.091 A 
ATOM     90  F   UNL A   1      43.939  34.154  27.342  1.00  0.00    -0.205 F 
ATOM     91  C   UNL A   1      45.927  35.722  29.988  1.00  0.00     0.022 A 
BRANCH  89  92
ATOM     92  S   UNL A   1      45.317  36.893  27.582  1.00  0.00     0.127 S 
ATOM     93  O   UNL A   1      46.104  37.890  28.306  1.00  0.00    -0.237 OA
ATOM     94  O   UNL A   1      46.005  36.283  26.443  1.00  0.00    -0.237 OA
ATOM     95  O   UNL A   1      43.930  37.253  27.320  1.00  0.00    -0.744 OA
ENDBRANCH  89  92
ENDBRANCH  62  85
ENDBRANCH  36  37
ENDBRANCH  28  31
ENDBRANCH  26  27
ENDBRANCH   1  26
TORSDOF 17
ENDMDL
MODEL 2
REMARK VINA RESULT:     -11.6      1.388      1.737
REMARK SMILES C[C@@](NC(=O)c1ccc[nH]c1=O)(C(=O)NCCCCNC(=O)c1ccc(-c2c3nc(c(-c4cccc(S(=O)(=O)[O-])c4F)c4ccc([nH]4)c(-c4cccc(S(=O)(=O)[O-])c4F)c4nc(c(-c5cccc(S(=O)(=O)[O-])c5F)c5ccc2[nH]5)C=C4)C=C3)cc1)C(F)(F)F
REMARK SMILES IDX 18 1 17 2 16 3 15 4 13 5 14 6 2 8 1 9 3 10 4 11 5 13 6 14
REMARK SMILES IDX 7 15 11 16 8 17 10 18 12 19 9 20 86 22 87 23 88 24 89 25
REMARK SMILES IDX 19 26 20 27 21 28 22 30 23 31 24 32 85 33 25 34 84 35 26 36
REMARK SMILES IDX 27 37 28 38 78 39 29 40 83 41 77 42 79 43 30 44 82 45 76 46
REMARK SMILES IDX 75 47 31 49 63 50 43 51 62 52 44 53 47 54 61 55 80 56 45 57
REMARK SMILES IDX 46 58 60 60 81 61 48 62 32 63 33 64 41 65 34 66 36 67 42 68
REMARK SMILES IDX 35 69 37 70 38 71 39 72 40 73 64 74 65 75 73 76 66 77 68 78
REMARK SMILES IDX 74 79 67 80 69 81 70 82 71 83 72 84 49 85 50 86 58 87 51 88
REMARK SMILES IDX 53 89 59 90 52 91 54 92 55 93 56 94 57 95
REMARK H PARENT 15 7 3 12 10 21 20 29 79 48 47 59
REMARK Flexibility Score: inf
ROOT
ATOM      1  C   UNL A   1      35.097  21.920  26.210  1.00  0.00     0.023 C 
ENDROOT
BRANCH   1   2
ATOM      2  C   UNL A   1      33.886  21.343  25.467  1.00  0.00     0.023 C 
BRANCH   2   3
ATOM      3  C   UNL A   1      32.944  22.393  24.884  1.00  0.00     0.116 C 
BRANCH   3   4
ATOM      4  N   UNL A   1      33.431  22.911  23.614  1.00  0.00    -0.354 N 
ATOM      5  C   UNL A   1      33.526  24.190  23.125  1.00  0.00     0.254 C 
ATOM      6  O   UNL A   1      33.893  24.294  21.954  1.00  0.00    -0.272 OA
ATOM      7  H   UNL A   1      33.749  22.217  22.991  1.00  0.00     0.163 HD
BRANCH   5   8
ATOM      8  C   UNL A   1      33.065  25.402  23.951  1.00  0.00     0.212 C 
ATOM      9  C   UNL A   1      33.237  26.644  23.030  1.00  0.00     0.056 C 
BRANCH   8  10
ATOM     10  N   UNL A   1      31.621  25.326  24.372  1.00  0.00    -0.330 N 
ATOM     11  C   UNL A   1      30.710  26.297  24.695  1.00  0.00     0.257 C 
ATOM     12  H   UNL A   1      31.267  24.409  24.425  1.00  0.00     0.165 HD
ATOM     13  O   UNL A   1      29.517  26.008  24.577  1.00  0.00    -0.269 OA
BRANCH  11  14
ATOM     14  C   UNL A   1      31.107  27.521  25.431  1.00  0.00     0.104 A 
ATOM     15  C   UNL A   1      31.334  27.383  26.755  1.00  0.00     0.021 A 
ATOM     16  C   UNL A   1      31.215  28.883  24.848  1.00  0.00     0.260 A 
ATOM     17  C   UNL A   1      31.831  28.482  27.555  1.00  0.00     0.019 A 
ATOM     18  N   UNL A   1      31.768  29.852  25.656  1.00  0.00    -0.328 N 
ATOM     19  O   UNL A   1      30.827  29.148  23.719  1.00  0.00    -0.269 OA
ATOM     20  C   UNL A   1      32.066  29.666  26.979  1.00  0.00     0.086 A 
ATOM     21  H   UNL A   1      31.960  30.731  25.257  1.00  0.00     0.169 HD
ENDBRANCH  11  14
ENDBRANCH   8  10
BRANCH   8  22
ATOM     22  C   UNL A   1      34.030  25.675  25.136  1.00  0.00     0.420 C 
ATOM     23  F   UNL A   1      33.636  25.081  26.286  1.00  0.00    -0.168 F 
ATOM     24  F   UNL A   1      35.248  25.122  24.839  1.00  0.00    -0.168 F 
ATOM     25  F   UNL A   1      34.279  26.964  25.391  1.00  0.00    -0.168 F 
ENDBRANCH   8  22
ENDBRANCH   5   8
ENDBRANCH   3   4
ENDBRANCH   2   3
ENDBRANCH   1   2
BRANCH   1  26
ATOM     26  C   UNL A   1      36.345  22.150  25.359  1.00  0.00     0.116 C 
BRANCH  26  27
ATOM     27  N   UNL A   1      37.322  21.078  25.476  1.00  0.00    -0.352 N 
ATOM     28  C   UNL A   1      38.639  21.153  25.863  1.00  0.00     0.251 C 
ATOM     29  H   UNL A   1      36.996  20.177  25.247  1.00  0.00     0.163 HD
ATOM     30  O   UNL A   1      39.363  20.165  25.781  1.00  0.00    -0.269 OA
BRANCH  28  31
ATOM     31  C   UNL A   1      39.184  22.437  26.352  1.00  0.00     0.039 A 
ATOM     32  C   UNL A   1      40.265  22.420  27.237  1.00  0.00     0.014 A 
ATOM     33  C   UNL A   1      38.643  23.651  25.919  1.00  0.00     0.014 A 
ATOM     34  C   UNL A   1      40.850  23.624  27.635  1.00  0.00     0.010 A 
ATOM     35  C   UNL A   1      39.261  24.847  26.274  1.00  0.00     0.010 A 
ATOM     36  C   UNL A   1      40.373  24.845  27.132  1.00  0.00    -0.014 A 
BRANCH  36  37
ATOM     37  C   UNL A   1      41.041  26.128  27.466  1.00  0.00     0.031 A 
ATOM     38  C   UNL A   1      42.455  26.387  27.025  1.00  0.00     0.074 A 
ATOM     39  C   UNL A   1      40.407  27.023  28.250  1.00  0.00     0.049 A 
ATOM     40  N   UNL A   1      43.216  27.423  27.267  1.00  0.00    -0.248 NA
ATOM     41  C   UNL A   1      43.109  25.334  26.231  1.00  0.00     0.031 C 
ATOM     42  C   UNL A   1      39.065  26.850  28.813  1.00  0.00     0.029 A 
ATOM     43  N   UNL A   1      40.815  28.240  28.733  1.00  0.00    -0.354 N 
ATOM     44  C   UNL A   1      44.446  27.133  26.690  1.00  0.00     0.074 A 
ATOM     45  C   UNL A   1      44.340  25.813  26.108  1.00  0.00     0.031 C 
ATOM     46  C   UNL A   1      38.763  27.923  29.562  1.00  0.00     0.029 A 
ATOM     47  C   UNL A   1      39.890  28.850  29.549  1.00  0.00     0.049 A 
ATOM     48  H   UNL A   1      41.688  28.640  28.515  1.00  0.00     0.167 HD
ATOM     49  C   UNL A   1      45.554  27.909  26.622  1.00  0.00     0.034 A 
ATOM     50  C   UNL A   1      39.944  30.023  30.211  1.00  0.00     0.034 A 
ATOM     51  C   UNL A   1      45.639  29.245  27.147  1.00  0.00     0.049 A 
ATOM     52  C   UNL A   1      41.164  30.891  30.065  1.00  0.00     0.074 A 
ATOM     53  C   UNL A   1      46.681  30.148  27.035  1.00  0.00     0.029 A 
ATOM     54  N   UNL A   1      44.644  29.871  27.880  1.00  0.00    -0.354 N 
ATOM     55  N   UNL A   1      42.251  30.674  29.366  1.00  0.00    -0.248 NA
ATOM     56  C   UNL A   1      41.150  32.183  30.768  1.00  0.00     0.031 C 
ATOM     57  C   UNL A   1      46.318  31.319  27.709  1.00  0.00     0.029 A 
ATOM     58  C   UNL A   1      45.048  31.147  28.233  1.00  0.00     0.049 A 
ATOM     59  H   UNL A   1      43.777  29.467  28.116  1.00  0.00     0.167 HD
ATOM     60  C   UNL A   1      43.035  31.812  29.516  1.00  0.00     0.074 A 
ATOM     61  C   UNL A   1      42.289  32.726  30.356  1.00  0.00     0.031 C 
ATOM     62  C   UNL A   1      44.269  32.071  29.018  1.00  0.00     0.034 A 
BRANCH  49  63
ATOM     63  C   UNL A   1      46.748  27.357  25.890  1.00  0.00     0.023 A 
ATOM     64  C   UNL A   1      47.565  26.402  26.525  1.00  0.00     0.012 A 
ATOM     65  C   UNL A   1      47.026  27.733  24.561  1.00  0.00     0.148 A 
ATOM     66  C   UNL A   1      48.659  25.849  25.863  1.00  0.00     0.002 A 
ATOM     67  C   UNL A   1      48.097  27.149  23.893  1.00  0.00     0.091 A 
ATOM     68  F   UNL A   1      46.254  28.663  23.982  1.00  0.00    -0.205 F 
ATOM     69  C   UNL A   1      48.919  26.214  24.544  1.00  0.00     0.022 A 
BRANCH  67  70
ATOM     70  S   UNL A   1      48.467  27.506  22.172  1.00  0.00     0.127 S 
ATOM     71  O   UNL A   1      49.651  28.355  22.295  1.00  0.00    -0.237 OA
ATOM     72  O   UNL A   1      48.727  26.174  21.626  1.00  0.00    -0.237 OA
ATOM     73  O   UNL A   1      47.278  28.156  21.638  1.00  0.00    -0.744 OA
ENDBRANCH  67  70
ENDBRANCH  49  63
BRANCH  50  74
ATOM     74  C   UNL A   1      38.767  30.483  30.999  1.00  0.00     0.023 A 
ATOM     75  C   UNL A   1      38.740  30.254  32.389  1.00  0.00     0.012 A 
ATOM     76  C   UNL A   1      37.699  31.173  30.396  1.00  0.00     0.148 A 
ATOM     77  C   UNL A   1      37.659  30.681  33.160  1.00  0.00     0.002 A 
ATOM     78  C   UNL A   1      36.649  31.642  31.178  1.00  0.00     0.091 A 
ATOM     79  F   UNL A   1      37.733  31.367  29.070  1.00  0.00    -0.205 F 
ATOM     80  C   UNL A   1      36.619  31.384  32.558  1.00  0.00     0.022 A 
BRANCH  78  81
ATOM     81  S   UNL A   1      35.341  32.671  30.500  1.00  0.00     0.127 S 
ATOM     82  O   UNL A   1      36.079  33.862  30.090  1.00  0.00    -0.237 OA
ATOM     83  O   UNL A   1      34.840  31.846  29.400  1.00  0.00    -0.237 OA
ATOM     84  O   UNL A   1      34.390  32.849  31.589  1.00  0.00    -0.744 OA
ENDBRANCH  78  81
ENDBRANCH  50  74
BRANCH  62  85
ATOM     85  C   UNL A   1      44.889  33.402  29.341  1.00  0.00     0.023 A 
ATOM     86  C   UNL A   1      45.756  33.514  30.446  1.00  0.00     0.012 A 
ATOM     87  C   UNL A   1      44.682  34.519  28.508  1.00  0.00     0.148 A 
ATOM     88  C   UNL A   1      46.388  34.723  30.730  1.00  0.00     0.002 A 
ATOM     89  C   UNL A   1      45.348  35.710  28.774  1.00  0.00     0.091 A 
ATOM     90  F   UNL A   1      43.836  34.399  27.474  1.00  0.00    -0.205 F 
ATOM     91  C   UNL A   1      46.195  35.816  29.889  1.00  0.00     0.022 A 
BRANCH  89  92
ATOM     92  S   UNL A   1      45.225  37.135  27.687  1.00  0.00     0.127 S 
ATOM     93  O   UNL A   1      43.776  37.283  27.553  1.00  0.00    -0.237 OA
ATOM     94  O   UNL A   1      45.874  38.188  28.471  1.00  0.00    -0.237 OA
ATOM     95  O   UNL A   1      45.937  36.769  26.471  1.00  0.00    -0.744 OA
ENDBRANCH  89  92
ENDBRANCH  62  85
ENDBRANCH  36  37
ENDBRANCH  28  31
ENDBRANCH  26  27
ENDBRANCH   1  26
TORSDOF 17
ENDMDL
MODEL 3
REMARK VINA RESULT:     -11.4      0.506      7.765
REMARK SMILES C[C@@](NC(=O)c1ccc[nH]c1=O)(C(=O)NCCCCNC(=O)c1ccc(-c2c3nc(c(-c4cccc(S(=O)(=O)[O-])c4F)c4ccc([nH]4)c(-c4cccc(S(=O)(=O)[O-])c4F)c4nc(c(-c5cccc(S(=O)(=O)[O-])c5F)c5ccc2[nH]5)C=C4)C=C3)cc1)C(F)(F)F
REMARK SMILES IDX 18 1 17 2 16 3 15 4 13 5 14 6 2 8 1 9 3 10 4 11 5 13 6 14
REMARK SMILES IDX 7 15 11 16 8 17 10 18 12 19 9 20 86 22 87 23 88 24 89 25
REMARK SMILES IDX 19 26 20 27 21 28 22 30 23 31 24 32 85 33 25 34 84 35 26 36
REMARK SMILES IDX 27 37 28 38 78 39 29 40 83 41 77 42 79 43 30 44 82 45 76 46
REMARK SMILES IDX 75 47 31 49 63 50 43 51 62 52 44 53 47 54 61 55 80 56 45 57
REMARK SMILES IDX 46 58 60 60 81 61 48 62 32 63 33 64 41 65 34 66 36 67 42 68
REMARK SMILES IDX 35 69 37 70 38 71 39 72 40 73 64 74 65 75 73 76 66 77 68 78
REMARK SMILES IDX 74 79 67 80 69 81 70 82 71 83 72 84 49 85 50 86 58 87 51 88
REMARK SMILES IDX 53 89 59 90 52 91 54 92 55 93 56 94 57 95
REMARK H PARENT 15 7 3 12 10 21 20 29 79 48 47 59
REMARK Flexibility Score: inf
ROOT
ATOM      1  C   UNL A   1      34.918  21.599  25.827  1.00  0.00     0.023 C 
ENDROOT
BRANCH   1   2
ATOM      2  C   UNL A   1      33.974  21.314  24.653  1.00  0.00     0.023 C 
BRANCH   2   3
ATOM      3  C   UNL A   1      32.991  22.440  24.346  1.00  0.00     0.116 C 
BRANCH   3   4
ATOM      4  N   UNL A   1      33.351  23.157  23.132  1.00  0.00    -0.354 N 
ATOM      5  C   UNL A   1      33.403  24.497  22.845  1.00  0.00     0.254 C 
ATOM      6  O   UNL A   1      33.653  24.789  21.674  1.00  0.00    -0.272 OA
ATOM      7  H   UNL A   1      33.603  22.574  22.379  1.00  0.00     0.163 HD
BRANCH   5   8
ATOM      8  C   UNL A   1      33.033  25.559  23.893  1.00  0.00     0.212 C 
ATOM      9  C   UNL A   1      33.316  26.939  23.232  1.00  0.00     0.056 C 
BRANCH   8  10
ATOM     10  N   UNL A   1      31.583  25.521  24.298  1.00  0.00    -0.330 N 
ATOM     11  C   UNL A   1      30.676  26.518  24.550  1.00  0.00     0.257 C 
ATOM     12  H   UNL A   1      31.219  24.612  24.400  1.00  0.00     0.165 HD
ATOM     13  O   UNL A   1      29.483  26.232  24.433  1.00  0.00    -0.269 OA
BRANCH  11  14
ATOM     14  C   UNL A   1      31.075  27.779  25.219  1.00  0.00     0.104 A 
ATOM     15  C   UNL A   1      31.411  27.692  26.523  1.00  0.00     0.021 A 
ATOM     16  C   UNL A   1      31.076  29.125  24.591  1.00  0.00     0.260 A 
ATOM     17  C   UNL A   1      31.919  28.835  27.250  1.00  0.00     0.019 A 
ATOM     18  N   UNL A   1      31.647  30.142  25.325  1.00  0.00    -0.328 N 
ATOM     19  O   UNL A   1      30.591  29.338  23.489  1.00  0.00    -0.269 OA
ATOM     20  C   UNL A   1      32.056  30.010  26.625  1.00  0.00     0.086 A 
ATOM     21  H   UNL A   1      31.769  31.015  24.888  1.00  0.00     0.169 HD
ENDBRANCH  11  14
ENDBRANCH   8  10
BRANCH   8  22
ATOM     22  C   UNL A   1      34.003  25.516  25.105  1.00  0.00     0.420 C 
ATOM     23  F   UNL A   1      35.189  24.934  24.812  1.00  0.00    -0.168 F 
ATOM     24  F   UNL A   1      34.308  26.804  25.460  1.00  0.00    -0.168 F 
ATOM     25  F   UNL A   1      33.517  24.948  26.212  1.00  0.00    -0.168 F 
ENDBRANCH   8  22
ENDBRANCH   5   8
ENDBRANCH   3   4
ENDBRANCH   2   3
ENDBRANCH   1   2
BRANCH   1  26
ATOM     26  C   UNL A   1      36.340  22.010  25.446  1.00  0.00     0.116 C 
BRANCH  26  27
ATOM     27  N   UNL A   1      37.284  20.902  25.483  1.00  0.00    -0.352 N 
ATOM     28  C   UNL A   1      38.611  20.916  25.839  1.00  0.00     0.251 C 
ATOM     29  H   UNL A   1      36.923  20.025  25.216  1.00  0.00     0.163 HD
ATOM     30  O   UNL A   1      39.300  19.910  25.687  1.00  0.00    -0.269 OA
BRANCH  28  31
ATOM     31  C   UNL A   1      39.210  22.154  26.380  1.00  0.00     0.039 A 
ATOM     32  C   UNL A   1      40.359  22.061  27.168  1.00  0.00     0.014 A 
ATOM     33  C   UNL A   1      38.650  23.401  26.088  1.00  0.00     0.014 A 
ATOM     34  C   UNL A   1      40.990  23.227  27.609  1.00  0.00     0.010 A 
ATOM     35  C   UNL A   1      39.310  24.562  26.483  1.00  0.00     0.010 A 
ATOM     36  C   UNL A   1      40.488  24.486  27.243  1.00  0.00    -0.014 A 
BRANCH  36  37
ATOM     37  C   UNL A   1      41.196  25.736  27.620  1.00  0.00     0.031 A 
ATOM     38  C   UNL A   1      40.474  26.825  28.365  1.00  0.00     0.074 A 
ATOM     39  C   UNL A   1      42.464  25.931  27.206  1.00  0.00     0.049 A 
ATOM     40  N   UNL A   1      40.913  28.001  28.731  1.00  0.00    -0.248 NA
ATOM     41  C   UNL A   1      39.069  26.570  28.721  1.00  0.00     0.031 C 
ATOM     42  C   UNL A   1      43.245  24.986  26.403  1.00  0.00     0.029 A 
ATOM     43  N   UNL A   1      43.310  26.998  27.378  1.00  0.00    -0.354 N 
ATOM     44  C   UNL A   1      39.833  28.640  29.326  1.00  0.00     0.074 A 
ATOM     45  C   UNL A   1      38.710  27.732  29.249  1.00  0.00     0.031 C 
ATOM     46  C   UNL A   1      44.454  25.516  26.155  1.00  0.00     0.029 A 
ATOM     47  C   UNL A   1      44.530  26.841  26.762  1.00  0.00     0.049 A 
ATOM     48  H   UNL A   1      43.066  27.800  27.894  1.00  0.00     0.167 HD
ATOM     49  C   UNL A   1      39.788  29.860  29.913  1.00  0.00     0.034 A 
ATOM     50  C   UNL A   1      45.591  27.670  26.695  1.00  0.00     0.034 A 
ATOM     51  C   UNL A   1      40.921  30.736  30.044  1.00  0.00     0.049 A 
ATOM     52  C   UNL A   1      45.533  28.992  27.411  1.00  0.00     0.074 A 
ATOM     53  C   UNL A   1      41.000  31.944  30.714  1.00  0.00     0.029 A 
ATOM     54  N   UNL A   1      42.171  30.499  29.497  1.00  0.00    -0.354 N 
ATOM     55  N   UNL A   1      44.557  29.503  28.121  1.00  0.00    -0.248 NA
ATOM     56  C   UNL A   1      46.735  29.836  27.348  1.00  0.00     0.031 C 
ATOM     57  C   UNL A   1      42.299  32.441  30.565  1.00  0.00     0.029 A 
ATOM     58  C   UNL A   1      43.029  31.540  29.809  1.00  0.00     0.049 A 
ATOM     59  H   UNL A   1      42.413  29.707  28.965  1.00  0.00     0.167 HD
ATOM     60  C   UNL A   1      45.037  30.709  28.618  1.00  0.00     0.074 A 
ATOM     61  C   UNL A   1      46.399  30.844  28.144  1.00  0.00     0.031 C 
ATOM     62  C   UNL A   1      44.402  31.631  29.382  1.00  0.00     0.034 A 
BRANCH  49  63
ATOM     63  C   UNL A   1      38.483  30.291  30.526  1.00  0.00     0.023 A 
ATOM     64  C   UNL A   1      38.202  29.946  31.863  1.00  0.00     0.012 A 
ATOM     65  C   UNL A   1      37.565  31.082  29.807  1.00  0.00     0.148 A 
ATOM     66  C   UNL A   1      37.016  30.356  32.469  1.00  0.00     0.002 A 
ATOM     67  C   UNL A   1      36.402  31.520  30.431  1.00  0.00     0.091 A 
ATOM     68  F   UNL A   1      37.837  31.378  28.529  1.00  0.00    -0.205 F 
ATOM     69  C   UNL A   1      36.121  31.151  31.757  1.00  0.00     0.022 A 
BRANCH  67  70
ATOM     70  S   UNL A   1      35.223  32.604  29.615  1.00  0.00     0.127 S 
ATOM     71  O   UNL A   1      34.699  31.732  28.566  1.00  0.00    -0.237 OA
ATOM     72  O   UNL A   1      34.276  32.899  30.691  1.00  0.00    -0.237 OA
ATOM     73  O   UNL A   1      35.993  33.751  29.157  1.00  0.00    -0.744 OA
ENDBRANCH  67  70
ENDBRANCH  49  63
BRANCH  50  74
ATOM     74  C   UNL A   1      46.831  27.231  25.998  1.00  0.00     0.023 A 
ATOM     75  C   UNL A   1      46.962  27.474  24.615  1.00  0.00     0.012 A 
ATOM     76  C   UNL A   1      47.889  26.614  26.690  1.00  0.00     0.148 A 
ATOM     77  C   UNL A   1      48.114  27.087  23.931  1.00  0.00     0.002 A 
ATOM     78  C   UNL A   1      49.056  26.278  26.011  1.00  0.00     0.091 A 
ATOM     79  F   UNL A   1      47.740  26.375  28.000  1.00  0.00    -0.205 F 
ATOM     80  C   UNL A   1      49.165  26.499  24.629  1.00  0.00     0.022 A 
BRANCH  78  81
ATOM     81  S   UNL A   1      50.504  25.641  26.865  1.00  0.00     0.127 S 
ATOM     82  O   UNL A   1      51.428  25.411  25.758  1.00  0.00    -0.237 OA
ATOM     83  O   UNL A   1      50.858  26.757  27.743  1.00  0.00    -0.237 OA
ATOM     84  O   UNL A   1      50.041  24.454  27.571  1.00  0.00    -0.744 OA
ENDBRANCH  78  81
ENDBRANCH  50  74
BRANCH  62  85
ATOM     85  C   UNL A   1      45.172  32.860  29.781  1.00  0.00     0.023 A 
ATOM     86  C   UNL A   1      45.928  32.851  30.969  1.00  0.00     0.012 A 
ATOM     87  C   UNL A   1      45.216  33.991  28.942  1.00  0.00     0.148 A 
ATOM     88  C   UNL A   1      46.696  33.956  31.329  1.00  0.00     0.002 A 
ATOM     89  C   UNL A   1      46.017  35.074  29.286  1.00  0.00     0.091 A 
ATOM     90  F   UNL A   1      44.472  33.990  27.826  1.00  0.00    -0.205 F 
ATOM     91  C   UNL A   1      46.752  35.062  30.483  1.00  0.00     0.022 A 
BRANCH  89  92
ATOM     92  S   UNL A   1      46.213  36.497  28.207  1.00  0.00     0.127 S 
ATOM     93  O   UNL A   1      44.861  37.051  28.195  1.00  0.00    -0.237 OA
ATOM     94  O   UNL A   1      47.198  37.307  28.927  1.00  0.00    -0.237 OA
ATOM     95  O   UNL A   1      46.689  35.967  26.936  1.00  0.00    -0.744 OA
ENDBRANCH  89  92
ENDBRANCH  62  85
ENDBRANCH  36  37
ENDBRANCH  28  31
ENDBRANCH  26  27
ENDBRANCH   1  26
TORSDOF 17
ENDMDL
