MODEL 1
REMARK VINA RESULT:     -13.2      0.000      0.000
REMARK SMILES [NH3+][C@@]1(C(=O)NCCCCNC(=O)c2ccc(-c3c4nc(c(-c5cccc(S(=O)(=O)[O-])c5F)c5ccc([nH]5)c(-c5cccc(S(=O)(=O)[O-])c5F)c5nc(c(-c6cccc(S(=O)(=O)[O-])c6F)c6ccc3[nH]6)C=C5)C=C4)cc2)CC[N@H+](Cc2ccc(OCC(=O)N3CCCCC3)cc2)C1
REMARK SMILES IDX 6 1 5 2 3 3 4 4 2 6 76 7 96 8 77 9 78 10 1 12 79 16 80 17
REMARK SMILES IDX 81 18 95 19 82 20 94 21 83 22 84 23 85 24 86 25 87 26 88 27
REMARK SMILES IDX 89 28 93 29 90 30 92 31 91 32 7 33 8 34 9 35 10 36 11 37
REMARK SMILES IDX 12 39 13 40 14 41 75 42 15 43 74 44 16 45 17 46 18 47 68 48
REMARK SMILES IDX 19 49 73 50 67 51 69 52 20 53 72 54 66 55 65 56 21 58 53 59
REMARK SMILES IDX 33 60 52 61 34 62 37 63 51 64 70 65 35 66 36 67 50 69 71 70
REMARK SMILES IDX 38 71 22 72 23 73 31 74 24 75 26 76 32 77 25 78 27 79 28 80
REMARK SMILES IDX 29 81 30 82 54 83 55 84 63 85 56 86 58 87 64 88 57 89 59 90
REMARK SMILES IDX 60 91 61 92 62 93 39 94 40 95 48 96 41 97 43 98 49 99 42 100
REMARK SMILES IDX 44 101 45 102 46 103 47 104
REMARK H PARENT 5 5 78 11 1 13 1 14 1 15 10 38 69 57 37 68
REMARK Flexibility Score: inf
ROOT
ATOM      1  C   UNL A   1      34.126  28.241  27.081  1.00  0.00     0.116 C 
ENDROOT
BRANCH   1   2
ATOM      2  N   UNL A   1      33.890  27.255  25.883  1.00  0.00    -0.350 N 
ATOM      3  C   UNL A   1      33.625  27.463  24.566  1.00  0.00     0.287 C 
ATOM      4  O   UNL A   1      34.017  26.560  23.805  1.00  0.00    -0.268 OA
ATOM      5  H   UNL A   1      33.946  26.304  26.133  1.00  0.00     0.163 HD
BRANCH   3   6
ATOM      6  C   UNL A   1      32.906  28.728  23.950  1.00  0.00     0.228 C 
ATOM      7  C   UNL A   1      32.211  29.612  24.984  1.00  0.00     0.146 C 
ATOM      8  C   UNL A   1      31.827  28.430  22.898  1.00  0.00     0.342 C 
ATOM      9  C   UNL A   1      30.720  29.598  24.647  1.00  0.00     0.270 C 
ATOM     10  N   UNL A   1      30.513  28.795  23.446  1.00  0.00    -0.325 N 
ATOM     11  H   UNL A   1      30.026  29.369  22.757  1.00  0.00     0.348 HD
BRANCH   6  12
ATOM     12  N   UNL A   1      33.995  29.501  23.260  1.00  0.00    -0.340 N 
ATOM     13  H   UNL A   1      33.579  30.157  22.598  1.00  0.00     0.345 HD
ATOM     14  H   UNL A   1      34.608  28.856  22.762  1.00  0.00     0.345 HD
ATOM     15  H   UNL A   1      34.537  30.018  23.953  1.00  0.00     0.345 HD
ENDBRANCH   6  12
BRANCH  10  16
ATOM     16  C   UNL A   1      29.553  27.699  23.572  1.00  0.00     0.299 C 
BRANCH  16  17
ATOM     17  C   UNL A   1      30.176  26.390  23.965  1.00  0.00     0.006 A 
ATOM     18  C   UNL A   1      30.133  25.917  25.710  1.00  0.00     0.013 A 
ATOM     19  C   UNL A   1      30.660  25.183  22.690  1.00  0.00     0.013 A 
ATOM     20  C   UNL A   1      30.618  24.249  26.187  1.00  0.00     0.047 A 
ATOM     21  C   UNL A   1      31.126  23.517  23.186  1.00  0.00     0.047 A 
ATOM     22  C   UNL A   1      31.051  23.042  24.929  1.00  0.00     0.120 A 
BRANCH  22  23
ATOM     23  O   UNL A   1      31.316  21.804  25.428  1.00  0.00    -0.484 OA
BRANCH  23  24
ATOM     24  C   UNL A   1      32.554  21.230  25.069  1.00  0.00     0.329 C 
BRANCH  24  25
ATOM     25  C   UNL A   1      32.956  19.899  25.730  1.00  0.00     0.260 C 
ATOM     26  O   UNL A   1      33.428  19.919  26.872  1.00  0.00    -0.271 OA
ATOM     27  N   UNL A   1      32.710  18.707  25.057  1.00  0.00    -0.340 N 
ATOM     28  C   UNL A   1      32.773  17.451  25.796  1.00  0.00     0.119 C 
ATOM     29  C   UNL A   1      32.388  18.559  23.636  1.00  0.00     0.119 C 
ATOM     30  C   UNL A   1      33.827  16.530  25.199  1.00  0.00     0.022 C 
ATOM     31  C   UNL A   1      33.367  17.597  22.949  1.00  0.00     0.022 C 
ATOM     32  C   UNL A   1      33.556  16.286  23.715  1.00  0.00     0.004 C 
ENDBRANCH  24  25
ENDBRANCH  23  24
ENDBRANCH  22  23
ENDBRANCH  16  17
ENDBRANCH  10  16
ENDBRANCH   3   6
ENDBRANCH   1   2
BRANCH   1  33
ATOM     33  C   UNL A   1      35.135  30.178  27.264  1.00  0.00     0.023 C 
BRANCH  33  34
ATOM     34  C   UNL A   1      34.674  31.814  27.481  1.00  0.00     0.023 C 
BRANCH  34  35
ATOM     35  C   UNL A   1      33.301  32.107  28.086  1.00  0.00     0.116 C 
BRANCH  35  36
ATOM     36  N   UNL A   1      32.824  33.479  27.906  1.00  0.00    -0.352 N 
ATOM     37  C   UNL A   1      33.281  34.588  28.583  1.00  0.00     0.251 C 
ATOM     38  H   UNL A   1      32.113  33.622  27.241  1.00  0.00     0.163 HD
ATOM     39  O   UNL A   1      32.805  35.704  28.423  1.00  0.00    -0.269 OA
BRANCH  37  40
ATOM     40  C   UNL A   1      34.365  34.349  29.551  1.00  0.00     0.039 A 
ATOM     41  C   UNL A   1      34.086  33.621  30.709  1.00  0.00     0.014 A 
ATOM     42  C   UNL A   1      35.675  34.615  29.151  1.00  0.00     0.014 A 
ATOM     43  C   UNL A   1      35.145  33.083  31.439  1.00  0.00     0.010 A 
ATOM     44  C   UNL A   1      36.719  34.013  29.838  1.00  0.00     0.010 A 
ATOM     45  C   UNL A   1      36.464  33.238  30.982  1.00  0.00    -0.014 A 
BRANCH  45  46
ATOM     46  C   UNL A   1      37.607  32.612  31.690  1.00  0.00     0.031 A 
ATOM     47  C   UNL A   1      38.340  31.478  31.030  1.00  0.00     0.074 A 
ATOM     48  C   UNL A   1      37.913  32.981  32.950  1.00  0.00     0.049 A 
ATOM     49  N   UNL A   1      39.296  30.727  31.506  1.00  0.00    -0.248 NA
ATOM     50  C   UNL A   1      37.908  31.113  29.669  1.00  0.00     0.031 C 
ATOM     51  C   UNL A   1      37.214  34.003  33.733  1.00  0.00     0.029 A 
ATOM     52  N   UNL A   1      38.881  32.516  33.806  1.00  0.00    -0.354 N 
ATOM     53  C   UNL A   1      39.541  29.771  30.528  1.00  0.00     0.074 A 
ATOM     54  C   UNL A   1      38.606  30.011  29.452  1.00  0.00     0.031 C 
ATOM     55  C   UNL A   1      37.782  34.093  34.948  1.00  0.00     0.029 A 
ATOM     56  C   UNL A   1      38.872  33.126  35.039  1.00  0.00     0.049 A 
ATOM     57  H   UNL A   1      39.522  31.810  33.560  1.00  0.00     0.167 HD
ATOM     58  C   UNL A   1      40.488  28.806  30.507  1.00  0.00     0.034 A 
ATOM     59  C   UNL A   1      39.663  32.932  36.114  1.00  0.00     0.034 A 
ATOM     60  C   UNL A   1      41.470  28.630  31.538  1.00  0.00     0.049 A 
ATOM     61  C   UNL A   1      40.776  31.919  36.025  1.00  0.00     0.074 A 
ATOM     62  C   UNL A   1      42.538  27.752  31.567  1.00  0.00     0.029 A 
ATOM     63  N   UNL A   1      41.515  29.361  32.714  1.00  0.00    -0.354 N 
ATOM     64  N   UNL A   1      41.098  31.134  35.025  1.00  0.00    -0.248 NA
ATOM     65  C   UNL A   1      41.661  31.793  37.193  1.00  0.00     0.031 C 
ATOM     66  C   UNL A   1      43.233  27.956  32.764  1.00  0.00     0.029 A 
ATOM     67  C   UNL A   1      42.598  28.963  33.474  1.00  0.00     0.049 A 
ATOM     68  H   UNL A   1      40.870  30.059  32.970  1.00  0.00     0.167 HD
ATOM     69  C   UNL A   1      42.242  30.455  35.425  1.00  0.00     0.074 A 
ATOM     70  C   UNL A   1      42.567  30.928  36.754  1.00  0.00     0.031 C 
ATOM     71  C   UNL A   1      42.949  29.508  34.760  1.00  0.00     0.034 A 
BRANCH  58  72
ATOM     72  C   UNL A   1      40.549  27.927  29.289  1.00  0.00     0.023 A 
ATOM     73  C   UNL A   1      39.692  26.811  29.200  1.00  0.00     0.012 A 
ATOM     74  C   UNL A   1      41.429  28.211  28.227  1.00  0.00     0.148 A 
ATOM     75  C   UNL A   1      39.739  25.965  28.094  1.00  0.00     0.002 A 
ATOM     76  C   UNL A   1      41.440  27.387  27.108  1.00  0.00     0.091 A 
ATOM     77  F   UNL A   1      42.255  29.261  28.341  1.00  0.00    -0.205 F 
ATOM     78  C   UNL A   1      40.606  26.258  27.046  1.00  0.00     0.022 A 
BRANCH  76  79
ATOM     79  S   UNL A   1      42.468  27.725  25.674  1.00  0.00     0.127 S 
ATOM     80  O   UNL A   1      43.798  27.798  26.275  1.00  0.00    -0.237 OA
ATOM     81  O   UNL A   1      42.238  26.542  24.843  1.00  0.00    -0.237 OA
ATOM     82  O   UNL A   1      41.962  28.967  25.108  1.00  0.00    -0.744 OA
ENDBRANCH  76  79
ENDBRANCH  58  72
BRANCH  59  83
ATOM     83  C   UNL A   1      39.500  33.783  37.328  1.00  0.00     0.023 A 
ATOM     84  C   UNL A   1      40.044  35.083  37.328  1.00  0.00     0.012 A 
ATOM     85  C   UNL A   1      38.804  33.331  38.465  1.00  0.00     0.148 A 
ATOM     86  C   UNL A   1      39.926  35.906  38.449  1.00  0.00     0.002 A 
ATOM     87  C   UNL A   1      38.649  34.174  39.562  1.00  0.00     0.091 A 
ATOM     88  F   UNL A   1      38.307  32.087  38.455  1.00  0.00    -0.205 F 
ATOM     89  C   UNL A   1      39.221  35.456  39.561  1.00  0.00     0.022 A 
BRANCH  87  90
ATOM     90  S   UNL A   1      37.656  33.718  40.988  1.00  0.00     0.127 S 
ATOM     91  O   UNL A   1      38.535  32.775  41.676  1.00  0.00    -0.237 OA
ATOM     92  O   UNL A   1      37.483  35.005  41.665  1.00  0.00    -0.237 OA
ATOM     93  O   UNL A   1      36.425  33.162  40.441  1.00  0.00    -0.744 OA
ENDBRANCH  87  90
ENDBRANCH  59  83
BRANCH  71  94
ATOM     94  C   UNL A   1      44.175  28.945  35.425  1.00  0.00     0.023 A 
ATOM     95  C   UNL A   1      45.418  29.579  35.241  1.00  0.00     0.012 A 
ATOM     96  C   UNL A   1      44.069  27.870  36.330  1.00  0.00     0.148 A 
ATOM     97  C   UNL A   1      46.544  29.143  35.937  1.00  0.00     0.002 A 
ATOM     98  C   UNL A   1      45.186  27.468  37.052  1.00  0.00     0.091 A 
ATOM     99  F   UNL A   1      42.879  27.270  36.475  1.00  0.00    -0.205 F 
ATOM    100  C   UNL A   1      46.425  28.099  36.852  1.00  0.00     0.022 A 
BRANCH  98 101
ATOM    101  S   UNL A   1      45.102  26.199  38.322  1.00  0.00     0.127 S 
ATOM    102  O   UNL A   1      44.203  26.813  39.297  1.00  0.00    -0.237 OA
ATOM    103  O   UNL A   1      44.530  25.066  37.594  1.00  0.00    -0.237 OA
ATOM    104  O   UNL A   1      46.471  25.995  38.774  1.00  0.00    -0.744 OA
ENDBRANCH  98 101
ENDBRANCH  71  94
ENDBRANCH  45  46
ENDBRANCH  37  40
ENDBRANCH  35  36
ENDBRANCH  34  35
ENDBRANCH  33  34
ENDBRANCH   1  33
TORSDOF 20
ENDMDL
MODEL 2
REMARK VINA RESULT:     -13.0      5.727     12.267
REMARK SMILES [NH3+][C@@]1(C(=O)NCCCCNC(=O)c2ccc(-c3c4nc(c(-c5cccc(S(=O)(=O)[O-])c5F)c5ccc([nH]5)c(-c5cccc(S(=O)(=O)[O-])c5F)c5nc(c(-c6cccc(S(=O)(=O)[O-])c6F)c6ccc3[nH]6)C=C5)C=C4)cc2)CC[N@H+](Cc2ccc(OCC(=O)N3CCCCC3)cc2)C1
REMARK SMILES IDX 6 1 5 2 3 3 4 4 2 6 76 7 96 8 77 9 78 10 1 12 79 16 80 17
REMARK SMILES IDX 81 18 95 19 82 20 94 21 83 22 84 23 85 24 86 25 87 26 88 27
REMARK SMILES IDX 89 28 93 29 90 30 92 31 91 32 7 33 8 34 9 35 10 36 11 37
REMARK SMILES IDX 12 39 13 40 14 41 75 42 15 43 74 44 16 45 17 46 18 47 68 48
REMARK SMILES IDX 19 49 73 50 67 51 69 52 20 53 72 54 66 55 65 56 21 58 53 59
REMARK SMILES IDX 33 60 52 61 34 62 37 63 51 64 70 65 35 66 36 67 50 69 71 70
REMARK SMILES IDX 38 71 22 72 23 73 31 74 24 75 26 76 32 77 25 78 27 79 28 80
REMARK SMILES IDX 29 81 30 82 54 83 55 84 63 85 56 86 58 87 64 88 57 89 59 90
REMARK SMILES IDX 60 91 61 92 62 93 39 94 40 95 48 96 41 97 43 98 49 99 42 100
REMARK SMILES IDX 44 101 45 102 46 103 47 104
REMARK H PARENT 5 5 78 11 1 13 1 14 1 15 10 38 69 57 37 68
REMARK Flexibility Score: inf
ROOT
ATOM      1  C   UNL A   1      35.005  22.051  26.580  1.00  0.00     0.116 C 
ENDROOT
BRANCH   1   2
ATOM      2  N   UNL A   1      34.246  23.418  26.434  1.00  0.00    -0.350 N 
ATOM      3  C   UNL A   1      32.975  23.723  26.061  1.00  0.00     0.287 C 
ATOM      4  O   UNL A   1      32.527  24.777  26.546  1.00  0.00    -0.268 OA
ATOM      5  H   UNL A   1      34.796  24.204  26.656  1.00  0.00     0.163 HD
BRANCH   3   6
ATOM      6  C   UNL A   1      32.050  22.860  25.114  1.00  0.00     0.228 C 
ATOM      7  C   UNL A   1      32.817  22.042  24.075  1.00  0.00     0.146 C 
ATOM      8  C   UNL A   1      31.010  23.649  24.305  1.00  0.00     0.342 C 
ATOM      9  C   UNL A   1      32.382  22.553  22.702  1.00  0.00     0.270 C 
ATOM     10  N   UNL A   1      31.369  23.589  22.881  1.00  0.00    -0.325 N 
ATOM     11  H   UNL A   1      30.539  23.320  22.352  1.00  0.00     0.348 HD
BRANCH   6  12
ATOM     12  N   UNL A   1      31.293  21.943  26.034  1.00  0.00    -0.340 N 
ATOM     13  H   UNL A   1      30.291  22.085  25.905  1.00  0.00     0.345 HD
ATOM     14  H   UNL A   1      31.544  22.147  27.001  1.00  0.00     0.345 HD
ATOM     15  H   UNL A   1      31.529  20.974  25.819  1.00  0.00     0.345 HD
ENDBRANCH   6  12
BRANCH  10  16
ATOM     16  C   UNL A   1      31.657  24.874  22.245  1.00  0.00     0.299 C 
BRANCH  16  17
ATOM     17  C   UNL A   1      31.900  25.991  23.220  1.00  0.00     0.006 A 
ATOM     18  C   UNL A   1      33.601  26.308  23.744  1.00  0.00     0.013 A 
ATOM     19  C   UNL A   1      30.576  27.182  23.602  1.00  0.00     0.013 A 
ATOM     20  C   UNL A   1      33.973  27.795  24.690  1.00  0.00     0.047 A 
ATOM     21  C   UNL A   1      30.972  28.669  24.534  1.00  0.00     0.047 A 
ATOM     22  C   UNL A   1      32.680  28.996  25.027  1.00  0.00     0.120 A 
BRANCH  22  23
ATOM     23  O   UNL A   1      33.123  30.106  25.679  1.00  0.00    -0.484 OA
BRANCH  23  24
ATOM     24  C   UNL A   1      32.354  30.540  26.779  1.00  0.00     0.329 C 
BRANCH  24  25
ATOM     25  C   UNL A   1      32.429  32.026  27.176  1.00  0.00     0.260 C 
ATOM     26  O   UNL A   1      31.526  32.787  26.811  1.00  0.00    -0.271 OA
ATOM     27  N   UNL A   1      33.468  32.458  27.994  1.00  0.00    -0.340 N 
ATOM     28  C   UNL A   1      33.365  33.762  28.639  1.00  0.00     0.119 C 
ATOM     29  C   UNL A   1      34.704  31.730  28.289  1.00  0.00     0.119 C 
ATOM     30  C   UNL A   1      34.518  34.662  28.217  1.00  0.00     0.022 C 
ATOM     31  C   UNL A   1      35.936  32.580  27.950  1.00  0.00     0.022 C 
ATOM     32  C   UNL A   1      35.861  33.998  28.519  1.00  0.00     0.004 C 
ENDBRANCH  24  25
ENDBRANCH  23  24
ENDBRANCH  22  23
ENDBRANCH  16  17
ENDBRANCH  10  16
ENDBRANCH   3   6
ENDBRANCH   1   2
BRANCH   1  33
ATOM     33  C   UNL A   1      36.757  21.187  25.588  1.00  0.00     0.023 C 
BRANCH  33  34
ATOM     34  C   UNL A   1      38.367  21.667  25.249  1.00  0.00     0.023 C 
BRANCH  34  35
ATOM     35  C   UNL A   1      39.467  21.263  26.231  1.00  0.00     0.116 C 
BRANCH  35  36
ATOM     36  N   UNL A   1      40.030  19.929  26.016  1.00  0.00    -0.352 N 
ATOM     37  C   UNL A   1      41.367  19.601  26.061  1.00  0.00     0.251 C 
ATOM     38  H   UNL A   1      39.397  19.202  25.822  1.00  0.00     0.163 HD
ATOM     39  O   UNL A   1      41.780  18.474  25.821  1.00  0.00    -0.269 OA
BRANCH  37  40
ATOM     40  C   UNL A   1      42.290  20.703  26.382  1.00  0.00     0.039 A 
ATOM     41  C   UNL A   1      42.911  21.388  25.336  1.00  0.00     0.014 A 
ATOM     42  C   UNL A   1      42.296  21.197  27.687  1.00  0.00     0.014 A 
ATOM     43  C   UNL A   1      43.485  22.633  25.591  1.00  0.00     0.010 A 
ATOM     44  C   UNL A   1      42.801  22.468  27.918  1.00  0.00     0.010 A 
ATOM     45  C   UNL A   1      43.393  23.199  26.873  1.00  0.00    -0.014 A 
BRANCH  45  46
ATOM     46  C   UNL A   1      43.921  24.555  27.160  1.00  0.00     0.031 A 
ATOM     47  C   UNL A   1      42.992  25.595  27.720  1.00  0.00     0.074 A 
ATOM     48  C   UNL A   1      45.185  24.879  26.823  1.00  0.00     0.049 A 
ATOM     49  N   UNL A   1      43.215  26.861  27.950  1.00  0.00    -0.248 NA
ATOM     50  C   UNL A   1      41.616  25.163  28.017  1.00  0.00     0.031 C 
ATOM     51  C   UNL A   1      46.154  23.983  26.186  1.00  0.00     0.029 A 
ATOM     52  N   UNL A   1      45.865  26.066  26.946  1.00  0.00    -0.354 N 
ATOM     53  C   UNL A   1      41.999  27.385  28.366  1.00  0.00     0.074 A 
ATOM     54  C   UNL A   1      41.031  26.312  28.317  1.00  0.00     0.031 C 
ATOM     55  C   UNL A   1      47.304  24.650  25.983  1.00  0.00     0.029 A 
ATOM     56  C   UNL A   1      47.151  26.022  26.458  1.00  0.00     0.049 A 
ATOM     57  H   UNL A   1      45.469  26.873  27.345  1.00  0.00     0.167 HD
ATOM     58  C   UNL A   1      41.718  28.637  28.793  1.00  0.00     0.034 A 
ATOM     59  C   UNL A   1      48.100  26.980  26.412  1.00  0.00     0.034 A 
ATOM     60  C   UNL A   1      42.701  29.674  28.925  1.00  0.00     0.049 A 
ATOM     61  C   UNL A   1      47.791  28.338  26.989  1.00  0.00     0.074 A 
ATOM     62  C   UNL A   1      42.546  30.945  29.446  1.00  0.00     0.029 A 
ATOM     63  N   UNL A   1      44.029  29.550  28.549  1.00  0.00    -0.354 N 
ATOM     64  N   UNL A   1      46.677  28.768  27.532  1.00  0.00    -0.248 NA
ATOM     65  C   UNL A   1      48.877  29.329  26.987  1.00  0.00     0.031 C 
ATOM     66  C   UNL A   1      43.786  31.591  29.389  1.00  0.00     0.029 A 
ATOM     67  C   UNL A   1      44.710  30.718  28.836  1.00  0.00     0.049 A 
ATOM     68  H   UNL A   1      44.428  28.749  28.139  1.00  0.00     0.167 HD
ATOM     69  C   UNL A   1      46.941  30.060  27.972  1.00  0.00     0.074 A 
ATOM     70  C   UNL A   1      48.324  30.340  27.645  1.00  0.00     0.031 C 
ATOM     71  C   UNL A   1      46.108  30.944  28.575  1.00  0.00     0.034 A 
BRANCH  58  72
ATOM     72  C   UNL A   1      40.305  28.918  29.226  1.00  0.00     0.023 A 
ATOM     73  C   UNL A   1      39.352  29.298  28.260  1.00  0.00     0.012 A 
ATOM     74  C   UNL A   1      39.914  28.785  30.571  1.00  0.00     0.148 A 
ATOM     75  C   UNL A   1      38.040  29.585  28.631  1.00  0.00     0.002 A 
ATOM     76  C   UNL A   1      38.594  29.032  30.928  1.00  0.00     0.091 A 
ATOM     77  F   UNL A   1      40.841  28.449  31.480  1.00  0.00    -0.205 F 
ATOM     78  C   UNL A   1      37.659  29.444  29.962  1.00  0.00     0.022 A 
BRANCH  76  79
ATOM     79  S   UNL A   1      37.991  28.804  32.604  1.00  0.00     0.127 S 
ATOM     80  O   UNL A   1      36.630  29.327  32.502  1.00  0.00    -0.237 OA
ATOM     81  O   UNL A   1      38.075  27.352  32.769  1.00  0.00    -0.237 OA
ATOM     82  O   UNL A   1      38.895  29.562  33.457  1.00  0.00    -0.744 OA
ENDBRANCH  76  79
ENDBRANCH  58  72
BRANCH  59  83
ATOM     83  C   UNL A   1      49.462  26.662  25.895  1.00  0.00     0.023 A 
ATOM     84  C   UNL A   1      50.345  25.922  26.707  1.00  0.00     0.012 A 
ATOM     85  C   UNL A   1      49.884  27.064  24.614  1.00  0.00     0.148 A 
ATOM     86  C   UNL A   1      51.633  25.615  26.266  1.00  0.00     0.002 A 
ATOM     87  C   UNL A   1      51.153  26.714  24.162  1.00  0.00     0.091 A 
ATOM     88  F   UNL A   1      49.038  27.780  23.860  1.00  0.00    -0.205 F 
ATOM     89  C   UNL A   1      52.034  26.003  24.991  1.00  0.00     0.022 A 
BRANCH  87  90
ATOM     90  S   UNL A   1      51.707  27.071  22.489  1.00  0.00     0.127 S 
ATOM     91  O   UNL A   1      50.541  26.681  21.699  1.00  0.00    -0.237 OA
ATOM     92  O   UNL A   1      51.956  28.512  22.550  1.00  0.00    -0.237 OA
ATOM     93  O   UNL A   1      52.905  26.265  22.299  1.00  0.00    -0.744 OA
ENDBRANCH  87  90
ENDBRANCH  59  83
BRANCH  71  94
ATOM     94  C   UNL A   1      46.665  32.284  28.970  1.00  0.00     0.023 A 
ATOM     95  C   UNL A   1      47.243  32.448  30.243  1.00  0.00     0.012 A 
ATOM     96  C   UNL A   1      46.730  33.336  28.035  1.00  0.00     0.148 A 
ATOM     97  C   UNL A   1      47.866  33.646  30.586  1.00  0.00     0.002 A 
ATOM     98  C   UNL A   1      47.390  34.512  28.369  1.00  0.00     0.091 A 
ATOM     99  F   UNL A   1      46.156  33.163  26.836  1.00  0.00    -0.205 F 
ATOM    100  C   UNL A   1      47.953  34.671  29.647  1.00  0.00     0.022 A 
BRANCH  98 101
ATOM    101  S   UNL A   1      47.635  35.844  27.189  1.00  0.00     0.127 S 
ATOM    102  O   UNL A   1      46.278  36.050  26.687  1.00  0.00    -0.237 OA
ATOM    103  O   UNL A   1      48.142  36.924  28.037  1.00  0.00    -0.237 OA
ATOM    104  O   UNL A   1      48.594  35.343  26.214  1.00  0.00    -0.744 OA
ENDBRANCH  98 101
ENDBRANCH  71  94
ENDBRANCH  45  46
ENDBRANCH  37  40
ENDBRANCH  35  36
ENDBRANCH  34  35
ENDBRANCH  33  34
ENDBRANCH   1  33
TORSDOF 20
ENDMDL
MODEL 3
REMARK VINA RESULT:     -12.9      2.988      8.764
REMARK SMILES [NH3+][C@@]1(C(=O)NCCCCNC(=O)c2ccc(-c3c4nc(c(-c5cccc(S(=O)(=O)[O-])c5F)c5ccc([nH]5)c(-c5cccc(S(=O)(=O)[O-])c5F)c5nc(c(-c6cccc(S(=O)(=O)[O-])c6F)c6ccc3[nH]6)C=C5)C=C4)cc2)CC[N@H+](Cc2ccc(OCC(=O)N3CCCCC3)cc2)C1
REMARK SMILES IDX 6 1 5 2 3 3 4 4 2 6 76 7 96 8 77 9 78 10 1 12 79 16 80 17
REMARK SMILES IDX 81 18 95 19 82 20 94 21 83 22 84 23 85 24 86 25 87 26 88 27
REMARK SMILES IDX 89 28 93 29 90 30 92 31 91 32 7 33 8 34 9 35 10 36 11 37
REMARK SMILES IDX 12 39 13 40 14 41 75 42 15 43 74 44 16 45 17 46 18 47 68 48
REMARK SMILES IDX 19 49 73 50 67 51 69 52 20 53 72 54 66 55 65 56 21 58 53 59
REMARK SMILES IDX 33 60 52 61 34 62 37 63 51 64 70 65 35 66 36 67 50 69 71 70
REMARK SMILES IDX 38 71 22 72 23 73 31 74 24 75 26 76 32 77 25 78 27 79 28 80
REMARK SMILES IDX 29 81 30 82 54 83 55 84 63 85 56 86 58 87 64 88 57 89 59 90
REMARK SMILES IDX 60 91 61 92 62 93 39 94 40 95 48 96 41 97 43 98 49 99 42 100
REMARK SMILES IDX 44 101 45 102 46 103 47 104
REMARK H PARENT 5 5 78 11 1 13 1 14 1 15 10 38 69 57 37 68
REMARK Flexibility Score: inf
ROOT
ATOM      1  C   UNL A   1      33.704  27.971  26.386  1.00  0.00     0.116 C 
ENDROOT
BRANCH   1   2
ATOM      2  N   UNL A   1      32.399  27.109  26.534  1.00  0.00    -0.350 N 
ATOM      3  C   UNL A   1      32.060  25.878  26.069  1.00  0.00     0.287 C 
ATOM      4  O   UNL A   1      31.231  25.266  26.767  1.00  0.00    -0.268 OA
ATOM      5  H   UNL A   1      31.693  27.544  27.064  1.00  0.00     0.163 HD
BRANCH   3   6
ATOM      6  C   UNL A   1      32.634  25.181  24.773  1.00  0.00     0.228 C 
ATOM      7  C   UNL A   1      32.074  23.782  24.521  1.00  0.00     0.146 C 
ATOM      8  C   UNL A   1      34.160  25.006  24.735  1.00  0.00     0.342 C 
ATOM      9  C   UNL A   1      33.255  22.814  24.592  1.00  0.00     0.270 C 
ATOM     10  N   UNL A   1      34.479  23.574  24.823  1.00  0.00    -0.325 N 
ATOM     11  H   UNL A   1      35.142  23.347  24.081  1.00  0.00     0.348 HD
BRANCH   6  12
ATOM     12  N   UNL A   1      32.266  26.095  23.638  1.00  0.00    -0.340 N 
ATOM     13  H   UNL A   1      32.405  27.065  23.924  1.00  0.00     0.345 HD
ATOM     14  H   UNL A   1      31.288  25.951  23.389  1.00  0.00     0.345 HD
ATOM     15  H   UNL A   1      32.856  25.891  22.831  1.00  0.00     0.345 HD
ENDBRANCH   6  12
BRANCH  10  16
ATOM     16  C   UNL A   1      35.267  23.171  25.986  1.00  0.00     0.299 C 
BRANCH  16  17
ATOM     17  C   UNL A   1      36.411  22.255  25.654  1.00  0.00     0.006 A 
ATOM     18  C   UNL A   1      38.079  22.769  26.127  1.00  0.00     0.013 A 
ATOM     19  C   UNL A   1      36.091  20.552  25.093  1.00  0.00     0.013 A 
ATOM     20  C   UNL A   1      39.438  21.595  25.997  1.00  0.00     0.047 A 
ATOM     21  C   UNL A   1      37.461  19.390  24.985  1.00  0.00     0.047 A 
ATOM     22  C   UNL A   1      39.120  19.901  25.490  1.00  0.00     0.120 A 
BRANCH  22  23
ATOM     23  O   UNL A   1      40.225  19.107  25.515  1.00  0.00    -0.484 OA
BRANCH  23  24
ATOM     24  C   UNL A   1      41.346  19.608  26.209  1.00  0.00     0.329 C 
BRANCH  24  25
ATOM     25  C   UNL A   1      42.746  19.195  25.718  1.00  0.00     0.260 C 
ATOM     26  O   UNL A   1      43.052  17.997  25.728  1.00  0.00    -0.271 OA
ATOM     27  N   UNL A   1      43.600  20.167  25.210  1.00  0.00    -0.340 N 
ATOM     28  C   UNL A   1      44.772  19.752  24.447  1.00  0.00     0.119 C 
ATOM     29  C   UNL A   1      43.459  21.617  25.363  1.00  0.00     0.119 C 
ATOM     30  C   UNL A   1      46.048  20.252  25.108  1.00  0.00     0.022 C 
ATOM     31  C   UNL A   1      44.726  22.231  25.973  1.00  0.00     0.022 C 
ATOM     32  C   UNL A   1      46.009  21.770  25.280  1.00  0.00     0.004 C 
ENDBRANCH  24  25
ENDBRANCH  23  24
ENDBRANCH  22  23
ENDBRANCH  16  17
ENDBRANCH  10  16
ENDBRANCH   3   6
ENDBRANCH   1   2
BRANCH   1  33
ATOM     33  C   UNL A   1      34.291  29.952  27.114  1.00  0.00     0.023 C 
BRANCH  33  34
ATOM     34  C   UNL A   1      33.512  31.314  27.803  1.00  0.00     0.023 C 
BRANCH  34  35
ATOM     35  C   UNL A   1      34.006  32.708  27.413  1.00  0.00     0.116 C 
BRANCH  35  36
ATOM     36  N   UNL A   1      33.137  33.811  27.826  1.00  0.00    -0.352 N 
ATOM     37  C   UNL A   1      33.267  34.551  28.981  1.00  0.00     0.251 C 
ATOM     38  H   UNL A   1      32.394  34.045  27.225  1.00  0.00     0.163 HD
ATOM     39  O   UNL A   1      32.475  35.430  29.296  1.00  0.00    -0.269 OA
BRANCH  37  40
ATOM     40  C   UNL A   1      34.404  34.198  29.847  1.00  0.00     0.039 A 
ATOM     41  C   UNL A   1      34.195  33.318  30.911  1.00  0.00     0.014 A 
ATOM     42  C   UNL A   1      35.689  34.530  29.414  1.00  0.00     0.014 A 
ATOM     43  C   UNL A   1      35.295  32.700  31.502  1.00  0.00     0.010 A 
ATOM     44  C   UNL A   1      36.773  33.855  29.956  1.00  0.00     0.010 A 
ATOM     45  C   UNL A   1      36.586  32.931  30.999  1.00  0.00    -0.014 A 
BRANCH  45  46
ATOM     46  C   UNL A   1      37.770  32.229  31.552  1.00  0.00     0.031 A 
ATOM     47  C   UNL A   1      38.395  32.743  32.818  1.00  0.00     0.074 A 
ATOM     48  C   UNL A   1      38.339  31.214  30.872  1.00  0.00     0.049 A 
ATOM     49  N   UNL A   1      39.485  32.347  33.418  1.00  0.00    -0.248 NA
ATOM     50  C   UNL A   1      37.730  33.885  33.470  1.00  0.00     0.031 C 
ATOM     51  C   UNL A   1      37.881  30.687  29.584  1.00  0.00     0.029 A 
ATOM     52  N   UNL A   1      39.450  30.460  31.160  1.00  0.00    -0.354 N 
ATOM     53  C   UNL A   1      39.663  33.221  34.483  1.00  0.00     0.074 A 
ATOM     54  C   UNL A   1      38.595  34.193  34.422  1.00  0.00     0.031 C 
ATOM     55  C   UNL A   1      38.697  29.690  29.200  1.00  0.00     0.029 A 
ATOM     56  C   UNL A   1      39.745  29.518  30.201  1.00  0.00     0.049 A 
ATOM     57  H   UNL A   1      39.986  30.582  31.976  1.00  0.00     0.167 HD
ATOM     58  C   UNL A   1      40.607  33.193  35.451  1.00  0.00     0.034 A 
ATOM     59  C   UNL A   1      40.744  28.612  30.147  1.00  0.00     0.034 A 
ATOM     60  C   UNL A   1      41.611  32.174  35.558  1.00  0.00     0.049 A 
ATOM     61  C   UNL A   1      41.721  28.538  31.291  1.00  0.00     0.074 A 
ATOM     62  C   UNL A   1      42.549  31.991  36.557  1.00  0.00     0.029 A 
ATOM     63  N   UNL A   1      41.794  31.152  34.640  1.00  0.00    -0.354 N 
ATOM     64  N   UNL A   1      41.776  29.271  32.377  1.00  0.00    -0.248 NA
ATOM     65  C   UNL A   1      42.748  27.486  31.227  1.00  0.00     0.031 C 
ATOM     66  C   UNL A   1      43.299  30.853  36.244  1.00  0.00     0.029 A 
ATOM     67  C   UNL A   1      42.823  30.327  35.053  1.00  0.00     0.049 A 
ATOM     68  H   UNL A   1      41.269  31.032  33.816  1.00  0.00     0.167 HD
ATOM     69  C   UNL A   1      42.812  28.745  33.141  1.00  0.00     0.074 A 
ATOM     70  C   UNL A   1      43.350  27.623  32.401  1.00  0.00     0.031 C 
ATOM     71  C   UNL A   1      43.288  29.166  34.339  1.00  0.00     0.034 A 
BRANCH  58  72
ATOM     72  C   UNL A   1      40.535  34.254  36.514  1.00  0.00     0.023 A 
ATOM     73  C   UNL A   1      40.952  35.565  36.208  1.00  0.00     0.012 A 
ATOM     74  C   UNL A   1      40.038  33.968  37.799  1.00  0.00     0.148 A 
ATOM     75  C   UNL A   1      40.919  36.566  37.177  1.00  0.00     0.002 A 
ATOM     76  C   UNL A   1      39.966  34.982  38.747  1.00  0.00     0.091 A 
ATOM     77  F   UNL A   1      39.670  32.709  38.080  1.00  0.00    -0.205 F 
ATOM     78  C   UNL A   1      40.418  36.277  38.442  1.00  0.00     0.022 A 
BRANCH  76  79
ATOM     79  S   UNL A   1      39.267  34.723  40.382  1.00  0.00     0.127 S 
ATOM     80  O   UNL A   1      40.313  33.936  41.030  1.00  0.00    -0.237 OA
ATOM     81  O   UNL A   1      39.135  36.093  40.882  1.00  0.00    -0.237 OA
ATOM     82  O   UNL A   1      38.001  34.036  40.167  1.00  0.00    -0.744 OA
ENDBRANCH  76  79
ENDBRANCH  58  72
BRANCH  59  83
ATOM     83  C   UNL A   1      40.809  27.636  29.021  1.00  0.00     0.023 A 
ATOM     84  C   UNL A   1      39.926  26.537  29.019  1.00  0.00     0.012 A 
ATOM     85  C   UNL A   1      41.713  27.790  27.954  1.00  0.00     0.148 A 
ATOM     86  C   UNL A   1      39.964  25.593  27.992  1.00  0.00     0.002 A 
ATOM     87  C   UNL A   1      41.714  26.871  26.909  1.00  0.00     0.091 A 
ATOM     88  F   UNL A   1      42.556  28.832  27.979  1.00  0.00    -0.205 F 
ATOM     89  C   UNL A   1      40.851  25.764  26.933  1.00  0.00     0.022 A 
BRANCH  87  90
ATOM     90  S   UNL A   1      42.740  27.081  25.448  1.00  0.00     0.127 S 
ATOM     91  O   UNL A   1      44.080  27.124  26.028  1.00  0.00    -0.237 OA
ATOM     92  O   UNL A   1      42.437  25.869  24.685  1.00  0.00    -0.237 OA
ATOM     93  O   UNL A   1      42.275  28.311  24.822  1.00  0.00    -0.744 OA
ENDBRANCH  87  90
ENDBRANCH  59  83
BRANCH  71  94
ATOM     94  C   UNL A   1      44.418  28.393  34.961  1.00  0.00     0.023 A 
ATOM     95  C   UNL A   1      45.747  28.711  34.620  1.00  0.00     0.012 A 
ATOM     96  C   UNL A   1      44.166  27.446  35.973  1.00  0.00     0.148 A 
ATOM     97  C   UNL A   1      46.810  28.087  35.269  1.00  0.00     0.002 A 
ATOM     98  C   UNL A   1      45.232  26.859  36.645  1.00  0.00     0.091 A 
ATOM     99  F   UNL A   1      42.893  27.146  36.267  1.00  0.00    -0.205 F 
ATOM    100  C   UNL A   1      46.554  27.174  36.290  1.00  0.00     0.022 A 
BRANCH  98 101
ATOM    101  S   UNL A   1      44.993  25.749  38.037  1.00  0.00     0.127 S 
ATOM    102  O   UNL A   1      46.371  25.406  38.384  1.00  0.00    -0.237 OA
ATOM    103  O   UNL A   1      44.315  26.607  39.010  1.00  0.00    -0.237 OA
ATOM    104  O   UNL A   1      44.181  24.649  37.536  1.00  0.00    -0.744 OA
ENDBRANCH  98 101
ENDBRANCH  71  94
ENDBRANCH  45  46
ENDBRANCH  37  40
ENDBRANCH  35  36
ENDBRANCH  34  35
ENDBRANCH  33  34
ENDBRANCH   1  33
TORSDOF 20
ENDMDL
