MODEL 1
REMARK VINA RESULT:     -12.8      0.000      0.000
REMARK SMILES C[C@H](c1ccncc1)[N@H+]1[C@@H]2CC[C@H]1C[C@H](CC(=O)NCCCCNC(=O)c1ccc(-c3c4nc(c(-c5cccc(S(=O)(=O)[O-])c5F)c5ccc([nH]5)c(-c5cccc(S(=O)(=O)[O-])c5F)c5nc(c(-c6cccc(S(=O)(=O)[O-])c6F)c6ccc3[nH]6)C=C5)C=C4)cc1)C2
REMARK SMILES IDX 21 1 20 2 19 3 17 4 18 5 16 7 15 8 9 9 10 10 13 11 11 13
REMARK SMILES IDX 90 14 12 15 14 16 2 17 1 18 3 19 4 20 8 21 5 22 7 23 6 24
REMARK SMILES IDX 22 25 23 26 24 27 25 28 26 30 27 31 28 32 89 33 29 34 88 35
REMARK SMILES IDX 30 36 31 37 32 38 82 39 33 40 87 41 81 42 83 43 34 44 86 45
REMARK SMILES IDX 80 46 79 47 35 49 67 50 47 51 66 52 48 53 51 54 65 55 84 56
REMARK SMILES IDX 49 57 50 58 64 60 85 61 52 62 36 63 37 64 45 65 38 66 40 67
REMARK SMILES IDX 46 68 39 69 41 70 42 71 43 72 44 73 68 74 69 75 77 76 70 77
REMARK SMILES IDX 72 78 78 79 71 80 73 81 74 82 75 83 76 84 53 85 54 86 62 87
REMARK SMILES IDX 55 88 57 89 63 90 56 91 58 92 59 93 60 94 61 95
REMARK H PARENT 19 6 9 12 24 29 83 48 51 59
REMARK Flexibility Score: inf
ROOT
ATOM      1  C   UNL A   1      34.741  20.877  24.956  1.00  0.00     0.023 C 
ENDROOT
BRANCH   1   2
ATOM      2  C   UNL A   1      33.475  20.350  25.641  1.00  0.00     0.116 C 
BRANCH   2   3
ATOM      3  N   UNL A   1      33.092  21.207  26.753  1.00  0.00    -0.356 N 
ATOM      4  C   UNL A   1      32.240  22.270  26.818  1.00  0.00     0.220 C 
ATOM      5  O   UNL A   1      32.167  22.898  27.877  1.00  0.00    -0.275 OA
ATOM      6  H   UNL A   1      33.523  20.979  27.607  1.00  0.00     0.163 HD
BRANCH   4   7
ATOM      7  C   UNL A   1      31.372  22.671  25.635  1.00  0.00     0.104 C 
BRANCH   7   8
ATOM      8  C   UNL A   1      32.128  23.402  24.498  1.00  0.00     0.010 C 
ATOM      9  N   UNL A   1      31.687  26.171  23.469  1.00  0.00    -0.324 N 
ATOM     10  C   UNL A   1      32.971  25.839  24.103  1.00  0.00     0.185 C 
ATOM     11  C   UNL A   1      31.468  25.043  22.577  1.00  0.00     0.185 C 
ATOM     12  H   UNL A   1      31.684  27.032  22.920  1.00  0.00     0.349 HD
ATOM     13  C   UNL A   1      33.817  25.496  22.866  1.00  0.00     0.071 C 
ATOM     14  C   UNL A   1      32.914  24.617  25.046  1.00  0.00     0.069 C 
ATOM     15  C   UNL A   1      32.819  24.930  21.865  1.00  0.00     0.071 C 
ATOM     16  C   UNL A   1      31.173  23.767  23.355  1.00  0.00     0.069 C 
BRANCH   9  17
ATOM     17  C   UNL A   1      30.626  26.768  24.299  1.00  0.00     0.212 C 
ATOM     18  C   UNL A   1      29.323  27.302  23.685  1.00  0.00     0.081 C 
BRANCH  17  19
ATOM     19  C   UNL A   1      31.075  27.834  25.310  1.00  0.00     0.012 A 
ATOM     20  C   UNL A   1      31.373  27.551  26.650  1.00  0.00     0.030 A 
ATOM     21  C   UNL A   1      31.410  29.114  24.841  1.00  0.00     0.030 A 
ATOM     22  C   UNL A   1      31.958  28.532  27.443  1.00  0.00     0.111 A 
ATOM     23  C   UNL A   1      32.013  30.019  25.701  1.00  0.00     0.111 A 
ATOM     24  N   UNL A   1      32.288  29.758  26.994  1.00  0.00    -0.265 NA
ENDBRANCH  17  19
ENDBRANCH   9  17
ENDBRANCH   7   8
ENDBRANCH   4   7
ENDBRANCH   2   3
ENDBRANCH   1   2
BRANCH   1  25
ATOM     25  C   UNL A   1      35.750  21.563  25.856  1.00  0.00     0.023 C 
BRANCH  25  26
ATOM     26  C   UNL A   1      37.083  21.843  25.192  1.00  0.00     0.116 C 
BRANCH  26  27
ATOM     27  N   UNL A   1      38.043  20.746  25.295  1.00  0.00    -0.352 N 
ATOM     28  C   UNL A   1      39.264  20.752  25.936  1.00  0.00     0.251 C 
ATOM     29  H   UNL A   1      37.789  19.903  24.854  1.00  0.00     0.163 HD
ATOM     30  O   UNL A   1      40.013  19.781  25.879  1.00  0.00    -0.269 OA
BRANCH  28  31
ATOM     31  C   UNL A   1      39.663  21.984  26.648  1.00  0.00     0.039 A 
ATOM     32  C   UNL A   1      40.643  21.918  27.640  1.00  0.00     0.014 A 
ATOM     33  C   UNL A   1      39.194  23.214  26.185  1.00  0.00     0.014 A 
ATOM     34  C   UNL A   1      41.241  23.099  28.086  1.00  0.00     0.010 A 
ATOM     35  C   UNL A   1      39.868  24.370  26.547  1.00  0.00     0.010 A 
ATOM     36  C   UNL A   1      40.904  24.328  27.495  1.00  0.00    -0.014 A 
BRANCH  36  37
ATOM     37  C   UNL A   1      41.607  25.594  27.822  1.00  0.00     0.031 A 
ATOM     38  C   UNL A   1      40.866  26.672  28.567  1.00  0.00     0.074 A 
ATOM     39  C   UNL A   1      42.838  25.839  27.323  1.00  0.00     0.049 A 
ATOM     40  N   UNL A   1      41.204  27.918  28.771  1.00  0.00    -0.248 NA
ATOM     41  C   UNL A   1      39.539  26.315  29.100  1.00  0.00     0.031 C 
ATOM     42  C   UNL A   1      43.628  24.913  26.508  1.00  0.00     0.029 A 
ATOM     43  N   UNL A   1      43.625  26.962  27.398  1.00  0.00    -0.354 N 
ATOM     44  C   UNL A   1      40.108  28.507  29.390  1.00  0.00     0.074 A 
ATOM     45  C   UNL A   1      39.082  27.493  29.496  1.00  0.00     0.031 C 
ATOM     46  C   UNL A   1      44.784  25.503  26.164  1.00  0.00     0.029 A 
ATOM     47  C   UNL A   1      44.808  26.859  26.702  1.00  0.00     0.049 A 
ATOM     48  H   UNL A   1      43.366  27.768  27.903  1.00  0.00     0.167 HD
ATOM     49  C   UNL A   1      39.977  29.768  29.862  1.00  0.00     0.034 A 
ATOM     50  C   UNL A   1      45.795  27.758  26.514  1.00  0.00     0.034 A 
ATOM     51  C   UNL A   1      41.034  30.739  29.847  1.00  0.00     0.049 A 
ATOM     52  C   UNL A   1      45.671  29.118  27.148  1.00  0.00     0.074 A 
ATOM     53  C   UNL A   1      41.045  32.006  30.400  1.00  0.00     0.029 A 
ATOM     54  N   UNL A   1      42.277  30.541  29.267  1.00  0.00    -0.354 N 
ATOM     55  N   UNL A   1      44.683  29.609  27.856  1.00  0.00    -0.248 NA
ATOM     56  C   UNL A   1      46.809  30.036  26.988  1.00  0.00     0.031 C 
ATOM     57  C   UNL A   1      42.301  32.574  30.157  1.00  0.00     0.029 A 
ATOM     58  C   UNL A   1      43.070  31.656  29.459  1.00  0.00     0.049 A 
ATOM     59  H   UNL A   1      42.553  29.726  28.788  1.00  0.00     0.167 HD
ATOM     60  C   UNL A   1      45.096  30.874  28.261  1.00  0.00     0.074 A 
ATOM     61  C   UNL A   1      46.429  31.069  27.729  1.00  0.00     0.031 C 
ATOM     62  C   UNL A   1      44.424  31.797  28.991  1.00  0.00     0.034 A 
BRANCH  49  63
ATOM     63  C   UNL A   1      38.669  30.138  30.508  1.00  0.00     0.023 A 
ATOM     64  C   UNL A   1      38.419  29.748  31.839  1.00  0.00     0.012 A 
ATOM     65  C   UNL A   1      37.705  30.900  29.818  1.00  0.00     0.148 A 
ATOM     66  C   UNL A   1      37.216  30.073  32.462  1.00  0.00     0.002 A 
ATOM     67  C   UNL A   1      36.527  31.259  30.462  1.00  0.00     0.091 A 
ATOM     68  F   UNL A   1      37.947  31.240  28.544  1.00  0.00    -0.205 F 
ATOM     69  C   UNL A   1      36.275  30.837  31.778  1.00  0.00     0.022 A 
BRANCH  67  70
ATOM     70  S   UNL A   1      35.289  32.307  29.690  1.00  0.00     0.127 S 
ATOM     71  O   UNL A   1      34.798  31.443  28.616  1.00  0.00    -0.237 OA
ATOM     72  O   UNL A   1      34.338  32.521  30.782  1.00  0.00    -0.237 OA
ATOM     73  O   UNL A   1      35.994  33.506  29.260  1.00  0.00    -0.744 OA
ENDBRANCH  67  70
ENDBRANCH  49  63
BRANCH  50  74
ATOM     74  C   UNL A   1      47.028  27.369  25.772  1.00  0.00     0.023 A 
ATOM     75  C   UNL A   1      48.019  26.621  26.438  1.00  0.00     0.012 A 
ATOM     76  C   UNL A   1      47.215  27.699  24.416  1.00  0.00     0.148 A 
ATOM     77  C   UNL A   1      49.186  26.235  25.778  1.00  0.00     0.002 A 
ATOM     78  C   UNL A   1      48.359  27.267  23.749  1.00  0.00     0.091 A 
ATOM     79  F   UNL A   1      46.270  28.423  23.800  1.00  0.00    -0.205 F 
ATOM     80  C   UNL A   1      49.351  26.549  24.433  1.00  0.00     0.022 A 
BRANCH  78  81
ATOM     81  S   UNL A   1      48.591  27.516  21.985  1.00  0.00     0.127 S 
ATOM     82  O   UNL A   1      47.307  28.089  21.591  1.00  0.00    -0.237 OA
ATOM     83  O   UNL A   1      49.718  28.450  21.954  1.00  0.00    -0.237 OA
ATOM     84  O   UNL A   1      48.896  26.198  21.445  1.00  0.00    -0.744 OA
ENDBRANCH  78  81
ENDBRANCH  50  74
BRANCH  62  85
ATOM     85  C   UNL A   1      45.127  33.088  29.313  1.00  0.00     0.023 A 
ATOM     86  C   UNL A   1      45.915  33.181  30.474  1.00  0.00     0.012 A 
ATOM     87  C   UNL A   1      45.094  34.165  28.404  1.00  0.00     0.148 A 
ATOM     88  C   UNL A   1      46.650  34.336  30.739  1.00  0.00     0.002 A 
ATOM     89  C   UNL A   1      45.863  35.295  28.652  1.00  0.00     0.091 A 
ATOM     90  F   UNL A   1      44.321  34.060  27.315  1.00  0.00    -0.205 F 
ATOM     91  C   UNL A   1      46.635  35.386  29.822  1.00  0.00     0.022 A 
BRANCH  89  92
ATOM     92  S   UNL A   1      45.977  36.652  27.480  1.00  0.00     0.127 S 
ATOM     93  O   UNL A   1      46.447  35.968  26.277  1.00  0.00    -0.237 OA
ATOM     94  O   UNL A   1      44.593  37.124  27.412  1.00  0.00    -0.237 OA
ATOM     95  O   UNL A   1      46.910  37.607  28.064  1.00  0.00    -0.744 OA
ENDBRANCH  89  92
ENDBRANCH  62  85
ENDBRANCH  36  37
ENDBRANCH  28  31
ENDBRANCH  26  27
ENDBRANCH  25  26
ENDBRANCH   1  25
TORSDOF 17
ENDMDL
MODEL 2
REMARK VINA RESULT:     -12.8      1.215      7.746
REMARK SMILES C[C@H](c1ccncc1)[N@H+]1[C@@H]2CC[C@H]1C[C@H](CC(=O)NCCCCNC(=O)c1ccc(-c3c4nc(c(-c5cccc(S(=O)(=O)[O-])c5F)c5ccc([nH]5)c(-c5cccc(S(=O)(=O)[O-])c5F)c5nc(c(-c6cccc(S(=O)(=O)[O-])c6F)c6ccc3[nH]6)C=C5)C=C4)cc1)C2
REMARK SMILES IDX 21 1 20 2 19 3 17 4 18 5 16 7 15 8 9 9 10 10 13 11 11 13
REMARK SMILES IDX 90 14 12 15 14 16 2 17 1 18 3 19 4 20 8 21 5 22 7 23 6 24
REMARK SMILES IDX 22 25 23 26 24 27 25 28 26 30 27 31 28 32 89 33 29 34 88 35
REMARK SMILES IDX 30 36 31 37 32 38 82 39 33 40 87 41 81 42 83 43 34 44 86 45
REMARK SMILES IDX 80 46 79 47 35 49 67 50 47 51 66 52 48 53 51 54 65 55 84 56
REMARK SMILES IDX 49 57 50 58 64 60 85 61 52 62 36 63 37 64 45 65 38 66 40 67
REMARK SMILES IDX 46 68 39 69 41 70 42 71 43 72 44 73 68 74 69 75 77 76 70 77
REMARK SMILES IDX 72 78 78 79 71 80 73 81 74 82 75 83 76 84 53 85 54 86 62 87
REMARK SMILES IDX 55 88 57 89 63 90 56 91 58 92 59 93 60 94 61 95
REMARK H PARENT 19 6 9 12 24 29 83 48 51 59
REMARK Flexibility Score: inf
ROOT
ATOM      1  C   UNL A   1      34.720  21.840  24.801  1.00  0.00     0.023 C 
ENDROOT
BRANCH   1   2
ATOM      2  C   UNL A   1      34.620  23.001  25.796  1.00  0.00     0.116 C 
BRANCH   2   3
ATOM      3  N   UNL A   1      33.421  22.885  26.611  1.00  0.00    -0.356 N 
ATOM      4  C   UNL A   1      32.302  23.660  26.682  1.00  0.00     0.220 C 
ATOM      5  O   UNL A   1      31.460  23.396  27.544  1.00  0.00    -0.275 OA
ATOM      6  H   UNL A   1      33.418  22.110  27.218  1.00  0.00     0.163 HD
BRANCH   4   7
ATOM      7  C   UNL A   1      32.064  24.810  25.715  1.00  0.00     0.104 C 
BRANCH   7   8
ATOM      8  C   UNL A   1      32.484  26.201  26.252  1.00  0.00     0.010 C 
ATOM      9  N   UNL A   1      32.162  28.862  24.934  1.00  0.00    -0.324 N 
ATOM     10  C   UNL A   1      31.452  28.595  26.193  1.00  0.00     0.185 C 
ATOM     11  C   UNL A   1      33.502  28.368  25.210  1.00  0.00     0.185 C 
ATOM     12  H   UNL A   1      32.220  29.845  24.668  1.00  0.00     0.349 HD
ATOM     13  C   UNL A   1      32.438  29.198  27.207  1.00  0.00     0.071 C 
ATOM     14  C   UNL A   1      31.247  27.096  26.500  1.00  0.00     0.069 C 
ATOM     15  C   UNL A   1      33.807  29.010  26.567  1.00  0.00     0.071 C 
ATOM     16  C   UNL A   1      33.523  26.850  25.328  1.00  0.00     0.069 C 
BRANCH   9  17
ATOM     17  C   UNL A   1      31.455  28.623  23.664  1.00  0.00     0.212 C 
ATOM     18  C   UNL A   1      32.067  29.017  22.311  1.00  0.00     0.081 C 
BRANCH  17  19
ATOM     19  C   UNL A   1      29.990  29.084  23.605  1.00  0.00     0.012 A 
ATOM     20  C   UNL A   1      29.604  30.432  23.603  1.00  0.00     0.030 A 
ATOM     21  C   UNL A   1      28.993  28.137  23.329  1.00  0.00     0.030 A 
ATOM     22  C   UNL A   1      28.278  30.763  23.350  1.00  0.00     0.111 A 
ATOM     23  C   UNL A   1      27.700  28.564  23.065  1.00  0.00     0.111 A 
ATOM     24  N   UNL A   1      27.319  29.856  23.076  1.00  0.00    -0.265 NA
ENDBRANCH  17  19
ENDBRANCH   9  17
ENDBRANCH   7   8
ENDBRANCH   4   7
ENDBRANCH   2   3
ENDBRANCH   1   2
BRANCH   1  25
ATOM     25  C   UNL A   1      35.863  20.868  25.021  1.00  0.00     0.023 C 
BRANCH  25  26
ATOM     26  C   UNL A   1      37.167  21.526  25.424  1.00  0.00     0.116 C 
BRANCH  26  27
ATOM     27  N   UNL A   1      38.292  20.600  25.536  1.00  0.00    -0.352 N 
ATOM     28  C   UNL A   1      39.523  20.835  26.112  1.00  0.00     0.251 C 
ATOM     29  H   UNL A   1      38.156  19.702  25.154  1.00  0.00     0.163 HD
ATOM     30  O   UNL A   1      40.413  19.992  26.069  1.00  0.00    -0.269 OA
BRANCH  28  31
ATOM     31  C   UNL A   1      39.751  22.155  26.736  1.00  0.00     0.039 A 
ATOM     32  C   UNL A   1      40.739  22.294  27.711  1.00  0.00     0.014 A 
ATOM     33  C   UNL A   1      39.109  23.274  26.204  1.00  0.00     0.014 A 
ATOM     34  C   UNL A   1      41.169  23.574  28.070  1.00  0.00     0.010 A 
ATOM     35  C   UNL A   1      39.617  24.535  26.477  1.00  0.00     0.010 A 
ATOM     36  C   UNL A   1      40.657  24.701  27.407  1.00  0.00    -0.014 A 
BRANCH  36  37
ATOM     37  C   UNL A   1      41.179  26.072  27.639  1.00  0.00     0.031 A 
ATOM     38  C   UNL A   1      42.577  26.409  27.194  1.00  0.00     0.074 A 
ATOM     39  C   UNL A   1      40.471  26.955  28.376  1.00  0.00     0.049 A 
ATOM     40  N   UNL A   1      43.304  27.457  27.476  1.00  0.00    -0.248 NA
ATOM     41  C   UNL A   1      43.270  25.401  26.372  1.00  0.00     0.031 C 
ATOM     42  C   UNL A   1      39.142  26.719  28.945  1.00  0.00     0.029 A 
ATOM     43  N   UNL A   1      40.792  28.219  28.806  1.00  0.00    -0.354 N 
ATOM     44  C   UNL A   1      44.556  27.203  26.929  1.00  0.00     0.074 A 
ATOM     45  C   UNL A   1      44.501  25.888  26.330  1.00  0.00     0.031 C 
ATOM     46  C   UNL A   1      38.761  27.802  29.643  1.00  0.00     0.029 A 
ATOM     47  C   UNL A   1      39.829  28.796  29.602  1.00  0.00     0.049 A 
ATOM     48  H   UNL A   1      41.635  28.670  28.568  1.00  0.00     0.167 HD
ATOM     49  C   UNL A   1      45.645  28.005  26.895  1.00  0.00     0.034 A 
ATOM     50  C   UNL A   1      39.812  29.988  30.233  1.00  0.00     0.034 A 
ATOM     51  C   UNL A   1      45.662  29.348  27.399  1.00  0.00     0.049 A 
ATOM     52  C   UNL A   1      40.995  30.908  30.082  1.00  0.00     0.074 A 
ATOM     53  C   UNL A   1      46.675  30.286  27.314  1.00  0.00     0.029 A 
ATOM     54  N   UNL A   1      44.607  29.953  28.065  1.00  0.00    -0.354 N 
ATOM     55  N   UNL A   1      42.118  30.706  29.436  1.00  0.00    -0.248 NA
ATOM     56  C   UNL A   1      40.897  32.231  30.716  1.00  0.00     0.031 C 
ATOM     57  C   UNL A   1      46.229  31.464  27.925  1.00  0.00     0.029 A 
ATOM     58  C   UNL A   1      44.937  31.257  28.385  1.00  0.00     0.049 A 
ATOM     59  H   UNL A   1      43.751  29.518  28.278  1.00  0.00     0.167 HD
ATOM     60  C   UNL A   1      42.841  31.888  29.549  1.00  0.00     0.074 A 
ATOM     61  C   UNL A   1      42.024  32.806  30.317  1.00  0.00     0.031 C 
ATOM     62  C   UNL A   1      44.077  32.180  29.077  1.00  0.00     0.034 A 
BRANCH  49  63
ATOM     63  C   UNL A   1      46.880  27.475  26.216  1.00  0.00     0.023 A 
ATOM     64  C   UNL A   1      47.772  26.661  26.940  1.00  0.00     0.012 A 
ATOM     65  C   UNL A   1      47.139  27.748  24.858  1.00  0.00     0.148 A 
ATOM     66  C   UNL A   1      48.925  26.158  26.339  1.00  0.00     0.002 A 
ATOM     67  C   UNL A   1      48.266  27.206  24.253  1.00  0.00     0.091 A 
ATOM     68  F   UNL A   1      46.293  28.546  24.191  1.00  0.00    -0.205 F 
ATOM     69  C   UNL A   1      49.166  26.422  24.994  1.00  0.00     0.022 A 
BRANCH  67  70
ATOM     70  S   UNL A   1      48.621  27.425  22.506  1.00  0.00     0.127 S 
ATOM     71  O   UNL A   1      47.521  28.294  22.087  1.00  0.00    -0.237 OA
ATOM     72  O   UNL A   1      49.933  28.074  22.534  1.00  0.00    -0.237 OA
ATOM     73  O   UNL A   1      48.622  26.088  21.929  1.00  0.00    -0.744 OA
ENDBRANCH  67  70
ENDBRANCH  49  63
BRANCH  50  74
ATOM     74  C   UNL A   1      38.598  30.419  30.983  1.00  0.00     0.023 A 
ATOM     75  C   UNL A   1      38.504  30.123  32.358  1.00  0.00     0.012 A 
ATOM     76  C   UNL A   1      37.560  31.143  30.367  1.00  0.00     0.148 A 
ATOM     77  C   UNL A   1      37.387  30.512  33.097  1.00  0.00     0.002 A 
ATOM     78  C   UNL A   1      36.471  31.571  31.121  1.00  0.00     0.091 A 
ATOM     79  F   UNL A   1      37.657  31.405  29.055  1.00  0.00    -0.205 F 
ATOM     80  C   UNL A   1      36.376  31.244  32.482  1.00  0.00     0.022 A 
BRANCH  78  81
ATOM     81  S   UNL A   1      35.189  32.628  30.438  1.00  0.00     0.127 S 
ATOM     82  O   UNL A   1      34.643  31.789  29.375  1.00  0.00    -0.237 OA
ATOM     83  O   UNL A   1      34.304  32.819  31.588  1.00  0.00    -0.237 OA
ATOM     84  O   UNL A   1      35.874  33.840  30.007  1.00  0.00    -0.744 OA
ENDBRANCH  78  81
ENDBRANCH  50  74
BRANCH  62  85
ATOM     85  C   UNL A   1      44.616  33.563  29.322  1.00  0.00     0.023 A 
ATOM     86  C   UNL A   1      45.390  33.816  30.469  1.00  0.00     0.012 A 
ATOM     87  C   UNL A   1      44.447  34.576  28.357  1.00  0.00     0.148 A 
ATOM     88  C   UNL A   1      45.977  35.066  30.663  1.00  0.00     0.002 A 
ATOM     89  C   UNL A   1      45.071  35.805  28.536  1.00  0.00     0.091 A 
ATOM     90  F   UNL A   1      43.690  34.318  27.282  1.00  0.00    -0.205 F 
ATOM     91  C   UNL A   1      45.830  36.054  29.692  1.00  0.00     0.022 A 
BRANCH  89  92
ATOM     92  S   UNL A   1      45.013  37.099  27.292  1.00  0.00     0.127 S 
ATOM     93  O   UNL A   1      43.621  37.029  26.853  1.00  0.00    -0.237 OA
ATOM     94  O   UNL A   1      45.349  38.294  28.067  1.00  0.00    -0.237 OA
ATOM     95  O   UNL A   1      46.007  36.734  26.289  1.00  0.00    -0.744 OA
ENDBRANCH  89  92
ENDBRANCH  62  85
ENDBRANCH  36  37
ENDBRANCH  28  31
ENDBRANCH  26  27
ENDBRANCH  25  26
ENDBRANCH   1  25
TORSDOF 17
ENDMDL
MODEL 3
REMARK VINA RESULT:     -12.8      1.032      1.940
REMARK SMILES C[C@H](c1ccncc1)[N@H+]1[C@@H]2CC[C@H]1C[C@H](CC(=O)NCCCCNC(=O)c1ccc(-c3c4nc(c(-c5cccc(S(=O)(=O)[O-])c5F)c5ccc([nH]5)c(-c5cccc(S(=O)(=O)[O-])c5F)c5nc(c(-c6cccc(S(=O)(=O)[O-])c6F)c6ccc3[nH]6)C=C5)C=C4)cc1)C2
REMARK SMILES IDX 21 1 20 2 19 3 17 4 18 5 16 7 15 8 9 9 10 10 13 11 11 13
REMARK SMILES IDX 90 14 12 15 14 16 2 17 1 18 3 19 4 20 8 21 5 22 7 23 6 24
REMARK SMILES IDX 22 25 23 26 24 27 25 28 26 30 27 31 28 32 89 33 29 34 88 35
REMARK SMILES IDX 30 36 31 37 32 38 82 39 33 40 87 41 81 42 83 43 34 44 86 45
REMARK SMILES IDX 80 46 79 47 35 49 67 50 47 51 66 52 48 53 51 54 65 55 84 56
REMARK SMILES IDX 49 57 50 58 64 60 85 61 52 62 36 63 37 64 45 65 38 66 40 67
REMARK SMILES IDX 46 68 39 69 41 70 42 71 43 72 44 73 68 74 69 75 77 76 70 77
REMARK SMILES IDX 72 78 78 79 71 80 73 81 74 82 75 83 76 84 53 85 54 86 62 87
REMARK SMILES IDX 55 88 57 89 63 90 56 91 58 92 59 93 60 94 61 95
REMARK H PARENT 19 6 9 12 24 29 83 48 51 59
REMARK Flexibility Score: inf
ROOT
ATOM      1  C   UNL A   1      34.701  21.998  25.963  1.00  0.00     0.023 C 
ENDROOT
BRANCH   1   2
ATOM      2  C   UNL A   1      33.312  22.059  25.318  1.00  0.00     0.116 C 
BRANCH   2   3
ATOM      3  N   UNL A   1      32.275  22.193  26.329  1.00  0.00    -0.356 N 
ATOM      4  C   UNL A   1      31.425  23.219  26.617  1.00  0.00     0.220 C 
ATOM      5  O   UNL A   1      30.697  23.118  27.608  1.00  0.00    -0.275 OA
ATOM      6  H   UNL A   1      32.169  21.404  26.908  1.00  0.00     0.163 HD
BRANCH   4   7
ATOM      7  C   UNL A   1      31.341  24.457  25.737  1.00  0.00     0.104 C 
BRANCH   7   8
ATOM      8  C   UNL A   1      31.998  25.723  26.339  1.00  0.00     0.010 C 
ATOM      9  N   UNL A   1      32.395  28.388  25.050  1.00  0.00    -0.324 N 
ATOM     10  C   UNL A   1      31.524  28.285  26.229  1.00  0.00     0.185 C 
ATOM     11  C   UNL A   1      33.562  27.614  25.444  1.00  0.00     0.185 C 
ATOM     12  H   UNL A   1      32.693  29.335  24.811  1.00  0.00     0.349 HD
ATOM     13  C   UNL A   1      32.513  28.659  27.345  1.00  0.00     0.071 C 
ATOM     14  C   UNL A   1      30.968  26.868  26.484  1.00  0.00     0.069 C 
ATOM     15  C   UNL A   1      33.865  28.175  26.836  1.00  0.00     0.071 C 
ATOM     16  C   UNL A   1      33.239  26.128  25.533  1.00  0.00     0.069 C 
BRANCH   9  17
ATOM     17  C   UNL A   1      31.782  28.308  23.713  1.00  0.00     0.212 C 
ATOM     18  C   UNL A   1      32.491  28.854  22.464  1.00  0.00     0.081 C 
BRANCH  17  19
ATOM     19  C   UNL A   1      30.326  28.786  23.604  1.00  0.00     0.012 A 
ATOM     20  C   UNL A   1      29.957  30.138  23.580  1.00  0.00     0.030 A 
ATOM     21  C   UNL A   1      29.326  27.849  23.303  1.00  0.00     0.030 A 
ATOM     22  C   UNL A   1      28.643  30.484  23.283  1.00  0.00     0.111 A 
ATOM     23  C   UNL A   1      28.048  28.290  22.996  1.00  0.00     0.111 A 
ATOM     24  N   UNL A   1      27.683  29.586  22.985  1.00  0.00    -0.265 NA
ENDBRANCH  17  19
ENDBRANCH   9  17
ENDBRANCH   7   8
ENDBRANCH   4   7
ENDBRANCH   2   3
ENDBRANCH   1   2
BRANCH   1  25
ATOM     25  C   UNL A   1      35.744  21.181  25.225  1.00  0.00     0.023 C 
BRANCH  25  26
ATOM     26  C   UNL A   1      37.164  21.678  25.408  1.00  0.00     0.116 C 
BRANCH  26  27
ATOM     27  N   UNL A   1      38.166  20.614  25.459  1.00  0.00    -0.352 N 
ATOM     28  C   UNL A   1      39.413  20.660  26.045  1.00  0.00     0.251 C 
ATOM     29  H   UNL A   1      37.921  19.766  25.023  1.00  0.00     0.163 HD
ATOM     30  O   UNL A   1      40.192  19.717  25.947  1.00  0.00    -0.269 OA
BRANCH  28  31
ATOM     31  C   UNL A   1      39.800  21.901  26.748  1.00  0.00     0.039 A 
ATOM     32  C   UNL A   1      40.814  21.861  27.706  1.00  0.00     0.014 A 
ATOM     33  C   UNL A   1      39.280  23.118  26.307  1.00  0.00     0.014 A 
ATOM     34  C   UNL A   1      41.393  23.057  28.137  1.00  0.00     0.010 A 
ATOM     35  C   UNL A   1      39.932  24.292  26.650  1.00  0.00     0.010 A 
ATOM     36  C   UNL A   1      41.000  24.277  27.563  1.00  0.00    -0.014 A 
BRANCH  36  37
ATOM     37  C   UNL A   1      41.677  25.563  27.871  1.00  0.00     0.031 A 
ATOM     38  C   UNL A   1      40.914  26.636  28.599  1.00  0.00     0.074 A 
ATOM     39  C   UNL A   1      42.903  25.825  27.369  1.00  0.00     0.049 A 
ATOM     40  N   UNL A   1      41.225  27.892  28.784  1.00  0.00    -0.248 NA
ATOM     41  C   UNL A   1      39.594  26.260  29.137  1.00  0.00     0.031 C 
ATOM     42  C   UNL A   1      43.712  24.903  26.568  1.00  0.00     0.029 A 
ATOM     43  N   UNL A   1      43.667  26.965  27.428  1.00  0.00    -0.354 N 
ATOM     44  C   UNL A   1      40.117  28.467  29.394  1.00  0.00     0.074 A 
ATOM     45  C   UNL A   1      39.112  27.435  29.514  1.00  0.00     0.031 C 
ATOM     46  C   UNL A   1      44.857  25.512  26.216  1.00  0.00     0.029 A 
ATOM     47  C   UNL A   1      44.852  26.875  26.734  1.00  0.00     0.049 A 
ATOM     48  H   UNL A   1      43.391  27.773  27.920  1.00  0.00     0.167 HD
ATOM     49  C   UNL A   1      39.960  29.733  29.846  1.00  0.00     0.034 A 
ATOM     50  C   UNL A   1      45.821  27.792  26.533  1.00  0.00     0.034 A 
ATOM     51  C   UNL A   1      40.997  30.724  29.817  1.00  0.00     0.049 A 
ATOM     52  C   UNL A   1      45.669  29.158  27.146  1.00  0.00     0.074 A 
ATOM     53  C   UNL A   1      40.982  31.999  30.351  1.00  0.00     0.029 A 
ATOM     54  N   UNL A   1      42.244  30.543  29.241  1.00  0.00    -0.354 N 
ATOM     55  N   UNL A   1      44.670  29.640  27.846  1.00  0.00    -0.248 NA
ATOM     56  C   UNL A   1      46.787  30.097  26.973  1.00  0.00     0.031 C 
ATOM     57  C   UNL A   1      42.226  32.589  30.101  1.00  0.00     0.029 A 
ATOM     58  C   UNL A   1      43.014  31.677  29.417  1.00  0.00     0.049 A 
ATOM     59  H   UNL A   1      42.538  29.727  28.775  1.00  0.00     0.167 HD
ATOM     60  C   UNL A   1      45.056  30.919  28.232  1.00  0.00     0.074 A 
ATOM     61  C   UNL A   1      46.386  31.133  27.698  1.00  0.00     0.031 C 
ATOM     62  C   UNL A   1      44.365  31.839  28.948  1.00  0.00     0.034 A 
BRANCH  49  63
ATOM     63  C   UNL A   1      38.644  30.085  30.486  1.00  0.00     0.023 A 
ATOM     64  C   UNL A   1      38.382  29.667  31.806  1.00  0.00     0.012 A 
ATOM     65  C   UNL A   1      37.684  30.857  29.802  1.00  0.00     0.148 A 
ATOM     66  C   UNL A   1      37.171  29.977  32.424  1.00  0.00     0.002 A 
ATOM     67  C   UNL A   1      36.499  31.200  30.441  1.00  0.00     0.091 A 
ATOM     68  F   UNL A   1      37.939  31.224  28.538  1.00  0.00    -0.205 F 
ATOM     69  C   UNL A   1      36.235  30.751  31.745  1.00  0.00     0.022 A 
BRANCH  67  70
ATOM     70  S   UNL A   1      35.265  32.259  29.677  1.00  0.00     0.127 S 
ATOM     71  O   UNL A   1      34.733  31.387  28.630  1.00  0.00    -0.237 OA
ATOM     72  O   UNL A   1      34.344  32.513  30.785  1.00  0.00    -0.237 OA
ATOM     73  O   UNL A   1      35.985  33.436  29.209  1.00  0.00    -0.744 OA
ENDBRANCH  67  70
ENDBRANCH  49  63
BRANCH  50  74
ATOM     74  C   UNL A   1      47.063  27.417  25.797  1.00  0.00     0.023 A 
ATOM     75  C   UNL A   1      48.069  26.702  26.475  1.00  0.00     0.012 A 
ATOM     76  C   UNL A   1      47.243  27.728  24.436  1.00  0.00     0.148 A 
ATOM     77  C   UNL A   1      49.244  26.330  25.823  1.00  0.00     0.002 A 
ATOM     78  C   UNL A   1      48.396  27.310  23.777  1.00  0.00     0.091 A 
ATOM     79  F   UNL A   1      46.283  28.422  23.808  1.00  0.00    -0.205 F 
ATOM     80  C   UNL A   1      49.403  26.625  24.472  1.00  0.00     0.022 A 
BRANCH  78  81
ATOM     81  S   UNL A   1      48.624  27.535  22.009  1.00  0.00     0.127 S 
ATOM     82  O   UNL A   1      48.828  26.162  21.556  1.00  0.00    -0.237 OA
ATOM     83  O   UNL A   1      47.349  28.132  21.610  1.00  0.00    -0.237 OA
ATOM     84  O   UNL A   1      49.768  28.427  21.876  1.00  0.00    -0.744 OA
ENDBRANCH  78  81
ENDBRANCH  50  74
BRANCH  62  85
ATOM     85  C   UNL A   1      45.041  33.148  29.251  1.00  0.00     0.023 A 
ATOM     86  C   UNL A   1      45.844  33.269  30.399  1.00  0.00     0.012 A 
ATOM     87  C   UNL A   1      44.969  34.218  28.336  1.00  0.00     0.148 A 
ATOM     88  C   UNL A   1      46.555  34.443  30.645  1.00  0.00     0.002 A 
ATOM     89  C   UNL A   1      45.713  35.369  28.564  1.00  0.00     0.091 A 
ATOM     90  F   UNL A   1      44.182  34.087  27.259  1.00  0.00    -0.205 F 
ATOM     91  C   UNL A   1      46.500  35.486  29.722  1.00  0.00     0.022 A 
BRANCH  89  92
ATOM     92  S   UNL A   1      45.777  36.719  27.382  1.00  0.00     0.127 S 
ATOM     93  O   UNL A   1      46.687  37.652  28.043  1.00  0.00    -0.237 OA
ATOM     94  O   UNL A   1      46.328  36.068  26.193  1.00  0.00    -0.237 OA
ATOM     95  O   UNL A   1      44.403  37.183  27.231  1.00  0.00    -0.744 OA
ENDBRANCH  89  92
ENDBRANCH  62  85
ENDBRANCH  36  37
ENDBRANCH  28  31
ENDBRANCH  26  27
ENDBRANCH  25  26
ENDBRANCH   1  25
TORSDOF 17
ENDMDL
