MODEL 1
REMARK VINA RESULT:      -9.6      0.000      0.000
REMARK SMILES O=C1[NH+]=C(S)N(c2cccc(Br)c2)C(=O)/C1=C/c1ccc(-c2ccc(C(=O)NCCCCNC(=O)c3ccc(-c4c5nc(c(-c6cccc(S(=O)(=O)[O-])c6F)c6ccc([nH]6)c(-c6cccc(S(=O)(=O)[O-])c6F)c6nc(c(-c7cccc(S(=O)(=O)[O-])c7F)c7ccc4[nH]7)C=C6)C=C5)cc3)cc2)o1
REMARK SMILES IDX 30 1 29 2 28 3 26 4 27 5 25 7 22 8 23 9 100 10 24 11 99 12
REMARK SMILES IDX 21 13 18 14 19 15 101 16 20 17 17 18 1 19 2 20 3 21 16 22
REMARK SMILES IDX 4 23 14 25 6 26 15 27 5 28 7 30 8 31 13 32 9 33 11 34 10 35
REMARK SMILES IDX 12 36 31 37 32 38 33 39 34 40 35 42 36 43 37 44 98 45 38 46
REMARK SMILES IDX 97 47 39 48 40 49 41 50 91 51 42 52 96 53 90 54 92 55 43 56
REMARK SMILES IDX 95 57 89 58 88 59 44 61 76 62 56 63 75 64 57 65 60 66 74 67
REMARK SMILES IDX 93 68 58 69 59 70 73 72 94 73 61 74 45 75 46 76 54 77 47 78
REMARK SMILES IDX 49 79 55 80 48 81 50 82 51 83 52 84 53 85 77 86 78 87 86 88
REMARK SMILES IDX 79 89 81 90 87 91 80 92 82 93 83 94 84 95 85 96 62 97 63 98
REMARK SMILES IDX 71 99 64 100 66 101 72 102 65 103 67 104 68 105 69 106
REMARK SMILES IDX 70 107
REMARK H PARENT 28 6 3 24 5 29 33 41 92 60 60 71
REMARK Flexibility Score: inf
ROOT
ATOM      1  C   UNL A   1      34.043  35.180  29.236  1.00  0.00     0.023 C 
ENDROOT
BRANCH   1   2
ATOM      2  C   UNL A   1      34.335  34.515  30.584  1.00  0.00     0.116 C 
BRANCH   2   3
ATOM      3  N   UNL A   1      34.098  35.448  31.670  1.00  0.00    -0.352 N 
ATOM      4  C   UNL A   1      34.760  35.665  32.854  1.00  0.00     0.251 C 
ATOM      5  O   UNL A   1      34.347  36.558  33.592  1.00  0.00    -0.269 OA
ATOM      6  H   UNL A   1      33.319  36.034  31.535  1.00  0.00     0.163 HD
BRANCH   4   7
ATOM      7  C   UNL A   1      35.987  34.915  33.246  1.00  0.00     0.039 A 
ATOM      8  C   UNL A   1      38.264  33.591  34.229  1.00  0.00     0.017 A 
ATOM      9  C   UNL A   1      37.021  33.372  34.825  1.00  0.00     0.013 A 
ATOM     10  C   UNL A   1      38.350  34.404  33.099  1.00  0.00     0.013 A 
ATOM     11  C   UNL A   1      35.890  34.041  34.341  1.00  0.00     0.014 A 
ATOM     12  C   UNL A   1      37.213  35.026  32.589  1.00  0.00     0.014 A 
BRANCH   8  13
ATOM     13  C   UNL A   1      39.484  33.037  34.771  1.00  0.00     0.134 A 
ATOM     14  C   UNL A   1      41.191  31.643  34.729  1.00  0.00     0.128 A 
ATOM     15  C   UNL A   1      41.418  32.560  35.749  1.00  0.00     0.051 A 
ATOM     16  O   UNL A   1      40.001  31.962  34.125  1.00  0.00    -0.457 OA
ATOM     17  C   UNL A   1      40.317  33.439  35.786  1.00  0.00     0.051 A 
BRANCH  14  18
ATOM     18  C   UNL A   1      42.013  30.577  34.292  1.00  0.00     0.071 C 
ATOM     19  O   UNL A   1      40.079  29.564  36.229  1.00  0.00    -0.241 OA
ATOM     20  C   UNL A   1      41.020  28.887  35.853  1.00  0.00     0.347 C 
ATOM     21  N   UNL A   1      41.234  27.649  36.376  1.00  0.00    -0.200 N 
ATOM     22  C   UNL A   1      41.991  29.340  34.825  1.00  0.00     0.158 C 
ATOM     23  C   UNL A   1      42.127  26.854  35.916  1.00  0.00     0.323 C 
ATOM     24  H   UNL A   1      40.682  27.353  37.136  1.00  0.00     0.316 HD
ATOM     25  C   UNL A   1      43.006  28.394  34.303  1.00  0.00     0.354 C 
ATOM     26  N   UNL A   1      42.999  27.132  34.880  1.00  0.00    -0.151 N 
ATOM     27  O   UNL A   1      43.783  28.744  33.413  1.00  0.00    -0.240 OA
BRANCH  23  28
ATOM     28  S   UNL A   1      42.245  25.343  36.800  1.00  0.00    -0.055 SA
ATOM     29  H   UNL A   1      43.512  24.859  36.704  1.00  0.00     0.116 HD
ENDBRANCH  23  28
BRANCH  26  30
ATOM     30  C   UNL A   1      43.937  26.174  34.381  1.00  0.00     0.138 A 
ATOM     31  C   UNL A   1      43.627  25.408  33.247  1.00  0.00     0.052 A 
ATOM     32  C   UNL A   1      45.162  25.973  35.029  1.00  0.00     0.068 A 
ATOM     33  C   UNL A   1      44.546  24.487  32.743  1.00  0.00     0.006 A 
ATOM     34  C   UNL A   1      46.071  25.044  34.523  1.00  0.00     0.022 A 
ATOM     35  C   UNL A   1      45.772  24.307  33.379  1.00  0.00     0.016 A 
ATOM     36  Br  UNL A   1      47.723  24.780  35.403  1.00  0.00    -0.051 Br
ENDBRANCH  26  30
ENDBRANCH  14  18
ENDBRANCH   8  13
ENDBRANCH   4   7
ENDBRANCH   2   3
ENDBRANCH   1   2
BRANCH   1  37
ATOM     37  C   UNL A   1      34.357  34.297  28.029  1.00  0.00     0.023 C 
BRANCH  37  38
ATOM     38  C   UNL A   1      34.975  32.949  28.377  1.00  0.00     0.116 C 
BRANCH  38  39
ATOM     39  N   UNL A   1      34.099  31.825  28.078  1.00  0.00    -0.352 N 
ATOM     40  C   UNL A   1      34.435  30.499  27.957  1.00  0.00     0.251 C 
ATOM     41  H   UNL A   1      33.148  32.043  27.946  1.00  0.00     0.163 HD
ATOM     42  O   UNL A   1      33.606  29.679  27.574  1.00  0.00    -0.269 OA
BRANCH  40  43
ATOM     43  C   UNL A   1      35.819  30.084  28.261  1.00  0.00     0.039 A 
ATOM     44  C   UNL A   1      36.783  30.153  27.254  1.00  0.00     0.014 A 
ATOM     45  C   UNL A   1      36.169  29.684  29.553  1.00  0.00     0.014 A 
ATOM     46  C   UNL A   1      38.115  29.875  27.561  1.00  0.00     0.010 A 
ATOM     47  C   UNL A   1      37.507  29.491  29.875  1.00  0.00     0.010 A 
ATOM     48  C   UNL A   1      38.494  29.575  28.881  1.00  0.00    -0.014 A 
BRANCH  48  49
ATOM     49  C   UNL A   1      39.915  29.341  29.240  1.00  0.00     0.031 A 
ATOM     50  C   UNL A   1      40.733  30.456  29.838  1.00  0.00     0.074 A 
ATOM     51  C   UNL A   1      40.486  28.151  28.972  1.00  0.00     0.049 A 
ATOM     52  N   UNL A   1      41.996  30.460  30.178  1.00  0.00    -0.248 NA
ATOM     53  C   UNL A   1      40.050  31.742  30.063  1.00  0.00     0.031 C 
ATOM     54  C   UNL A   1      39.818  27.014  28.331  1.00  0.00     0.029 A 
ATOM     55  N   UNL A   1      41.765  27.702  29.184  1.00  0.00    -0.354 N 
ATOM     56  C   UNL A   1      42.263  31.746  30.632  1.00  0.00     0.074 A 
ATOM     57  C   UNL A   1      41.045  32.511  30.478  1.00  0.00     0.031 C 
ATOM     58  C   UNL A   1      40.687  25.997  28.219  1.00  0.00     0.029 A 
ATOM     59  C   UNL A   1      41.982  26.417  28.744  1.00  0.00     0.049 A 
ATOM     60  H   UNL A   1      42.463  28.249  29.614  1.00  0.00     0.167 HD
ATOM     61  C   UNL A   1      43.406  32.238  31.166  1.00  0.00     0.034 A 
ATOM     62  C   UNL A   1      43.101  25.666  28.754  1.00  0.00     0.034 A 
ATOM     63  C   UNL A   1      44.606  31.469  31.343  1.00  0.00     0.049 A 
ATOM     64  C   UNL A   1      44.358  26.242  29.352  1.00  0.00     0.074 A 
ATOM     65  C   UNL A   1      45.801  31.859  31.922  1.00  0.00     0.029 A 
ATOM     66  N   UNL A   1      44.768  30.152  30.939  1.00  0.00    -0.354 N 
ATOM     67  N   UNL A   1      44.550  27.417  29.900  1.00  0.00    -0.248 NA
ATOM     68  C   UNL A   1      45.543  25.373  29.365  1.00  0.00     0.031 C 
ATOM     69  C   UNL A   1      46.695  30.786  31.842  1.00  0.00     0.029 A 
ATOM     70  C   UNL A   1      46.043  29.715  31.253  1.00  0.00     0.049 A 
ATOM     71  H   UNL A   1      44.078  29.609  30.495  1.00  0.00     0.167 HD
ATOM     72  C   UNL A   1      45.860  27.408  30.368  1.00  0.00     0.074 A 
ATOM     73  C   UNL A   1      46.407  26.105  30.055  1.00  0.00     0.031 C 
ATOM     74  C   UNL A   1      46.552  28.394  30.990  1.00  0.00     0.034 A 
BRANCH  61  75
ATOM     75  C   UNL A   1      43.393  33.666  31.652  1.00  0.00     0.023 A 
ATOM     76  C   UNL A   1      42.940  33.950  32.957  1.00  0.00     0.012 A 
ATOM     77  C   UNL A   1      43.886  34.713  30.849  1.00  0.00     0.148 A 
ATOM     78  C   UNL A   1      42.943  35.257  33.442  1.00  0.00     0.002 A 
ATOM     79  C   UNL A   1      43.931  36.005  31.357  1.00  0.00     0.091 A 
ATOM     80  F   UNL A   1      44.296  34.426  29.605  1.00  0.00    -0.205 F 
ATOM     81  C   UNL A   1      43.448  36.281  32.648  1.00  0.00     0.022 A 
BRANCH  79  82
ATOM     82  S   UNL A   1      44.636  37.385  30.448  1.00  0.00     0.127 S 
ATOM     83  O   UNL A   1      43.646  38.434  30.690  1.00  0.00    -0.237 OA
ATOM     84  O   UNL A   1      45.913  37.581  31.134  1.00  0.00    -0.237 OA
ATOM     85  O   UNL A   1      44.746  36.943  29.065  1.00  0.00    -0.744 OA
ENDBRANCH  79  82
ENDBRANCH  61  75
BRANCH  62  86
ATOM     86  C   UNL A   1      43.083  24.267  28.234  1.00  0.00     0.023 A 
ATOM     87  C   UNL A   1      42.498  23.247  29.011  1.00  0.00     0.012 A 
ATOM     88  C   UNL A   1      43.654  23.939  26.991  1.00  0.00     0.148 A 
ATOM     89  C   UNL A   1      42.532  21.919  28.584  1.00  0.00     0.002 A 
ATOM     90  C   UNL A   1      43.632  22.623  26.544  1.00  0.00     0.091 A 
ATOM     91  F   UNL A   1      44.213  24.921  26.268  1.00  0.00    -0.205 F 
ATOM     92  C   UNL A   1      43.091  21.607  27.349  1.00  0.00     0.022 A 
BRANCH  90  93
ATOM     93  S   UNL A   1      44.218  22.148  24.914  1.00  0.00     0.127 S 
ATOM     94  O   UNL A   1      44.073  20.696  24.955  1.00  0.00    -0.237 OA
ATOM     95  O   UNL A   1      43.270  22.839  24.040  1.00  0.00    -0.237 OA
ATOM     96  O   UNL A   1      45.585  22.647  24.829  1.00  0.00    -0.744 OA
ENDBRANCH  90  93
ENDBRANCH  62  86
BRANCH  74  97
ATOM     97  C   UNL A   1      47.958  28.086  31.437  1.00  0.00     0.023 A 
ATOM     98  C   UNL A   1      48.196  27.568  32.726  1.00  0.00     0.012 A 
ATOM     99  C   UNL A   1      49.038  28.251  30.548  1.00  0.00     0.148 A 
ATOM    100  C   UNL A   1      49.491  27.259  33.136  1.00  0.00     0.002 A 
ATOM    101  C   UNL A   1      50.319  27.889  30.944  1.00  0.00     0.091 A 
ATOM    102  F   UNL A   1      48.794  28.761  29.331  1.00  0.00    -0.205 F 
ATOM    103  C   UNL A   1      50.551  27.407  32.243  1.00  0.00     0.022 A 
BRANCH 101 104
ATOM    104  S   UNL A   1      51.726  27.949  29.830  1.00  0.00     0.127 S 
ATOM    105  O   UNL A   1      51.315  27.019  28.779  1.00  0.00    -0.237 OA
ATOM    106  O   UNL A   1      51.742  29.355  29.429  1.00  0.00    -0.237 OA
ATOM    107  O   UNL A   1      52.880  27.531  30.615  1.00  0.00    -0.744 OA
ENDBRANCH 101 104
ENDBRANCH  74  97
ENDBRANCH  48  49
ENDBRANCH  40  43
ENDBRANCH  38  39
ENDBRANCH  37  38
ENDBRANCH   1  37
TORSDOF 18
ENDMDL
MODEL 2
REMARK VINA RESULT:      -9.5      1.074      7.171
REMARK SMILES O=C1[NH+]=C(S)N(c2cccc(Br)c2)C(=O)/C1=C/c1ccc(-c2ccc(C(=O)NCCCCNC(=O)c3ccc(-c4c5nc(c(-c6cccc(S(=O)(=O)[O-])c6F)c6ccc([nH]6)c(-c6cccc(S(=O)(=O)[O-])c6F)c6nc(c(-c7cccc(S(=O)(=O)[O-])c7F)c7ccc4[nH]7)C=C6)C=C5)cc3)cc2)o1
REMARK SMILES IDX 30 1 29 2 28 3 26 4 27 5 25 7 22 8 23 9 100 10 24 11 99 12
REMARK SMILES IDX 21 13 18 14 19 15 101 16 20 17 17 18 1 19 2 20 3 21 16 22
REMARK SMILES IDX 4 23 14 25 6 26 15 27 5 28 7 30 8 31 13 32 9 33 11 34 10 35
REMARK SMILES IDX 12 36 31 37 32 38 33 39 34 40 35 42 36 43 37 44 98 45 38 46
REMARK SMILES IDX 97 47 39 48 40 49 41 50 91 51 42 52 96 53 90 54 92 55 43 56
REMARK SMILES IDX 95 57 89 58 88 59 44 61 76 62 56 63 75 64 57 65 60 66 74 67
REMARK SMILES IDX 93 68 58 69 59 70 73 72 94 73 61 74 45 75 46 76 54 77 47 78
REMARK SMILES IDX 49 79 55 80 48 81 50 82 51 83 52 84 53 85 77 86 78 87 86 88
REMARK SMILES IDX 79 89 81 90 87 91 80 92 82 93 83 94 84 95 85 96 62 97 63 98
REMARK SMILES IDX 71 99 64 100 66 101 72 102 65 103 67 104 68 105 69 106
REMARK SMILES IDX 70 107
REMARK H PARENT 28 6 3 24 5 29 33 41 92 60 60 71
REMARK Flexibility Score: inf
ROOT
ATOM      1  C   UNL A   1      33.899  34.741  29.416  1.00  0.00     0.023 C 
ENDROOT
BRANCH   1   2
ATOM      2  C   UNL A   1      34.068  34.234  30.851  1.00  0.00     0.116 C 
BRANCH   2   3
ATOM      3  N   UNL A   1      33.946  35.330  31.793  1.00  0.00    -0.352 N 
ATOM      4  C   UNL A   1      34.692  35.685  32.891  1.00  0.00     0.251 C 
ATOM      5  O   UNL A   1      34.369  36.701  33.505  1.00  0.00    -0.269 OA
ATOM      6  H   UNL A   1      33.188  35.932  31.613  1.00  0.00     0.163 HD
BRANCH   4   7
ATOM      7  C   UNL A   1      35.905  34.936  33.322  1.00  0.00     0.039 A 
ATOM      8  C   UNL A   1      38.171  33.642  34.370  1.00  0.00     0.017 A 
ATOM      9  C   UNL A   1      36.949  33.553  35.039  1.00  0.00     0.013 A 
ATOM     10  C   UNL A   1      38.237  34.305  33.145  1.00  0.00     0.013 A 
ATOM     11  C   UNL A   1      35.824  34.208  34.521  1.00  0.00     0.014 A 
ATOM     12  C   UNL A   1      37.104  34.910  32.608  1.00  0.00     0.014 A 
BRANCH   8  13
ATOM     13  C   UNL A   1      39.391  33.105  34.927  1.00  0.00     0.134 A 
ATOM     14  C   UNL A   1      41.137  31.758  34.889  1.00  0.00     0.128 A 
ATOM     15  C   UNL A   1      41.312  32.650  35.941  1.00  0.00     0.051 A 
ATOM     16  O   UNL A   1      39.954  32.064  34.263  1.00  0.00    -0.457 OA
ATOM     17  C   UNL A   1      40.188  33.498  35.975  1.00  0.00     0.051 A 
BRANCH  14  18
ATOM     18  C   UNL A   1      41.999  30.729  34.443  1.00  0.00     0.071 C 
ATOM     19  O   UNL A   1      40.047  29.607  36.301  1.00  0.00    -0.241 OA
ATOM     20  C   UNL A   1      41.016  28.967  35.930  1.00  0.00     0.347 C 
ATOM     21  N   UNL A   1      41.251  27.721  36.423  1.00  0.00    -0.200 N 
ATOM     22  C   UNL A   1      41.998  29.477  34.940  1.00  0.00     0.158 C 
ATOM     23  C   UNL A   1      42.177  26.965  35.963  1.00  0.00     0.323 C 
ATOM     24  H   UNL A   1      40.690  27.388  37.160  1.00  0.00     0.316 HD
ATOM     25  C   UNL A   1      43.051  28.574  34.416  1.00  0.00     0.354 C 
ATOM     26  N   UNL A   1      43.066  27.296  34.957  1.00  0.00    -0.151 N 
ATOM     27  O   UNL A   1      43.840  28.970  33.556  1.00  0.00    -0.240 OA
BRANCH  23  28
ATOM     28  S   UNL A   1      42.316  25.433  36.806  1.00  0.00    -0.055 SA
ATOM     29  H   UNL A   1      41.780  25.549  38.050  1.00  0.00     0.116 HD
ENDBRANCH  23  28
BRANCH  26  30
ATOM     30  C   UNL A   1      44.042  26.379  34.455  1.00  0.00     0.138 A 
ATOM     31  C   UNL A   1      43.823  25.712  33.240  1.00  0.00     0.052 A 
ATOM     32  C   UNL A   1      45.213  26.118  35.178  1.00  0.00     0.068 A 
ATOM     33  C   UNL A   1      44.781  24.832  32.733  1.00  0.00     0.006 A 
ATOM     34  C   UNL A   1      46.160  25.230  34.668  1.00  0.00     0.022 A 
ATOM     35  C   UNL A   1      45.954  24.594  33.446  1.00  0.00     0.016 A 
ATOM     36  Br  UNL A   1      47.738  24.885  35.651  1.00  0.00    -0.051 Br
ENDBRANCH  26  30
ENDBRANCH  14  18
ENDBRANCH   8  13
ENDBRANCH   4   7
ENDBRANCH   2   3
ENDBRANCH   1   2
BRANCH   1  37
ATOM     37  C   UNL A   1      34.307  33.725  28.349  1.00  0.00     0.023 C 
BRANCH  37  38
ATOM     38  C   UNL A   1      34.798  32.393  28.899  1.00  0.00     0.116 C 
BRANCH  38  39
ATOM     39  N   UNL A   1      34.088  31.250  28.343  1.00  0.00    -0.352 N 
ATOM     40  C   UNL A   1      34.602  30.029  27.979  1.00  0.00     0.251 C 
ATOM     41  H   UNL A   1      33.119  31.366  28.210  1.00  0.00     0.163 HD
ATOM     42  O   UNL A   1      33.900  29.205  27.402  1.00  0.00    -0.269 OA
BRANCH  40  43
ATOM     43  C   UNL A   1      36.023  29.742  28.262  1.00  0.00     0.039 A 
ATOM     44  C   UNL A   1      36.961  29.895  27.240  1.00  0.00     0.014 A 
ATOM     45  C   UNL A   1      36.427  29.379  29.549  1.00  0.00     0.014 A 
ATOM     46  C   UNL A   1      38.317  29.739  27.527  1.00  0.00     0.010 A 
ATOM     47  C   UNL A   1      37.782  29.309  29.850  1.00  0.00     0.010 A 
ATOM     48  C   UNL A   1      38.742  29.478  28.842  1.00  0.00    -0.014 A 
BRANCH  48  49
ATOM     49  C   UNL A   1      40.184  29.375  29.179  1.00  0.00     0.031 A 
ATOM     50  C   UNL A   1      40.921  28.083  28.946  1.00  0.00     0.074 A 
ATOM     51  C   UNL A   1      40.814  30.421  29.750  1.00  0.00     0.049 A 
ATOM     52  N   UNL A   1      42.165  27.784  29.214  1.00  0.00    -0.248 NA
ATOM     53  C   UNL A   1      40.153  26.971  28.358  1.00  0.00     0.031 C 
ATOM     54  C   UNL A   1      40.191  31.704  30.089  1.00  0.00     0.029 A 
ATOM     55  N   UNL A   1      42.113  30.567  30.166  1.00  0.00    -0.354 N 
ATOM     56  C   UNL A   1      42.324  26.452  28.850  1.00  0.00     0.074 A 
ATOM     57  C   UNL A   1      41.036  25.984  28.390  1.00  0.00     0.031 C 
ATOM     58  C   UNL A   1      41.112  32.508  30.644  1.00  0.00     0.029 A 
ATOM     59  C   UNL A   1      42.379  31.790  30.736  1.00  0.00     0.049 A 
ATOM     60  H   UNL A   1      42.792  29.860  30.065  1.00  0.00     0.167 HD
ATOM     61  C   UNL A   1      43.447  25.697  28.861  1.00  0.00     0.034 A 
ATOM     62  C   UNL A   1      43.513  32.273  31.279  1.00  0.00     0.034 A 
ATOM     63  C   UNL A   1      44.732  26.173  29.293  1.00  0.00     0.049 A 
ATOM     64  C   UNL A   1      44.746  31.408  31.279  1.00  0.00     0.074 A 
ATOM     65  C   UNL A   1      45.943  25.504  29.294  1.00  0.00     0.029 A 
ATOM     66  N   UNL A   1      44.974  27.438  29.808  1.00  0.00    -0.354 N 
ATOM     67  N   UNL A   1      44.907  30.197  30.804  1.00  0.00    -0.248 NA
ATOM     68  C   UNL A   1      45.965  31.992  31.856  1.00  0.00     0.031 C 
ATOM     69  C   UNL A   1      46.912  26.354  29.835  1.00  0.00     0.029 A 
ATOM     70  C   UNL A   1      46.313  27.567  30.132  1.00  0.00     0.049 A 
ATOM     71  H   UNL A   1      44.293  28.139  29.925  1.00  0.00     0.167 HD
ATOM     72  C   UNL A   1      46.253  29.895  30.980  1.00  0.00     0.074 A 
ATOM     73  C   UNL A   1      46.866  31.057  31.587  1.00  0.00     0.031 C 
ATOM     74  C   UNL A   1      46.920  28.753  30.678  1.00  0.00     0.034 A 
BRANCH  61  75
ATOM     75  C   UNL A   1      43.348  24.287  28.334  1.00  0.00     0.023 A 
ATOM     76  C   UNL A   1      42.684  23.306  29.100  1.00  0.00     0.012 A 
ATOM     77  C   UNL A   1      43.850  23.947  27.063  1.00  0.00     0.148 A 
ATOM     78  C   UNL A   1      42.554  22.001  28.626  1.00  0.00     0.002 A 
ATOM     79  C   UNL A   1      43.673  22.658  26.577  1.00  0.00     0.091 A 
ATOM     80  F   UNL A   1      44.493  24.888  26.357  1.00  0.00    -0.205 F 
ATOM     81  C   UNL A   1      43.038  21.681  27.362  1.00  0.00     0.022 A 
BRANCH  79  82
ATOM     82  S   UNL A   1      44.187  22.160  24.929  1.00  0.00     0.127 S 
ATOM     83  O   UNL A   1      43.830  20.741  24.925  1.00  0.00    -0.237 OA
ATOM     84  O   UNL A   1      43.345  23.003  24.080  1.00  0.00    -0.237 OA
ATOM     85  O   UNL A   1      45.613  22.441  24.848  1.00  0.00    -0.744 OA
ENDBRANCH  79  82
ENDBRANCH  61  75
BRANCH  62  86
ATOM     86  C   UNL A   1      43.565  33.663  31.821  1.00  0.00     0.023 A 
ATOM     87  C   UNL A   1      43.338  33.879  33.195  1.00  0.00     0.012 A 
ATOM     88  C   UNL A   1      43.816  34.768  30.986  1.00  0.00     0.148 A 
ATOM     89  C   UNL A   1      43.306  35.173  33.716  1.00  0.00     0.002 A 
ATOM     90  C   UNL A   1      43.842  36.049  31.523  1.00  0.00     0.091 A 
ATOM     91  F   UNL A   1      44.022  34.545  29.680  1.00  0.00    -0.205 F 
ATOM     92  C   UNL A   1      43.565  36.257  32.884  1.00  0.00     0.022 A 
BRANCH  90  93
ATOM     93  S   UNL A   1      44.288  37.493  30.551  1.00  0.00     0.127 S 
ATOM     94  O   UNL A   1      44.122  38.570  31.523  1.00  0.00    -0.237 OA
ATOM     95  O   UNL A   1      45.674  37.195  30.188  1.00  0.00    -0.237 OA
ATOM     96  O   UNL A   1      43.363  37.507  29.425  1.00  0.00    -0.744 OA
ENDBRANCH  90  93
ENDBRANCH  62  86
BRANCH  74  97
ATOM     97  C   UNL A   1      48.405  28.723  30.934  1.00  0.00     0.023 A 
ATOM     98  C   UNL A   1      49.302  29.215  29.965  1.00  0.00     0.012 A 
ATOM     99  C   UNL A   1      48.903  28.264  32.169  1.00  0.00     0.148 A 
ATOM    100  C   UNL A   1      50.675  29.211  30.207  1.00  0.00     0.002 A 
ATOM    101  C   UNL A   1      50.267  28.315  32.425  1.00  0.00     0.091 A 
ATOM    102  F   UNL A   1      48.034  27.785  33.072  1.00  0.00    -0.205 F 
ATOM    103  C   UNL A   1      51.157  28.773  31.439  1.00  0.00     0.022 A 
BRANCH 101 104
ATOM    104  S   UNL A   1      50.968  27.870  34.017  1.00  0.00     0.127 S 
ATOM    105  O   UNL A   1      50.286  28.801  34.914  1.00  0.00    -0.237 OA
ATOM    106  O   UNL A   1      50.554  26.474  34.156  1.00  0.00    -0.237 OA
ATOM    107  O   UNL A   1      52.406  28.064  33.892  1.00  0.00    -0.744 OA
ENDBRANCH 101 104
ENDBRANCH  74  97
ENDBRANCH  48  49
ENDBRANCH  40  43
ENDBRANCH  38  39
ENDBRANCH  37  38
ENDBRANCH   1  37
TORSDOF 18
ENDMDL
MODEL 3
REMARK VINA RESULT:      -9.4      3.774      5.347
REMARK SMILES O=C1[NH+]=C(S)N(c2cccc(Br)c2)C(=O)/C1=C/c1ccc(-c2ccc(C(=O)NCCCCNC(=O)c3ccc(-c4c5nc(c(-c6cccc(S(=O)(=O)[O-])c6F)c6ccc([nH]6)c(-c6cccc(S(=O)(=O)[O-])c6F)c6nc(c(-c7cccc(S(=O)(=O)[O-])c7F)c7ccc4[nH]7)C=C6)C=C5)cc3)cc2)o1
REMARK SMILES IDX 30 1 29 2 28 3 26 4 27 5 25 7 22 8 23 9 100 10 24 11 99 12
REMARK SMILES IDX 21 13 18 14 19 15 101 16 20 17 17 18 1 19 2 20 3 21 16 22
REMARK SMILES IDX 4 23 14 25 6 26 15 27 5 28 7 30 8 31 13 32 9 33 11 34 10 35
REMARK SMILES IDX 12 36 31 37 32 38 33 39 34 40 35 42 36 43 37 44 98 45 38 46
REMARK SMILES IDX 97 47 39 48 40 49 41 50 91 51 42 52 96 53 90 54 92 55 43 56
REMARK SMILES IDX 95 57 89 58 88 59 44 61 76 62 56 63 75 64 57 65 60 66 74 67
REMARK SMILES IDX 93 68 58 69 59 70 73 72 94 73 61 74 45 75 46 76 54 77 47 78
REMARK SMILES IDX 49 79 55 80 48 81 50 82 51 83 52 84 53 85 77 86 78 87 86 88
REMARK SMILES IDX 79 89 81 90 87 91 80 92 82 93 83 94 84 95 85 96 62 97 63 98
REMARK SMILES IDX 71 99 64 100 66 101 72 102 65 103 67 104 68 105 69 106
REMARK SMILES IDX 70 107
REMARK H PARENT 28 6 3 24 5 29 33 41 92 60 60 71
REMARK Flexibility Score: inf
ROOT
ATOM      1  C   UNL A   1      34.295  35.444  28.729  1.00  0.00     0.023 C 
ENDROOT
BRANCH   1   2
ATOM      2  C   UNL A   1      32.907  35.185  29.321  1.00  0.00     0.116 C 
BRANCH   2   3
ATOM      3  N   UNL A   1      32.595  36.177  30.333  1.00  0.00    -0.352 N 
ATOM      4  C   UNL A   1      33.036  36.344  31.623  1.00  0.00     0.251 C 
ATOM      5  O   UNL A   1      32.615  37.309  32.258  1.00  0.00    -0.269 OA
ATOM      6  H   UNL A   1      31.947  36.858  30.041  1.00  0.00     0.163 HD
BRANCH   4   7
ATOM      7  C   UNL A   1      34.046  35.450  32.255  1.00  0.00     0.039 A 
ATOM      8  C   UNL A   1      35.811  33.779  33.671  1.00  0.00     0.017 A 
ATOM      9  C   UNL A   1      34.452  33.463  33.610  1.00  0.00     0.013 A 
ATOM     10  C   UNL A   1      36.292  34.878  32.959  1.00  0.00     0.013 A 
ATOM     11  C   UNL A   1      33.574  34.302  32.913  1.00  0.00     0.014 A 
ATOM     12  C   UNL A   1      35.422  35.680  32.226  1.00  0.00     0.014 A 
BRANCH   8  13
ATOM     13  C   UNL A   1      36.738  33.029  34.485  1.00  0.00     0.134 A 
ATOM     14  C   UNL A   1      37.522  32.326  36.423  1.00  0.00     0.128 A 
ATOM     15  C   UNL A   1      38.178  31.622  35.420  1.00  0.00     0.051 A 
ATOM     16  O   UNL A   1      36.625  33.179  35.829  1.00  0.00    -0.457 OA
ATOM     17  C   UNL A   1      37.689  32.085  34.182  1.00  0.00     0.051 A 
BRANCH  14  18
ATOM     18  C   UNL A   1      37.656  32.208  37.826  1.00  0.00     0.071 C 
ATOM     19  O   UNL A   1      39.024  34.627  36.933  1.00  0.00    -0.241 OA
ATOM     20  C   UNL A   1      39.158  34.199  38.067  1.00  0.00     0.347 C 
ATOM     21  N   UNL A   1      40.007  34.808  38.939  1.00  0.00    -0.200 N 
ATOM     22  C   UNL A   1      38.434  33.009  38.579  1.00  0.00     0.158 C 
ATOM     23  C   UNL A   1      40.077  34.474  40.174  1.00  0.00     0.323 C 
ATOM     24  H   UNL A   1      40.588  35.532  38.610  1.00  0.00     0.316 HD
ATOM     25  C   UNL A   1      38.525  32.654  40.016  1.00  0.00     0.354 C 
ATOM     26  N   UNL A   1      39.355  33.463  40.779  1.00  0.00    -0.151 N 
ATOM     27  O   UNL A   1      37.888  31.699  40.463  1.00  0.00    -0.240 OA
BRANCH  23  28
ATOM     28  S   UNL A   1      41.289  35.368  41.074  1.00  0.00    -0.055 SA
ATOM     29  H   UNL A   1      41.141  35.120  42.403  1.00  0.00     0.116 HD
ENDBRANCH  23  28
BRANCH  26  30
ATOM     30  C   UNL A   1      39.445  33.181  42.179  1.00  0.00     0.138 A 
ATOM     31  C   UNL A   1      40.408  32.278  42.656  1.00  0.00     0.052 A 
ATOM     32  C   UNL A   1      38.563  33.782  43.085  1.00  0.00     0.068 A 
ATOM     33  C   UNL A   1      40.516  32.015  44.022  1.00  0.00     0.006 A 
ATOM     34  C   UNL A   1      38.671  33.506  44.448  1.00  0.00     0.022 A 
ATOM     35  C   UNL A   1      39.648  32.633  44.921  1.00  0.00     0.016 A 
ATOM     36  Br  UNL A   1      37.476  34.323  45.663  1.00  0.00    -0.051 Br
ENDBRANCH  26  30
ENDBRANCH  14  18
ENDBRANCH   8  13
ENDBRANCH   4   7
ENDBRANCH   2   3
ENDBRANCH   1   2
BRANCH   1  37
ATOM     37  C   UNL A   1      35.000  34.183  28.229  1.00  0.00     0.023 C 
BRANCH  37  38
ATOM     38  C   UNL A   1      34.580  32.902  28.936  1.00  0.00     0.116 C 
BRANCH  38  39
ATOM     39  N   UNL A   1      34.050  31.896  28.027  1.00  0.00    -0.352 N 
ATOM     40  C   UNL A   1      34.641  30.723  27.624  1.00  0.00     0.251 C 
ATOM     41  H   UNL A   1      33.157  32.078  27.653  1.00  0.00     0.163 HD
ATOM     42  O   UNL A   1      34.125  30.034  26.750  1.00  0.00    -0.269 OA
BRANCH  40  43
ATOM     43  C   UNL A   1      35.925  30.325  28.237  1.00  0.00     0.039 A 
ATOM     44  C   UNL A   1      35.909  29.591  29.423  1.00  0.00     0.014 A 
ATOM     45  C   UNL A   1      37.133  30.630  27.605  1.00  0.00     0.014 A 
ATOM     46  C   UNL A   1      37.111  29.112  29.947  1.00  0.00     0.010 A 
ATOM     47  C   UNL A   1      38.316  30.080  28.082  1.00  0.00     0.010 A 
ATOM     48  C   UNL A   1      38.321  29.323  29.263  1.00  0.00    -0.014 A 
BRANCH  48  49
ATOM     49  C   UNL A   1      39.599  28.763  29.770  1.00  0.00     0.031 A 
ATOM     50  C   UNL A   1      40.271  29.385  30.966  1.00  0.00     0.074 A 
ATOM     51  C   UNL A   1      40.186  27.740  29.119  1.00  0.00     0.049 A 
ATOM     52  N   UNL A   1      41.407  29.068  31.530  1.00  0.00    -0.248 NA
ATOM     53  C   UNL A   1      39.589  30.528  31.597  1.00  0.00     0.031 C 
ATOM     54  C   UNL A   1      39.669  27.097  27.907  1.00  0.00     0.029 A 
ATOM     55  N   UNL A   1      41.357  27.071  29.371  1.00  0.00    -0.354 N 
ATOM     56  C   UNL A   1      41.587  29.981  32.563  1.00  0.00     0.074 A 
ATOM     57  C   UNL A   1      40.469  30.896  32.517  1.00  0.00     0.031 C 
ATOM     58  C   UNL A   1      40.509  26.118  27.535  1.00  0.00     0.029 A 
ATOM     59  C   UNL A   1      41.642  26.086  28.453  1.00  0.00     0.049 A 
ATOM     60  H   UNL A   1      41.939  27.276  30.139  1.00  0.00     0.167 HD
ATOM     61  C   UNL A   1      42.572  30.031  33.490  1.00  0.00     0.034 A 
ATOM     62  C   UNL A   1      42.701  25.258  28.360  1.00  0.00     0.034 A 
ATOM     63  C   UNL A   1      43.667  29.103  33.549  1.00  0.00     0.049 A 
ATOM     64  C   UNL A   1      43.782  25.339  29.405  1.00  0.00     0.074 A 
ATOM     65  C   UNL A   1      44.689  29.035  34.480  1.00  0.00     0.029 A 
ATOM     66  N   UNL A   1      43.889  28.082  32.638  1.00  0.00    -0.354 N 
ATOM     67  N   UNL A   1      43.864  26.123  30.453  1.00  0.00    -0.248 NA
ATOM     68  C   UNL A   1      44.902  24.396  29.275  1.00  0.00     0.031 C 
ATOM     69  C   UNL A   1      45.544  27.990  34.116  1.00  0.00     0.029 A 
ATOM     70  C   UNL A   1      45.031  27.381  32.982  1.00  0.00     0.049 A 
ATOM     71  H   UNL A   1      43.318  27.885  31.861  1.00  0.00     0.167 HD
ATOM     72  C   UNL A   1      45.012  25.733  31.132  1.00  0.00     0.074 A 
ATOM     73  C   UNL A   1      45.584  24.631  30.386  1.00  0.00     0.031 C 
ATOM     74  C   UNL A   1      45.553  26.247  32.264  1.00  0.00     0.034 A 
BRANCH  61  75
ATOM     75  C   UNL A   1      42.478  31.095  34.555  1.00  0.00     0.023 A 
ATOM     76  C   UNL A   1      41.840  30.797  35.777  1.00  0.00     0.012 A 
ATOM     77  C   UNL A   1      43.070  32.359  34.375  1.00  0.00     0.148 A 
ATOM     78  C   UNL A   1      41.761  31.753  36.790  1.00  0.00     0.002 A 
ATOM     79  C   UNL A   1      43.031  33.289  35.407  1.00  0.00     0.091 A 
ATOM     80  F   UNL A   1      43.657  32.630  33.200  1.00  0.00    -0.205 F 
ATOM     81  C   UNL A   1      42.366  32.992  36.609  1.00  0.00     0.022 A 
BRANCH  79  82
ATOM     82  S   UNL A   1      43.846  34.886  35.310  1.00  0.00     0.127 S 
ATOM     83  O   UNL A   1      43.631  35.244  33.908  1.00  0.00    -0.237 OA
ATOM     84  O   UNL A   1      43.075  35.680  36.267  1.00  0.00    -0.237 OA
ATOM     85  O   UNL A   1      45.234  34.655  35.685  1.00  0.00    -0.744 OA
ENDBRANCH  79  82
ENDBRANCH  61  75
BRANCH  62  86
ATOM     86  C   UNL A   1      42.775  24.239  27.272  1.00  0.00     0.023 A 
ATOM     87  C   UNL A   1      43.524  24.519  26.111  1.00  0.00     0.012 A 
ATOM     88  C   UNL A   1      42.097  23.010  27.370  1.00  0.00     0.148 A 
ATOM     89  C   UNL A   1      43.551  23.617  25.047  1.00  0.00     0.002 A 
ATOM     90  C   UNL A   1      42.177  22.091  26.331  1.00  0.00     0.091 A 
ATOM     91  F   UNL A   1      41.383  22.764  28.478  1.00  0.00    -0.205 F 
ATOM     92  C   UNL A   1      42.885  22.401  25.159  1.00  0.00     0.022 A 
BRANCH  90  93
ATOM     93  S   UNL A   1      41.454  20.450  26.438  1.00  0.00     0.127 S 
ATOM     94  O   UNL A   1      42.078  19.773  25.304  1.00  0.00    -0.237 OA
ATOM     95  O   UNL A   1      41.912  20.004  27.754  1.00  0.00    -0.237 OA
ATOM     96  O   UNL A   1      40.014  20.651  26.341  1.00  0.00    -0.744 OA
ENDBRANCH  90  93
ENDBRANCH  62  86
BRANCH  74  97
ATOM     97  C   UNL A   1      46.793  25.585  32.810  1.00  0.00     0.023 A 
ATOM     98  C   UNL A   1      46.699  24.686  33.891  1.00  0.00     0.012 A 
ATOM     99  C   UNL A   1      48.043  25.808  32.202  1.00  0.00     0.148 A 
ATOM    100  C   UNL A   1      47.839  24.053  34.384  1.00  0.00     0.002 A 
ATOM    101  C   UNL A   1      49.165  25.132  32.662  1.00  0.00     0.091 A 
ATOM    102  F   UNL A   1      48.114  26.680  31.184  1.00  0.00    -0.205 F 
ATOM    103  C   UNL A   1      49.068  24.266  33.764  1.00  0.00     0.022 A 
BRANCH 101 104
ATOM    104  S   UNL A   1      50.768  25.264  31.863  1.00  0.00     0.127 S 
ATOM    105  O   UNL A   1      51.561  24.300  32.624  1.00  0.00    -0.237 OA
ATOM    106  O   UNL A   1      50.463  24.856  30.492  1.00  0.00    -0.237 OA
ATOM    107  O   UNL A   1      51.175  26.655  32.004  1.00  0.00    -0.744 OA
ENDBRANCH 101 104
ENDBRANCH  74  97
ENDBRANCH  48  49
ENDBRANCH  40  43
ENDBRANCH  38  39
ENDBRANCH  37  38
ENDBRANCH   1  37
TORSDOF 18
ENDMDL
