MODEL 1
REMARK VINA RESULT:     -11.1      0.000      0.000
REMARK SMILES Cc1ccc2nc(Cl)c([C@@H]3CC(c4cccs4)=NN3C(=O)CCCC(=O)NCCCCNC(=O)c3ccc(-c4c5nc(c(-c6cccc(S(=O)(=O)[O-])c6F)c6ccc([nH]6)c(-c6cccc(S(=O)(=O)[O-])c6F)c6nc(c(-c7cccc(S(=O)(=O)[O-])c7F)c7ccc4[nH]7)C=C6)C=C5)cc3)cc2c1
REMARK SMILES IDX 28 1 27 2 25 3 26 4 24 6 23 7 22 8 20 9 21 10 19 11 10 12
REMARK SMILES IDX 11 13 12 14 18 15 9 16 1 17 2 18 3 19 100 20 4 21 99 22 5 23
REMARK SMILES IDX 98 24 6 25 7 26 8 27 13 28 14 29 17 30 15 31 16 32 29 33
REMARK SMILES IDX 30 34 31 35 32 36 33 37 34 39 35 40 36 41 97 42 37 43 96 44
REMARK SMILES IDX 38 45 39 46 40 47 90 48 41 49 95 50 89 51 91 52 42 53 94 54
REMARK SMILES IDX 88 55 87 56 43 58 75 59 55 60 74 61 56 62 59 63 73 64 92 65
REMARK SMILES IDX 57 66 58 67 72 69 93 70 60 71 44 72 45 73 53 74 46 75 48 76
REMARK SMILES IDX 54 77 47 78 49 79 50 80 51 81 52 82 76 83 77 84 85 85 78 86
REMARK SMILES IDX 80 87 86 88 79 89 81 90 82 91 83 92 84 93 61 94 62 95 70 96
REMARK SMILES IDX 63 97 65 98 71 99 64 100 66 101 67 102 68 103 69 104
REMARK H PARENT 27 5 32 38 91 57 59 68
REMARK Flexibility Score: inf
ROOT
ATOM      1  C   UNL A   1      39.486  27.426  28.133  1.00  0.00     0.116 C 
ENDROOT
BRANCH   1   2
ATOM      2  N   UNL A   1      40.437  27.079  27.093  1.00  0.00    -0.356 N 
ATOM      3  C   UNL A   1      40.748  25.925  26.459  1.00  0.00     0.220 C 
ATOM      4  O   UNL A   1      41.219  26.031  25.319  1.00  0.00    -0.275 OA
ATOM      5  H   UNL A   1      40.969  27.848  26.782  1.00  0.00     0.163 HD
BRANCH   3   6
ATOM      6  C   UNL A   1      40.476  24.534  26.995  1.00  0.00     0.100 C 
BRANCH   6   7
ATOM      7  C   UNL A   1      39.060  24.099  27.290  1.00  0.00     0.020 C 
BRANCH   7   8
ATOM      8  C   UNL A   1      38.049  24.129  26.163  1.00  0.00     0.103 C 
BRANCH   8   9
ATOM      9  C   UNL A   1      37.215  22.898  25.801  1.00  0.00     0.243 C 
ATOM     10  O   UNL A   1      37.843  21.823  25.866  1.00  0.00    -0.273 OA
BRANCH   9  11
ATOM     11  N   UNL A   1      35.825  22.889  25.574  1.00  0.00    -0.225 N 
ATOM     12  C   UNL A   1      34.953  23.613  24.569  1.00  0.00     0.150 C 
ATOM     13  C   UNL A   1      34.259  22.480  23.805  1.00  0.00     0.092 C 
ATOM     14  C   UNL A   1      34.522  21.343  24.735  1.00  0.00     0.081 C 
ATOM     15  N   UNL A   1      35.325  21.596  25.719  1.00  0.00    -0.173 NA
BRANCH  12  16
ATOM     16  C   UNL A   1      33.947  24.641  25.101  1.00  0.00     0.015 A 
ATOM     17  C   UNL A   1      33.998  30.489  27.119  1.00  0.00     0.044 C 
ATOM     18  C   UNL A   1      33.356  29.172  26.781  1.00  0.00    -0.050 A 
ATOM     19  C   UNL A   1      32.224  28.737  27.469  1.00  0.00     0.005 A 
ATOM     20  C   UNL A   1      33.937  28.322  25.827  1.00  0.00     0.013 A 
ATOM     21  C   UNL A   1      31.710  27.459  27.232  1.00  0.00     0.029 A 
ATOM     22  C   UNL A   1      33.473  26.999  25.662  1.00  0.00     0.001 A 
ATOM     23  C   UNL A   1      32.342  26.568  26.374  1.00  0.00     0.072 A 
ATOM     24  C   UNL A   1      34.214  26.020  24.953  1.00  0.00     0.019 A 
ATOM     25  N   UNL A   1      31.950  25.288  26.350  1.00  0.00    -0.236 NA
ATOM     26  C   UNL A   1      32.749  24.364  25.758  1.00  0.00     0.135 A 
ATOM     27  Cl  UNL A   1      32.096  22.796  25.994  1.00  0.00    -0.062 Cl
ENDBRANCH  12  16
BRANCH  14  28
ATOM     28  C   UNL A   1      34.038  20.017  24.488  1.00  0.00     0.050 A 
ATOM     29  C   UNL A   1      34.696  18.823  24.702  1.00  0.00     0.022 A 
ATOM     30  S   UNL A   1      32.431  19.779  23.966  1.00  0.00    -0.142 S 
ATOM     31  C   UNL A   1      33.848  17.700  24.476  1.00  0.00     0.012 A 
ATOM     32  C   UNL A   1      32.593  18.079  24.055  1.00  0.00     0.065 A 
ENDBRANCH  14  28
ENDBRANCH   9  11
ENDBRANCH   8   9
ENDBRANCH   7   8
ENDBRANCH   6   7
ENDBRANCH   3   6
ENDBRANCH   1   2
BRANCH   1  33
ATOM     33  C   UNL A   1      39.375  28.925  28.404  1.00  0.00     0.023 C 
BRANCH  33  34
ATOM     34  C   UNL A   1      37.907  29.361  28.545  1.00  0.00     0.023 C 
BRANCH  34  35
ATOM     35  C   UNL A   1      37.708  30.696  29.266  1.00  0.00     0.116 C 
BRANCH  35  36
ATOM     36  N   UNL A   1      36.848  30.605  30.429  1.00  0.00    -0.352 N 
ATOM     37  C   UNL A   1      37.150  30.121  31.685  1.00  0.00     0.251 C 
ATOM     38  H   UNL A   1      35.927  30.932  30.306  1.00  0.00     0.163 HD
ATOM     39  O   UNL A   1      36.287  30.064  32.543  1.00  0.00    -0.269 OA
BRANCH  37  40
ATOM     40  C   UNL A   1      38.515  29.610  31.970  1.00  0.00     0.039 A 
ATOM     41  C   UNL A   1      38.683  28.229  32.095  1.00  0.00     0.014 A 
ATOM     42  C   UNL A   1      39.613  30.465  32.107  1.00  0.00     0.014 A 
ATOM     43  C   UNL A   1      39.958  27.698  32.308  1.00  0.00     0.010 A 
ATOM     44  C   UNL A   1      40.896  29.928  32.269  1.00  0.00     0.010 A 
ATOM     45  C   UNL A   1      41.081  28.540  32.374  1.00  0.00    -0.014 A 
BRANCH  45  46
ATOM     46  C   UNL A   1      42.441  27.959  32.552  1.00  0.00     0.031 A 
ATOM     47  C   UNL A   1      43.261  27.542  31.361  1.00  0.00     0.074 A 
ATOM     48  C   UNL A   1      42.937  27.779  33.794  1.00  0.00     0.049 A 
ATOM     49  N   UNL A   1      44.480  27.063  31.325  1.00  0.00    -0.248 NA
ATOM     50  C   UNL A   1      42.626  27.659  30.038  1.00  0.00     0.031 C 
ATOM     51  C   UNL A   1      42.225  28.073  35.039  1.00  0.00     0.029 A 
ATOM     52  N   UNL A   1      44.153  27.295  34.215  1.00  0.00    -0.354 N 
ATOM     53  C   UNL A   1      44.748  26.799  29.988  1.00  0.00     0.074 A 
ATOM     54  C   UNL A   1      43.553  27.140  29.245  1.00  0.00     0.031 C 
ATOM     55  C   UNL A   1      43.017  27.771  36.081  1.00  0.00     0.029 A 
ATOM     56  C   UNL A   1      44.286  27.247  35.584  1.00  0.00     0.049 A 
ATOM     57  H   UNL A   1      44.861  27.008  33.596  1.00  0.00     0.167 HD
ATOM     58  C   UNL A   1      45.892  26.345  29.420  1.00  0.00     0.034 A 
ATOM     59  C   UNL A   1      45.314  26.836  36.354  1.00  0.00     0.034 A 
ATOM     60  C   UNL A   1      47.095  26.043  30.150  1.00  0.00     0.049 A 
ATOM     61  C   UNL A   1      46.590  26.378  35.697  1.00  0.00     0.074 A 
ATOM     62  C   UNL A   1      48.328  25.658  29.654  1.00  0.00     0.029 A 
ATOM     63  N   UNL A   1      47.216  26.084  31.531  1.00  0.00    -0.354 N 
ATOM     64  N   UNL A   1      46.881  26.301  34.422  1.00  0.00    -0.248 NA
ATOM     65  C   UNL A   1      47.696  25.993  36.588  1.00  0.00     0.031 C 
ATOM     66  C   UNL A   1      49.189  25.443  30.736  1.00  0.00     0.029 A 
ATOM     67  C   UNL A   1      48.500  25.723  31.904  1.00  0.00     0.049 A 
ATOM     68  H   UNL A   1      46.495  26.333  32.153  1.00  0.00     0.167 HD
ATOM     69  C   UNL A   1      48.211  25.900  34.356  1.00  0.00     0.074 A 
ATOM     70  C   UNL A   1      48.676  25.769  35.722  1.00  0.00     0.031 C 
ATOM     71  C   UNL A   1      48.974  25.652  33.262  1.00  0.00     0.034 A 
BRANCH  58  72
ATOM     72  C   UNL A   1      45.918  26.197  27.921  1.00  0.00     0.023 A 
ATOM     73  C   UNL A   1      46.310  27.291  27.123  1.00  0.00     0.012 A 
ATOM     74  C   UNL A   1      45.619  24.965  27.306  1.00  0.00     0.148 A 
ATOM     75  C   UNL A   1      46.368  27.174  25.734  1.00  0.00     0.002 A 
ATOM     76  C   UNL A   1      45.722  24.844  25.924  1.00  0.00     0.091 A 
ATOM     77  F   UNL A   1      45.232  23.941  28.078  1.00  0.00    -0.205 F 
ATOM     78  C   UNL A   1      46.084  25.950  25.137  1.00  0.00     0.022 A 
BRANCH  76  79
ATOM     79  S   UNL A   1      45.457  23.288  25.067  1.00  0.00     0.127 S 
ATOM     80  O   UNL A   1      46.320  22.382  25.826  1.00  0.00    -0.237 OA
ATOM     81  O   UNL A   1      44.023  23.068  25.261  1.00  0.00    -0.237 OA
ATOM     82  O   UNL A   1      45.853  23.517  23.685  1.00  0.00    -0.744 OA
ENDBRANCH  76  79
ENDBRANCH  58  72
BRANCH  59  83
ATOM     83  C   UNL A   1      45.210  26.911  37.840  1.00  0.00     0.023 A 
ATOM     84  C   UNL A   1      44.905  25.748  38.574  1.00  0.00     0.012 A 
ATOM     85  C   UNL A   1      45.429  28.120  38.529  1.00  0.00     0.148 A 
ATOM     86  C   UNL A   1      44.784  25.796  39.964  1.00  0.00     0.002 A 
ATOM     87  C   UNL A   1      45.363  28.147  39.918  1.00  0.00     0.091 A 
ATOM     88  F   UNL A   1      45.705  29.219  37.812  1.00  0.00    -0.205 F 
ATOM     89  C   UNL A   1      45.023  26.991  40.636  1.00  0.00     0.022 A 
BRANCH  87  90
ATOM     90  S   UNL A   1      45.786  29.611  40.869  1.00  0.00     0.127 S 
ATOM     91  O   UNL A   1      47.062  29.998  40.272  1.00  0.00    -0.237 OA
ATOM     92  O   UNL A   1      44.667  30.504  40.566  1.00  0.00    -0.237 OA
ATOM     93  O   UNL A   1      45.842  29.174  42.258  1.00  0.00    -0.744 OA
ENDBRANCH  87  90
ENDBRANCH  59  83
BRANCH  71  94
ATOM     94  C   UNL A   1      50.410  25.252  33.483  1.00  0.00     0.023 A 
ATOM     95  C   UNL A   1      51.394  26.240  33.686  1.00  0.00     0.012 A 
ATOM     96  C   UNL A   1      50.772  23.891  33.566  1.00  0.00     0.148 A 
ATOM     97  C   UNL A   1      52.718  25.883  33.935  1.00  0.00     0.002 A 
ATOM     98  C   UNL A   1      52.084  23.544  33.862  1.00  0.00     0.091 A 
ATOM     99  F   UNL A   1      49.829  22.964  33.350  1.00  0.00    -0.205 F 
ATOM    100  C   UNL A   1      53.061  24.537  34.035  1.00  0.00     0.022 A 
BRANCH  98 101
ATOM    101  S   UNL A   1      52.594  21.837  34.106  1.00  0.00     0.127 S 
ATOM    102  O   UNL A   1      53.965  22.002  34.587  1.00  0.00    -0.237 OA
ATOM    103  O   UNL A   1      51.645  21.369  35.117  1.00  0.00    -0.237 OA
ATOM    104  O   UNL A   1      52.458  21.190  32.809  1.00  0.00    -0.744 OA
ENDBRANCH  98 101
ENDBRANCH  71  94
ENDBRANCH  45  46
ENDBRANCH  37  40
ENDBRANCH  35  36
ENDBRANCH  34  35
ENDBRANCH  33  34
ENDBRANCH   1  33
TORSDOF 20
ENDMDL
MODEL 2
REMARK VINA RESULT:     -10.7      5.837      8.797
REMARK SMILES Cc1ccc2nc(Cl)c([C@@H]3CC(c4cccs4)=NN3C(=O)CCCC(=O)NCCCCNC(=O)c3ccc(-c4c5nc(c(-c6cccc(S(=O)(=O)[O-])c6F)c6ccc([nH]6)c(-c6cccc(S(=O)(=O)[O-])c6F)c6nc(c(-c7cccc(S(=O)(=O)[O-])c7F)c7ccc4[nH]7)C=C6)C=C5)cc3)cc2c1
REMARK SMILES IDX 28 1 27 2 25 3 26 4 24 6 23 7 22 8 20 9 21 10 19 11 10 12
REMARK SMILES IDX 11 13 12 14 18 15 9 16 1 17 2 18 3 19 100 20 4 21 99 22 5 23
REMARK SMILES IDX 98 24 6 25 7 26 8 27 13 28 14 29 17 30 15 31 16 32 29 33
REMARK SMILES IDX 30 34 31 35 32 36 33 37 34 39 35 40 36 41 97 42 37 43 96 44
REMARK SMILES IDX 38 45 39 46 40 47 90 48 41 49 95 50 89 51 91 52 42 53 94 54
REMARK SMILES IDX 88 55 87 56 43 58 75 59 55 60 74 61 56 62 59 63 73 64 92 65
REMARK SMILES IDX 57 66 58 67 72 69 93 70 60 71 44 72 45 73 53 74 46 75 48 76
REMARK SMILES IDX 54 77 47 78 49 79 50 80 51 81 52 82 76 83 77 84 85 85 78 86
REMARK SMILES IDX 80 87 86 88 79 89 81 90 82 91 83 92 84 93 61 94 62 95 70 96
REMARK SMILES IDX 63 97 65 98 71 99 64 100 66 101 67 102 68 103 69 104
REMARK H PARENT 27 5 32 38 91 57 59 68
REMARK Flexibility Score: inf
ROOT
ATOM      1  C   UNL A   1      41.713  21.513  27.377  1.00  0.00     0.116 C 
ENDROOT
BRANCH   1   2
ATOM      2  N   UNL A   1      40.977  22.757  27.513  1.00  0.00    -0.356 N 
ATOM      3  C   UNL A   1      39.726  23.143  27.173  1.00  0.00     0.220 C 
ATOM      4  O   UNL A   1      39.232  24.062  27.839  1.00  0.00    -0.275 OA
ATOM      5  H   UNL A   1      41.500  23.471  27.946  1.00  0.00     0.163 HD
BRANCH   3   6
ATOM      6  C   UNL A   1      38.864  22.480  26.118  1.00  0.00     0.100 C 
BRANCH   6   7
ATOM      7  C   UNL A   1      37.442  22.939  25.903  1.00  0.00     0.020 C 
BRANCH   7   8
ATOM      8  C   UNL A   1      37.110  23.683  24.625  1.00  0.00     0.103 C 
BRANCH   8   9
ATOM      9  C   UNL A   1      35.931  23.272  23.741  1.00  0.00     0.243 C 
ATOM     10  O   UNL A   1      36.254  22.947  22.582  1.00  0.00    -0.273 OA
BRANCH   9  11
ATOM     11  N   UNL A   1      34.604  23.092  24.180  1.00  0.00    -0.225 N 
ATOM     12  C   UNL A   1      33.288  23.674  23.708  1.00  0.00     0.150 C 
ATOM     13  C   UNL A   1      32.462  22.442  23.319  1.00  0.00     0.092 C 
ATOM     14  C   UNL A   1      33.258  21.375  23.993  1.00  0.00     0.081 C 
ATOM     15  N   UNL A   1      34.386  21.754  24.504  1.00  0.00    -0.173 NA
BRANCH  12  16
ATOM     16  C   UNL A   1      32.524  24.592  24.669  1.00  0.00     0.015 A 
ATOM     17  C   UNL A   1      32.137  30.642  25.901  1.00  0.00     0.044 C 
ATOM     18  C   UNL A   1      31.796  29.191  26.092  1.00  0.00    -0.050 A 
ATOM     19  C   UNL A   1      31.410  28.711  27.342  1.00  0.00     0.005 A 
ATOM     20  C   UNL A   1      31.942  28.280  25.033  1.00  0.00     0.013 A 
ATOM     21  C   UNL A   1      31.214  27.340  27.536  1.00  0.00     0.029 A 
ATOM     22  C   UNL A   1      31.839  26.890  25.257  1.00  0.00     0.001 A 
ATOM     23  C   UNL A   1      31.466  26.419  26.526  1.00  0.00     0.072 A 
ATOM     24  C   UNL A   1      32.282  25.936  24.308  1.00  0.00     0.019 A 
ATOM     25  N   UNL A   1      31.486  25.113  26.818  1.00  0.00    -0.236 NA
ATOM     26  C   UNL A   1      32.027  24.246  25.925  1.00  0.00     0.135 A 
ATOM     27  Cl  UNL A   1      32.065  22.669  26.598  1.00  0.00    -0.062 Cl
ENDBRANCH  12  16
BRANCH  14  28
ATOM     28  C   UNL A   1      32.878  19.994  23.962  1.00  0.00     0.050 A 
ATOM     29  C   UNL A   1      32.534  19.236  22.862  1.00  0.00     0.022 A 
ATOM     30  S   UNL A   1      32.929  19.063  25.392  1.00  0.00    -0.142 S 
ATOM     31  C   UNL A   1      32.355  17.863  23.197  1.00  0.00     0.012 A 
ATOM     32  C   UNL A   1      32.525  17.634  24.545  1.00  0.00     0.065 A 
ENDBRANCH  14  28
ENDBRANCH   9  11
ENDBRANCH   8   9
ENDBRANCH   7   8
ENDBRANCH   6   7
ENDBRANCH   3   6
ENDBRANCH   1   2
BRANCH   1  33
ATOM     33  C   UNL A   1      40.830  20.281  27.193  1.00  0.00     0.023 C 
BRANCH  33  34
ATOM     34  C   UNL A   1      41.404  19.335  26.126  1.00  0.00     0.023 C 
BRANCH  34  35
ATOM     35  C   UNL A   1      42.902  19.052  26.268  1.00  0.00     0.116 C 
BRANCH  35  36
ATOM     36  N   UNL A   1      43.588  18.908  25.001  1.00  0.00    -0.352 N 
ATOM     37  C   UNL A   1      44.289  19.862  24.292  1.00  0.00     0.251 C 
ATOM     38  H   UNL A   1      43.549  18.013  24.593  1.00  0.00     0.163 HD
ATOM     39  O   UNL A   1      44.766  19.588  23.204  1.00  0.00    -0.269 OA
BRANCH  37  40
ATOM     40  C   UNL A   1      44.408  21.241  24.828  1.00  0.00     0.039 A 
ATOM     41  C   UNL A   1      45.169  21.429  25.985  1.00  0.00     0.014 A 
ATOM     42  C   UNL A   1      43.792  22.333  24.209  1.00  0.00     0.014 A 
ATOM     43  C   UNL A   1      45.355  22.717  26.495  1.00  0.00     0.010 A 
ATOM     44  C   UNL A   1      44.022  23.626  24.692  1.00  0.00     0.010 A 
ATOM     45  C   UNL A   1      44.803  23.832  25.841  1.00  0.00    -0.014 A 
BRANCH  45  46
ATOM     46  C   UNL A   1      45.049  25.204  26.366  1.00  0.00     0.031 A 
ATOM     47  C   UNL A   1      46.437  25.787  26.373  1.00  0.00     0.074 A 
ATOM     48  C   UNL A   1      44.024  25.925  26.865  1.00  0.00     0.049 A 
ATOM     49  N   UNL A   1      46.827  26.980  26.748  1.00  0.00    -0.248 NA
ATOM     50  C   UNL A   1      47.531  24.914  25.918  1.00  0.00     0.031 C 
ATOM     51  C   UNL A   1      42.641  25.458  26.986  1.00  0.00     0.029 A 
ATOM     52  N   UNL A   1      43.987  27.201  27.377  1.00  0.00    -0.354 N 
ATOM     53  C   UNL A   1      48.209  26.993  26.599  1.00  0.00     0.074 A 
ATOM     54  C   UNL A   1      48.593  25.678  26.132  1.00  0.00     0.031 C 
ATOM     55  C   UNL A   1      41.892  26.434  27.527  1.00  0.00     0.029 A 
ATOM     56  C   UNL A   1      42.740  27.589  27.808  1.00  0.00     0.049 A 
ATOM     57  H   UNL A   1      44.780  27.782  27.431  1.00  0.00     0.167 HD
ATOM     58  C   UNL A   1      49.079  28.012  26.802  1.00  0.00     0.034 A 
ATOM     59  C   UNL A   1      42.321  28.746  28.362  1.00  0.00     0.034 A 
ATOM     60  C   UNL A   1      48.697  29.332  27.229  1.00  0.00     0.049 A 
ATOM     61  C   UNL A   1      43.299  29.878  28.534  1.00  0.00     0.074 A 
ATOM     62  C   UNL A   1      49.496  30.452  27.380  1.00  0.00     0.029 A 
ATOM     63  N   UNL A   1      47.410  29.710  27.579  1.00  0.00    -0.354 N 
ATOM     64  N   UNL A   1      44.571  29.924  28.223  1.00  0.00    -0.248 NA
ATOM     65  C   UNL A   1      42.773  31.134  29.092  1.00  0.00     0.031 C 
ATOM     66  C   UNL A   1      48.697  31.502  27.845  1.00  0.00     0.029 A 
ATOM     67  C   UNL A   1      47.394  31.043  27.955  1.00  0.00     0.049 A 
ATOM     68  H   UNL A   1      46.624  29.118  27.564  1.00  0.00     0.167 HD
ATOM     69  C   UNL A   1      44.989  31.220  28.508  1.00  0.00     0.074 A 
ATOM     70  C   UNL A   1      43.827  31.934  28.999  1.00  0.00     0.031 C 
ATOM     71  C   UNL A   1      46.224  31.764  28.385  1.00  0.00     0.034 A 
BRANCH  58  72
ATOM     72  C   UNL A   1      50.536  27.757  26.511  1.00  0.00     0.023 A 
ATOM     73  C   UNL A   1      51.398  27.384  27.562  1.00  0.00     0.012 A 
ATOM     74  C   UNL A   1      51.038  27.822  25.196  1.00  0.00     0.148 A 
ATOM     75  C   UNL A   1      52.744  27.116  27.316  1.00  0.00     0.002 A 
ATOM     76  C   UNL A   1      52.371  27.512  24.953  1.00  0.00     0.091 A 
ATOM     77  F   UNL A   1      50.208  28.196  24.212  1.00  0.00    -0.205 F 
ATOM     78  C   UNL A   1      53.228  27.170  26.013  1.00  0.00     0.022 A 
BRANCH  76  79
ATOM     79  S   UNL A   1      53.069  27.472  23.298  1.00  0.00     0.127 S 
ATOM     80  O   UNL A   1      53.156  28.897  22.980  1.00  0.00    -0.237 OA
ATOM     81  O   UNL A   1      54.360  26.819  23.522  1.00  0.00    -0.237 OA
ATOM     82  O   UNL A   1      52.136  26.705  22.486  1.00  0.00    -0.744 OA
ENDBRANCH  76  79
ENDBRANCH  58  72
BRANCH  59  83
ATOM     83  C   UNL A   1      40.884  28.922  28.723  1.00  0.00     0.023 A 
ATOM     84  C   UNL A   1      39.932  29.122  27.705  1.00  0.00     0.012 A 
ATOM     85  C   UNL A   1      40.456  28.875  30.064  1.00  0.00     0.148 A 
ATOM     86  C   UNL A   1      38.584  29.307  28.018  1.00  0.00     0.002 A 
ATOM     87  C   UNL A   1      39.104  29.004  30.364  1.00  0.00     0.091 A 
ATOM     88  F   UNL A   1      41.379  28.697  31.020  1.00  0.00    -0.205 F 
ATOM     89  C   UNL A   1      38.169  29.238  29.344  1.00  0.00     0.022 A 
BRANCH  87  90
ATOM     90  S   UNL A   1      38.468  28.794  32.030  1.00  0.00     0.127 S 
ATOM     91  O   UNL A   1      39.113  29.897  32.739  1.00  0.00    -0.237 OA
ATOM     92  O   UNL A   1      37.026  28.952  31.827  1.00  0.00    -0.237 OA
ATOM     93  O   UNL A   1      38.870  27.455  32.439  1.00  0.00    -0.744 OA
ENDBRANCH  87  90
ENDBRANCH  59  83
BRANCH  71  94
ATOM     94  C   UNL A   1      46.391  33.219  28.745  1.00  0.00     0.023 A 
ATOM     95  C   UNL A   1      46.710  33.585  30.067  1.00  0.00     0.012 A 
ATOM     96  C   UNL A   1      46.305  34.218  27.754  1.00  0.00     0.148 A 
ATOM     97  C   UNL A   1      46.910  34.923  30.405  1.00  0.00     0.002 A 
ATOM     98  C   UNL A   1      46.552  35.544  28.088  1.00  0.00     0.091 A 
ATOM     99  F   UNL A   1      45.980  33.855  26.505  1.00  0.00    -0.205 F 
ATOM    100  C   UNL A   1      46.843  35.900  29.414  1.00  0.00     0.022 A 
BRANCH  98 101
ATOM    101  S   UNL A   1      46.584  36.855  26.858  1.00  0.00     0.127 S 
ATOM    102  O   UNL A   1      45.171  36.961  26.500  1.00  0.00    -0.237 OA
ATOM    103  O   UNL A   1      47.106  37.988  27.622  1.00  0.00    -0.237 OA
ATOM    104  O   UNL A   1      47.466  36.386  25.798  1.00  0.00    -0.744 OA
ENDBRANCH  98 101
ENDBRANCH  71  94
ENDBRANCH  45  46
ENDBRANCH  37  40
ENDBRANCH  35  36
ENDBRANCH  34  35
ENDBRANCH  33  34
ENDBRANCH   1  33
TORSDOF 20
ENDMDL
MODEL 3
REMARK VINA RESULT:     -10.6      5.483      9.566
REMARK SMILES Cc1ccc2nc(Cl)c([C@@H]3CC(c4cccs4)=NN3C(=O)CCCC(=O)NCCCCNC(=O)c3ccc(-c4c5nc(c(-c6cccc(S(=O)(=O)[O-])c6F)c6ccc([nH]6)c(-c6cccc(S(=O)(=O)[O-])c6F)c6nc(c(-c7cccc(S(=O)(=O)[O-])c7F)c7ccc4[nH]7)C=C6)C=C5)cc3)cc2c1
REMARK SMILES IDX 28 1 27 2 25 3 26 4 24 6 23 7 22 8 20 9 21 10 19 11 10 12
REMARK SMILES IDX 11 13 12 14 18 15 9 16 1 17 2 18 3 19 100 20 4 21 99 22 5 23
REMARK SMILES IDX 98 24 6 25 7 26 8 27 13 28 14 29 17 30 15 31 16 32 29 33
REMARK SMILES IDX 30 34 31 35 32 36 33 37 34 39 35 40 36 41 97 42 37 43 96 44
REMARK SMILES IDX 38 45 39 46 40 47 90 48 41 49 95 50 89 51 91 52 42 53 94 54
REMARK SMILES IDX 88 55 87 56 43 58 75 59 55 60 74 61 56 62 59 63 73 64 92 65
REMARK SMILES IDX 57 66 58 67 72 69 93 70 60 71 44 72 45 73 53 74 46 75 48 76
REMARK SMILES IDX 54 77 47 78 49 79 50 80 51 81 52 82 76 83 77 84 85 85 78 86
REMARK SMILES IDX 80 87 86 88 79 89 81 90 82 91 83 92 84 93 61 94 62 95 70 96
REMARK SMILES IDX 63 97 65 98 71 99 64 100 66 101 67 102 68 103 69 104
REMARK H PARENT 27 5 32 38 91 57 59 68
REMARK Flexibility Score: inf
ROOT
ATOM      1  C   UNL A   1      41.674  21.665  27.435  1.00  0.00     0.116 C 
ENDROOT
BRANCH   1   2
ATOM      2  N   UNL A   1      40.783  22.809  27.359  1.00  0.00    -0.356 N 
ATOM      3  C   UNL A   1      39.531  22.987  26.877  1.00  0.00     0.220 C 
ATOM      4  O   UNL A   1      38.870  23.901  27.384  1.00  0.00    -0.275 OA
ATOM      5  H   UNL A   1      41.173  23.630  27.739  1.00  0.00     0.163 HD
BRANCH   3   6
ATOM      6  C   UNL A   1      38.858  22.101  25.847  1.00  0.00     0.100 C 
BRANCH   6   7
ATOM      7  C   UNL A   1      37.372  22.212  25.608  1.00  0.00     0.020 C 
BRANCH   7   8
ATOM      8  C   UNL A   1      36.856  23.395  24.813  1.00  0.00     0.103 C 
BRANCH   8   9
ATOM      9  C   UNL A   1      35.542  24.091  25.172  1.00  0.00     0.243 C 
ATOM     10  O   UNL A   1      35.685  25.130  25.845  1.00  0.00    -0.273 OA
BRANCH   9  11
ATOM     11  N   UNL A   1      34.270  23.742  24.677  1.00  0.00    -0.225 N 
ATOM     12  C   UNL A   1      33.128  22.947  25.275  1.00  0.00     0.150 C 
ATOM     13  C   UNL A   1      31.956  23.934  25.274  1.00  0.00     0.092 C 
ATOM     14  C   UNL A   1      32.486  24.962  24.332  1.00  0.00     0.081 C 
ATOM     15  N   UNL A   1      33.720  24.813  23.974  1.00  0.00    -0.173 NA
BRANCH  12  16
ATOM     16  C   UNL A   1      32.754  21.617  24.609  1.00  0.00     0.015 A 
ATOM     17  C   UNL A   1      33.585  15.574  25.645  1.00  0.00     0.044 C 
ATOM     18  C   UNL A   1      33.080  16.767  24.882  1.00  0.00    -0.050 A 
ATOM     19  C   UNL A   1      32.924  16.709  23.498  1.00  0.00     0.005 A 
ATOM     20  C   UNL A   1      32.839  17.983  25.540  1.00  0.00     0.013 A 
ATOM     21  C   UNL A   1      32.572  17.859  22.785  1.00  0.00     0.029 A 
ATOM     22  C   UNL A   1      32.580  19.162  24.807  1.00  0.00     0.001 A 
ATOM     23  C   UNL A   1      32.442  19.092  23.411  1.00  0.00     0.072 A 
ATOM     24  C   UNL A   1      32.643  20.449  25.396  1.00  0.00     0.019 A 
ATOM     25  N   UNL A   1      32.329  20.199  22.667  1.00  0.00    -0.236 NA
ATOM     26  C   UNL A   1      32.513  21.410  23.252  1.00  0.00     0.135 A 
ATOM     27  Cl  UNL A   1      32.464  22.643  22.062  1.00  0.00    -0.062 Cl
ENDBRANCH  12  16
BRANCH  14  28
ATOM     28  C   UNL A   1      31.734  26.121  23.953  1.00  0.00     0.050 A 
ATOM     29  C   UNL A   1      31.219  27.102  24.777  1.00  0.00     0.022 A 
ATOM     30  S   UNL A   1      31.482  26.473  22.302  1.00  0.00    -0.142 S 
ATOM     31  C   UNL A   1      30.652  28.177  24.032  1.00  0.00     0.012 A 
ATOM     32  C   UNL A   1      30.715  27.955  22.675  1.00  0.00     0.065 A 
ENDBRANCH  14  28
ENDBRANCH   9  11
ENDBRANCH   8   9
ENDBRANCH   7   8
ENDBRANCH   6   7
ENDBRANCH   3   6
ENDBRANCH   1   2
BRANCH   1  33
ATOM     33  C   UNL A   1      40.974  20.316  27.282  1.00  0.00     0.023 C 
BRANCH  33  34
ATOM     34  C   UNL A   1      41.542  19.523  26.094  1.00  0.00     0.023 C 
BRANCH  34  35
ATOM     35  C   UNL A   1      43.001  19.090  26.258  1.00  0.00     0.116 C 
BRANCH  35  36
ATOM     36  N   UNL A   1      43.722  18.994  25.006  1.00  0.00    -0.352 N 
ATOM     37  C   UNL A   1      44.404  19.985  24.330  1.00  0.00     0.251 C 
ATOM     38  H   UNL A   1      43.727  18.105  24.582  1.00  0.00     0.163 HD
ATOM     39  O   UNL A   1      44.917  19.747  23.250  1.00  0.00    -0.269 OA
BRANCH  37  40
ATOM     40  C   UNL A   1      44.459  21.358  24.891  1.00  0.00     0.039 A 
ATOM     41  C   UNL A   1      45.154  21.548  26.088  1.00  0.00     0.014 A 
ATOM     42  C   UNL A   1      43.846  22.444  24.257  1.00  0.00     0.014 A 
ATOM     43  C   UNL A   1      45.279  22.831  26.626  1.00  0.00     0.010 A 
ATOM     44  C   UNL A   1      44.017  23.735  24.770  1.00  0.00     0.010 A 
ATOM     45  C   UNL A   1      44.732  23.942  25.960  1.00  0.00    -0.014 A 
BRANCH  45  46
ATOM     46  C   UNL A   1      44.914  25.312  26.517  1.00  0.00     0.031 A 
ATOM     47  C   UNL A   1      46.266  25.975  26.500  1.00  0.00     0.074 A 
ATOM     48  C   UNL A   1      43.866  25.958  27.066  1.00  0.00     0.049 A 
ATOM     49  N   UNL A   1      46.599  27.178  26.897  1.00  0.00    -0.248 NA
ATOM     50  C   UNL A   1      47.394  25.180  25.988  1.00  0.00     0.031 C 
ATOM     51  C   UNL A   1      42.517  25.407  27.214  1.00  0.00     0.029 A 
ATOM     52  N   UNL A   1      43.771  27.215  27.615  1.00  0.00    -0.354 N 
ATOM     53  C   UNL A   1      47.972  27.276  26.708  1.00  0.00     0.074 A 
ATOM     54  C   UNL A   1      48.417  25.999  26.192  1.00  0.00     0.031 C 
ATOM     55  C   UNL A   1      41.730  26.322  27.804  1.00  0.00     0.029 A 
ATOM     56  C   UNL A   1      42.517  27.518  28.093  1.00  0.00     0.049 A 
ATOM     57  H   UNL A   1      44.530  27.840  27.662  1.00  0.00     0.167 HD
ATOM     58  C   UNL A   1      48.787  28.339  26.914  1.00  0.00     0.034 A 
ATOM     59  C   UNL A   1      42.049  28.632  28.692  1.00  0.00     0.034 A 
ATOM     60  C   UNL A   1      48.343  29.623  27.390  1.00  0.00     0.049 A 
ATOM     61  C   UNL A   1      42.965  29.815  28.867  1.00  0.00     0.074 A 
ATOM     62  C   UNL A   1      49.080  30.783  27.549  1.00  0.00     0.029 A 
ATOM     63  N   UNL A   1      47.048  29.915  27.788  1.00  0.00    -0.354 N 
ATOM     64  N   UNL A   1      44.222  29.944  28.521  1.00  0.00    -0.248 NA
ATOM     65  C   UNL A   1      42.385  31.022  29.476  1.00  0.00     0.031 C 
ATOM     66  C   UNL A   1      48.236  31.772  28.068  1.00  0.00     0.029 A 
ATOM     67  C   UNL A   1      46.966  31.234  28.203  1.00  0.00     0.049 A 
ATOM     68  H   UNL A   1      46.297  29.278  27.779  1.00  0.00     0.167 HD
ATOM     69  C   UNL A   1      44.573  31.254  28.830  1.00  0.00     0.074 A 
ATOM     70  C   UNL A   1      43.388  31.885  29.375  1.00  0.00     0.031 C 
ATOM     71  C   UNL A   1      45.770  31.873  28.687  1.00  0.00     0.034 A 
BRANCH  58  72
ATOM     72  C   UNL A   1      50.247  28.177  26.573  1.00  0.00     0.023 A 
ATOM     73  C   UNL A   1      50.688  28.461  25.264  1.00  0.00     0.012 A 
ATOM     74  C   UNL A   1      51.187  27.809  27.555  1.00  0.00     0.148 A 
ATOM     75  C   UNL A   1      52.037  28.345  24.928  1.00  0.00     0.002 A 
ATOM     76  C   UNL A   1      52.535  27.738  27.223  1.00  0.00     0.091 A 
ATOM     77  F   UNL A   1      50.747  27.525  28.789  1.00  0.00    -0.205 F 
ATOM     78  C   UNL A   1      52.960  27.993  25.908  1.00  0.00     0.022 A 
BRANCH  76  79
ATOM     79  S   UNL A   1      53.812  27.374  28.433  1.00  0.00     0.127 S 
ATOM     80  O   UNL A   1      53.972  28.669  29.093  1.00  0.00    -0.237 OA
ATOM     81  O   UNL A   1      53.174  26.345  29.256  1.00  0.00    -0.237 OA
ATOM     82  O   UNL A   1      54.966  26.912  27.674  1.00  0.00    -0.744 OA
ENDBRANCH  76  79
ENDBRANCH  58  72
BRANCH  59  83
ATOM     83  C   UNL A   1      40.617  28.715  29.100  1.00  0.00     0.023 A 
ATOM     84  C   UNL A   1      39.621  28.855  28.114  1.00  0.00     0.012 A 
ATOM     85  C   UNL A   1      40.236  28.636  30.454  1.00  0.00     0.148 A 
ATOM     86  C   UNL A   1      38.275  28.952  28.471  1.00  0.00     0.002 A 
ATOM     87  C   UNL A   1      38.889  28.676  30.798  1.00  0.00     0.091 A 
ATOM     88  F   UNL A   1      41.199  28.515  31.379  1.00  0.00    -0.205 F 
ATOM     89  C   UNL A   1      37.908  28.852  29.810  1.00  0.00     0.022 A 
BRANCH  87  90
ATOM     90  S   UNL A   1      38.322  28.421  32.483  1.00  0.00     0.127 S 
ATOM     91  O   UNL A   1      39.334  29.141  33.252  1.00  0.00    -0.237 OA
ATOM     92  O   UNL A   1      37.002  29.053  32.457  1.00  0.00    -0.237 OA
ATOM     93  O   UNL A   1      38.289  26.976  32.671  1.00  0.00    -0.744 OA
ENDBRANCH  87  90
ENDBRANCH  59  83
BRANCH  71  94
ATOM     94  C   UNL A   1      45.863  33.325  29.084  1.00  0.00     0.023 A 
ATOM     95  C   UNL A   1      46.315  33.676  30.371  1.00  0.00     0.012 A 
ATOM     96  C   UNL A   1      45.576  34.344  28.152  1.00  0.00     0.148 A 
ATOM     97  C   UNL A   1      46.447  35.015  30.736  1.00  0.00     0.002 A 
ATOM     98  C   UNL A   1      45.756  35.675  28.508  1.00  0.00     0.091 A 
ATOM     99  F   UNL A   1      45.128  33.993  26.938  1.00  0.00    -0.205 F 
ATOM    100  C   UNL A   1      46.180  36.013  29.802  1.00  0.00     0.022 A 
BRANCH  98 101
ATOM    101  S   UNL A   1      45.529  37.020  27.337  1.00  0.00     0.127 S 
ATOM    102  O   UNL A   1      44.091  36.953  27.081  1.00  0.00    -0.237 OA
ATOM    103  O   UNL A   1      45.956  38.185  28.113  1.00  0.00    -0.237 OA
ATOM    104  O   UNL A   1      46.384  36.709  26.200  1.00  0.00    -0.744 OA
ENDBRANCH  98 101
ENDBRANCH  71  94
ENDBRANCH  45  46
ENDBRANCH  37  40
ENDBRANCH  35  36
ENDBRANCH  34  35
ENDBRANCH  33  34
ENDBRANCH   1  33
TORSDOF 20
ENDMDL
