MODEL 1
REMARK VINA RESULT:     -12.6      0.000      0.000
REMARK SMILES Cc1n[nH]c(C[N@H+]2CCC[C@H](c3cccc(C(=O)NCCCCNC(=O)c4ccc(-c5c6nc(c(-c7cccc(S(=O)(=O)[O-])c7F)c7ccc([nH]7)c(-c7cccc(S(=O)(=O)[O-])c7F)c7nc(c(-c8cccc(S(=O)(=O)[O-])c8F)c8ccc5[nH]8)C=C7)C=C6)cc4)c3)C2)n1
REMARK SMILES IDX 21 1 20 2 19 3 17 4 18 5 16 7 12 8 13 9 90 10 14 11 15 12
REMARK SMILES IDX 11 13 7 14 8 15 91 16 9 18 10 19 6 20 5 21 1 22 2 23 3 24
REMARK SMILES IDX 92 25 4 26 22 28 23 29 24 30 25 31 26 33 27 34 28 35 89 36
REMARK SMILES IDX 29 37 88 38 30 39 31 40 32 41 82 42 33 43 87 44 81 45 83 46
REMARK SMILES IDX 34 47 86 48 80 49 79 50 35 52 67 53 47 54 66 55 48 56 51 57
REMARK SMILES IDX 65 58 84 59 49 60 50 61 64 63 85 64 52 65 36 66 37 67 45 68
REMARK SMILES IDX 38 69 40 70 46 71 39 72 41 73 42 74 43 75 44 76 68 77 69 78
REMARK SMILES IDX 77 79 70 80 72 81 78 82 71 83 73 84 74 85 75 86 76 87 53 88
REMARK SMILES IDX 54 89 62 90 55 91 57 92 63 93 56 94 58 95 59 96 60 97 61 98
REMARK H PARENT 19 6 7 17 4 27 24 32 83 51 51 62
REMARK Flexibility Score: inf
ROOT
ATOM      1  C   UNL A   1      33.229  29.404  27.316  1.00  0.00     0.023 C 
ENDROOT
BRANCH   1   2
ATOM      2  C   UNL A   1      34.120  28.529  26.434  1.00  0.00     0.116 C 
BRANCH   2   3
ATOM      3  N   UNL A   1      34.204  28.950  25.040  1.00  0.00    -0.352 N 
ATOM      4  C   UNL A   1      33.760  28.407  23.846  1.00  0.00     0.251 C 
ATOM      5  O   UNL A   1      34.150  28.928  22.802  1.00  0.00    -0.269 OA
ATOM      6  H   UNL A   1      34.678  29.804  24.923  1.00  0.00     0.163 HD
BRANCH   4   7
ATOM      7  C   UNL A   1      32.952  27.157  23.766  1.00  0.00     0.040 A 
ATOM      8  C   UNL A   1      32.876  24.785  23.238  1.00  0.00    -0.039 A 
ATOM      9  C   UNL A   1      31.493  24.897  23.040  1.00  0.00     0.004 A 
ATOM     10  C   UNL A   1      33.539  25.899  23.762  1.00  0.00     0.018 A 
ATOM     11  C   UNL A   1      30.831  26.101  23.293  1.00  0.00     0.001 A 
ATOM     12  C   UNL A   1      31.567  27.242  23.605  1.00  0.00     0.014 A 
BRANCH   8  13
ATOM     13  C   UNL A   1      33.710  23.605  22.735  1.00  0.00     0.074 C 
ATOM     14  N   UNL A   1      32.973  21.872  24.336  1.00  0.00    -0.328 N 
ATOM     15  C   UNL A   1      34.300  21.800  24.957  1.00  0.00     0.262 C 
ATOM     16  C   UNL A   1      33.062  22.222  22.909  1.00  0.00     0.270 C 
ATOM     17  H   UNL A   1      32.489  22.630  24.816  1.00  0.00     0.348 HD
ATOM     18  C   UNL A   1      35.101  23.094  24.768  1.00  0.00     0.062 C 
ATOM     19  C   UNL A   1      35.142  23.509  23.302  1.00  0.00     0.020 C 
BRANCH  14  20
ATOM     20  C   UNL A   1      32.135  20.689  24.562  1.00  0.00     0.340 C 
BRANCH  20  21
ATOM     21  C   UNL A   1      32.600  19.462  23.855  1.00  0.00     0.179 A 
ATOM     22  C   UNL A   1      34.130  16.317  23.475  1.00  0.00     0.092 C 
ATOM     23  C   UNL A   1      33.401  17.590  23.322  1.00  0.00     0.147 A 
ATOM     24  N   UNL A   1      32.539  17.832  22.327  1.00  0.00    -0.159 NA
ATOM     25  N   UNL A   1      33.506  18.590  24.247  1.00  0.00    -0.211 NA
ATOM     26  N   UNL A   1      32.045  19.028  22.689  1.00  0.00    -0.258 N 
ATOM     27  H   UNL A   1      31.367  19.527  22.176  1.00  0.00     0.192 HD
ENDBRANCH  20  21
ENDBRANCH  14  20
ENDBRANCH   8  13
ENDBRANCH   4   7
ENDBRANCH   2   3
ENDBRANCH   1   2
BRANCH   1  28
ATOM     28  C   UNL A   1      33.336  30.918  27.139  1.00  0.00     0.023 C 
BRANCH  28  29
ATOM     29  C   UNL A   1      34.635  31.531  27.638  1.00  0.00     0.116 C 
BRANCH  29  30
ATOM     30  N   UNL A   1      34.508  32.285  28.899  1.00  0.00    -0.352 N 
ATOM     31  C   UNL A   1      35.081  31.995  30.139  1.00  0.00     0.251 C 
ATOM     32  H   UNL A   1      33.949  33.093  28.862  1.00  0.00     0.163 HD
ATOM     33  O   UNL A   1      34.632  32.455  31.172  1.00  0.00    -0.269 OA
BRANCH  31  34
ATOM     34  C   UNL A   1      36.284  31.139  30.152  1.00  0.00     0.039 A 
ATOM     35  C   UNL A   1      36.296  29.775  29.846  1.00  0.00     0.014 A 
ATOM     36  C   UNL A   1      37.463  31.805  30.440  1.00  0.00     0.014 A 
ATOM     37  C   UNL A   1      37.529  29.119  29.804  1.00  0.00     0.010 A 
ATOM     38  C   UNL A   1      38.635  31.266  30.031  1.00  0.00     0.010 A 
ATOM     39  C   UNL A   1      38.691  29.891  29.910  1.00  0.00    -0.014 A 
BRANCH  39  40
ATOM     40  C   UNL A   1      40.044  29.371  29.888  1.00  0.00     0.031 A 
ATOM     41  C   UNL A   1      40.612  29.121  31.230  1.00  0.00     0.074 A 
ATOM     42  C   UNL A   1      40.553  28.844  28.748  1.00  0.00     0.049 A 
ATOM     43  N   UNL A   1      41.550  29.788  31.808  1.00  0.00    -0.248 NA
ATOM     44  C   UNL A   1      39.941  28.152  32.112  1.00  0.00     0.031 C 
ATOM     45  C   UNL A   1      39.901  28.703  27.433  1.00  0.00     0.029 A 
ATOM     46  N   UNL A   1      41.709  28.157  28.570  1.00  0.00    -0.354 N 
ATOM     47  C   UNL A   1      41.761  29.150  33.026  1.00  0.00     0.074 A 
ATOM     48  C   UNL A   1      40.587  28.356  33.262  1.00  0.00     0.031 C 
ATOM     49  C   UNL A   1      40.557  27.777  26.698  1.00  0.00     0.029 A 
ATOM     50  C   UNL A   1      41.749  27.372  27.419  1.00  0.00     0.049 A 
ATOM     51  H   UNL A   1      42.461  28.210  29.203  1.00  0.00     0.167 HD
ATOM     52  C   UNL A   1      43.001  29.105  33.589  1.00  0.00     0.034 A 
ATOM     53  C   UNL A   1      42.667  26.415  27.126  1.00  0.00     0.034 A 
ATOM     54  C   UNL A   1      43.917  29.957  32.867  1.00  0.00     0.049 A 
ATOM     55  C   UNL A   1      43.849  26.681  27.981  1.00  0.00     0.074 A 
ATOM     56  C   UNL A   1      43.964  31.304  32.570  1.00  0.00     0.029 A 
ATOM     57  N   UNL A   1      44.743  29.333  31.959  1.00  0.00    -0.354 N 
ATOM     58  N   UNL A   1      44.584  27.754  27.861  1.00  0.00    -0.248 NA
ATOM     59  C   UNL A   1      43.912  26.023  29.277  1.00  0.00     0.031 C 
ATOM     60  C   UNL A   1      44.420  31.361  31.220  1.00  0.00     0.029 A 
ATOM     61  C   UNL A   1      44.719  30.063  30.799  1.00  0.00     0.049 A 
ATOM     62  H   UNL A   1      45.259  28.510  32.114  1.00  0.00     0.167 HD
ATOM     63  C   UNL A   1      44.798  28.168  29.171  1.00  0.00     0.074 A 
ATOM     64  C   UNL A   1      44.463  27.007  29.998  1.00  0.00     0.031 C 
ATOM     65  C   UNL A   1      44.910  29.495  29.481  1.00  0.00     0.034 A 
BRANCH  52  66
ATOM     66  C   UNL A   1      43.521  28.046  34.533  1.00  0.00     0.023 A 
ATOM     67  C   UNL A   1      44.069  28.504  35.754  1.00  0.00     0.012 A 
ATOM     68  C   UNL A   1      43.742  26.689  34.207  1.00  0.00     0.148 A 
ATOM     69  C   UNL A   1      44.852  27.680  36.568  1.00  0.00     0.002 A 
ATOM     70  C   UNL A   1      44.462  25.854  35.054  1.00  0.00     0.091 A 
ATOM     71  F   UNL A   1      43.374  26.214  33.015  1.00  0.00    -0.205 F 
ATOM     72  C   UNL A   1      45.048  26.352  36.219  1.00  0.00     0.022 A 
BRANCH  70  73
ATOM     73  S   UNL A   1      44.715  24.114  34.675  1.00  0.00     0.127 S 
ATOM     74  O   UNL A   1      43.341  23.642  34.536  1.00  0.00    -0.237 OA
ATOM     75  O   UNL A   1      45.475  24.188  33.426  1.00  0.00    -0.237 OA
ATOM     76  O   UNL A   1      45.466  23.571  35.799  1.00  0.00    -0.744 OA
ENDBRANCH  70  73
ENDBRANCH  52  66
BRANCH  53  77
ATOM     77  C   UNL A   1      42.503  25.149  26.370  1.00  0.00     0.023 A 
ATOM     78  C   UNL A   1      43.418  24.796  25.356  1.00  0.00     0.012 A 
ATOM     79  C   UNL A   1      41.609  24.154  26.824  1.00  0.00     0.148 A 
ATOM     80  C   UNL A   1      43.455  23.494  24.832  1.00  0.00     0.002 A 
ATOM     81  C   UNL A   1      41.644  22.866  26.297  1.00  0.00     0.091 A 
ATOM     82  F   UNL A   1      40.791  24.443  27.845  1.00  0.00    -0.205 F 
ATOM     83  C   UNL A   1      42.573  22.527  25.308  1.00  0.00     0.022 A 
BRANCH  81  84
ATOM     84  S   UNL A   1      40.547  21.569  26.890  1.00  0.00     0.127 S 
ATOM     85  O   UNL A   1      39.231  22.098  26.527  1.00  0.00    -0.237 OA
ATOM     86  O   UNL A   1      40.990  20.424  26.101  1.00  0.00    -0.237 OA
ATOM     87  O   UNL A   1      40.784  21.490  28.325  1.00  0.00    -0.744 OA
ENDBRANCH  81  84
ENDBRANCH  53  77
BRANCH  65  88
ATOM     88  C   UNL A   1      44.994  30.487  28.343  1.00  0.00     0.023 A 
ATOM     89  C   UNL A   1      43.849  31.044  27.733  1.00  0.00     0.012 A 
ATOM     90  C   UNL A   1      46.251  31.024  28.027  1.00  0.00     0.148 A 
ATOM     91  C   UNL A   1      43.955  32.098  26.820  1.00  0.00     0.002 A 
ATOM     92  C   UNL A   1      46.350  32.105  27.159  1.00  0.00     0.091 A 
ATOM     93  F   UNL A   1      47.332  30.493  28.616  1.00  0.00    -0.205 F 
ATOM     94  C   UNL A   1      45.206  32.638  26.545  1.00  0.00     0.022 A 
BRANCH  92  95
ATOM     95  S   UNL A   1      47.915  32.932  26.877  1.00  0.00     0.127 S 
ATOM     96  O   UNL A   1      48.205  33.492  28.195  1.00  0.00    -0.237 OA
ATOM     97  O   UNL A   1      48.788  31.827  26.475  1.00  0.00    -0.237 OA
ATOM     98  O   UNL A   1      47.668  33.906  25.821  1.00  0.00    -0.744 OA
ENDBRANCH  92  95
ENDBRANCH  65  88
ENDBRANCH  39  40
ENDBRANCH  31  34
ENDBRANCH  29  30
ENDBRANCH  28  29
ENDBRANCH   1  28
TORSDOF 17
ENDMDL
MODEL 2
REMARK VINA RESULT:     -12.3      3.467      8.952
REMARK SMILES Cc1n[nH]c(C[N@H+]2CCC[C@H](c3cccc(C(=O)NCCCCNC(=O)c4ccc(-c5c6nc(c(-c7cccc(S(=O)(=O)[O-])c7F)c7ccc([nH]7)c(-c7cccc(S(=O)(=O)[O-])c7F)c7nc(c(-c8cccc(S(=O)(=O)[O-])c8F)c8ccc5[nH]8)C=C7)C=C6)cc4)c3)C2)n1
REMARK SMILES IDX 21 1 20 2 19 3 17 4 18 5 16 7 12 8 13 9 90 10 14 11 15 12
REMARK SMILES IDX 11 13 7 14 8 15 91 16 9 18 10 19 6 20 5 21 1 22 2 23 3 24
REMARK SMILES IDX 92 25 4 26 22 28 23 29 24 30 25 31 26 33 27 34 28 35 89 36
REMARK SMILES IDX 29 37 88 38 30 39 31 40 32 41 82 42 33 43 87 44 81 45 83 46
REMARK SMILES IDX 34 47 86 48 80 49 79 50 35 52 67 53 47 54 66 55 48 56 51 57
REMARK SMILES IDX 65 58 84 59 49 60 50 61 64 63 85 64 52 65 36 66 37 67 45 68
REMARK SMILES IDX 38 69 40 70 46 71 39 72 41 73 42 74 43 75 44 76 68 77 69 78
REMARK SMILES IDX 77 79 70 80 72 81 78 82 71 83 73 84 74 85 75 86 76 87 53 88
REMARK SMILES IDX 54 89 62 90 55 91 57 92 63 93 56 94 58 95 59 96 60 97 61 98
REMARK H PARENT 19 6 7 17 4 27 24 32 83 51 51 62
REMARK Flexibility Score: inf
ROOT
ATOM      1  C   UNL A   1      37.834  23.582  25.777  1.00  0.00     0.023 C 
ENDROOT
BRANCH   1   2
ATOM      2  C   UNL A   1      36.321  23.510  25.563  1.00  0.00     0.116 C 
BRANCH   2   3
ATOM      3  N   UNL A   1      35.575  22.904  26.660  1.00  0.00    -0.352 N 
ATOM      4  C   UNL A   1      34.241  22.903  27.026  1.00  0.00     0.251 C 
ATOM      5  O   UNL A   1      33.950  22.432  28.126  1.00  0.00    -0.269 OA
ATOM      6  H   UNL A   1      36.144  22.381  27.271  1.00  0.00     0.163 HD
BRANCH   4   7
ATOM      7  C   UNL A   1      33.171  23.560  26.222  1.00  0.00     0.040 A 
ATOM      8  C   UNL A   1      31.874  25.566  25.769  1.00  0.00    -0.039 A 
ATOM      9  C   UNL A   1      30.867  24.763  25.216  1.00  0.00     0.004 A 
ATOM     10  C   UNL A   1      33.078  24.940  26.106  1.00  0.00     0.018 A 
ATOM     11  C   UNL A   1      31.048  23.383  25.082  1.00  0.00     0.001 A 
ATOM     12  C   UNL A   1      32.176  22.777  25.631  1.00  0.00     0.014 A 
BRANCH   8  13
ATOM     13  C   UNL A   1      31.658  27.020  26.197  1.00  0.00     0.074 C 
ATOM     14  N   UNL A   1      32.099  28.149  24.043  1.00  0.00    -0.328 N 
ATOM     15  C   UNL A   1      33.317  28.783  24.559  1.00  0.00     0.262 C 
ATOM     16  C   UNL A   1      31.101  27.948  25.106  1.00  0.00     0.270 C 
ATOM     17  H   UNL A   1      32.391  27.230  23.709  1.00  0.00     0.348 HD
ATOM     18  C   UNL A   1      33.926  28.003  25.731  1.00  0.00     0.062 C 
ATOM     19  C   UNL A   1      32.886  27.725  26.810  1.00  0.00     0.020 C 
BRANCH  14  20
ATOM     20  C   UNL A   1      31.525  28.811  22.866  1.00  0.00     0.340 C 
BRANCH  20  21
ATOM     21  C   UNL A   1      30.120  29.273  23.045  1.00  0.00     0.179 A 
ATOM     22  C   UNL A   1      27.493  31.562  23.537  1.00  0.00     0.092 C 
ATOM     23  C   UNL A   1      28.351  30.386  23.296  1.00  0.00     0.147 A 
ATOM     24  N   UNL A   1      27.902  29.240  22.770  1.00  0.00    -0.159 NA
ATOM     25  N   UNL A   1      29.696  30.423  23.531  1.00  0.00    -0.211 NA
ATOM     26  N   UNL A   1      29.045  28.551  22.621  1.00  0.00    -0.258 N 
ATOM     27  H   UNL A   1      29.100  27.638  22.252  1.00  0.00     0.192 HD
ENDBRANCH  20  21
ENDBRANCH  14  20
ENDBRANCH   8  13
ENDBRANCH   4   7
ENDBRANCH   2   3
ENDBRANCH   1   2
BRANCH   1  28
ATOM     28  C   UNL A   1      38.586  22.260  25.918  1.00  0.00     0.023 C 
BRANCH  28  29
ATOM     29  C   UNL A   1      39.759  22.290  26.887  1.00  0.00     0.116 C 
BRANCH  29  30
ATOM     30  N   UNL A   1      41.074  22.076  26.255  1.00  0.00    -0.352 N 
ATOM     31  C   UNL A   1      41.973  23.036  25.786  1.00  0.00     0.251 C 
ATOM     32  H   UNL A   1      41.354  21.138  26.152  1.00  0.00     0.163 HD
ATOM     33  O   UNL A   1      42.836  22.759  24.975  1.00  0.00    -0.269 OA
BRANCH  31  34
ATOM     34  C   UNL A   1      41.869  24.400  26.343  1.00  0.00     0.039 A 
ATOM     35  C   UNL A   1      41.012  25.395  25.861  1.00  0.00     0.014 A 
ATOM     36  C   UNL A   1      42.657  24.630  27.457  1.00  0.00     0.014 A 
ATOM     37  C   UNL A   1      40.952  26.606  26.555  1.00  0.00     0.010 A 
ATOM     38  C   UNL A   1      42.312  25.626  28.308  1.00  0.00     0.010 A 
ATOM     39  C   UNL A   1      41.624  26.700  27.779  1.00  0.00    -0.014 A 
BRANCH  39  40
ATOM     40  C   UNL A   1      41.664  27.879  28.621  1.00  0.00     0.031 A 
ATOM     41  C   UNL A   1      42.643  28.896  28.180  1.00  0.00     0.074 A 
ATOM     42  C   UNL A   1      40.651  28.137  29.482  1.00  0.00     0.049 A 
ATOM     43  N   UNL A   1      43.747  29.211  28.767  1.00  0.00    -0.248 NA
ATOM     44  C   UNL A   1      42.486  29.496  26.845  1.00  0.00     0.031 C 
ATOM     45  C   UNL A   1      39.423  27.354  29.712  1.00  0.00     0.029 A 
ATOM     46  N   UNL A   1      40.418  29.256  30.212  1.00  0.00    -0.354 N 
ATOM     47  C   UNL A   1      44.291  30.238  28.002  1.00  0.00     0.074 A 
ATOM     48  C   UNL A   1      43.632  30.170  26.727  1.00  0.00     0.031 C 
ATOM     49  C   UNL A   1      38.494  28.132  30.314  1.00  0.00     0.029 A 
ATOM     50  C   UNL A   1      39.102  29.407  30.644  1.00  0.00     0.049 A 
ATOM     51  H   UNL A   1      41.124  29.911  30.421  1.00  0.00     0.167 HD
ATOM     52  C   UNL A   1      45.022  31.231  28.580  1.00  0.00     0.034 A 
ATOM     53  C   UNL A   1      38.548  30.529  31.173  1.00  0.00     0.034 A 
ATOM     54  C   UNL A   1      45.291  30.922  29.966  1.00  0.00     0.049 A 
ATOM     55  C   UNL A   1      39.671  31.377  31.645  1.00  0.00     0.074 A 
ATOM     56  C   UNL A   1      45.932  29.894  30.627  1.00  0.00     0.029 A 
ATOM     57  N   UNL A   1      44.474  31.526  30.896  1.00  0.00    -0.354 N 
ATOM     58  N   UNL A   1      40.464  31.025  32.620  1.00  0.00    -0.248 NA
ATOM     59  C   UNL A   1      40.218  32.356  30.719  1.00  0.00     0.031 C 
ATOM     60  C   UNL A   1      45.117  29.631  31.767  1.00  0.00     0.029 A 
ATOM     61  C   UNL A   1      44.082  30.570  31.795  1.00  0.00     0.049 A 
ATOM     62  H   UNL A   1      44.217  32.476  30.911  1.00  0.00     0.167 HD
ATOM     63  C   UNL A   1      41.735  31.348  32.159  1.00  0.00     0.074 A 
ATOM     64  C   UNL A   1      41.514  32.266  31.041  1.00  0.00     0.031 C 
ATOM     65  C   UNL A   1      42.823  30.598  32.510  1.00  0.00     0.034 A 
BRANCH  52  66
ATOM     66  C   UNL A   1      45.191  32.641  28.063  1.00  0.00     0.023 A 
ATOM     67  C   UNL A   1      46.518  33.069  27.825  1.00  0.00     0.012 A 
ATOM     68  C   UNL A   1      44.188  33.635  28.041  1.00  0.00     0.148 A 
ATOM     69  C   UNL A   1      46.838  34.419  27.647  1.00  0.00     0.002 A 
ATOM     70  C   UNL A   1      44.501  34.967  27.793  1.00  0.00     0.091 A 
ATOM     71  F   UNL A   1      42.934  33.336  28.387  1.00  0.00    -0.205 F 
ATOM     72  C   UNL A   1      45.828  35.370  27.629  1.00  0.00     0.022 A 
BRANCH  70  73
ATOM     73  S   UNL A   1      43.231  36.239  27.718  1.00  0.00     0.127 S 
ATOM     74  O   UNL A   1      42.980  36.484  29.136  1.00  0.00    -0.237 OA
ATOM     75  O   UNL A   1      43.928  37.316  27.015  1.00  0.00    -0.237 OA
ATOM     76  O   UNL A   1      42.129  35.652  26.967  1.00  0.00    -0.744 OA
ENDBRANCH  70  73
ENDBRANCH  52  66
BRANCH  53  77
ATOM     77  C   UNL A   1      37.160  31.040  31.064  1.00  0.00     0.023 A 
ATOM     78  C   UNL A   1      36.463  31.475  32.211  1.00  0.00     0.012 A 
ATOM     79  C   UNL A   1      36.611  31.358  29.801  1.00  0.00     0.148 A 
ATOM     80  C   UNL A   1      35.278  32.219  32.102  1.00  0.00     0.002 A 
ATOM     81  C   UNL A   1      35.431  32.090  29.698  1.00  0.00     0.091 A 
ATOM     82  F   UNL A   1      37.300  31.030  28.701  1.00  0.00    -0.205 F 
ATOM     83  C   UNL A   1      34.766  32.533  30.846  1.00  0.00     0.022 A 
BRANCH  81  84
ATOM     84  S   UNL A   1      34.736  32.547  28.103  1.00  0.00     0.127 S 
ATOM     85  O   UNL A   1      33.557  33.320  28.498  1.00  0.00    -0.237 OA
ATOM     86  O   UNL A   1      35.821  33.331  27.522  1.00  0.00    -0.237 OA
ATOM     87  O   UNL A   1      34.430  31.285  27.441  1.00  0.00    -0.744 OA
ENDBRANCH  81  84
ENDBRANCH  53  77
BRANCH  65  88
ATOM     88  C   UNL A   1      42.642  29.531  33.566  1.00  0.00     0.023 A 
ATOM     89  C   UNL A   1      42.028  28.288  33.294  1.00  0.00     0.012 A 
ATOM     90  C   UNL A   1      43.291  29.704  34.797  1.00  0.00     0.148 A 
ATOM     91  C   UNL A   1      42.048  27.251  34.232  1.00  0.00     0.002 A 
ATOM     92  C   UNL A   1      43.353  28.655  35.707  1.00  0.00     0.091 A 
ATOM     93  F   UNL A   1      43.876  30.885  35.043  1.00  0.00    -0.205 F 
ATOM     94  C   UNL A   1      42.725  27.430  35.434  1.00  0.00     0.022 A 
BRANCH  92  95
ATOM     95  S   UNL A   1      44.329  28.779  37.206  1.00  0.00     0.127 S 
ATOM     96  O   UNL A   1      44.025  27.515  37.873  1.00  0.00    -0.237 OA
ATOM     97  O   UNL A   1      45.694  28.884  36.685  1.00  0.00    -0.237 OA
ATOM     98  O   UNL A   1      43.862  29.979  37.888  1.00  0.00    -0.744 OA
ENDBRANCH  92  95
ENDBRANCH  65  88
ENDBRANCH  39  40
ENDBRANCH  31  34
ENDBRANCH  29  30
ENDBRANCH  28  29
ENDBRANCH   1  28
TORSDOF 17
ENDMDL
MODEL 3
REMARK VINA RESULT:     -11.9      3.029      8.347
REMARK SMILES Cc1n[nH]c(C[N@H+]2CCC[C@H](c3cccc(C(=O)NCCCCNC(=O)c4ccc(-c5c6nc(c(-c7cccc(S(=O)(=O)[O-])c7F)c7ccc([nH]7)c(-c7cccc(S(=O)(=O)[O-])c7F)c7nc(c(-c8cccc(S(=O)(=O)[O-])c8F)c8ccc5[nH]8)C=C7)C=C6)cc4)c3)C2)n1
REMARK SMILES IDX 21 1 20 2 19 3 17 4 18 5 16 7 12 8 13 9 90 10 14 11 15 12
REMARK SMILES IDX 11 13 7 14 8 15 91 16 9 18 10 19 6 20 5 21 1 22 2 23 3 24
REMARK SMILES IDX 92 25 4 26 22 28 23 29 24 30 25 31 26 33 27 34 28 35 89 36
REMARK SMILES IDX 29 37 88 38 30 39 31 40 32 41 82 42 33 43 87 44 81 45 83 46
REMARK SMILES IDX 34 47 86 48 80 49 79 50 35 52 67 53 47 54 66 55 48 56 51 57
REMARK SMILES IDX 65 58 84 59 49 60 50 61 64 63 85 64 52 65 36 66 37 67 45 68
REMARK SMILES IDX 38 69 40 70 46 71 39 72 41 73 42 74 43 75 44 76 68 77 69 78
REMARK SMILES IDX 77 79 70 80 72 81 78 82 71 83 73 84 74 85 75 86 76 87 53 88
REMARK SMILES IDX 54 89 62 90 55 91 57 92 63 93 56 94 58 95 59 96 60 97 61 98
REMARK H PARENT 19 6 7 17 4 27 24 32 83 51 51 62
REMARK Flexibility Score: inf
ROOT
ATOM      1  C   UNL A   1      35.106  23.336  26.539  1.00  0.00     0.023 C 
ENDROOT
BRANCH   1   2
ATOM      2  C   UNL A   1      33.943  24.063  25.863  1.00  0.00     0.116 C 
BRANCH   2   3
ATOM      3  N   UNL A   1      32.619  23.680  26.341  1.00  0.00    -0.352 N 
ATOM      4  C   UNL A   1      31.450  24.378  26.588  1.00  0.00     0.251 C 
ATOM      5  O   UNL A   1      30.540  23.783  27.165  1.00  0.00    -0.269 OA
ATOM      6  H   UNL A   1      32.541  22.717  26.528  1.00  0.00     0.163 HD
BRANCH   4   7
ATOM      7  C   UNL A   1      31.293  25.835  26.313  1.00  0.00     0.040 A 
ATOM      8  C   UNL A   1      31.050  27.605  24.663  1.00  0.00    -0.039 A 
ATOM      9  C   UNL A   1      31.549  28.518  25.603  1.00  0.00     0.004 A 
ATOM     10  C   UNL A   1      30.781  26.308  25.113  1.00  0.00     0.018 A 
ATOM     11  C   UNL A   1      31.829  28.114  26.911  1.00  0.00     0.001 A 
ATOM     12  C   UNL A   1      31.751  26.765  27.250  1.00  0.00     0.014 A 
BRANCH   8  13
ATOM     13  C   UNL A   1      30.974  27.891  23.162  1.00  0.00     0.074 C 
ATOM     14  N   UNL A   1      32.866  26.502  22.387  1.00  0.00    -0.328 N 
ATOM     15  C   UNL A   1      33.642  27.681  21.987  1.00  0.00     0.262 C 
ATOM     16  C   UNL A   1      31.419  26.736  22.251  1.00  0.00     0.270 C 
ATOM     17  H   UNL A   1      33.071  26.365  23.376  1.00  0.00     0.348 HD
ATOM     18  C   UNL A   1      33.224  28.940  22.756  1.00  0.00     0.062 C 
ATOM     19  C   UNL A   1      31.717  29.156  22.685  1.00  0.00     0.020 C 
BRANCH  14  20
ATOM     20  C   UNL A   1      33.286  25.254  21.739  1.00  0.00     0.340 C 
BRANCH  20  21
ATOM     21  C   UNL A   1      32.693  24.023  22.333  1.00  0.00     0.179 A 
ATOM     22  C   UNL A   1      32.645  20.860  23.873  1.00  0.00     0.092 C 
ATOM     23  C   UNL A   1      32.340  22.171  23.268  1.00  0.00     0.147 A 
ATOM     24  N   UNL A   1      31.174  22.807  23.433  1.00  0.00    -0.159 NA
ATOM     25  N   UNL A   1      33.276  22.862  22.551  1.00  0.00    -0.211 NA
ATOM     26  N   UNL A   1      31.424  23.980  22.829  1.00  0.00    -0.258 N 
ATOM     27  H   UNL A   1      30.774  24.716  22.755  1.00  0.00     0.192 HD
ENDBRANCH  20  21
ENDBRANCH  14  20
ENDBRANCH   8  13
ENDBRANCH   4   7
ENDBRANCH   2   3
ENDBRANCH   1   2
BRANCH   1  28
ATOM     28  C   UNL A   1      35.878  22.318  25.701  1.00  0.00     0.023 C 
BRANCH  28  29
ATOM     29  C   UNL A   1      37.323  22.693  25.408  1.00  0.00     0.116 C 
BRANCH  29  30
ATOM     30  N   UNL A   1      38.320  21.773  25.986  1.00  0.00    -0.352 N 
ATOM     31  C   UNL A   1      39.586  22.077  26.489  1.00  0.00     0.251 C 
ATOM     32  H   UNL A   1      38.059  20.825  26.022  1.00  0.00     0.163 HD
ATOM     33  O   UNL A   1      40.450  21.227  26.600  1.00  0.00    -0.269 OA
BRANCH  31  34
ATOM     34  C   UNL A   1      39.832  23.466  26.926  1.00  0.00     0.039 A 
ATOM     35  C   UNL A   1      38.903  24.508  26.834  1.00  0.00     0.014 A 
ATOM     36  C   UNL A   1      41.068  23.677  27.512  1.00  0.00     0.014 A 
ATOM     37  C   UNL A   1      39.246  25.747  27.381  1.00  0.00     0.010 A 
ATOM     38  C   UNL A   1      41.224  24.731  28.348  1.00  0.00     0.010 A 
ATOM     39  C   UNL A   1      40.424  25.835  28.130  1.00  0.00    -0.014 A 
BRANCH  39  40
ATOM     40  C   UNL A   1      40.924  27.041  28.761  1.00  0.00     0.031 A 
ATOM     41  C   UNL A   1      42.159  27.572  28.145  1.00  0.00     0.074 A 
ATOM     42  C   UNL A   1      40.121  27.765  29.577  1.00  0.00     0.049 A 
ATOM     43  N   UNL A   1      43.341  27.568  28.658  1.00  0.00    -0.248 NA
ATOM     44  C   UNL A   1      42.126  27.976  26.730  1.00  0.00     0.031 C 
ATOM     45  C   UNL A   1      38.718  27.505  29.949  1.00  0.00     0.029 A 
ATOM     46  N   UNL A   1      40.337  28.993  30.112  1.00  0.00    -0.354 N 
ATOM     47  C   UNL A   1      44.150  28.209  27.726  1.00  0.00     0.074 A 
ATOM     48  C   UNL A   1      43.422  28.181  26.488  1.00  0.00     0.031 C 
ATOM     49  C   UNL A   1      38.156  28.640  30.422  1.00  0.00     0.029 A 
ATOM     50  C   UNL A   1      39.184  29.658  30.527  1.00  0.00     0.049 A 
ATOM     51  H   UNL A   1      41.236  29.384  30.200  1.00  0.00     0.167 HD
ATOM     52  C   UNL A   1      45.215  28.962  28.122  1.00  0.00     0.034 A 
ATOM     53  C   UNL A   1      39.087  30.970  30.866  1.00  0.00     0.034 A 
ATOM     54  C   UNL A   1      45.456  28.794  29.536  1.00  0.00     0.049 A 
ATOM     55  C   UNL A   1      40.461  31.434  31.176  1.00  0.00     0.074 A 
ATOM     56  C   UNL A   1      45.750  27.721  30.354  1.00  0.00     0.029 A 
ATOM     57  N   UNL A   1      44.961  29.781  30.360  1.00  0.00    -0.354 N 
ATOM     58  N   UNL A   1      41.150  30.982  32.188  1.00  0.00    -0.248 NA
ATOM     59  C   UNL A   1      41.245  32.006  30.093  1.00  0.00     0.031 C 
ATOM     60  C   UNL A   1      44.975  27.938  31.530  1.00  0.00     0.029 A 
ATOM     61  C   UNL A   1      44.329  29.172  31.412  1.00  0.00     0.049 A 
ATOM     62  H   UNL A   1      45.047  30.751  30.219  1.00  0.00     0.167 HD
ATOM     63  C   UNL A   1      42.421  30.766  31.666  1.00  0.00     0.074 A 
ATOM     64  C   UNL A   1      42.451  31.520  30.412  1.00  0.00     0.031 C 
ATOM     65  C   UNL A   1      43.208  29.747  32.125  1.00  0.00     0.034 A 
BRANCH  52  66
ATOM     66  C   UNL A   1      45.821  30.126  27.373  1.00  0.00     0.023 A 
ATOM     67  C   UNL A   1      47.227  30.260  27.448  1.00  0.00     0.012 A 
ATOM     68  C   UNL A   1      45.106  31.217  26.832  1.00  0.00     0.148 A 
ATOM     69  C   UNL A   1      47.878  31.439  27.072  1.00  0.00     0.002 A 
ATOM     70  C   UNL A   1      45.764  32.361  26.393  1.00  0.00     0.091 A 
ATOM     71  F   UNL A   1      43.771  31.224  26.849  1.00  0.00    -0.205 F 
ATOM     72  C   UNL A   1      47.145  32.492  26.543  1.00  0.00     0.022 A 
BRANCH  70  73
ATOM     73  S   UNL A   1      44.873  33.742  25.661  1.00  0.00     0.127 S 
ATOM     74  O   UNL A   1      44.162  33.085  24.568  1.00  0.00    -0.237 OA
ATOM     75  O   UNL A   1      44.031  34.179  26.776  1.00  0.00    -0.237 OA
ATOM     76  O   UNL A   1      45.893  34.706  25.270  1.00  0.00    -0.744 OA
ENDBRANCH  70  73
ENDBRANCH  52  66
BRANCH  53  77
ATOM     77  C   UNL A   1      37.953  31.910  30.687  1.00  0.00     0.023 A 
ATOM     78  C   UNL A   1      37.297  32.014  29.443  1.00  0.00     0.012 A 
ATOM     79  C   UNL A   1      37.335  32.509  31.808  1.00  0.00     0.148 A 
ATOM     80  C   UNL A   1      36.061  32.668  29.326  1.00  0.00     0.002 A 
ATOM     81  C   UNL A   1      36.113  33.164  31.686  1.00  0.00     0.091 A 
ATOM     82  F   UNL A   1      37.898  32.349  33.013  1.00  0.00    -0.205 F 
ATOM     83  C   UNL A   1      35.465  33.238  30.448  1.00  0.00     0.022 A 
BRANCH  81  84
ATOM     84  S   UNL A   1      35.284  33.895  33.105  1.00  0.00     0.127 S 
ATOM     85  O   UNL A   1      35.433  32.846  34.115  1.00  0.00    -0.237 OA
ATOM     86  O   UNL A   1      36.090  35.090  33.334  1.00  0.00    -0.237 OA
ATOM     87  O   UNL A   1      33.910  34.121  32.675  1.00  0.00    -0.744 OA
ENDBRANCH  81  84
ENDBRANCH  53  77
BRANCH  65  88
ATOM     88  C   UNL A   1      42.745  28.985  33.347  1.00  0.00     0.023 A 
ATOM     89  C   UNL A   1      41.793  27.944  33.280  1.00  0.00     0.012 A 
ATOM     90  C   UNL A   1      43.439  29.184  34.551  1.00  0.00     0.148 A 
ATOM     91  C   UNL A   1      41.530  27.132  34.387  1.00  0.00     0.002 A 
ATOM     92  C   UNL A   1      43.212  28.344  35.634  1.00  0.00     0.091 A 
ATOM     93  F   UNL A   1      44.344  30.172  34.603  1.00  0.00    -0.205 F 
ATOM     94  C   UNL A   1      42.251  27.323  35.561  1.00  0.00     0.022 A 
BRANCH  92  95
ATOM     95  S   UNL A   1      44.209  28.451  37.120  1.00  0.00     0.127 S 
ATOM     96  O   UNL A   1      43.783  27.264  37.858  1.00  0.00    -0.237 OA
ATOM     97  O   UNL A   1      45.572  28.386  36.589  1.00  0.00    -0.237 OA
ATOM     98  O   UNL A   1      43.873  29.728  37.735  1.00  0.00    -0.744 OA
ENDBRANCH  92  95
ENDBRANCH  65  88
ENDBRANCH  39  40
ENDBRANCH  31  34
ENDBRANCH  29  30
ENDBRANCH  28  29
ENDBRANCH   1  28
TORSDOF 17
ENDMDL
