MODEL 1
REMARK VINA RESULT:      -7.9      0.000      0.000
REMARK SMILES CC(C)N(CC1CC1)C(=O)NC1(CC(=O)NCCCCNC(=O)c2ccc(-c3c4nc(c(-c5cccc(S(=O)(=O)[O-])c5F)c5ccc([nH]5)c(-c5cccc(S(=O)(=O)[O-])c5F)c5nc(c(-c6cccc(S(=O)(=O)[O-])c6F)c6ccc3[nH]6)C=C5)C=C4)cc2)CCC1
REMARK SMILES IDX 17 1 16 2 14 3 15 4 13 6 12 7 87 8 89 9 88 10 11 11 9 12
REMARK SMILES IDX 10 13 4 15 2 16 1 17 3 18 5 19 6 20 7 21 8 22 18 23 19 24
REMARK SMILES IDX 20 25 21 26 22 27 23 29 24 30 25 31 86 32 26 33 85 34 27 35
REMARK SMILES IDX 28 36 29 37 79 38 30 39 84 40 78 41 80 42 31 43 83 44 77 45
REMARK SMILES IDX 76 46 32 48 64 49 44 50 63 51 45 52 48 53 62 54 81 55 46 56
REMARK SMILES IDX 47 57 61 59 82 60 49 61 33 62 34 63 42 64 35 65 37 66 43 67
REMARK SMILES IDX 36 68 38 69 39 70 40 71 41 72 65 73 66 74 74 75 67 76 69 77
REMARK SMILES IDX 75 78 68 79 70 80 71 81 72 82 73 83 50 84 51 85 59 86 52 87
REMARK SMILES IDX 54 88 60 89 53 90 55 91 56 92 57 93 58 94
REMARK H PARENT 16 5 11 14 21 28 80 47 48 58
REMARK Flexibility Score: inf
ROOT
ATOM      1  C   UNL A   1      37.764  33.337  37.534  1.00  0.00     0.116 C 
ENDROOT
BRANCH   1   2
ATOM      2  N   UNL A   1      38.271  31.985  37.411  1.00  0.00    -0.356 N 
ATOM      3  C   UNL A   1      38.564  31.302  36.266  1.00  0.00     0.222 C 
ATOM      4  O   UNL A   1      38.671  30.077  36.321  1.00  0.00    -0.275 OA
ATOM      5  H   UNL A   1      38.424  31.502  38.255  1.00  0.00     0.163 HD
BRANCH   3   6
ATOM      6  C   UNL A   1      38.820  32.063  34.985  1.00  0.00     0.128 C 
BRANCH   6   7
ATOM      7  C   UNL A   1      37.721  32.072  33.907  1.00  0.00     0.051 C 
ATOM      8  C   UNL A   1      37.990  33.181  32.848  1.00  0.00     0.029 C 
ATOM      9  C   UNL A   1      36.326  32.830  34.024  1.00  0.00     0.029 C 
ATOM     10  C   UNL A   1      37.062  34.114  33.640  1.00  0.00     0.005 C 
BRANCH   7  11
ATOM     11  N   UNL A   1      37.399  30.698  33.509  1.00  0.00    -0.332 N 
ATOM     12  C   UNL A   1      37.605  29.791  32.548  1.00  0.00     0.318 C 
ATOM     13  O   UNL A   1      37.030  28.721  32.788  1.00  0.00    -0.249 OA
ATOM     14  H   UNL A   1      36.823  30.300  34.199  1.00  0.00     0.165 HD
BRANCH  12  15
ATOM     15  N   UNL A   1      38.352  29.964  31.422  1.00  0.00    -0.322 N 
BRANCH  15  16
ATOM     16  C   UNL A   1      39.796  29.635  31.512  1.00  0.00     0.080 C 
ATOM     17  C   UNL A   1      40.081  28.202  31.046  1.00  0.00     0.031 C 
ATOM     18  C   UNL A   1      40.708  30.653  30.815  1.00  0.00     0.031 C 
ENDBRANCH  15  16
BRANCH  15  19
ATOM     19  C   UNL A   1      37.924  30.481  30.124  1.00  0.00     0.125 C 
BRANCH  19  20
ATOM     20  C   UNL A   1      36.896  29.568  29.496  1.00  0.00     0.009 C 
ATOM     21  C   UNL A   1      35.775  30.117  28.631  1.00  0.00     0.006 C 
ATOM     22  C   UNL A   1      36.874  29.329  28.001  1.00  0.00     0.006 C 
ENDBRANCH  19  20
ENDBRANCH  15  19
ENDBRANCH  12  15
ENDBRANCH   7  11
ENDBRANCH   6   7
ENDBRANCH   3   6
ENDBRANCH   1   2
BRANCH   1  23
ATOM     23  C   UNL A   1      38.185  33.908  38.884  1.00  0.00     0.023 C 
BRANCH  23  24
ATOM     24  C   UNL A   1      39.353  33.237  39.571  1.00  0.00     0.023 C 
BRANCH  24  25
ATOM     25  C   UNL A   1      40.654  33.995  39.476  1.00  0.00     0.116 C 
BRANCH  25  26
ATOM     26  N   UNL A   1      40.529  35.442  39.600  1.00  0.00    -0.352 N 
ATOM     27  C   UNL A   1      40.846  36.383  38.639  1.00  0.00     0.251 C 
ATOM     28  H   UNL A   1      40.182  35.785  40.457  1.00  0.00     0.163 HD
ATOM     29  O   UNL A   1      40.748  37.577  38.852  1.00  0.00    -0.269 OA
BRANCH  27  30
ATOM     30  C   UNL A   1      41.368  35.867  37.354  1.00  0.00     0.039 A 
ATOM     31  C   UNL A   1      42.714  35.514  37.267  1.00  0.00     0.014 A 
ATOM     32  C   UNL A   1      40.464  35.522  36.347  1.00  0.00     0.014 A 
ATOM     33  C   UNL A   1      43.139  34.725  36.198  1.00  0.00     0.010 A 
ATOM     34  C   UNL A   1      40.866  34.634  35.361  1.00  0.00     0.010 A 
ATOM     35  C   UNL A   1      42.207  34.231  35.269  1.00  0.00    -0.014 A 
BRANCH  35  36
ATOM     36  C   UNL A   1      42.601  33.296  34.184  1.00  0.00     0.031 A 
ATOM     37  C   UNL A   1      42.803  33.827  32.789  1.00  0.00     0.074 A 
ATOM     38  C   UNL A   1      42.668  31.969  34.420  1.00  0.00     0.049 A 
ATOM     39  N   UNL A   1      43.050  33.173  31.686  1.00  0.00    -0.248 NA
ATOM     40  C   UNL A   1      42.657  35.282  32.598  1.00  0.00     0.031 C 
ATOM     41  C   UNL A   1      42.383  31.315  35.701  1.00  0.00     0.029 A 
ATOM     42  N   UNL A   1      42.970  30.926  33.580  1.00  0.00    -0.354 N 
ATOM     43  C   UNL A   1      43.030  34.123  30.671  1.00  0.00     0.074 A 
ATOM     44  C   UNL A   1      42.700  35.390  31.280  1.00  0.00     0.031 C 
ATOM     45  C   UNL A   1      42.537  29.987  35.563  1.00  0.00     0.029 A 
ATOM     46  C   UNL A   1      42.907  29.690  34.184  1.00  0.00     0.049 A 
ATOM     47  H   UNL A   1      43.209  31.050  32.633  1.00  0.00     0.167 HD
ATOM     48  C   UNL A   1      43.307  33.965  29.357  1.00  0.00     0.034 A 
ATOM     49  C   UNL A   1      43.127  28.459  33.680  1.00  0.00     0.034 A 
ATOM     50  C   UNL A   1      43.732  32.725  28.774  1.00  0.00     0.049 A 
ATOM     51  C   UNL A   1      43.539  28.327  32.238  1.00  0.00     0.074 A 
ATOM     52  C   UNL A   1      44.163  32.485  27.483  1.00  0.00     0.029 A 
ATOM     53  N   UNL A   1      43.790  31.517  29.450  1.00  0.00    -0.354 N 
ATOM     54  N   UNL A   1      43.695  29.266  31.337  1.00  0.00    -0.248 NA
ATOM     55  C   UNL A   1      43.845  26.974  31.752  1.00  0.00     0.031 C 
ATOM     56  C   UNL A   1      44.476  31.127  27.375  1.00  0.00     0.029 A 
ATOM     57  C   UNL A   1      44.251  30.526  28.604  1.00  0.00     0.049 A 
ATOM     58  H   UNL A   1      43.539  31.384  30.394  1.00  0.00     0.167 HD
ATOM     59  C   UNL A   1      44.151  28.624  30.191  1.00  0.00     0.074 A 
ATOM     60  C   UNL A   1      44.269  27.219  30.519  1.00  0.00     0.031 C 
ATOM     61  C   UNL A   1      44.427  29.145  28.970  1.00  0.00     0.034 A 
BRANCH  48  62
ATOM     62  C   UNL A   1      43.244  35.184  28.477  1.00  0.00     0.023 A 
ATOM     63  C   UNL A   1      42.000  35.608  27.966  1.00  0.00     0.012 A 
ATOM     64  C   UNL A   1      44.400  35.941  28.203  1.00  0.00     0.148 A 
ATOM     65  C   UNL A   1      41.909  36.747  27.170  1.00  0.00     0.002 A 
ATOM     66  C   UNL A   1      44.294  37.102  27.446  1.00  0.00     0.091 A 
ATOM     67  F   UNL A   1      45.576  35.508  28.677  1.00  0.00    -0.205 F 
ATOM     68  C   UNL A   1      43.052  37.500  26.920  1.00  0.00     0.022 A 
BRANCH  66  69
ATOM     69  S   UNL A   1      45.690  38.186  27.131  1.00  0.00     0.127 S 
ATOM     70  O   UNL A   1      46.579  37.307  26.371  1.00  0.00    -0.237 OA
ATOM     71  O   UNL A   1      45.077  39.258  26.347  1.00  0.00    -0.237 OA
ATOM     72  O   UNL A   1      46.186  38.595  28.438  1.00  0.00    -0.744 OA
ENDBRANCH  66  69
ENDBRANCH  48  62
BRANCH  49  73
ATOM     73  C   UNL A   1      43.046  27.259  34.563  1.00  0.00     0.023 A 
ATOM     74  C   UNL A   1      41.799  26.632  34.759  1.00  0.00     0.012 A 
ATOM     75  C   UNL A   1      44.184  26.729  35.197  1.00  0.00     0.148 A 
ATOM     76  C   UNL A   1      41.681  25.524  35.599  1.00  0.00     0.002 A 
ATOM     77  C   UNL A   1      44.069  25.592  35.991  1.00  0.00     0.091 A 
ATOM     78  F   UNL A   1      45.360  27.345  35.015  1.00  0.00    -0.205 F 
ATOM     79  C   UNL A   1      42.817  24.998  36.207  1.00  0.00     0.022 A 
BRANCH  77  80
ATOM     80  S   UNL A   1      45.504  24.776  36.701  1.00  0.00     0.127 S 
ATOM     81  O   UNL A   1      46.003  25.794  37.620  1.00  0.00    -0.237 OA
ATOM     82  O   UNL A   1      44.905  23.605  37.343  1.00  0.00    -0.237 OA
ATOM     83  O   UNL A   1      46.364  24.457  35.568  1.00  0.00    -0.744 OA
ENDBRANCH  77  80
ENDBRANCH  49  73
BRANCH  61  84
ATOM     84  C   UNL A   1      44.920  28.207  27.903  1.00  0.00     0.023 A 
ATOM     85  C   UNL A   1      46.304  28.053  27.697  1.00  0.00     0.012 A 
ATOM     86  C   UNL A   1      44.016  27.410  27.175  1.00  0.00     0.148 A 
ATOM     87  C   UNL A   1      46.781  27.137  26.761  1.00  0.00     0.002 A 
ATOM     88  C   UNL A   1      44.500  26.466  26.278  1.00  0.00     0.091 A 
ATOM     89  F   UNL A   1      42.701  27.586  27.375  1.00  0.00    -0.205 F 
ATOM     90  C   UNL A   1      45.882  26.336  26.062  1.00  0.00     0.022 A 
BRANCH  88  91
ATOM     91  S   UNL A   1      43.417  25.325  25.410  1.00  0.00     0.127 S 
ATOM     92  O   UNL A   1      42.587  26.238  24.628  1.00  0.00    -0.237 OA
ATOM     93  O   UNL A   1      44.363  24.534  24.623  1.00  0.00    -0.237 OA
ATOM     94  O   UNL A   1      42.720  24.573  26.445  1.00  0.00    -0.744 OA
ENDBRANCH  88  91
ENDBRANCH  61  84
ENDBRANCH  35  36
ENDBRANCH  27  30
ENDBRANCH  25  26
ENDBRANCH  24  25
ENDBRANCH  23  24
ENDBRANCH   1  23
TORSDOF 20
ENDMDL
MODEL 2
REMARK VINA RESULT:      -7.7      5.655     11.828
REMARK SMILES CC(C)N(CC1CC1)C(=O)NC1(CC(=O)NCCCCNC(=O)c2ccc(-c3c4nc(c(-c5cccc(S(=O)(=O)[O-])c5F)c5ccc([nH]5)c(-c5cccc(S(=O)(=O)[O-])c5F)c5nc(c(-c6cccc(S(=O)(=O)[O-])c6F)c6ccc3[nH]6)C=C5)C=C4)cc2)CCC1
REMARK SMILES IDX 17 1 16 2 14 3 15 4 13 6 12 7 87 8 89 9 88 10 11 11 9 12
REMARK SMILES IDX 10 13 4 15 2 16 1 17 3 18 5 19 6 20 7 21 8 22 18 23 19 24
REMARK SMILES IDX 20 25 21 26 22 27 23 29 24 30 25 31 86 32 26 33 85 34 27 35
REMARK SMILES IDX 28 36 29 37 79 38 30 39 84 40 78 41 80 42 31 43 83 44 77 45
REMARK SMILES IDX 76 46 32 48 64 49 44 50 63 51 45 52 48 53 62 54 81 55 46 56
REMARK SMILES IDX 47 57 61 59 82 60 49 61 33 62 34 63 42 64 35 65 37 66 43 67
REMARK SMILES IDX 36 68 38 69 39 70 40 71 41 72 65 73 66 74 74 75 67 76 69 77
REMARK SMILES IDX 75 78 68 79 70 80 71 81 72 82 73 83 50 84 51 85 59 86 52 87
REMARK SMILES IDX 54 88 60 89 53 90 55 91 56 92 57 93 58 94
REMARK H PARENT 16 5 11 14 21 28 80 47 48 58
REMARK Flexibility Score: inf
ROOT
ATOM      1  C   UNL A   1      37.667  21.866  25.699  1.00  0.00     0.116 C 
ENDROOT
BRANCH   1   2
ATOM      2  N   UNL A   1      37.435  22.520  24.428  1.00  0.00    -0.356 N 
ATOM      3  C   UNL A   1      36.236  22.785  23.829  1.00  0.00     0.222 C 
ATOM      4  O   UNL A   1      36.223  23.046  22.627  1.00  0.00    -0.275 OA
ATOM      5  H   UNL A   1      38.238  22.811  23.938  1.00  0.00     0.163 HD
BRANCH   3   6
ATOM      6  C   UNL A   1      34.975  22.822  24.663  1.00  0.00     0.128 C 
BRANCH   6   7
ATOM      7  C   UNL A   1      33.653  22.382  24.010  1.00  0.00     0.051 C 
ATOM      8  C   UNL A   1      32.539  22.193  25.081  1.00  0.00     0.029 C 
ATOM      9  C   UNL A   1      33.259  20.881  23.654  1.00  0.00     0.029 C 
ATOM     10  C   UNL A   1      32.883  20.697  25.125  1.00  0.00     0.005 C 
BRANCH   7  11
ATOM     11  N   UNL A   1      33.415  23.160  22.790  1.00  0.00    -0.332 N 
ATOM     12  C   UNL A   1      33.004  24.354  22.350  1.00  0.00     0.318 C 
ATOM     13  O   UNL A   1      33.021  24.426  21.114  1.00  0.00    -0.249 OA
ATOM     14  H   UNL A   1      33.638  22.599  22.013  1.00  0.00     0.165 HD
BRANCH  12  15
ATOM     15  N   UNL A   1      32.608  25.405  23.122  1.00  0.00    -0.322 N 
BRANCH  15  16
ATOM     16  C   UNL A   1      31.156  25.533  23.397  1.00  0.00     0.080 C 
ATOM     17  C   UNL A   1      30.854  25.459  24.899  1.00  0.00     0.031 C 
ATOM     18  C   UNL A   1      30.508  26.761  22.745  1.00  0.00     0.031 C 
ENDBRANCH  15  16
BRANCH  15  19
ATOM     19  C   UNL A   1      33.432  26.469  23.691  1.00  0.00     0.125 C 
BRANCH  19  20
ATOM     20  C   UNL A   1      33.330  27.729  22.862  1.00  0.00     0.009 C 
ATOM     21  C   UNL A   1      33.183  29.093  23.514  1.00  0.00     0.006 C 
ATOM     22  C   UNL A   1      34.460  28.736  22.830  1.00  0.00     0.006 C 
ENDBRANCH  19  20
ENDBRANCH  15  19
ENDBRANCH  12  15
ENDBRANCH   7  11
ENDBRANCH   6   7
ENDBRANCH   3   6
ENDBRANCH   1   2
BRANCH   1  23
ATOM     23  C   UNL A   1      39.137  21.472  25.798  1.00  0.00     0.023 C 
BRANCH  23  24
ATOM     24  C   UNL A   1      39.464  20.008  25.603  1.00  0.00     0.023 C 
BRANCH  24  25
ATOM     25  C   UNL A   1      40.441  19.446  26.607  1.00  0.00     0.116 C 
BRANCH  25  26
ATOM     26  N   UNL A   1      41.717  19.021  26.044  1.00  0.00    -0.352 N 
ATOM     27  C   UNL A   1      42.840  19.806  25.862  1.00  0.00     0.251 C 
ATOM     28  H   UNL A   1      41.785  18.079  25.764  1.00  0.00     0.163 HD
ATOM     29  O   UNL A   1      43.850  19.370  25.340  1.00  0.00    -0.269 OA
BRANCH  27  30
ATOM     30  C   UNL A   1      42.734  21.221  26.280  1.00  0.00     0.039 A 
ATOM     31  C   UNL A   1      42.819  21.529  27.637  1.00  0.00     0.014 A 
ATOM     32  C   UNL A   1      42.793  22.221  25.308  1.00  0.00     0.014 A 
ATOM     33  C   UNL A   1      43.060  22.850  28.017  1.00  0.00     0.010 A 
ATOM     34  C   UNL A   1      43.160  23.503  25.685  1.00  0.00     0.010 A 
ATOM     35  C   UNL A   1      43.290  23.836  27.042  1.00  0.00    -0.014 A 
BRANCH  35  36
ATOM     36  C   UNL A   1      43.661  25.228  27.406  1.00  0.00     0.031 A 
ATOM     37  C   UNL A   1      45.112  25.630  27.399  1.00  0.00     0.074 A 
ATOM     38  C   UNL A   1      42.720  26.089  27.848  1.00  0.00     0.049 A 
ATOM     39  N   UNL A   1      45.656  26.757  27.775  1.00  0.00    -0.248 NA
ATOM     40  C   UNL A   1      46.087  24.616  26.958  1.00  0.00     0.031 C 
ATOM     41  C   UNL A   1      41.295  25.786  28.012  1.00  0.00     0.029 A 
ATOM     42  N   UNL A   1      42.828  27.391  28.269  1.00  0.00    -0.354 N 
ATOM     43  C   UNL A   1      47.029  26.565  27.673  1.00  0.00     0.074 A 
ATOM     44  C   UNL A   1      47.239  25.201  27.246  1.00  0.00     0.031 C 
ATOM     45  C   UNL A   1      40.663  26.874  28.484  1.00  0.00     0.029 A 
ATOM     46  C   UNL A   1      41.636  27.943  28.680  1.00  0.00     0.049 A 
ATOM     47  H   UNL A   1      43.680  27.885  28.277  1.00  0.00     0.167 HD
ATOM     48  C   UNL A   1      48.027  27.456  27.872  1.00  0.00     0.034 A 
ATOM     49  C   UNL A   1      41.361  29.174  29.157  1.00  0.00     0.034 A 
ATOM     50  C   UNL A   1      47.810  28.836  28.199  1.00  0.00     0.049 A 
ATOM     51  C   UNL A   1      42.478  30.178  29.265  1.00  0.00     0.074 A 
ATOM     52  C   UNL A   1      48.742  29.853  28.294  1.00  0.00     0.029 A 
ATOM     53  N   UNL A   1      46.573  29.395  28.474  1.00  0.00    -0.354 N 
ATOM     54  N   UNL A   1      43.750  30.029  28.983  1.00  0.00    -0.248 NA
ATOM     55  C   UNL A   1      42.120  31.531  29.714  1.00  0.00     0.031 C 
ATOM     56  C   UNL A   1      48.067  31.029  28.633  1.00  0.00     0.029 A 
ATOM     57  C   UNL A   1      46.714  30.744  28.738  1.00  0.00     0.049 A 
ATOM     58  H   UNL A   1      45.719  28.903  28.480  1.00  0.00     0.167 HD
ATOM     59  C   UNL A   1      44.335  31.273  29.188  1.00  0.00     0.074 A 
ATOM     60  C   UNL A   1      43.274  32.172  29.593  1.00  0.00     0.031 C 
ATOM     61  C   UNL A   1      45.636  31.636  29.071  1.00  0.00     0.034 A 
BRANCH  48  62
ATOM     62  C   UNL A   1      49.440  26.986  27.655  1.00  0.00     0.023 A 
ATOM     63  C   UNL A   1      50.086  26.240  28.661  1.00  0.00     0.012 A 
ATOM     64  C   UNL A   1      50.105  27.229  26.437  1.00  0.00     0.148 A 
ATOM     65  C   UNL A   1      51.384  25.771  28.476  1.00  0.00     0.002 A 
ATOM     66  C   UNL A   1      51.383  26.718  26.242  1.00  0.00     0.091 A 
ATOM     67  F   UNL A   1      49.483  27.960  25.502  1.00  0.00    -0.205 F 
ATOM     68  C   UNL A   1      52.028  25.999  27.263  1.00  0.00     0.022 A 
BRANCH  66  69
ATOM     69  S   UNL A   1      52.269  26.888  24.690  1.00  0.00     0.127 S 
ATOM     70  O   UNL A   1      52.927  28.182  24.866  1.00  0.00    -0.237 OA
ATOM     71  O   UNL A   1      53.171  25.736  24.723  1.00  0.00    -0.237 OA
ATOM     72  O   UNL A   1      51.259  26.840  23.641  1.00  0.00    -0.744 OA
ENDBRANCH  66  69
ENDBRANCH  48  62
BRANCH  49  73
ATOM     73  C   UNL A   1      39.958  29.556  29.490  1.00  0.00     0.023 A 
ATOM     74  C   UNL A   1      39.072  29.900  28.449  1.00  0.00     0.012 A 
ATOM     75  C   UNL A   1      39.491  29.572  30.817  1.00  0.00     0.148 A 
ATOM     76  C   UNL A   1      37.761  30.289  28.726  1.00  0.00     0.002 A 
ATOM     77  C   UNL A   1      38.167  29.909  31.082  1.00  0.00     0.091 A 
ATOM     78  F   UNL A   1      40.349  29.259  31.799  1.00  0.00    -0.205 F 
ATOM     79  C   UNL A   1      37.305  30.284  30.041  1.00  0.00     0.022 A 
BRANCH  77  80
ATOM     80  S   UNL A   1      37.467  29.799  32.734  1.00  0.00     0.127 S 
ATOM     81  O   UNL A   1      38.424  30.574  33.517  1.00  0.00    -0.237 OA
ATOM     82  O   UNL A   1      36.159  30.431  32.557  1.00  0.00    -0.237 OA
ATOM     83  O   UNL A   1      37.403  28.373  33.028  1.00  0.00    -0.744 OA
ENDBRANCH  77  80
ENDBRANCH  49  73
BRANCH  61  84
ATOM     84  C   UNL A   1      45.989  33.072  29.347  1.00  0.00     0.023 A 
ATOM     85  C   UNL A   1      46.258  33.482  30.666  1.00  0.00     0.012 A 
ATOM     86  C   UNL A   1      46.148  33.988  28.289  1.00  0.00     0.148 A 
ATOM     87  C   UNL A   1      46.654  34.791  30.933  1.00  0.00     0.002 A 
ATOM     88  C   UNL A   1      46.589  35.278  28.557  1.00  0.00     0.091 A 
ATOM     89  F   UNL A   1      45.870  33.581  27.041  1.00  0.00    -0.205 F 
ATOM     90  C   UNL A   1      46.832  35.684  29.879  1.00  0.00     0.022 A 
BRANCH  88  91
ATOM     91  S   UNL A   1      46.939  36.461  27.251  1.00  0.00     0.127 S 
ATOM     92  O   UNL A   1      47.400  37.619  28.013  1.00  0.00    -0.237 OA
ATOM     93  O   UNL A   1      47.983  35.780  26.484  1.00  0.00    -0.237 OA
ATOM     94  O   UNL A   1      45.686  36.641  26.531  1.00  0.00    -0.744 OA
ENDBRANCH  88  91
ENDBRANCH  61  84
ENDBRANCH  35  36
ENDBRANCH  27  30
ENDBRANCH  25  26
ENDBRANCH  24  25
ENDBRANCH  23  24
ENDBRANCH   1  23
TORSDOF 20
ENDMDL
MODEL 3
REMARK VINA RESULT:      -7.5      5.172     11.170
REMARK SMILES CC(C)N(CC1CC1)C(=O)NC1(CC(=O)NCCCCNC(=O)c2ccc(-c3c4nc(c(-c5cccc(S(=O)(=O)[O-])c5F)c5ccc([nH]5)c(-c5cccc(S(=O)(=O)[O-])c5F)c5nc(c(-c6cccc(S(=O)(=O)[O-])c6F)c6ccc3[nH]6)C=C5)C=C4)cc2)CCC1
REMARK SMILES IDX 17 1 16 2 14 3 15 4 13 6 12 7 87 8 89 9 88 10 11 11 9 12
REMARK SMILES IDX 10 13 4 15 2 16 1 17 3 18 5 19 6 20 7 21 8 22 18 23 19 24
REMARK SMILES IDX 20 25 21 26 22 27 23 29 24 30 25 31 86 32 26 33 85 34 27 35
REMARK SMILES IDX 28 36 29 37 79 38 30 39 84 40 78 41 80 42 31 43 83 44 77 45
REMARK SMILES IDX 76 46 32 48 64 49 44 50 63 51 45 52 48 53 62 54 81 55 46 56
REMARK SMILES IDX 47 57 61 59 82 60 49 61 33 62 34 63 42 64 35 65 37 66 43 67
REMARK SMILES IDX 36 68 38 69 39 70 40 71 41 72 65 73 66 74 74 75 67 76 69 77
REMARK SMILES IDX 75 78 68 79 70 80 71 81 72 82 73 83 50 84 51 85 59 86 52 87
REMARK SMILES IDX 54 88 60 89 53 90 55 91 56 92 57 93 58 94
REMARK H PARENT 16 5 11 14 21 28 80 47 48 58
REMARK Flexibility Score: inf
ROOT
ATOM      1  C   UNL A   1      38.105  23.234  25.691  1.00  0.00     0.116 C 
ENDROOT
BRANCH   1   2
ATOM      2  N   UNL A   1      37.512  23.228  24.370  1.00  0.00    -0.356 N 
ATOM      3  C   UNL A   1      36.231  23.553  24.025  1.00  0.00     0.222 C 
ATOM      4  O   UNL A   1      35.804  23.190  22.930  1.00  0.00    -0.275 OA
ATOM      5  H   UNL A   1      38.104  22.960  23.631  1.00  0.00     0.163 HD
BRANCH   3   6
ATOM      6  C   UNL A   1      35.399  24.407  24.957  1.00  0.00     0.128 C 
BRANCH   6   7
ATOM      7  C   UNL A   1      33.866  24.331  24.845  1.00  0.00     0.051 C 
ATOM      8  C   UNL A   1      33.194  24.614  26.221  1.00  0.00     0.029 C 
ATOM      9  C   UNL A   1      33.003  22.997  24.946  1.00  0.00     0.029 C 
ATOM     10  C   UNL A   1      33.137  23.099  26.466  1.00  0.00     0.005 C 
BRANCH   7  11
ATOM     11  N   UNL A   1      33.419  25.007  23.624  1.00  0.00    -0.332 N 
ATOM     12  C   UNL A   1      32.504  25.861  23.152  1.00  0.00     0.318 C 
ATOM     13  O   UNL A   1      32.645  26.071  21.940  1.00  0.00    -0.249 OA
ATOM     14  H   UNL A   1      34.005  24.733  22.883  1.00  0.00     0.165 HD
BRANCH  12  15
ATOM     15  N   UNL A   1      31.516  26.464  23.872  1.00  0.00    -0.322 N 
BRANCH  15  16
ATOM     16  C   UNL A   1      30.288  25.674  24.127  1.00  0.00     0.080 C 
ATOM     17  C   UNL A   1      30.309  24.334  23.380  1.00  0.00     0.031 C 
ATOM     18  C   UNL A   1      29.967  25.491  25.616  1.00  0.00     0.031 C 
ENDBRANCH  15  16
BRANCH  15  19
ATOM     19  C   UNL A   1      31.487  27.825  24.401  1.00  0.00     0.125 C 
BRANCH  19  20
ATOM     20  C   UNL A   1      30.309  28.592  23.843  1.00  0.00     0.009 C 
ATOM     21  C   UNL A   1      30.501  29.701  22.823  1.00  0.00     0.006 C 
ATOM     22  C   UNL A   1      29.873  28.414  22.404  1.00  0.00     0.006 C 
ENDBRANCH  19  20
ENDBRANCH  15  19
ENDBRANCH  12  15
ENDBRANCH   7  11
ENDBRANCH   6   7
ENDBRANCH   3   6
ENDBRANCH   1   2
BRANCH   1  23
ATOM     23  C   UNL A   1      38.481  21.807  26.076  1.00  0.00     0.023 C 
BRANCH  23  24
ATOM     24  C   UNL A   1      39.958  21.500  26.186  1.00  0.00     0.023 C 
BRANCH  24  25
ATOM     25  C   UNL A   1      40.838  22.713  26.367  1.00  0.00     0.116 C 
BRANCH  25  26
ATOM     26  N   UNL A   1      41.925  22.827  25.402  1.00  0.00    -0.352 N 
ATOM     27  C   UNL A   1      42.949  23.755  25.421  1.00  0.00     0.251 C 
ATOM     28  H   UNL A   1      41.931  22.177  24.662  1.00  0.00     0.163 HD
ATOM     29  O   UNL A   1      43.791  23.800  24.543  1.00  0.00    -0.269 OA
BRANCH  27  30
ATOM     30  C   UNL A   1      42.937  24.732  26.533  1.00  0.00     0.039 A 
ATOM     31  C   UNL A   1      42.653  26.067  26.252  1.00  0.00     0.014 A 
ATOM     32  C   UNL A   1      42.972  24.262  27.847  1.00  0.00     0.014 A 
ATOM     33  C   UNL A   1      42.308  26.921  27.301  1.00  0.00     0.010 A 
ATOM     34  C   UNL A   1      42.505  25.079  28.864  1.00  0.00     0.010 A 
ATOM     35  C   UNL A   1      42.175  26.418  28.607  1.00  0.00    -0.014 A 
BRANCH  35  36
ATOM     36  C   UNL A   1      41.700  27.268  29.729  1.00  0.00     0.031 A 
ATOM     37  C   UNL A   1      40.380  27.983  29.607  1.00  0.00     0.074 A 
ATOM     38  C   UNL A   1      42.494  27.487  30.799  1.00  0.00     0.049 A 
ATOM     39  N   UNL A   1      39.831  28.844  30.421  1.00  0.00    -0.248 NA
ATOM     40  C   UNL A   1      39.596  27.738  28.383  1.00  0.00     0.031 C 
ATOM     41  C   UNL A   1      43.843  26.946  30.986  1.00  0.00     0.029 A 
ATOM     42  N   UNL A   1      42.290  28.251  31.921  1.00  0.00    -0.354 N 
ATOM     43  C   UNL A   1      38.677  29.282  29.784  1.00  0.00     0.074 A 
ATOM     44  C   UNL A   1      38.626  28.631  28.496  1.00  0.00     0.031 C 
ATOM     45  C   UNL A   1      44.337  27.383  32.157  1.00  0.00     0.029 A 
ATOM     46  C   UNL A   1      43.355  28.253  32.793  1.00  0.00     0.049 A 
ATOM     47  H   UNL A   1      41.458  28.751  32.088  1.00  0.00     0.167 HD
ATOM     48  C   UNL A   1      37.718  30.117  30.246  1.00  0.00     0.034 A 
ATOM     49  C   UNL A   1      43.516  28.884  33.974  1.00  0.00     0.034 A 
ATOM     50  C   UNL A   1      37.721  30.683  31.564  1.00  0.00     0.049 A 
ATOM     51  C   UNL A   1      42.386  29.721  34.512  1.00  0.00     0.074 A 
ATOM     52  C   UNL A   1      36.737  31.435  32.179  1.00  0.00     0.029 A 
ATOM     53  N   UNL A   1      38.756  30.551  32.475  1.00  0.00    -0.354 N 
ATOM     54  N   UNL A   1      41.219  29.973  33.971  1.00  0.00    -0.248 NA
ATOM     55  C   UNL A   1      42.574  30.326  35.838  1.00  0.00     0.031 C 
ATOM     56  C   UNL A   1      37.181  31.763  33.464  1.00  0.00     0.029 A 
ATOM     57  C   UNL A   1      38.436  31.205  33.650  1.00  0.00     0.049 A 
ATOM     58  H   UNL A   1      39.596  30.063  32.310  1.00  0.00     0.167 HD
ATOM     59  C   UNL A   1      40.523  30.734  34.903  1.00  0.00     0.074 A 
ATOM     60  C   UNL A   1      41.390  30.881  36.053  1.00  0.00     0.031 C 
ATOM     61  C   UNL A   1      39.285  31.281  34.809  1.00  0.00     0.034 A 
BRANCH  48  62
ATOM     62  C   UNL A   1      36.542  30.397  29.350  1.00  0.00     0.023 A 
ATOM     63  C   UNL A   1      35.911  29.331  28.679  1.00  0.00     0.012 A 
ATOM     64  C   UNL A   1      36.026  31.702  29.218  1.00  0.00     0.148 A 
ATOM     65  C   UNL A   1      34.804  29.559  27.864  1.00  0.00     0.002 A 
ATOM     66  C   UNL A   1      34.894  31.915  28.440  1.00  0.00     0.091 A 
ATOM     67  F   UNL A   1      36.655  32.706  29.845  1.00  0.00    -0.205 F 
ATOM     68  C   UNL A   1      34.289  30.847  27.754  1.00  0.00     0.022 A 
BRANCH  66  69
ATOM     69  S   UNL A   1      34.105  33.521  28.295  1.00  0.00     0.127 S 
ATOM     70  O   UNL A   1      35.067  34.248  27.468  1.00  0.00    -0.237 OA
ATOM     71  O   UNL A   1      32.851  33.187  27.619  1.00  0.00    -0.237 OA
ATOM     72  O   UNL A   1      33.950  34.019  29.655  1.00  0.00    -0.744 OA
ENDBRANCH  66  69
ENDBRANCH  48  62
BRANCH  49  73
ATOM     73  C   UNL A   1      44.762  28.684  34.770  1.00  0.00     0.023 A 
ATOM     74  C   UNL A   1      45.838  29.578  34.600  1.00  0.00     0.012 A 
ATOM     75  C   UNL A   1      44.888  27.631  35.695  1.00  0.00     0.148 A 
ATOM     76  C   UNL A   1      47.029  29.406  35.308  1.00  0.00     0.002 A 
ATOM     77  C   UNL A   1      46.058  27.496  36.436  1.00  0.00     0.091 A 
ATOM     78  F   UNL A   1      43.863  26.779  35.833  1.00  0.00    -0.205 F 
ATOM     79  C   UNL A   1      47.136  28.371  36.233  1.00  0.00     0.022 A 
BRANCH  77  80
ATOM     80  S   UNL A   1      46.223  26.272  37.741  1.00  0.00     0.127 S 
ATOM     81  O   UNL A   1      44.912  26.333  38.378  1.00  0.00    -0.237 OA
ATOM     82  O   UNL A   1      46.485  25.047  36.982  1.00  0.00    -0.237 OA
ATOM     83  O   UNL A   1      47.350  26.722  38.548  1.00  0.00    -0.744 OA
ENDBRANCH  77  80
ENDBRANCH  49  73
BRANCH  61  84
ATOM     84  C   UNL A   1      38.772  32.058  35.990  1.00  0.00     0.023 A 
ATOM     85  C   UNL A   1      38.822  33.465  35.972  1.00  0.00     0.012 A 
ATOM     86  C   UNL A   1      38.154  31.399  37.070  1.00  0.00     0.148 A 
ATOM     87  C   UNL A   1      38.288  34.204  37.026  1.00  0.00     0.002 A 
ATOM     88  C   UNL A   1      37.582  32.143  38.094  1.00  0.00     0.091 A 
ATOM     89  F   UNL A   1      38.134  30.057  37.074  1.00  0.00    -0.205 F 
ATOM     90  C   UNL A   1      37.658  33.546  38.079  1.00  0.00     0.022 A 
BRANCH  88  91
ATOM     91  S   UNL A   1      36.666  31.379  39.437  1.00  0.00     0.127 S 
ATOM     92  O   UNL A   1      37.743  30.908  40.304  1.00  0.00    -0.237 OA
ATOM     93  O   UNL A   1      35.900  32.505  39.972  1.00  0.00    -0.237 OA
ATOM     94  O   UNL A   1      35.853  30.338  38.822  1.00  0.00    -0.744 OA
ENDBRANCH  88  91
ENDBRANCH  61  84
ENDBRANCH  35  36
ENDBRANCH  27  30
ENDBRANCH  25  26
ENDBRANCH  24  25
ENDBRANCH  23  24
ENDBRANCH   1  23
TORSDOF 20
ENDMDL
