MODEL 1
REMARK VINA RESULT:     -12.0      0.000      0.000
REMARK SMILES Cc1cc(C)nc(N2CCCC[C@H]2C(=O)NCCCCNC(=O)c2ccc(-c3c4nc(c(-c5cccc(S(=O)(=O)[O-])c5F)c5ccc([nH]5)c(-c5cccc(S(=O)(=O)[O-])c5F)c5nc(c(-c6cccc(S(=O)(=O)[O-])c6F)c6ccc3[nH]6)C=C5)C=C4)cc2)n1
REMARK SMILES IDX 19 1 18 2 17 3 16 4 14 5 15 6 13 8 8 9 9 10 10 11 12 12
REMARK SMILES IDX 11 13 7 14 1 15 2 16 3 17 87 18 4 19 5 20 6 21 20 22 21 23
REMARK SMILES IDX 22 24 23 26 24 27 25 28 86 29 26 30 85 31 27 32 28 33 29 34
REMARK SMILES IDX 79 35 30 36 84 37 78 38 80 39 31 40 83 41 77 42 76 43 32 45
REMARK SMILES IDX 64 46 44 47 63 48 45 49 48 50 62 51 81 52 46 53 47 54 61 56
REMARK SMILES IDX 82 57 49 58 33 59 34 60 42 61 35 62 37 63 43 64 36 65 38 66
REMARK SMILES IDX 39 67 40 68 41 69 65 70 66 71 74 72 67 73 69 74 75 75 68 76
REMARK SMILES IDX 70 77 71 78 72 79 73 80 50 81 51 82 59 83 52 84 54 85 60 86
REMARK SMILES IDX 53 87 55 88 56 89 57 90 58 91
REMARK H PARENT 16 7 21 25 80 44 48 55
REMARK Flexibility Score: inf
ROOT
ATOM      1  C   UNL A   1      31.714  28.889  27.106  1.00  0.00     0.023 C 
ENDROOT
BRANCH   1   2
ATOM      2  C   UNL A   1      32.096  27.432  26.836  1.00  0.00     0.023 C 
BRANCH   2   3
ATOM      3  C   UNL A   1      30.934  26.484  26.566  1.00  0.00     0.116 C 
BRANCH   3   4
ATOM      4  N   UNL A   1      31.235  25.097  26.845  1.00  0.00    -0.354 N 
ATOM      5  C   UNL A   1      31.470  24.085  25.954  1.00  0.00     0.242 C 
ATOM      6  O   UNL A   1      31.886  23.020  26.421  1.00  0.00    -0.273 OA
ATOM      7  H   UNL A   1      31.277  24.851  27.798  1.00  0.00     0.163 HD
BRANCH   5   8
ATOM      8  C   UNL A   1      31.187  24.274  24.435  1.00  0.00     0.174 C 
ATOM      9  N   UNL A   1      32.285  24.943  23.745  1.00  0.00    -0.329 N 
ATOM     10  C   UNL A   1      33.553  24.273  23.579  1.00  0.00     0.120 C 
ATOM     11  C   UNL A   1      33.325  22.954  22.842  1.00  0.00     0.022 C 
ATOM     12  C   UNL A   1      30.953  22.911  23.747  1.00  0.00     0.035 C 
ATOM     13  C   UNL A   1      32.240  22.110  23.509  1.00  0.00     0.004 C 
BRANCH   9  14
ATOM     14  C   UNL A   1      32.154  26.236  23.336  1.00  0.00     0.226 A 
ATOM     15  C   UNL A   1      34.377  29.114  22.916  1.00  0.00     0.067 C 
ATOM     16  C   UNL A   1      33.131  28.281  22.912  1.00  0.00     0.043 A 
ATOM     17  C   UNL A   1      31.903  28.863  22.701  1.00  0.00     0.047 A 
ATOM     18  N   UNL A   1      33.263  26.974  23.207  1.00  0.00    -0.218 NA
ATOM     19  C   UNL A   1      30.811  28.026  22.799  1.00  0.00     0.043 A 
ATOM     20  C   UNL A   1      29.433  28.567  22.563  1.00  0.00     0.067 C 
ATOM     21  N   UNL A   1      30.920  26.724  23.139  1.00  0.00    -0.218 NA
ENDBRANCH   9  14
ENDBRANCH   5   8
ENDBRANCH   3   4
ENDBRANCH   2   3
ENDBRANCH   1   2
BRANCH   1  22
ATOM     22  C   UNL A   1      32.397  29.947  26.242  1.00  0.00     0.116 C 
BRANCH  22  23
ATOM     23  N   UNL A   1      32.268  31.307  26.746  1.00  0.00    -0.352 N 
ATOM     24  C   UNL A   1      33.186  32.085  27.413  1.00  0.00     0.251 C 
ATOM     25  H   UNL A   1      31.394  31.732  26.586  1.00  0.00     0.163 HD
ATOM     26  O   UNL A   1      32.888  33.232  27.741  1.00  0.00    -0.269 OA
BRANCH  24  27
ATOM     27  C   UNL A   1      34.501  31.520  27.794  1.00  0.00     0.039 A 
ATOM     28  C   UNL A   1      35.578  32.396  27.958  1.00  0.00     0.014 A 
ATOM     29  C   UNL A   1      34.660  30.158  28.058  1.00  0.00     0.014 A 
ATOM     30  C   UNL A   1      36.778  31.925  28.498  1.00  0.00     0.010 A 
ATOM     31  C   UNL A   1      35.833  29.703  28.658  1.00  0.00     0.010 A 
ATOM     32  C   UNL A   1      36.894  30.588  28.909  1.00  0.00    -0.014 A 
BRANCH  32  33
ATOM     33  C   UNL A   1      38.082  30.120  29.670  1.00  0.00     0.031 A 
ATOM     34  C   UNL A   1      38.348  30.620  31.063  1.00  0.00     0.074 A 
ATOM     35  C   UNL A   1      38.975  29.311  29.062  1.00  0.00     0.049 A 
ATOM     36  N   UNL A   1      39.357  30.356  31.853  1.00  0.00    -0.248 NA
ATOM     37  C   UNL A   1      37.368  31.557  31.635  1.00  0.00     0.031 C 
ATOM     38  C   UNL A   1      38.881  28.834  27.679  1.00  0.00     0.029 A 
ATOM     39  N   UNL A   1      40.151  28.767  29.517  1.00  0.00    -0.354 N 
ATOM     40  C   UNL A   1      39.149  31.108  33.002  1.00  0.00     0.074 A 
ATOM     41  C   UNL A   1      37.933  31.865  32.794  1.00  0.00     0.031 C 
ATOM     42  C   UNL A   1      39.947  28.066  27.402  1.00  0.00     0.029 A 
ATOM     43  C   UNL A   1      40.811  28.007  28.577  1.00  0.00     0.049 A 
ATOM     44  H   UNL A   1      40.490  28.906  30.430  1.00  0.00     0.167 HD
ATOM     45  C   UNL A   1      39.882  31.139  34.140  1.00  0.00     0.034 A 
ATOM     46  C   UNL A   1      41.976  27.333  28.655  1.00  0.00     0.034 A 
ATOM     47  C   UNL A   1      41.066  30.353  34.361  1.00  0.00     0.049 A 
ATOM     48  C   UNL A   1      42.722  27.320  29.962  1.00  0.00     0.074 A 
ATOM     49  C   UNL A   1      41.857  30.286  35.495  1.00  0.00     0.029 A 
ATOM     50  N   UNL A   1      41.623  29.486  33.434  1.00  0.00    -0.354 N 
ATOM     51  N   UNL A   1      42.424  27.923  31.087  1.00  0.00    -0.248 NA
ATOM     52  C   UNL A   1      43.938  26.495  30.026  1.00  0.00     0.031 C 
ATOM     53  C   UNL A   1      42.886  29.368  35.257  1.00  0.00     0.029 A 
ATOM     54  C   UNL A   1      42.733  28.863  33.977  1.00  0.00     0.049 A 
ATOM     55  H   UNL A   1      41.279  29.337  32.523  1.00  0.00     0.167 HD
ATOM     56  C   UNL A   1      43.389  27.518  32.002  1.00  0.00     0.074 A 
ATOM     57  C   UNL A   1      44.268  26.602  31.306  1.00  0.00     0.031 C 
ATOM     58  C   UNL A   1      43.546  27.889  33.296  1.00  0.00     0.034 A 
BRANCH  45  59
ATOM     59  C   UNL A   1      39.371  31.988  35.274  1.00  0.00     0.023 A 
ATOM     60  C   UNL A   1      38.439  31.432  36.173  1.00  0.00     0.012 A 
ATOM     61  C   UNL A   1      39.851  33.294  35.492  1.00  0.00     0.148 A 
ATOM     62  C   UNL A   1      37.969  32.171  37.257  1.00  0.00     0.002 A 
ATOM     63  C   UNL A   1      39.405  34.012  36.597  1.00  0.00     0.091 A 
ATOM     64  F   UNL A   1      40.723  33.811  34.616  1.00  0.00    -0.205 F 
ATOM     65  C   UNL A   1      38.458  33.455  37.474  1.00  0.00     0.022 A 
BRANCH  63  66
ATOM     66  S   UNL A   1      40.019  35.650  37.007  1.00  0.00     0.127 S 
ATOM     67  O   UNL A   1      39.583  36.427  35.848  1.00  0.00    -0.237 OA
ATOM     68  O   UNL A   1      39.300  35.948  38.247  1.00  0.00    -0.237 OA
ATOM     69  O   UNL A   1      41.460  35.511  37.159  1.00  0.00    -0.744 OA
ENDBRANCH  63  66
ENDBRANCH  45  59
BRANCH  46  70
ATOM     70  C   UNL A   1      42.455  26.530  27.494  1.00  0.00     0.023 A 
ATOM     71  C   UNL A   1      43.284  27.140  26.532  1.00  0.00     0.012 A 
ATOM     72  C   UNL A   1      42.113  25.174  27.340  1.00  0.00     0.148 A 
ATOM     73  C   UNL A   1      43.731  26.426  25.420  1.00  0.00     0.002 A 
ATOM     74  C   UNL A   1      42.606  24.453  26.256  1.00  0.00     0.091 A 
ATOM     75  F   UNL A   1      41.310  24.607  28.253  1.00  0.00    -0.205 F 
ATOM     76  C   UNL A   1      43.400  25.081  25.286  1.00  0.00     0.022 A 
BRANCH  74  77
ATOM     77  S   UNL A   1      42.325  22.685  26.104  1.00  0.00     0.127 S 
ATOM     78  O   UNL A   1      42.906  22.397  24.798  1.00  0.00    -0.237 OA
ATOM     79  O   UNL A   1      43.073  22.146  27.242  1.00  0.00    -0.237 OA
ATOM     80  O   UNL A   1      40.880  22.527  26.221  1.00  0.00    -0.744 OA
ENDBRANCH  74  77
ENDBRANCH  46  70
BRANCH  58  81
ATOM     81  C   UNL A   1      44.682  27.272  34.066  1.00  0.00     0.023 A 
ATOM     82  C   UNL A   1      45.950  27.884  34.047  1.00  0.00     0.012 A 
ATOM     83  C   UNL A   1      44.475  26.130  34.863  1.00  0.00     0.148 A 
ATOM     84  C   UNL A   1      47.004  27.353  34.790  1.00  0.00     0.002 A 
ATOM     85  C   UNL A   1      45.520  25.630  35.632  1.00  0.00     0.091 A 
ATOM     86  F   UNL A   1      43.269  25.545  34.848  1.00  0.00    -0.205 F 
ATOM     87  C   UNL A   1      46.786  26.235  35.591  1.00  0.00     0.022 A 
BRANCH  85  88
ATOM     88  S   UNL A   1      45.290  24.245  36.753  1.00  0.00     0.127 S 
ATOM     89  O   UNL A   1      44.844  23.193  35.842  1.00  0.00    -0.237 OA
ATOM     90  O   UNL A   1      46.634  24.049  37.298  1.00  0.00    -0.237 OA
ATOM     91  O   UNL A   1      44.309  24.694  37.733  1.00  0.00    -0.744 OA
ENDBRANCH  85  88
ENDBRANCH  58  81
ENDBRANCH  32  33
ENDBRANCH  24  27
ENDBRANCH  22  23
ENDBRANCH   1  22
TORSDOF 15
ENDMDL
MODEL 2
REMARK VINA RESULT:     -12.0      4.953     10.051
REMARK SMILES Cc1cc(C)nc(N2CCCC[C@H]2C(=O)NCCCCNC(=O)c2ccc(-c3c4nc(c(-c5cccc(S(=O)(=O)[O-])c5F)c5ccc([nH]5)c(-c5cccc(S(=O)(=O)[O-])c5F)c5nc(c(-c6cccc(S(=O)(=O)[O-])c6F)c6ccc3[nH]6)C=C5)C=C4)cc2)n1
REMARK SMILES IDX 19 1 18 2 17 3 16 4 14 5 15 6 13 8 8 9 9 10 10 11 12 12
REMARK SMILES IDX 11 13 7 14 1 15 2 16 3 17 87 18 4 19 5 20 6 21 20 22 21 23
REMARK SMILES IDX 22 24 23 26 24 27 25 28 86 29 26 30 85 31 27 32 28 33 29 34
REMARK SMILES IDX 79 35 30 36 84 37 78 38 80 39 31 40 83 41 77 42 76 43 32 45
REMARK SMILES IDX 64 46 44 47 63 48 45 49 48 50 62 51 81 52 46 53 47 54 61 56
REMARK SMILES IDX 82 57 49 58 33 59 34 60 42 61 35 62 37 63 43 64 36 65 38 66
REMARK SMILES IDX 39 67 40 68 41 69 65 70 66 71 74 72 67 73 69 74 75 75 68 76
REMARK SMILES IDX 70 77 71 78 72 79 73 80 50 81 51 82 59 83 52 84 54 85 60 86
REMARK SMILES IDX 53 87 55 88 56 89 57 90 58 91
REMARK H PARENT 16 7 21 25 80 44 48 55
REMARK Flexibility Score: inf
ROOT
ATOM      1  C   UNL A   1      35.756  21.115  25.508  1.00  0.00     0.023 C 
ENDROOT
BRANCH   1   2
ATOM      2  C   UNL A   1      34.865  22.073  26.303  1.00  0.00     0.023 C 
BRANCH   2   3
ATOM      3  C   UNL A   1      35.114  23.557  26.066  1.00  0.00     0.116 C 
BRANCH   3   4
ATOM      4  N   UNL A   1      34.507  24.064  24.855  1.00  0.00    -0.354 N 
ATOM      5  C   UNL A   1      33.606  25.085  24.723  1.00  0.00     0.242 C 
ATOM      6  O   UNL A   1      33.362  25.465  23.573  1.00  0.00    -0.273 OA
ATOM      7  H   UNL A   1      34.777  23.616  24.020  1.00  0.00     0.163 HD
BRANCH   5   8
ATOM      8  C   UNL A   1      32.907  25.704  25.969  1.00  0.00     0.174 C 
ATOM      9  N   UNL A   1      32.182  26.929  25.647  1.00  0.00    -0.329 N 
ATOM     10  C   UNL A   1      30.999  26.877  24.822  1.00  0.00     0.120 C 
ATOM     11  C   UNL A   1      29.984  25.936  25.471  1.00  0.00     0.022 C 
ATOM     12  C   UNL A   1      31.904  24.706  26.587  1.00  0.00     0.035 C 
ATOM     13  C   UNL A   1      30.595  24.575  25.795  1.00  0.00     0.004 C 
BRANCH   9  14
ATOM     14  C   UNL A   1      32.668  28.140  26.044  1.00  0.00     0.226 A 
ATOM     15  C   UNL A   1      35.757  29.378  27.567  1.00  0.00     0.067 C 
ATOM     16  C   UNL A   1      34.383  29.372  26.967  1.00  0.00     0.043 A 
ATOM     17  C   UNL A   1      33.597  30.499  27.010  1.00  0.00     0.047 A 
ATOM     18  N   UNL A   1      33.934  28.204  26.468  1.00  0.00    -0.218 NA
ATOM     19  C   UNL A   1      32.320  30.367  26.505  1.00  0.00     0.043 A 
ATOM     20  C   UNL A   1      31.398  31.549  26.492  1.00  0.00     0.067 C 
ATOM     21  N   UNL A   1      31.838  29.193  26.045  1.00  0.00    -0.218 NA
ENDBRANCH   9  14
ENDBRANCH   5   8
ENDBRANCH   3   4
ENDBRANCH   2   3
ENDBRANCH   1   2
BRANCH   1  22
ATOM     22  C   UNL A   1      37.131  21.638  25.099  1.00  0.00     0.116 C 
BRANCH  22  23
ATOM     23  N   UNL A   1      38.222  20.703  25.332  1.00  0.00    -0.352 N 
ATOM     24  C   UNL A   1      39.383  20.872  26.053  1.00  0.00     0.251 C 
ATOM     25  H   UNL A   1      38.114  19.819  24.912  1.00  0.00     0.163 HD
ATOM     26  O   UNL A   1      40.180  19.941  26.148  1.00  0.00    -0.269 OA
BRANCH  24  27
ATOM     27  C   UNL A   1      39.701  22.189  26.649  1.00  0.00     0.039 A 
ATOM     28  C   UNL A   1      40.697  22.251  27.629  1.00  0.00     0.014 A 
ATOM     29  C   UNL A   1      39.082  23.360  26.206  1.00  0.00     0.014 A 
ATOM     30  C   UNL A   1      41.153  23.495  28.075  1.00  0.00     0.010 A 
ATOM     31  C   UNL A   1      39.582  24.599  26.601  1.00  0.00     0.010 A 
ATOM     32  C   UNL A   1      40.641  24.678  27.520  1.00  0.00    -0.014 A 
BRANCH  32  33
ATOM     33  C   UNL A   1      41.255  25.997  27.829  1.00  0.00     0.031 A 
ATOM     34  C   UNL A   1      42.664  26.308  27.406  1.00  0.00     0.074 A 
ATOM     35  C   UNL A   1      40.565  26.883  28.579  1.00  0.00     0.049 A 
ATOM     36  N   UNL A   1      43.371  27.385  27.631  1.00  0.00    -0.248 NA
ATOM     37  C   UNL A   1      43.380  25.266  26.653  1.00  0.00     0.031 C 
ATOM     38  C   UNL A   1      39.226  26.660  29.133  1.00  0.00     0.029 A 
ATOM     39  N   UNL A   1      40.901  28.136  29.026  1.00  0.00    -0.354 N 
ATOM     40  C   UNL A   1      44.619  27.145  27.072  1.00  0.00     0.074 A 
ATOM     41  C   UNL A   1      44.585  25.806  26.524  1.00  0.00     0.031 C 
ATOM     42  C   UNL A   1      38.855  27.740  29.840  1.00  0.00     0.029 A 
ATOM     43  C   UNL A   1      39.931  28.726  29.805  1.00  0.00     0.049 A 
ATOM     44  H   UNL A   1      41.757  28.572  28.810  1.00  0.00     0.167 HD
ATOM     45  C   UNL A   1      45.687  27.975  26.989  1.00  0.00     0.034 A 
ATOM     46  C   UNL A   1      39.907  29.928  30.415  1.00  0.00     0.034 A 
ATOM     47  C   UNL A   1      45.705  29.321  27.497  1.00  0.00     0.049 A 
ATOM     48  C   UNL A   1      41.075  30.859  30.233  1.00  0.00     0.074 A 
ATOM     49  C   UNL A   1      46.725  30.254  27.427  1.00  0.00     0.029 A 
ATOM     50  N   UNL A   1      44.649  29.931  28.154  1.00  0.00    -0.354 N 
ATOM     51  N   UNL A   1      42.189  30.664  29.570  1.00  0.00    -0.248 NA
ATOM     52  C   UNL A   1      40.963  32.195  30.839  1.00  0.00     0.031 C 
ATOM     53  C   UNL A   1      46.280  31.434  28.034  1.00  0.00     0.029 A 
ATOM     54  C   UNL A   1      44.983  31.235  28.477  1.00  0.00     0.049 A 
ATOM     55  H   UNL A   1      43.788  29.500  28.362  1.00  0.00     0.167 HD
ATOM     56  C   UNL A   1      42.890  31.861  29.644  1.00  0.00     0.074 A 
ATOM     57  C   UNL A   1      42.066  32.784  30.398  1.00  0.00     0.031 C 
ATOM     58  C   UNL A   1      44.116  32.164  29.153  1.00  0.00     0.034 A 
BRANCH  45  59
ATOM     59  C   UNL A   1      46.898  27.480  26.244  1.00  0.00     0.023 A 
ATOM     60  C   UNL A   1      47.801  26.625  26.908  1.00  0.00     0.012 A 
ATOM     61  C   UNL A   1      47.111  27.796  24.889  1.00  0.00     0.148 A 
ATOM     62  C   UNL A   1      48.915  26.114  26.243  1.00  0.00     0.002 A 
ATOM     63  C   UNL A   1      48.205  27.252  24.222  1.00  0.00     0.091 A 
ATOM     64  F   UNL A   1      46.250  28.624  24.281  1.00  0.00    -0.205 F 
ATOM     65  C   UNL A   1      49.111  26.420  24.901  1.00  0.00     0.022 A 
BRANCH  63  66
ATOM     66  S   UNL A   1      48.515  27.529  22.474  1.00  0.00     0.127 S 
ATOM     67  O   UNL A   1      48.552  26.160  21.961  1.00  0.00    -0.237 OA
ATOM     68  O   UNL A   1      47.339  28.300  22.070  1.00  0.00    -0.237 OA
ATOM     69  O   UNL A   1      49.773  28.258  22.401  1.00  0.00    -0.744 OA
ENDBRANCH  63  66
ENDBRANCH  45  59
BRANCH  46  70
ATOM     70  C   UNL A   1      38.695  30.361  31.168  1.00  0.00     0.023 A 
ATOM     71  C   UNL A   1      38.531  29.945  32.504  1.00  0.00     0.012 A 
ATOM     72  C   UNL A   1      37.717  31.187  30.585  1.00  0.00     0.148 A 
ATOM     73  C   UNL A   1      37.398  30.310  33.231  1.00  0.00     0.002 A 
ATOM     74  C   UNL A   1      36.615  31.591  31.333  1.00  0.00     0.091 A 
ATOM     75  F   UNL A   1      37.875  31.564  29.307  1.00  0.00    -0.205 F 
ATOM     76  C   UNL A   1      36.445  31.140  32.650  1.00  0.00     0.022 A 
BRANCH  74  77
ATOM     77  S   UNL A   1      35.424  32.769  30.682  1.00  0.00     0.127 S 
ATOM     78  O   UNL A   1      36.281  33.885  30.297  1.00  0.00    -0.237 OA
ATOM     79  O   UNL A   1      34.832  32.034  29.563  1.00  0.00    -0.237 OA
ATOM     80  O   UNL A   1      34.500  33.010  31.784  1.00  0.00    -0.744 OA
ENDBRANCH  74  77
ENDBRANCH  46  70
BRANCH  58  81
ATOM     81  C   UNL A   1      44.629  33.563  29.368  1.00  0.00     0.023 A 
ATOM     82  C   UNL A   1      45.337  33.871  30.545  1.00  0.00     0.012 A 
ATOM     83  C   UNL A   1      44.472  34.547  28.374  1.00  0.00     0.148 A 
ATOM     84  C   UNL A   1      45.860  35.149  30.743  1.00  0.00     0.002 A 
ATOM     85  C   UNL A   1      45.030  35.807  28.561  1.00  0.00     0.091 A 
ATOM     86  F   UNL A   1      43.773  34.244  27.272  1.00  0.00    -0.205 F 
ATOM     87  C   UNL A   1      45.717  36.112  29.747  1.00  0.00     0.022 A 
BRANCH  85  88
ATOM     88  S   UNL A   1      44.961  37.071  27.286  1.00  0.00     0.127 S 
ATOM     89  O   UNL A   1      45.867  36.527  26.276  1.00  0.00    -0.237 OA
ATOM     90  O   UNL A   1      43.548  37.062  26.904  1.00  0.00    -0.237 OA
ATOM     91  O   UNL A   1      45.397  38.303  27.932  1.00  0.00    -0.744 OA
ENDBRANCH  85  88
ENDBRANCH  58  81
ENDBRANCH  32  33
ENDBRANCH  24  27
ENDBRANCH  22  23
ENDBRANCH   1  22
TORSDOF 15
ENDMDL
MODEL 3
REMARK VINA RESULT:     -12.0      1.079      2.633
REMARK SMILES Cc1cc(C)nc(N2CCCC[C@H]2C(=O)NCCCCNC(=O)c2ccc(-c3c4nc(c(-c5cccc(S(=O)(=O)[O-])c5F)c5ccc([nH]5)c(-c5cccc(S(=O)(=O)[O-])c5F)c5nc(c(-c6cccc(S(=O)(=O)[O-])c6F)c6ccc3[nH]6)C=C5)C=C4)cc2)n1
REMARK SMILES IDX 19 1 18 2 17 3 16 4 14 5 15 6 13 8 8 9 9 10 10 11 12 12
REMARK SMILES IDX 11 13 7 14 1 15 2 16 3 17 87 18 4 19 5 20 6 21 20 22 21 23
REMARK SMILES IDX 22 24 23 26 24 27 25 28 86 29 26 30 85 31 27 32 28 33 29 34
REMARK SMILES IDX 79 35 30 36 84 37 78 38 80 39 31 40 83 41 77 42 76 43 32 45
REMARK SMILES IDX 64 46 44 47 63 48 45 49 48 50 62 51 81 52 46 53 47 54 61 56
REMARK SMILES IDX 82 57 49 58 33 59 34 60 42 61 35 62 37 63 43 64 36 65 38 66
REMARK SMILES IDX 39 67 40 68 41 69 65 70 66 71 74 72 67 73 69 74 75 75 68 76
REMARK SMILES IDX 70 77 71 78 72 79 73 80 50 81 51 82 59 83 52 84 54 85 60 86
REMARK SMILES IDX 53 87 55 88 56 89 57 90 58 91
REMARK H PARENT 16 7 21 25 80 44 48 55
REMARK Flexibility Score: inf
ROOT
ATOM      1  C   UNL A   1      31.539  29.388  26.175  1.00  0.00     0.023 C 
ENDROOT
BRANCH   1   2
ATOM      2  C   UNL A   1      31.634  28.552  27.453  1.00  0.00     0.023 C 
BRANCH   2   3
ATOM      3  C   UNL A   1      31.993  27.084  27.258  1.00  0.00     0.116 C 
BRANCH   3   4
ATOM      4  N   UNL A   1      31.156  26.402  26.296  1.00  0.00    -0.354 N 
ATOM      5  C   UNL A   1      31.540  25.581  25.270  1.00  0.00     0.242 C 
ATOM      6  O   UNL A   1      30.642  24.964  24.687  1.00  0.00    -0.273 OA
ATOM      7  H   UNL A   1      30.186  26.548  26.391  1.00  0.00     0.163 HD
BRANCH   5   8
ATOM      8  C   UNL A   1      33.035  25.468  24.851  1.00  0.00     0.174 C 
ATOM      9  N   UNL A   1      33.238  24.497  23.780  1.00  0.00    -0.329 N 
ATOM     10  C   UNL A   1      32.730  24.761  22.455  1.00  0.00     0.120 C 
ATOM     11  C   UNL A   1      33.315  26.081  21.953  1.00  0.00     0.022 C 
ATOM     12  C   UNL A   1      33.573  26.831  24.365  1.00  0.00     0.035 C 
ATOM     13  C   UNL A   1      33.103  27.215  22.954  1.00  0.00     0.004 C 
BRANCH   9  14
ATOM     14  C   UNL A   1      33.826  23.296  24.044  1.00  0.00     0.226 A 
ATOM     15  C   UNL A   1      32.691  19.958  25.031  1.00  0.00     0.067 C 
ATOM     16  C   UNL A   1      33.606  21.080  24.643  1.00  0.00     0.043 A 
ATOM     17  C   UNL A   1      34.970  20.939  24.751  1.00  0.00     0.047 A 
ATOM     18  N   UNL A   1      33.034  22.242  24.271  1.00  0.00    -0.218 NA
ATOM     19  C   UNL A   1      35.721  22.055  24.449  1.00  0.00     0.043 A 
ATOM     20  C   UNL A   1      37.217  21.989  24.519  1.00  0.00     0.067 C 
ATOM     21  N   UNL A   1      35.164  23.240  24.121  1.00  0.00    -0.218 NA
ENDBRANCH   9  14
ENDBRANCH   5   8
ENDBRANCH   3   4
ENDBRANCH   2   3
ENDBRANCH   1   2
BRANCH   1  22
ATOM     22  C   UNL A   1      32.659  30.398  25.933  1.00  0.00     0.116 C 
BRANCH  22  23
ATOM     23  N   UNL A   1      32.481  31.667  26.623  1.00  0.00    -0.352 N 
ATOM     24  C   UNL A   1      33.342  32.336  27.463  1.00  0.00     0.251 C 
ATOM     25  H   UNL A   1      31.617  32.113  26.467  1.00  0.00     0.163 HD
ATOM     26  O   UNL A   1      33.010  33.421  27.937  1.00  0.00    -0.269 OA
BRANCH  24  27
ATOM     27  C   UNL A   1      34.632  31.719  27.849  1.00  0.00     0.039 A 
ATOM     28  C   UNL A   1      35.755  32.544  27.964  1.00  0.00     0.014 A 
ATOM     29  C   UNL A   1      34.725  30.361  28.164  1.00  0.00     0.014 A 
ATOM     30  C   UNL A   1      36.938  32.033  28.507  1.00  0.00     0.010 A 
ATOM     31  C   UNL A   1      35.882  29.870  28.765  1.00  0.00     0.010 A 
ATOM     32  C   UNL A   1      36.991  30.708  28.968  1.00  0.00    -0.014 A 
BRANCH  32  33
ATOM     33  C   UNL A   1      38.165  30.209  29.731  1.00  0.00     0.031 A 
ATOM     34  C   UNL A   1      38.441  30.700  31.125  1.00  0.00     0.074 A 
ATOM     35  C   UNL A   1      39.039  29.379  29.124  1.00  0.00     0.049 A 
ATOM     36  N   UNL A   1      39.441  30.410  31.917  1.00  0.00    -0.248 NA
ATOM     37  C   UNL A   1      37.483  31.660  31.697  1.00  0.00     0.031 C 
ATOM     38  C   UNL A   1      38.936  28.906  27.740  1.00  0.00     0.029 A 
ATOM     39  N   UNL A   1      40.199  28.804  29.580  1.00  0.00    -0.354 N 
ATOM     40  C   UNL A   1      39.249  31.164  33.066  1.00  0.00     0.074 A 
ATOM     41  C   UNL A   1      38.053  31.952  32.858  1.00  0.00     0.031 C 
ATOM     42  C   UNL A   1      39.983  28.112  27.464  1.00  0.00     0.029 A 
ATOM     43  C   UNL A   1      40.842  28.029  28.641  1.00  0.00     0.049 A 
ATOM     44  H   UNL A   1      40.539  28.933  30.495  1.00  0.00     0.167 HD
ATOM     45  C   UNL A   1      39.980  31.175  34.207  1.00  0.00     0.034 A 
ATOM     46  C   UNL A   1      41.989  27.326  28.720  1.00  0.00     0.034 A 
ATOM     47  C   UNL A   1      41.143  30.359  34.429  1.00  0.00     0.049 A 
ATOM     48  C   UNL A   1      42.732  27.292  30.029  1.00  0.00     0.074 A 
ATOM     49  C   UNL A   1      41.929  30.270  35.565  1.00  0.00     0.029 A 
ATOM     50  N   UNL A   1      41.679  29.480  33.502  1.00  0.00    -0.354 N 
ATOM     51  N   UNL A   1      42.447  27.900  31.154  1.00  0.00    -0.248 NA
ATOM     52  C   UNL A   1      43.926  26.436  30.094  1.00  0.00     0.031 C 
ATOM     53  C   UNL A   1      42.935  29.327  35.328  1.00  0.00     0.029 A 
ATOM     54  C   UNL A   1      42.773  28.828  34.046  1.00  0.00     0.049 A 
ATOM     55  H   UNL A   1      41.334  29.341  32.590  1.00  0.00     0.167 HD
ATOM     56  C   UNL A   1      43.398  27.470  32.071  1.00  0.00     0.074 A 
ATOM     57  C   UNL A   1      44.256  26.533  31.376  1.00  0.00     0.031 C 
ATOM     58  C   UNL A   1      43.562  27.835  33.366  1.00  0.00     0.034 A 
BRANCH  45  59
ATOM     59  C   UNL A   1      39.488  32.036  35.340  1.00  0.00     0.023 A 
ATOM     60  C   UNL A   1      38.615  31.471  36.293  1.00  0.00     0.012 A 
ATOM     61  C   UNL A   1      39.929  33.362  35.506  1.00  0.00     0.148 A 
ATOM     62  C   UNL A   1      38.167  32.221  37.379  1.00  0.00     0.002 A 
ATOM     63  C   UNL A   1      39.506  34.093  36.612  1.00  0.00     0.091 A 
ATOM     64  F   UNL A   1      40.744  33.886  34.580  1.00  0.00    -0.205 F 
ATOM     65  C   UNL A   1      38.618  33.526  37.542  1.00  0.00     0.022 A 
BRANCH  63  66
ATOM     66  S   UNL A   1      40.078  35.761  36.954  1.00  0.00     0.127 S 
ATOM     67  O   UNL A   1      39.364  36.070  38.192  1.00  0.00    -0.237 OA
ATOM     68  O   UNL A   1      41.520  35.566  37.113  1.00  0.00    -0.237 OA
ATOM     69  O   UNL A   1      39.698  36.560  35.798  1.00  0.00    -0.744 OA
ENDBRANCH  63  66
ENDBRANCH  45  59
BRANCH  46  70
ATOM     70  C   UNL A   1      42.450  26.512  27.560  1.00  0.00     0.023 A 
ATOM     71  C   UNL A   1      43.263  27.114  26.579  1.00  0.00     0.012 A 
ATOM     72  C   UNL A   1      42.107  25.155  27.423  1.00  0.00     0.148 A 
ATOM     73  C   UNL A   1      43.693  26.391  25.466  1.00  0.00     0.002 A 
ATOM     74  C   UNL A   1      42.584  24.425  26.338  1.00  0.00     0.091 A 
ATOM     75  F   UNL A   1      41.320  24.596  28.354  1.00  0.00    -0.205 F 
ATOM     76  C   UNL A   1      43.362  25.044  25.350  1.00  0.00     0.022 A 
BRANCH  74  77
ATOM     77  S   UNL A   1      42.302  22.655  26.206  1.00  0.00     0.127 S 
ATOM     78  O   UNL A   1      42.942  22.155  27.418  1.00  0.00    -0.237 OA
ATOM     79  O   UNL A   1      40.840  22.567  26.201  1.00  0.00    -0.237 OA
ATOM     80  O   UNL A   1      42.919  22.274  24.941  1.00  0.00    -0.744 OA
ENDBRANCH  74  77
ENDBRANCH  46  70
BRANCH  58  81
ATOM     81  C   UNL A   1      44.681  27.188  34.137  1.00  0.00     0.023 A 
ATOM     82  C   UNL A   1      45.966  27.763  34.115  1.00  0.00     0.012 A 
ATOM     83  C   UNL A   1      44.441  26.056  34.939  1.00  0.00     0.148 A 
ATOM     84  C   UNL A   1      47.004  27.205  34.860  1.00  0.00     0.002 A 
ATOM     85  C   UNL A   1      45.471  25.529  35.710  1.00  0.00     0.091 A 
ATOM     86  F   UNL A   1      43.218  25.506  34.928  1.00  0.00    -0.205 F 
ATOM     87  C   UNL A   1      46.754  26.096  35.665  1.00  0.00     0.022 A 
BRANCH  85  88
ATOM     88  S   UNL A   1      45.202  24.156  36.837  1.00  0.00     0.127 S 
ATOM     89  O   UNL A   1      44.203  24.709  37.749  1.00  0.00    -0.237 OA
ATOM     90  O   UNL A   1      44.700  23.107  35.948  1.00  0.00    -0.237 OA
ATOM     91  O   UNL A   1      46.506  23.869  37.422  1.00  0.00    -0.744 OA
ENDBRANCH  85  88
ENDBRANCH  58  81
ENDBRANCH  32  33
ENDBRANCH  24  27
ENDBRANCH  22  23
ENDBRANCH   1  22
TORSDOF 15
ENDMDL
