MODEL 1
REMARK VINA RESULT:     -12.5      0.000      0.000
REMARK SMILES O=C(NCCCCNC(=O)[C@@H]1CC(=O)N(c2ccc(Cl)cc2C(=O)c2ccccc2)C1)c1ccc(-c2c3nc(c(-c4cccc(S(=O)(=O)[O-])c4F)c4ccc([nH]4)c(-c4cccc(S(=O)(=O)[O-])c4F)c4nc(c(-c5cccc(S(=O)(=O)[O-])c5F)c5ccc2[nH]5)C=C4)C=C3)cc1
REMARK SMILES IDX 5 1 4 2 3 3 1 4 2 5 32 7 33 8 94 9 34 10 93 11 35 12 36 13
REMARK SMILES IDX 37 14 87 15 38 16 92 17 86 18 88 19 39 20 91 21 85 22 84 23
REMARK SMILES IDX 40 25 72 26 52 27 71 28 53 29 56 30 70 31 89 32 54 33 55 34
REMARK SMILES IDX 69 36 90 37 57 38 41 39 42 40 50 41 43 42 45 43 51 44 44 45
REMARK SMILES IDX 46 46 47 47 48 48 49 49 73 50 74 51 82 52 75 53 77 54 83 55
REMARK SMILES IDX 76 56 78 57 79 58 80 59 81 60 58 61 59 62 67 63 60 64 62 65
REMARK SMILES IDX 68 66 61 67 63 68 64 69 65 70 66 71 6 72 7 73 8 74 9 75
REMARK SMILES IDX 10 77 11 78 12 79 31 80 13 81 15 82 14 83 16 84 17 85 22 86
REMARK SMILES IDX 18 87 21 88 19 89 20 90 23 91 24 92 25 93 26 94 30 95 27 96
REMARK SMILES IDX 29 97 28 98
REMARK H PARENT 3 6 88 24 56 35 8 76
REMARK Flexibility Score: inf
ROOT
ATOM      1  C   UNL A   1      32.812  27.803  25.778  1.00  0.00     0.023 C 
ENDROOT
BRANCH   1   2
ATOM      2  C   UNL A   1      34.038  28.701  25.963  1.00  0.00     0.116 C 
BRANCH   2   3
ATOM      3  N   UNL A   1      33.757  29.953  26.637  1.00  0.00    -0.352 N 
ATOM      4  O   UNL A   1      34.009  31.700  28.011  1.00  0.00    -0.269 OA
ATOM      5  C   UNL A   1      34.490  30.667  27.551  1.00  0.00     0.251 C 
ATOM      6  H   UNL A   1      32.892  30.359  26.398  1.00  0.00     0.163 HD
BRANCH   5   7
ATOM      7  C   UNL A   1      35.809  30.190  28.032  1.00  0.00     0.039 A 
ATOM      8  C   UNL A   1      36.977  30.295  27.271  1.00  0.00     0.014 A 
ATOM      9  C   UNL A   1      35.873  29.662  29.325  1.00  0.00     0.014 A 
ATOM     10  C   UNL A   1      38.177  29.759  27.751  1.00  0.00     0.010 A 
ATOM     11  C   UNL A   1      37.084  29.182  29.827  1.00  0.00     0.010 A 
ATOM     12  C   UNL A   1      38.241  29.191  29.033  1.00  0.00    -0.014 A 
BRANCH  12  13
ATOM     13  C   UNL A   1      39.507  28.628  29.578  1.00  0.00     0.031 A 
ATOM     14  C   UNL A   1      40.250  29.345  30.674  1.00  0.00     0.074 A 
ATOM     15  C   UNL A   1      40.041  27.522  29.024  1.00  0.00     0.049 A 
ATOM     16  N   UNL A   1      41.427  29.084  31.185  1.00  0.00    -0.248 NA
ATOM     17  C   UNL A   1      39.590  30.521  31.262  1.00  0.00     0.031 C 
ATOM     18  C   UNL A   1      39.443  26.756  27.931  1.00  0.00     0.029 A 
ATOM     19  N   UNL A   1      41.229  26.880  29.273  1.00  0.00    -0.354 N 
ATOM     20  C   UNL A   1      41.671  30.086  32.116  1.00  0.00     0.074 A 
ATOM     21  C   UNL A   1      40.520  30.964  32.097  1.00  0.00     0.031 C 
ATOM     22  C   UNL A   1      40.276  25.764  27.585  1.00  0.00     0.029 A 
ATOM     23  C   UNL A   1      41.485  25.848  28.400  1.00  0.00     0.049 A 
ATOM     24  H   UNL A   1      41.838  27.133  30.004  1.00  0.00     0.167 HD
ATOM     25  C   UNL A   1      42.748  30.256  32.922  1.00  0.00     0.034 A 
ATOM     26  C   UNL A   1      42.581  25.079  28.243  1.00  0.00     0.034 A 
ATOM     27  C   UNL A   1      43.878  29.366  32.960  1.00  0.00     0.049 A 
ATOM     28  C   UNL A   1      43.761  25.277  29.154  1.00  0.00     0.074 A 
ATOM     29  C   UNL A   1      44.981  29.411  33.795  1.00  0.00     0.029 A 
ATOM     30  N   UNL A   1      44.062  28.280  32.117  1.00  0.00    -0.354 N 
ATOM     31  N   UNL A   1      43.918  26.149  30.120  1.00  0.00    -0.248 NA
ATOM     32  C   UNL A   1      44.901  24.366  28.977  1.00  0.00     0.031 C 
ATOM     33  C   UNL A   1      45.843  28.370  33.439  1.00  0.00     0.029 A 
ATOM     34  C   UNL A   1      45.263  27.654  32.405  1.00  0.00     0.049 A 
ATOM     35  H   UNL A   1      43.430  27.996  31.417  1.00  0.00     0.167 HD
ATOM     36  C   UNL A   1      45.153  25.868  30.692  1.00  0.00     0.074 A 
ATOM     37  C   UNL A   1      45.701  24.739  29.968  1.00  0.00     0.031 C 
ATOM     38  C   UNL A   1      45.776  26.494  31.720  1.00  0.00     0.034 A 
BRANCH  25  39
ATOM     39  C   UNL A   1      42.744  31.440  33.856  1.00  0.00     0.023 A 
ATOM     40  C   UNL A   1      43.241  32.682  33.411  1.00  0.00     0.012 A 
ATOM     41  C   UNL A   1      42.205  31.339  35.153  1.00  0.00     0.148 A 
ATOM     42  C   UNL A   1      43.242  33.792  34.255  1.00  0.00     0.002 A 
ATOM     43  C   UNL A   1      42.168  32.461  35.974  1.00  0.00     0.091 A 
ATOM     44  F   UNL A   1      41.753  30.147  35.569  1.00  0.00    -0.205 F 
ATOM     45  C   UNL A   1      42.697  33.684  35.532  1.00  0.00     0.022 A 
BRANCH  43  46
ATOM     46  S   UNL A   1      41.413  32.436  37.605  1.00  0.00     0.127 S 
ATOM     47  O   UNL A   1      41.556  33.831  38.018  1.00  0.00    -0.237 OA
ATOM     48  O   UNL A   1      40.039  32.027  37.306  1.00  0.00    -0.237 OA
ATOM     49  O   UNL A   1      42.174  31.466  38.379  1.00  0.00    -0.744 OA
ENDBRANCH  43  46
ENDBRANCH  25  39
BRANCH  26  50
ATOM     50  C   UNL A   1      42.582  24.021  27.195  1.00  0.00     0.023 A 
ATOM     51  C   UNL A   1      43.193  24.280  25.953  1.00  0.00     0.012 A 
ATOM     52  C   UNL A   1      42.049  22.742  27.449  1.00  0.00     0.148 A 
ATOM     53  C   UNL A   1      43.257  23.287  24.974  1.00  0.00     0.002 A 
ATOM     54  C   UNL A   1      42.166  21.742  26.491  1.00  0.00     0.091 A 
ATOM     55  F   UNL A   1      41.466  22.523  28.636  1.00  0.00    -0.205 F 
ATOM     56  C   UNL A   1      42.757  22.017  25.248  1.00  0.00     0.022 A 
BRANCH  54  57
ATOM     57  S   UNL A   1      41.672  20.043  26.799  1.00  0.00     0.127 S 
ATOM     58  O   UNL A   1      40.283  20.207  27.218  1.00  0.00    -0.237 OA
ATOM     59  O   UNL A   1      41.851  19.437  25.479  1.00  0.00    -0.237 OA
ATOM     60  O   UNL A   1      42.583  19.544  27.821  1.00  0.00    -0.744 OA
ENDBRANCH  54  57
ENDBRANCH  26  50
BRANCH  38  61
ATOM     61  C   UNL A   1      47.104  25.951  32.181  1.00  0.00     0.023 A 
ATOM     62  C   UNL A   1      48.298  26.416  31.600  1.00  0.00     0.012 A 
ATOM     63  C   UNL A   1      47.166  25.055  33.269  1.00  0.00     0.148 A 
ATOM     64  C   UNL A   1      49.534  25.984  32.079  1.00  0.00     0.002 A 
ATOM     65  C   UNL A   1      48.402  24.666  33.772  1.00  0.00     0.091 A 
ATOM     66  F   UNL A   1      46.016  24.610  33.796  1.00  0.00    -0.205 F 
ATOM     67  C   UNL A   1      49.587  25.122  33.173  1.00  0.00     0.022 A 
BRANCH  65  68
ATOM     68  S   UNL A   1      48.567  23.639  35.237  1.00  0.00     0.127 S 
ATOM     69  O   UNL A   1      47.690  24.328  36.183  1.00  0.00    -0.237 OA
ATOM     70  O   UNL A   1      48.062  22.348  34.767  1.00  0.00    -0.237 OA
ATOM     71  O   UNL A   1      49.983  23.647  35.579  1.00  0.00    -0.744 OA
ENDBRANCH  65  68
ENDBRANCH  38  61
ENDBRANCH  12  13
ENDBRANCH   5   7
ENDBRANCH   2   3
ENDBRANCH   1   2
BRANCH   1  72
ATOM     72  C   UNL A   1      31.895  28.154  24.599  1.00  0.00     0.023 C 
BRANCH  72  73
ATOM     73  C   UNL A   1      32.068  27.269  23.368  1.00  0.00     0.116 C 
BRANCH  73  74
ATOM     74  N   UNL A   1      33.220  26.389  23.428  1.00  0.00    -0.356 N 
ATOM     75  C   UNL A   1      33.322  25.046  23.208  1.00  0.00     0.225 C 
ATOM     76  H   UNL A   1      34.066  26.832  23.666  1.00  0.00     0.163 HD
ATOM     77  O   UNL A   1      34.428  24.531  23.382  1.00  0.00    -0.275 OA
BRANCH  75  78
ATOM     78  C   UNL A   1      32.095  24.184  22.919  1.00  0.00     0.107 C 
ATOM     79  C   UNL A   1      31.135  24.115  24.127  1.00  0.00     0.116 C 
ATOM     80  C   UNL A   1      32.339  22.721  22.624  1.00  0.00     0.139 C 
ATOM     81  C   UNL A   1      31.393  22.755  24.737  1.00  0.00     0.227 C 
ATOM     82  N   UNL A   1      32.263  22.070  23.899  1.00  0.00    -0.311 N 
ATOM     83  O   UNL A   1      30.896  22.345  25.780  1.00  0.00    -0.274 OA
BRANCH  82  84
ATOM     84  C   UNL A   1      32.584  20.703  23.998  1.00  0.00     0.055 A 
ATOM     85  C   UNL A   1      32.013  19.847  23.039  1.00  0.00     0.028 A 
ATOM     86  C   UNL A   1      33.596  20.219  24.853  1.00  0.00     0.048 A 
ATOM     87  C   UNL A   1      32.490  18.547  22.871  1.00  0.00     0.023 A 
ATOM     88  C   UNL A   1      34.056  18.898  24.673  1.00  0.00     0.035 A 
ATOM     89  C   UNL A   1      33.519  18.083  23.680  1.00  0.00     0.041 A 
ATOM     90  Cl  UNL A   1      34.155  16.505  23.426  1.00  0.00    -0.084 Cl
BRANCH  86  91
ATOM     91  C   UNL A   1      34.326  21.001  25.894  1.00  0.00     0.195 C 
ATOM     92  O   UNL A   1      33.790  21.066  27.004  1.00  0.00    -0.289 OA
BRANCH  91  93
ATOM     93  C   UNL A   1      35.644  21.680  25.732  1.00  0.00     0.023 A 
ATOM     94  C   UNL A   1      35.715  23.040  26.080  1.00  0.00     0.012 A 
ATOM     95  C   UNL A   1      36.799  21.059  25.258  1.00  0.00     0.012 A 
ATOM     96  C   UNL A   1      36.929  23.727  26.090  1.00  0.00     0.001 A 
ATOM     97  C   UNL A   1      38.021  21.741  25.279  1.00  0.00     0.001 A 
ATOM     98  C   UNL A   1      38.090  23.064  25.717  1.00  0.00     0.000 A 
ENDBRANCH  91  93
ENDBRANCH  86  91
ENDBRANCH  82  84
ENDBRANCH  75  78
ENDBRANCH  73  74
ENDBRANCH  72  73
ENDBRANCH   1  72
TORSDOF 17
ENDMDL
MODEL 2
REMARK VINA RESULT:     -12.5      4.728      9.701
REMARK SMILES O=C(NCCCCNC(=O)[C@@H]1CC(=O)N(c2ccc(Cl)cc2C(=O)c2ccccc2)C1)c1ccc(-c2c3nc(c(-c4cccc(S(=O)(=O)[O-])c4F)c4ccc([nH]4)c(-c4cccc(S(=O)(=O)[O-])c4F)c4nc(c(-c5cccc(S(=O)(=O)[O-])c5F)c5ccc2[nH]5)C=C4)C=C3)cc1
REMARK SMILES IDX 5 1 4 2 3 3 1 4 2 5 32 7 33 8 94 9 34 10 93 11 35 12 36 13
REMARK SMILES IDX 37 14 87 15 38 16 92 17 86 18 88 19 39 20 91 21 85 22 84 23
REMARK SMILES IDX 40 25 72 26 52 27 71 28 53 29 56 30 70 31 89 32 54 33 55 34
REMARK SMILES IDX 69 36 90 37 57 38 41 39 42 40 50 41 43 42 45 43 51 44 44 45
REMARK SMILES IDX 46 46 47 47 48 48 49 49 73 50 74 51 82 52 75 53 77 54 83 55
REMARK SMILES IDX 76 56 78 57 79 58 80 59 81 60 58 61 59 62 67 63 60 64 62 65
REMARK SMILES IDX 68 66 61 67 63 68 64 69 65 70 66 71 6 72 7 73 8 74 9 75
REMARK SMILES IDX 10 77 11 78 12 79 31 80 13 81 15 82 14 83 16 84 17 85 22 86
REMARK SMILES IDX 18 87 21 88 19 89 20 90 23 91 24 92 25 93 26 94 30 95 27 96
REMARK SMILES IDX 29 97 28 98
REMARK H PARENT 3 6 88 24 56 35 8 76
REMARK Flexibility Score: inf
ROOT
ATOM      1  C   UNL A   1      35.921  22.802  24.596  1.00  0.00     0.023 C 
ENDROOT
BRANCH   1   2
ATOM      2  C   UNL A   1      36.763  23.190  25.815  1.00  0.00     0.116 C 
BRANCH   2   3
ATOM      3  N   UNL A   1      37.918  22.342  26.029  1.00  0.00    -0.352 N 
ATOM      4  O   UNL A   1      40.005  21.731  26.554  1.00  0.00    -0.269 OA
ATOM      5  C   UNL A   1      39.174  22.635  26.499  1.00  0.00     0.251 C 
ATOM      6  H   UNL A   1      37.778  21.396  25.796  1.00  0.00     0.163 HD
BRANCH   5   7
ATOM      7  C   UNL A   1      39.559  24.014  26.881  1.00  0.00     0.039 A 
ATOM      8  C   UNL A   1      40.089  24.933  25.970  1.00  0.00     0.014 A 
ATOM      9  C   UNL A   1      39.328  24.407  28.202  1.00  0.00     0.014 A 
ATOM     10  C   UNL A   1      40.503  26.196  26.408  1.00  0.00     0.010 A 
ATOM     11  C   UNL A   1      39.686  25.689  28.626  1.00  0.00     0.010 A 
ATOM     12  C   UNL A   1      40.310  26.585  27.743  1.00  0.00    -0.014 A 
BRANCH  12  13
ATOM     13  C   UNL A   1      40.724  27.927  28.235  1.00  0.00     0.031 A 
ATOM     14  C   UNL A   1      42.180  28.241  28.460  1.00  0.00     0.074 A 
ATOM     15  C   UNL A   1      39.788  28.835  28.573  1.00  0.00     0.049 A 
ATOM     16  N   UNL A   1      42.725  29.299  29.004  1.00  0.00    -0.248 NA
ATOM     17  C   UNL A   1      43.151  27.221  28.032  1.00  0.00     0.031 C 
ATOM     18  C   UNL A   1      38.344  28.642  28.441  1.00  0.00     0.029 A 
ATOM     19  N   UNL A   1      39.910  30.080  29.137  1.00  0.00    -0.354 N 
ATOM     20  C   UNL A   1      44.093  29.056  29.028  1.00  0.00     0.074 A 
ATOM     21  C   UNL A   1      44.296  27.746  28.448  1.00  0.00     0.031 C 
ATOM     22  C   UNL A   1      37.713  29.718  28.936  1.00  0.00     0.029 A 
ATOM     23  C   UNL A   1      38.703  30.656  29.458  1.00  0.00     0.049 A 
ATOM     24  H   UNL A   1      40.777  30.519  29.298  1.00  0.00     0.167 HD
ATOM     25  C   UNL A   1      45.092  29.853  29.482  1.00  0.00     0.034 A 
ATOM     26  C   UNL A   1      38.417  31.790  30.127  1.00  0.00     0.034 A 
ATOM     27  C   UNL A   1      44.892  31.168  30.033  1.00  0.00     0.049 A 
ATOM     28  C   UNL A   1      39.540  32.665  30.613  1.00  0.00     0.074 A 
ATOM     29  C   UNL A   1      45.844  32.081  30.448  1.00  0.00     0.029 A 
ATOM     30  N   UNL A   1      43.655  31.751  30.262  1.00  0.00    -0.354 N 
ATOM     31  N   UNL A   1      40.833  32.479  30.508  1.00  0.00    -0.248 NA
ATOM     32  C   UNL A   1      39.166  33.921  31.280  1.00  0.00     0.031 C 
ATOM     33  C   UNL A   1      45.184  33.205  30.954  1.00  0.00     0.029 A 
ATOM     34  C   UNL A   1      43.819  33.007  30.822  1.00  0.00     0.049 A 
ATOM     35  H   UNL A   1      42.787  31.334  30.056  1.00  0.00     0.167 HD
ATOM     36  C   UNL A   1      41.428  33.609  31.057  1.00  0.00     0.074 A 
ATOM     37  C   UNL A   1      40.353  34.479  31.488  1.00  0.00     0.031 C 
ATOM     38  C   UNL A   1      42.746  33.894  31.195  1.00  0.00     0.034 A 
BRANCH  25  39
ATOM     39  C   UNL A   1      46.505  29.335  29.376  1.00  0.00     0.023 A 
ATOM     40  C   UNL A   1      47.065  28.611  30.448  1.00  0.00     0.012 A 
ATOM     41  C   UNL A   1      47.259  29.520  28.201  1.00  0.00     0.148 A 
ATOM     42  C   UNL A   1      48.367  28.117  30.369  1.00  0.00     0.002 A 
ATOM     43  C   UNL A   1      48.540  28.987  28.112  1.00  0.00     0.091 A 
ATOM     44  F   UNL A   1      46.719  30.228  27.197  1.00  0.00    -0.205 F 
ATOM     45  C   UNL A   1      49.100  28.297  29.199  1.00  0.00     0.022 A 
BRANCH  43  46
ATOM     46  S   UNL A   1      49.528  29.100  26.615  1.00  0.00     0.127 S 
ATOM     47  O   UNL A   1      49.734  30.543  26.506  1.00  0.00    -0.237 OA
ATOM     48  O   UNL A   1      50.726  28.340  26.974  1.00  0.00    -0.237 OA
ATOM     49  O   UNL A   1      48.724  28.495  25.563  1.00  0.00    -0.744 OA
ENDBRANCH  43  46
ENDBRANCH  25  39
BRANCH  26  50
ATOM     50  C   UNL A   1      36.993  32.173  30.336  1.00  0.00     0.023 A 
ATOM     51  C   UNL A   1      36.374  31.885  31.567  1.00  0.00     0.012 A 
ATOM     52  C   UNL A   1      36.276  32.882  29.352  1.00  0.00     0.148 A 
ATOM     53  C   UNL A   1      35.058  32.282  31.808  1.00  0.00     0.002 A 
ATOM     54  C   UNL A   1      34.987  33.323  29.620  1.00  0.00     0.091 A 
ATOM     55  F   UNL A   1      36.885  33.138  28.185  1.00  0.00    -0.205 F 
ATOM     56  C   UNL A   1      34.371  33.011  30.843  1.00  0.00     0.022 A 
BRANCH  54  57
ATOM     57  S   UNL A   1      34.070  34.380  28.494  1.00  0.00     0.127 S 
ATOM     58  O   UNL A   1      33.944  33.524  27.317  1.00  0.00    -0.237 OA
ATOM     59  O   UNL A   1      32.827  34.598  29.235  1.00  0.00    -0.237 OA
ATOM     60  O   UNL A   1      34.885  35.574  28.318  1.00  0.00    -0.744 OA
ENDBRANCH  54  57
ENDBRANCH  26  50
BRANCH  38  61
ATOM     61  C   UNL A   1      43.125  35.227  31.787  1.00  0.00     0.023 A 
ATOM     62  C   UNL A   1      43.238  35.374  33.182  1.00  0.00     0.012 A 
ATOM     63  C   UNL A   1      43.474  36.304  30.946  1.00  0.00     0.148 A 
ATOM     64  C   UNL A   1      43.672  36.579  33.734  1.00  0.00     0.002 A 
ATOM     65  C   UNL A   1      43.951  37.485  31.502  1.00  0.00     0.091 A 
ATOM     66  F   UNL A   1      43.341  36.149  29.621  1.00  0.00    -0.205 F 
ATOM     67  C   UNL A   1      44.042  37.628  32.895  1.00  0.00     0.022 A 
BRANCH  65  68
ATOM     68  S   UNL A   1      44.544  38.852  30.497  1.00  0.00     0.127 S 
ATOM     69  O   UNL A   1      43.323  39.266  29.807  1.00  0.00    -0.237 OA
ATOM     70  O   UNL A   1      45.022  39.795  31.509  1.00  0.00    -0.237 OA
ATOM     71  O   UNL A   1      45.587  38.302  29.642  1.00  0.00    -0.744 OA
ENDBRANCH  65  68
ENDBRANCH  38  61
ENDBRANCH  12  13
ENDBRANCH   5   7
ENDBRANCH   2   3
ENDBRANCH   1   2
BRANCH   1  72
ATOM     72  C   UNL A   1      34.908  21.671  24.813  1.00  0.00     0.023 C 
BRANCH  72  73
ATOM     73  C   UNL A   1      33.668  21.743  23.928  1.00  0.00     0.116 C 
BRANCH  73  74
ATOM     74  N   UNL A   1      32.426  21.910  24.660  1.00  0.00    -0.356 N 
ATOM     75  C   UNL A   1      31.857  23.028  25.197  1.00  0.00     0.225 C 
ATOM     76  H   UNL A   1      31.910  21.082  24.792  1.00  0.00     0.163 HD
ATOM     77  O   UNL A   1      30.807  22.877  25.825  1.00  0.00    -0.275 OA
BRANCH  75  78
ATOM     78  C   UNL A   1      32.563  24.382  25.168  1.00  0.00     0.107 C 
ATOM     79  C   UNL A   1      32.351  25.178  26.475  1.00  0.00     0.116 C 
ATOM     80  C   UNL A   1      32.108  25.370  24.118  1.00  0.00     0.139 C 
ATOM     81  C   UNL A   1      31.309  26.215  26.120  1.00  0.00     0.227 C 
ATOM     82  N   UNL A   1      31.075  26.134  24.754  1.00  0.00    -0.311 N 
ATOM     83  O   UNL A   1      30.790  26.992  26.914  1.00  0.00    -0.274 OA
BRANCH  82  84
ATOM     84  C   UNL A   1      30.335  27.062  23.997  1.00  0.00     0.055 A 
ATOM     85  C   UNL A   1      28.972  26.778  23.802  1.00  0.00     0.028 A 
ATOM     86  C   UNL A   1      30.844  28.327  23.637  1.00  0.00     0.048 A 
ATOM     87  C   UNL A   1      28.100  27.760  23.328  1.00  0.00     0.023 A 
ATOM     88  C   UNL A   1      29.949  29.302  23.150  1.00  0.00     0.035 A 
ATOM     89  C   UNL A   1      28.591  29.022  23.017  1.00  0.00     0.041 A 
ATOM     90  Cl  UNL A   1      27.506  30.252  22.501  1.00  0.00    -0.084 Cl
BRANCH  86  91
ATOM     91  C   UNL A   1      32.251  28.799  23.809  1.00  0.00     0.195 C 
ATOM     92  O   UNL A   1      32.913  28.929  22.776  1.00  0.00    -0.289 OA
BRANCH  91  93
ATOM     93  C   UNL A   1      32.916  29.154  25.096  1.00  0.00     0.023 A 
ATOM     94  C   UNL A   1      32.292  30.126  25.897  1.00  0.00     0.012 A 
ATOM     95  C   UNL A   1      34.108  28.591  25.549  1.00  0.00     0.012 A 
ATOM     96  C   UNL A   1      32.763  30.429  27.175  1.00  0.00     0.001 A 
ATOM     97  C   UNL A   1      34.576  28.883  26.837  1.00  0.00     0.001 A 
ATOM     98  C   UNL A   1      33.892  29.780  27.656  1.00  0.00     0.000 A 
ENDBRANCH  91  93
ENDBRANCH  86  91
ENDBRANCH  82  84
ENDBRANCH  75  78
ENDBRANCH  73  74
ENDBRANCH  72  73
ENDBRANCH   1  72
TORSDOF 17
ENDMDL
MODEL 3
REMARK VINA RESULT:     -12.2      2.022      7.779
REMARK SMILES O=C(NCCCCNC(=O)[C@@H]1CC(=O)N(c2ccc(Cl)cc2C(=O)c2ccccc2)C1)c1ccc(-c2c3nc(c(-c4cccc(S(=O)(=O)[O-])c4F)c4ccc([nH]4)c(-c4cccc(S(=O)(=O)[O-])c4F)c4nc(c(-c5cccc(S(=O)(=O)[O-])c5F)c5ccc2[nH]5)C=C4)C=C3)cc1
REMARK SMILES IDX 5 1 4 2 3 3 1 4 2 5 32 7 33 8 94 9 34 10 93 11 35 12 36 13
REMARK SMILES IDX 37 14 87 15 38 16 92 17 86 18 88 19 39 20 91 21 85 22 84 23
REMARK SMILES IDX 40 25 72 26 52 27 71 28 53 29 56 30 70 31 89 32 54 33 55 34
REMARK SMILES IDX 69 36 90 37 57 38 41 39 42 40 50 41 43 42 45 43 51 44 44 45
REMARK SMILES IDX 46 46 47 47 48 48 49 49 73 50 74 51 82 52 75 53 77 54 83 55
REMARK SMILES IDX 76 56 78 57 79 58 80 59 81 60 58 61 59 62 67 63 60 64 62 65
REMARK SMILES IDX 68 66 61 67 63 68 64 69 65 70 66 71 6 72 7 73 8 74 9 75
REMARK SMILES IDX 10 77 11 78 12 79 31 80 13 81 15 82 14 83 16 84 17 85 22 86
REMARK SMILES IDX 18 87 21 88 19 89 20 90 23 91 24 92 25 93 26 94 30 95 27 96
REMARK SMILES IDX 29 97 28 98
REMARK H PARENT 3 6 88 24 56 35 8 76
REMARK Flexibility Score: inf
ROOT
ATOM      1  C   UNL A   1      32.027  27.885  25.010  1.00  0.00     0.023 C 
ENDROOT
BRANCH   1   2
ATOM      2  C   UNL A   1      33.052  28.917  25.491  1.00  0.00     0.116 C 
BRANCH   2   3
ATOM      3  N   UNL A   1      32.474  30.187  25.878  1.00  0.00    -0.352 N 
ATOM      4  O   UNL A   1      32.220  32.144  26.934  1.00  0.00    -0.269 OA
ATOM      5  C   UNL A   1      32.924  31.154  26.742  1.00  0.00     0.251 C 
ATOM      6  H   UNL A   1      31.611  30.391  25.449  1.00  0.00     0.163 HD
BRANCH   5   7
ATOM      7  C   UNL A   1      34.198  31.001  27.485  1.00  0.00     0.039 A 
ATOM      8  C   UNL A   1      35.100  32.054  27.667  1.00  0.00     0.014 A 
ATOM      9  C   UNL A   1      34.464  29.756  28.061  1.00  0.00     0.014 A 
ATOM     10  C   UNL A   1      36.320  31.827  28.313  1.00  0.00     0.010 A 
ATOM     11  C   UNL A   1      35.656  29.546  28.758  1.00  0.00     0.010 A 
ATOM     12  C   UNL A   1      36.613  30.568  28.860  1.00  0.00    -0.014 A 
BRANCH  12  13
ATOM     13  C   UNL A   1      37.896  30.301  29.568  1.00  0.00     0.031 A 
ATOM     14  C   UNL A   1      38.911  29.360  28.975  1.00  0.00     0.074 A 
ATOM     15  C   UNL A   1      38.109  30.827  30.789  1.00  0.00     0.049 A 
ATOM     16  N   UNL A   1      40.020  28.901  29.497  1.00  0.00    -0.248 NA
ATOM     17  C   UNL A   1      38.634  28.854  27.621  1.00  0.00     0.031 C 
ATOM     18  C   UNL A   1      37.189  31.721  31.492  1.00  0.00     0.029 A 
ATOM     19  N   UNL A   1      39.144  30.648  31.672  1.00  0.00    -0.354 N 
ATOM     20  C   UNL A   1      40.549  28.019  28.563  1.00  0.00     0.074 A 
ATOM     21  C   UNL A   1      39.635  28.003  27.440  1.00  0.00     0.031 C 
ATOM     22  C   UNL A   1      37.687  31.992  32.707  1.00  0.00     0.029 A 
ATOM     23  C   UNL A   1      38.937  31.260  32.887  1.00  0.00     0.049 A 
ATOM     24  H   UNL A   1      39.956  30.134  31.459  1.00  0.00     0.167 HD
ATOM     25  C   UNL A   1      41.694  27.297  28.626  1.00  0.00     0.034 A 
ATOM     26  C   UNL A   1      39.648  31.209  34.031  1.00  0.00     0.034 A 
ATOM     27  C   UNL A   1      42.616  27.335  29.731  1.00  0.00     0.049 A 
ATOM     28  C   UNL A   1      40.921  30.410  34.077  1.00  0.00     0.074 A 
ATOM     29  C   UNL A   1      43.838  26.699  29.854  1.00  0.00     0.029 A 
ATOM     30  N   UNL A   1      42.410  28.036  30.910  1.00  0.00    -0.354 N 
ATOM     31  N   UNL A   1      41.473  29.686  33.135  1.00  0.00    -0.248 NA
ATOM     32  C   UNL A   1      41.687  30.446  35.332  1.00  0.00     0.031 C 
ATOM     33  C   UNL A   1      44.359  26.992  31.118  1.00  0.00     0.029 A 
ATOM     34  C   UNL A   1      43.478  27.839  31.770  1.00  0.00     0.049 A 
ATOM     35  H   UNL A   1      41.621  28.592  31.106  1.00  0.00     0.167 HD
ATOM     36  C   UNL A   1      42.667  29.214  33.664  1.00  0.00     0.074 A 
ATOM     37  C   UNL A   1      42.763  29.739  35.011  1.00  0.00     0.031 C 
ATOM     38  C   UNL A   1      43.596  28.413  33.087  1.00  0.00     0.034 A 
BRANCH  25  39
ATOM     39  C   UNL A   1      42.033  26.416  27.448  1.00  0.00     0.023 A 
ATOM     40  C   UNL A   1      42.671  26.973  26.321  1.00  0.00     0.012 A 
ATOM     41  C   UNL A   1      41.767  25.033  27.476  1.00  0.00     0.148 A 
ATOM     42  C   UNL A   1      42.999  26.177  25.224  1.00  0.00     0.002 A 
ATOM     43  C   UNL A   1      42.137  24.238  26.397  1.00  0.00     0.091 A 
ATOM     44  F   UNL A   1      41.143  24.522  28.547  1.00  0.00    -0.205 F 
ATOM     45  C   UNL A   1      42.741  24.810  25.266  1.00  0.00     0.022 A 
BRANCH  43  46
ATOM     46  S   UNL A   1      41.917  22.454  26.396  1.00  0.00     0.127 S 
ATOM     47  O   UNL A   1      42.508  22.085  25.112  1.00  0.00    -0.237 OA
ATOM     48  O   UNL A   1      42.696  22.043  27.566  1.00  0.00    -0.237 OA
ATOM     49  O   UNL A   1      40.483  22.232  26.520  1.00  0.00    -0.744 OA
ENDBRANCH  43  46
ENDBRANCH  25  39
BRANCH  26  50
ATOM     50  C   UNL A   1      39.177  31.982  35.214  1.00  0.00     0.023 A 
ATOM     51  C   UNL A   1      38.345  31.356  36.162  1.00  0.00     0.012 A 
ATOM     52  C   UNL A   1      39.607  33.305  35.441  1.00  0.00     0.148 A 
ATOM     53  C   UNL A   1      37.935  32.039  37.307  1.00  0.00     0.002 A 
ATOM     54  C   UNL A   1      39.241  33.959  36.610  1.00  0.00     0.091 A 
ATOM     55  F   UNL A   1      40.393  33.882  34.521  1.00  0.00    -0.205 F 
ATOM     56  C   UNL A   1      38.393  33.333  37.538  1.00  0.00     0.022 A 
BRANCH  54  57
ATOM     57  S   UNL A   1      39.886  35.574  37.059  1.00  0.00     0.127 S 
ATOM     58  O   UNL A   1      39.184  35.838  38.312  1.00  0.00    -0.237 OA
ATOM     59  O   UNL A   1      41.316  35.296  37.199  1.00  0.00    -0.237 OA
ATOM     60  O   UNL A   1      39.549  36.458  35.951  1.00  0.00    -0.744 OA
ENDBRANCH  54  57
ENDBRANCH  26  50
BRANCH  38  61
ATOM     61  C   UNL A   1      44.839  28.087  33.874  1.00  0.00     0.023 A 
ATOM     62  C   UNL A   1      45.941  28.962  33.848  1.00  0.00     0.012 A 
ATOM     63  C   UNL A   1      44.868  26.962  34.723  1.00  0.00     0.148 A 
ATOM     64  C   UNL A   1      47.062  28.713  34.640  1.00  0.00     0.002 A 
ATOM     65  C   UNL A   1      45.968  26.747  35.545  1.00  0.00     0.091 A 
ATOM     66  F   UNL A   1      43.816  26.131  34.718  1.00  0.00    -0.205 F 
ATOM     67  C   UNL A   1      47.070  27.615  35.498  1.00  0.00     0.022 A 
BRANCH  65  68
ATOM     68  S   UNL A   1      46.024  25.416  36.752  1.00  0.00     0.127 S 
ATOM     69  O   UNL A   1      45.979  24.233  35.893  1.00  0.00    -0.237 OA
ATOM     70  O   UNL A   1      47.312  25.646  37.406  1.00  0.00    -0.237 OA
ATOM     71  O   UNL A   1      44.865  25.604  37.614  1.00  0.00    -0.744 OA
ENDBRANCH  65  68
ENDBRANCH  38  61
ENDBRANCH  12  13
ENDBRANCH   5   7
ENDBRANCH   2   3
ENDBRANCH   1   2
BRANCH   1  72
ATOM     72  C   UNL A   1      31.528  28.056  23.571  1.00  0.00     0.023 C 
BRANCH  72  73
ATOM     73  C   UNL A   1      32.371  27.351  22.512  1.00  0.00     0.116 C 
BRANCH  73  74
ATOM     74  N   UNL A   1      33.376  26.455  23.055  1.00  0.00    -0.356 N 
ATOM     75  C   UNL A   1      33.388  25.094  23.154  1.00  0.00     0.225 C 
ATOM     76  H   UNL A   1      34.178  26.901  23.410  1.00  0.00     0.163 HD
ATOM     77  O   UNL A   1      34.359  24.582  23.717  1.00  0.00    -0.275 OA
BRANCH  75  78
ATOM     78  C   UNL A   1      32.188  24.246  22.738  1.00  0.00     0.107 C 
ATOM     79  C   UNL A   1      31.104  24.193  23.836  1.00  0.00     0.116 C 
ATOM     80  C   UNL A   1      32.444  22.780  22.473  1.00  0.00     0.139 C 
ATOM     81  C   UNL A   1      31.278  22.833  24.473  1.00  0.00     0.227 C 
ATOM     82  N   UNL A   1      32.224  22.134  23.734  1.00  0.00    -0.311 N 
ATOM     83  O   UNL A   1      30.668  22.432  25.458  1.00  0.00    -0.274 OA
BRANCH  82  84
ATOM     84  C   UNL A   1      32.515  20.763  23.870  1.00  0.00     0.055 A 
ATOM     85  C   UNL A   1      31.988  19.904  22.889  1.00  0.00     0.028 A 
ATOM     86  C   UNL A   1      33.465  20.275  24.790  1.00  0.00     0.048 A 
ATOM     87  C   UNL A   1      32.452  18.594  22.767  1.00  0.00     0.023 A 
ATOM     88  C   UNL A   1      33.913  18.944  24.656  1.00  0.00     0.035 A 
ATOM     89  C   UNL A   1      33.422  18.124  23.642  1.00  0.00     0.041 A 
ATOM     90  Cl  UNL A   1      34.045  16.533  23.447  1.00  0.00    -0.084 Cl
BRANCH  86  91
ATOM     91  C   UNL A   1      34.144  21.059  25.864  1.00  0.00     0.195 C 
ATOM     92  O   UNL A   1      33.675  20.950  27.000  1.00  0.00    -0.289 OA
BRANCH  91  93
ATOM     93  C   UNL A   1      35.344  21.930  25.702  1.00  0.00     0.023 A 
ATOM     94  C   UNL A   1      36.191  21.664  24.612  1.00  0.00     0.012 A 
ATOM     95  C   UNL A   1      35.678  22.980  26.556  1.00  0.00     0.012 A 
ATOM     96  C   UNL A   1      37.261  22.503  24.299  1.00  0.00     0.001 A 
ATOM     97  C   UNL A   1      36.744  23.831  26.239  1.00  0.00     0.001 A 
ATOM     98  C   UNL A   1      37.517  23.607  25.100  1.00  0.00     0.000 A 
ENDBRANCH  91  93
ENDBRANCH  86  91
ENDBRANCH  82  84
ENDBRANCH  75  78
ENDBRANCH  73  74
ENDBRANCH  72  73
ENDBRANCH   1  72
TORSDOF 17
ENDMDL
