MODEL 1
REMARK VINA RESULT:     -13.4      0.000      0.000
REMARK SMILES CC(=O)Nc1cccc(-c2ccc(F)c(C(=O)NCCCCNC(=O)c3ccc(-c4c5nc(c(-c6cccc(S(=O)(=O)[O-])c6F)c6ccc([nH]6)c(-c6cccc(S(=O)(=O)[O-])c6F)c6nc(c(-c7cccc(S(=O)(=O)[O-])c7F)c7ccc4[nH]7)C=C6)C=C5)cc3)c2)c1
REMARK SMILES IDX 21 1 20 2 19 3 18 4 16 5 17 6 15 8 10 9 11 10 89 11 12 12
REMARK SMILES IDX 13 13 14 14 9 15 5 16 6 17 90 18 7 19 8 20 4 21 1 22 2 23
REMARK SMILES IDX 3 24 22 26 23 27 24 28 25 30 26 31 27 32 88 33 28 34 87 35
REMARK SMILES IDX 29 36 30 37 31 38 81 39 32 40 86 41 80 42 82 43 33 44 85 45
REMARK SMILES IDX 79 46 78 47 34 49 66 50 46 51 65 52 47 53 50 54 64 55 83 56
REMARK SMILES IDX 48 57 49 58 63 60 84 61 51 62 35 63 36 64 44 65 37 66 39 67
REMARK SMILES IDX 45 68 38 69 40 70 41 71 42 72 43 73 67 74 68 75 76 76 69 77
REMARK SMILES IDX 71 78 77 79 70 80 72 81 73 82 74 83 75 84 52 85 53 86 61 87
REMARK SMILES IDX 54 88 56 89 62 90 55 91 57 92 58 93 59 94 60 95
REMARK H PARENT 18 7 4 25 23 29 82 48 50 59
REMARK Flexibility Score: inf
ROOT
ATOM      1  C   UNL A   1      35.605  21.841  25.682  1.00  0.00     0.023 C 
ENDROOT
BRANCH   1   2
ATOM      2  C   UNL A   1      34.385  21.571  24.813  1.00  0.00     0.023 C 
BRANCH   2   3
ATOM      3  C   UNL A   1      33.467  22.752  24.530  1.00  0.00     0.116 C 
BRANCH   3   4
ATOM      4  N   UNL A   1      33.798  23.531  23.345  1.00  0.00    -0.352 N 
ATOM      5  C   UNL A   1      33.655  24.878  23.062  1.00  0.00     0.254 C 
ATOM      6  O   UNL A   1      34.090  25.307  21.998  1.00  0.00    -0.269 OA
ATOM      7  H   UNL A   1      34.196  23.006  22.613  1.00  0.00     0.163 HD
BRANCH   5   8
ATOM      8  C   UNL A   1      32.969  25.804  23.999  1.00  0.00     0.076 A 
ATOM      9  C   UNL A   1      31.201  27.440  24.411  1.00  0.00    -0.017 A 
ATOM     10  C   UNL A   1      31.861  27.834  25.583  1.00  0.00     0.012 A 
ATOM     11  C   UNL A   1      31.714  26.337  23.705  1.00  0.00     0.025 A 
ATOM     12  C   UNL A   1      33.037  27.193  25.982  1.00  0.00     0.041 A 
ATOM     13  C   UNL A   1      33.606  26.210  25.170  1.00  0.00     0.135 A 
ATOM     14  F   UNL A   1      34.796  25.712  25.532  1.00  0.00    -0.206 F 
BRANCH   9  15
ATOM     15  C   UNL A   1      30.131  28.245  23.790  1.00  0.00    -0.016 A 
ATOM     16  C   UNL A   1      29.030  30.410  23.480  1.00  0.00     0.041 A 
ATOM     17  C   UNL A   1      27.869  29.749  23.067  1.00  0.00     0.026 A 
ATOM     18  C   UNL A   1      30.146  29.651  23.842  1.00  0.00     0.034 A 
ATOM     19  C   UNL A   1      27.845  28.361  22.956  1.00  0.00     0.003 A 
ATOM     20  C   UNL A   1      28.968  27.615  23.311  1.00  0.00     0.009 A 
BRANCH  16  21
ATOM     21  N   UNL A   1      28.961  31.808  23.590  1.00  0.00    -0.326 N 
ATOM     22  C   UNL A   1      28.193  32.455  21.306  1.00  0.00     0.114 C 
ATOM     23  C   UNL A   1      28.717  32.789  22.673  1.00  0.00     0.221 C 
ATOM     24  O   UNL A   1      28.874  33.964  23.012  1.00  0.00    -0.275 OA
ATOM     25  H   UNL A   1      29.118  32.144  24.501  1.00  0.00     0.169 HD
ENDBRANCH  16  21
ENDBRANCH   9  15
ENDBRANCH   5   8
ENDBRANCH   3   4
ENDBRANCH   2   3
ENDBRANCH   1   2
BRANCH   1  26
ATOM     26  C   UNL A   1      36.943  21.951  24.960  1.00  0.00     0.116 C 
BRANCH  26  27
ATOM     27  N   UNL A   1      37.898  20.910  25.312  1.00  0.00    -0.352 N 
ATOM     28  C   UNL A   1      39.104  21.013  25.972  1.00  0.00     0.251 C 
ATOM     29  H   UNL A   1      37.647  19.999  25.037  1.00  0.00     0.163 HD
ATOM     30  O   UNL A   1      39.804  20.018  26.116  1.00  0.00    -0.269 OA
BRANCH  28  31
ATOM     31  C   UNL A   1      39.571  22.329  26.468  1.00  0.00     0.039 A 
ATOM     32  C   UNL A   1      40.551  22.364  27.466  1.00  0.00     0.014 A 
ATOM     33  C   UNL A   1      39.073  23.520  25.939  1.00  0.00     0.014 A 
ATOM     34  C   UNL A   1      41.088  23.589  27.870  1.00  0.00     0.010 A 
ATOM     35  C   UNL A   1      39.667  24.731  26.280  1.00  0.00     0.010 A 
ATOM     36  C   UNL A   1      40.680  24.782  27.250  1.00  0.00    -0.014 A 
BRANCH  36  37
ATOM     37  C   UNL A   1      41.291  26.091  27.600  1.00  0.00     0.031 A 
ATOM     38  C   UNL A   1      42.701  26.403  27.172  1.00  0.00     0.074 A 
ATOM     39  C   UNL A   1      40.616  26.961  28.379  1.00  0.00     0.049 A 
ATOM     40  N   UNL A   1      43.435  27.451  27.445  1.00  0.00    -0.248 NA
ATOM     41  C   UNL A   1      43.390  25.387  26.358  1.00  0.00     0.031 C 
ATOM     42  C   UNL A   1      39.275  26.745  28.928  1.00  0.00     0.029 A 
ATOM     43  N   UNL A   1      40.976  28.193  28.866  1.00  0.00    -0.354 N 
ATOM     44  C   UNL A   1      44.677  27.206  26.872  1.00  0.00     0.074 A 
ATOM     45  C   UNL A   1      44.612  25.891  26.272  1.00  0.00     0.031 C 
ATOM     46  C   UNL A   1      38.924  27.811  29.667  1.00  0.00     0.029 A 
ATOM     47  C   UNL A   1      40.019  28.775  29.665  1.00  0.00     0.049 A 
ATOM     48  H   UNL A   1      41.840  28.620  28.662  1.00  0.00     0.167 HD
ATOM     49  C   UNL A   1      45.763  28.013  26.814  1.00  0.00     0.034 A 
ATOM     50  C   UNL A   1      40.022  29.954  30.318  1.00  0.00     0.034 A 
ATOM     51  C   UNL A   1      45.805  29.342  27.359  1.00  0.00     0.049 A 
ATOM     52  C   UNL A   1      41.217  30.861  30.181  1.00  0.00     0.074 A 
ATOM     53  C   UNL A   1      46.833  30.267  27.294  1.00  0.00     0.029 A 
ATOM     54  N   UNL A   1      44.771  29.941  28.060  1.00  0.00    -0.354 N 
ATOM     55  N   UNL A   1      42.327  30.669  29.510  1.00  0.00    -0.248 NA
ATOM     56  C   UNL A   1      41.142  32.167  30.854  1.00  0.00     0.031 C 
ATOM     57  C   UNL A   1      46.417  31.428  27.957  1.00  0.00     0.029 A 
ATOM     58  C   UNL A   1      45.128  31.228  28.423  1.00  0.00     0.049 A 
ATOM     59  H   UNL A   1      43.909  29.514  28.269  1.00  0.00     0.167 HD
ATOM     60  C   UNL A   1      43.059  31.843  29.640  1.00  0.00     0.074 A 
ATOM     61  C   UNL A   1      42.260  32.748  30.440  1.00  0.00     0.031 C 
ATOM     62  C   UNL A   1      44.289  32.142  29.153  1.00  0.00     0.034 A 
BRANCH  49  63
ATOM     63  C   UNL A   1      46.969  27.505  26.067  1.00  0.00     0.023 A 
ATOM     64  C   UNL A   1      47.889  26.668  26.732  1.00  0.00     0.012 A 
ATOM     65  C   UNL A   1      47.172  27.811  24.708  1.00  0.00     0.148 A 
ATOM     66  C   UNL A   1      49.012  26.176  26.070  1.00  0.00     0.002 A 
ATOM     67  C   UNL A   1      48.271  27.280  24.041  1.00  0.00     0.091 A 
ATOM     68  F   UNL A   1      46.300  28.625  24.096  1.00  0.00    -0.205 F 
ATOM     69  C   UNL A   1      49.197  26.473  24.722  1.00  0.00     0.022 A 
BRANCH  67  70
ATOM     70  S   UNL A   1      48.557  27.539  22.286  1.00  0.00     0.127 S 
ATOM     71  O   UNL A   1      48.759  26.169  21.815  1.00  0.00    -0.237 OA
ATOM     72  O   UNL A   1      47.300  28.151  21.854  1.00  0.00    -0.237 OA
ATOM     73  O   UNL A   1      49.719  28.412  22.195  1.00  0.00    -0.744 OA
ENDBRANCH  67  70
ENDBRANCH  49  63
BRANCH  50  74
ATOM     74  C   UNL A   1      38.817  30.395  31.078  1.00  0.00     0.023 A 
ATOM     75  C   UNL A   1      38.743  30.123  32.459  1.00  0.00     0.012 A 
ATOM     76  C   UNL A   1      37.760  31.087  30.458  1.00  0.00     0.148 A 
ATOM     77  C   UNL A   1      37.622  30.496  33.201  1.00  0.00     0.002 A 
ATOM     78  C   UNL A   1      36.668  31.503  31.214  1.00  0.00     0.091 A 
ATOM     79  F   UNL A   1      37.839  31.325  29.142  1.00  0.00    -0.205 F 
ATOM     80  C   UNL A   1      36.589  31.194  32.581  1.00  0.00     0.022 A 
BRANCH  78  81
ATOM     81  S   UNL A   1      35.354  32.516  30.524  1.00  0.00     0.127 S 
ATOM     82  O   UNL A   1      34.399  32.560  31.628  1.00  0.00    -0.237 OA
ATOM     83  O   UNL A   1      36.047  33.778  30.258  1.00  0.00    -0.237 OA
ATOM     84  O   UNL A   1      34.914  31.814  29.326  1.00  0.00    -0.744 OA
ENDBRANCH  78  81
ENDBRANCH  50  74
BRANCH  62  85
ATOM     85  C   UNL A   1      44.831  33.522  29.419  1.00  0.00     0.023 A 
ATOM     86  C   UNL A   1      45.516  33.787  30.619  1.00  0.00     0.012 A 
ATOM     87  C   UNL A   1      44.722  34.533  28.444  1.00  0.00     0.148 A 
ATOM     88  C   UNL A   1      46.060  35.048  30.860  1.00  0.00     0.002 A 
ATOM     89  C   UNL A   1      45.307  35.774  28.671  1.00  0.00     0.091 A 
ATOM     90  F   UNL A   1      44.046  34.269  27.316  1.00  0.00    -0.205 F 
ATOM     91  C   UNL A   1      45.966  36.037  29.882  1.00  0.00     0.022 A 
BRANCH  89  92
ATOM     92  S   UNL A   1      45.312  37.068  27.424  1.00  0.00     0.127 S 
ATOM     93  O   UNL A   1      46.108  38.107  28.076  1.00  0.00    -0.237 OA
ATOM     94  O   UNL A   1      45.974  36.413  26.295  1.00  0.00    -0.237 OA
ATOM     95  O   UNL A   1      43.913  37.397  27.190  1.00  0.00    -0.744 OA
ENDBRANCH  89  92
ENDBRANCH  62  85
ENDBRANCH  36  37
ENDBRANCH  28  31
ENDBRANCH  26  27
ENDBRANCH   1  26
TORSDOF 16
ENDMDL
MODEL 2
REMARK VINA RESULT:     -13.4      5.048     10.739
REMARK SMILES CC(=O)Nc1cccc(-c2ccc(F)c(C(=O)NCCCCNC(=O)c3ccc(-c4c5nc(c(-c6cccc(S(=O)(=O)[O-])c6F)c6ccc([nH]6)c(-c6cccc(S(=O)(=O)[O-])c6F)c6nc(c(-c7cccc(S(=O)(=O)[O-])c7F)c7ccc4[nH]7)C=C6)C=C5)cc3)c2)c1
REMARK SMILES IDX 21 1 20 2 19 3 18 4 16 5 17 6 15 8 10 9 11 10 89 11 12 12
REMARK SMILES IDX 13 13 14 14 9 15 5 16 6 17 90 18 7 19 8 20 4 21 1 22 2 23
REMARK SMILES IDX 3 24 22 26 23 27 24 28 25 30 26 31 27 32 88 33 28 34 87 35
REMARK SMILES IDX 29 36 30 37 31 38 81 39 32 40 86 41 80 42 82 43 33 44 85 45
REMARK SMILES IDX 79 46 78 47 34 49 66 50 46 51 65 52 47 53 50 54 64 55 83 56
REMARK SMILES IDX 48 57 49 58 63 60 84 61 51 62 35 63 36 64 44 65 37 66 39 67
REMARK SMILES IDX 45 68 38 69 40 70 41 71 42 72 43 73 67 74 68 75 76 76 69 77
REMARK SMILES IDX 71 78 77 79 70 80 72 81 73 82 74 83 75 84 52 85 53 86 61 87
REMARK SMILES IDX 54 88 56 89 62 90 55 91 57 92 58 93 59 94 60 95
REMARK H PARENT 18 7 4 25 23 29 82 48 50 59
REMARK Flexibility Score: inf
ROOT
ATOM      1  C   UNL A   1      31.985  28.323  25.907  1.00  0.00     0.023 C 
ENDROOT
BRANCH   1   2
ATOM      2  C   UNL A   1      31.096  27.769  24.803  1.00  0.00     0.023 C 
BRANCH   2   3
ATOM      3  C   UNL A   1      31.417  26.369  24.298  1.00  0.00     0.116 C 
BRANCH   3   4
ATOM      4  N   UNL A   1      32.301  26.309  23.142  1.00  0.00    -0.352 N 
ATOM      5  C   UNL A   1      33.374  25.486  22.849  1.00  0.00     0.254 C 
ATOM      6  O   UNL A   1      33.916  25.591  21.753  1.00  0.00    -0.269 OA
ATOM      7  H   UNL A   1      32.098  26.971  22.442  1.00  0.00     0.163 HD
BRANCH   5   8
ATOM      8  C   UNL A   1      33.898  24.507  23.833  1.00  0.00     0.076 A 
ATOM      9  C   UNL A   1      34.066  22.193  24.604  1.00  0.00    -0.017 A 
ATOM     10  C   UNL A   1      34.534  22.656  25.841  1.00  0.00     0.012 A 
ATOM     11  C   UNL A   1      33.875  23.135  23.577  1.00  0.00     0.025 A 
ATOM     12  C   UNL A   1      34.723  24.023  26.059  1.00  0.00     0.041 A 
ATOM     13  C   UNL A   1      34.368  24.943  25.071  1.00  0.00     0.135 A 
ATOM     14  F   UNL A   1      34.452  26.247  25.370  1.00  0.00    -0.206 F 
BRANCH   9  15
ATOM     15  C   UNL A   1      33.582  20.813  24.400  1.00  0.00    -0.016 A 
ATOM     16  C   UNL A   1      34.023  18.405  24.383  1.00  0.00     0.041 A 
ATOM     17  C   UNL A   1      32.907  18.216  23.563  1.00  0.00     0.026 A 
ATOM     18  C   UNL A   1      34.353  19.701  24.788  1.00  0.00     0.034 A 
ATOM     19  C   UNL A   1      32.097  19.294  23.208  1.00  0.00     0.003 A 
ATOM     20  C   UNL A   1      32.431  20.581  23.627  1.00  0.00     0.009 A 
BRANCH  16  21
ATOM     21  N   UNL A   1      34.800  17.271  24.671  1.00  0.00    -0.326 N 
ATOM     22  C   UNL A   1      33.044  15.589  25.230  1.00  0.00     0.114 C 
ATOM     23  C   UNL A   1      34.476  16.036  25.154  1.00  0.00     0.221 C 
ATOM     24  O   UNL A   1      35.388  15.268  25.467  1.00  0.00    -0.275 OA
ATOM     25  H   UNL A   1      35.760  17.389  24.489  1.00  0.00     0.169 HD
ENDBRANCH  16  21
ENDBRANCH   9  15
ENDBRANCH   5   8
ENDBRANCH   3   4
ENDBRANCH   2   3
ENDBRANCH   1   2
BRANCH   1  26
ATOM     26  C   UNL A   1      32.896  29.484  25.529  1.00  0.00     0.116 C 
BRANCH  26  27
ATOM     27  N   UNL A   1      32.521  30.757  26.127  1.00  0.00    -0.352 N 
ATOM     28  C   UNL A   1      33.167  31.498  27.093  1.00  0.00     0.251 C 
ATOM     29  H   UNL A   1      31.680  31.146  25.794  1.00  0.00     0.163 HD
ATOM     30  O   UNL A   1      32.652  32.525  27.519  1.00  0.00    -0.269 OA
BRANCH  28  31
ATOM     31  C   UNL A   1      34.463  31.033  27.644  1.00  0.00     0.039 A 
ATOM     32  C   UNL A   1      35.477  31.971  27.864  1.00  0.00     0.014 A 
ATOM     33  C   UNL A   1      34.670  29.692  27.969  1.00  0.00     0.014 A 
ATOM     34  C   UNL A   1      36.664  31.576  28.487  1.00  0.00     0.010 A 
ATOM     35  C   UNL A   1      35.815  29.318  28.665  1.00  0.00     0.010 A 
ATOM     36  C   UNL A   1      36.827  30.254  28.931  1.00  0.00    -0.014 A 
BRANCH  36  37
ATOM     37  C   UNL A   1      38.045  29.823  29.668  1.00  0.00     0.031 A 
ATOM     38  C   UNL A   1      38.313  30.353  31.052  1.00  0.00     0.074 A 
ATOM     39  C   UNL A   1      38.954  29.032  29.063  1.00  0.00     0.049 A 
ATOM     40  N   UNL A   1      39.352  30.161  31.824  1.00  0.00    -0.248 NA
ATOM     41  C   UNL A   1      37.295  31.245  31.633  1.00  0.00     0.031 C 
ATOM     42  C   UNL A   1      38.853  28.517  27.695  1.00  0.00     0.029 A 
ATOM     43  N   UNL A   1      40.155  28.543  29.511  1.00  0.00    -0.354 N 
ATOM     44  C   UNL A   1      39.132  30.932  32.959  1.00  0.00     0.074 A 
ATOM     45  C   UNL A   1      37.880  31.630  32.757  1.00  0.00     0.031 C 
ATOM     46  C   UNL A   1      39.941  27.778  27.421  1.00  0.00     0.029 A 
ATOM     47  C   UNL A   1      40.827  27.784  28.580  1.00  0.00     0.049 A 
ATOM     48  H   UNL A   1      40.504  28.718  30.415  1.00  0.00     0.167 HD
ATOM     49  C   UNL A   1      39.879  31.026  34.084  1.00  0.00     0.034 A 
ATOM     50  C   UNL A   1      42.019  27.160  28.655  1.00  0.00     0.034 A 
ATOM     51  C   UNL A   1      41.091  30.286  34.306  1.00  0.00     0.049 A 
ATOM     52  C   UNL A   1      42.799  27.227  29.942  1.00  0.00     0.074 A 
ATOM     53  C   UNL A   1      41.888  30.257  35.438  1.00  0.00     0.029 A 
ATOM     54  N   UNL A   1      41.678  29.436  33.383  1.00  0.00    -0.354 N 
ATOM     55  N   UNL A   1      42.499  27.846  31.058  1.00  0.00    -0.248 NA
ATOM     56  C   UNL A   1      44.059  26.471  29.997  1.00  0.00     0.031 C 
ATOM     57  C   UNL A   1      42.957  29.387  35.197  1.00  0.00     0.029 A 
ATOM     58  C   UNL A   1      42.818  28.866  33.921  1.00  0.00     0.049 A 
ATOM     59  H   UNL A   1      41.333  29.262  32.477  1.00  0.00     0.167 HD
ATOM     60  C   UNL A   1      43.504  27.517  31.959  1.00  0.00     0.074 A 
ATOM     61  C   UNL A   1      44.414  26.631  31.264  1.00  0.00     0.031 C 
ATOM     62  C   UNL A   1      43.669  27.924  33.242  1.00  0.00     0.034 A 
BRANCH  49  63
ATOM     63  C   UNL A   1      39.362  31.905  35.193  1.00  0.00     0.023 A 
ATOM     64  C   UNL A   1      38.409  31.386  36.094  1.00  0.00     0.012 A 
ATOM     65  C   UNL A   1      39.842  33.215  35.376  1.00  0.00     0.148 A 
ATOM     66  C   UNL A   1      37.913  32.168  37.136  1.00  0.00     0.002 A 
ATOM     67  C   UNL A   1      39.376  33.974  36.444  1.00  0.00     0.091 A 
ATOM     68  F   UNL A   1      40.732  33.701  34.498  1.00  0.00    -0.205 F 
ATOM     69  C   UNL A   1      38.404  33.458  37.316  1.00  0.00     0.022 A 
BRANCH  67  70
ATOM     70  S   UNL A   1      40.003  35.618  36.810  1.00  0.00     0.127 S 
ATOM     71  O   UNL A   1      41.445  35.380  36.863  1.00  0.00    -0.237 OA
ATOM     72  O   UNL A   1      39.556  36.386  35.647  1.00  0.00    -0.237 OA
ATOM     73  O   UNL A   1      39.385  36.011  38.069  1.00  0.00    -0.744 OA
ENDBRANCH  67  70
ENDBRANCH  49  63
BRANCH  50  74
ATOM     74  C   UNL A   1      42.507  26.333  27.513  1.00  0.00     0.023 A 
ATOM     75  C   UNL A   1      43.373  26.917  26.567  1.00  0.00     0.012 A 
ATOM     76  C   UNL A   1      42.138  24.984  27.363  1.00  0.00     0.148 A 
ATOM     77  C   UNL A   1      43.832  26.185  25.472  1.00  0.00     0.002 A 
ATOM     78  C   UNL A   1      42.641  24.244  26.297  1.00  0.00     0.091 A 
ATOM     79  F   UNL A   1      41.303  24.447  28.262  1.00  0.00    -0.205 F 
ATOM     80  C   UNL A   1      43.473  24.847  25.341  1.00  0.00     0.022 A 
BRANCH  78  81
ATOM     81  S   UNL A   1      42.332  22.482  26.123  1.00  0.00     0.127 S 
ATOM     82  O   UNL A   1      42.896  21.956  27.363  1.00  0.00    -0.237 OA
ATOM     83  O   UNL A   1      40.871  22.433  26.041  1.00  0.00    -0.237 OA
ATOM     84  O   UNL A   1      43.011  22.090  24.895  1.00  0.00    -0.744 OA
ENDBRANCH  78  81
ENDBRANCH  50  74
BRANCH  62  85
ATOM     85  C   UNL A   1      44.845  27.374  34.005  1.00  0.00     0.023 A 
ATOM     86  C   UNL A   1      46.078  28.052  33.980  1.00  0.00     0.012 A 
ATOM     87  C   UNL A   1      44.703  26.224  34.806  1.00  0.00     0.148 A 
ATOM     88  C   UNL A   1      47.163  27.577  34.716  1.00  0.00     0.002 A 
ATOM     89  C   UNL A   1      45.775  25.782  35.574  1.00  0.00     0.091 A 
ATOM     90  F   UNL A   1      43.528  25.577  34.801  1.00  0.00    -0.205 F 
ATOM     91  C   UNL A   1      47.008  26.450  35.522  1.00  0.00     0.022 A 
BRANCH  89  92
ATOM     92  S   UNL A   1      45.628  24.397  36.709  1.00  0.00     0.127 S 
ATOM     93  O   UNL A   1      45.264  23.308  35.805  1.00  0.00    -0.237 OA
ATOM     94  O   UNL A   1      46.980  24.301  37.263  1.00  0.00    -0.237 OA
ATOM     95  O   UNL A   1      44.611  24.783  37.676  1.00  0.00    -0.744 OA
ENDBRANCH  89  92
ENDBRANCH  62  85
ENDBRANCH  36  37
ENDBRANCH  28  31
ENDBRANCH  26  27
ENDBRANCH   1  26
TORSDOF 16
ENDMDL
MODEL 3
REMARK VINA RESULT:     -13.0      5.076      8.554
REMARK SMILES CC(=O)Nc1cccc(-c2ccc(F)c(C(=O)NCCCCNC(=O)c3ccc(-c4c5nc(c(-c6cccc(S(=O)(=O)[O-])c6F)c6ccc([nH]6)c(-c6cccc(S(=O)(=O)[O-])c6F)c6nc(c(-c7cccc(S(=O)(=O)[O-])c7F)c7ccc4[nH]7)C=C6)C=C5)cc3)c2)c1
REMARK SMILES IDX 21 1 20 2 19 3 18 4 16 5 17 6 15 8 10 9 11 10 89 11 12 12
REMARK SMILES IDX 13 13 14 14 9 15 5 16 6 17 90 18 7 19 8 20 4 21 1 22 2 23
REMARK SMILES IDX 3 24 22 26 23 27 24 28 25 30 26 31 27 32 88 33 28 34 87 35
REMARK SMILES IDX 29 36 30 37 31 38 81 39 32 40 86 41 80 42 82 43 33 44 85 45
REMARK SMILES IDX 79 46 78 47 34 49 66 50 46 51 65 52 47 53 50 54 64 55 83 56
REMARK SMILES IDX 48 57 49 58 63 60 84 61 51 62 35 63 36 64 44 65 37 66 39 67
REMARK SMILES IDX 45 68 38 69 40 70 41 71 42 72 43 73 67 74 68 75 76 76 69 77
REMARK SMILES IDX 71 78 77 79 70 80 72 81 73 82 74 83 75 84 52 85 53 86 61 87
REMARK SMILES IDX 54 88 56 89 62 90 55 91 57 92 58 93 59 94 60 95
REMARK H PARENT 18 7 4 25 23 29 82 48 50 59
REMARK Flexibility Score: inf
ROOT
ATOM      1  C   UNL A   1      31.884  28.327  26.235  1.00  0.00     0.023 C 
ENDROOT
BRANCH   1   2
ATOM      2  C   UNL A   1      31.062  27.547  25.219  1.00  0.00     0.023 C 
BRANCH   2   3
ATOM      3  C   UNL A   1      31.628  26.212  24.755  1.00  0.00     0.116 C 
BRANCH   3   4
ATOM      4  N   UNL A   1      32.464  26.268  23.564  1.00  0.00    -0.352 N 
ATOM      5  C   UNL A   1      33.519  25.476  23.146  1.00  0.00     0.254 C 
ATOM      6  O   UNL A   1      34.017  25.691  22.045  1.00  0.00    -0.269 OA
ATOM      7  H   UNL A   1      32.238  26.999  22.944  1.00  0.00     0.163 HD
BRANCH   5   8
ATOM      8  C   UNL A   1      34.075  24.399  24.003  1.00  0.00     0.076 A 
ATOM      9  C   UNL A   1      34.196  22.026  24.575  1.00  0.00    -0.017 A 
ATOM     10  C   UNL A   1      34.785  22.368  25.800  1.00  0.00     0.012 A 
ATOM     11  C   UNL A   1      33.967  23.055  23.644  1.00  0.00     0.025 A 
ATOM     12  C   UNL A   1      35.055  23.704  26.106  1.00  0.00     0.041 A 
ATOM     13  C   UNL A   1      34.665  24.714  25.226  1.00  0.00     0.135 A 
ATOM     14  F   UNL A   1      34.834  25.985  25.617  1.00  0.00    -0.206 F 
BRANCH   9  15
ATOM     15  C   UNL A   1      33.632  20.688  24.306  1.00  0.00    -0.016 A 
ATOM     16  C   UNL A   1      33.928  18.260  24.187  1.00  0.00     0.041 A 
ATOM     17  C   UNL A   1      32.811  18.175  23.351  1.00  0.00     0.026 A 
ATOM     18  C   UNL A   1      34.330  19.515  24.651  1.00  0.00     0.034 A 
ATOM     19  C   UNL A   1      32.072  19.314  23.037  1.00  0.00     0.003 A 
ATOM     20  C   UNL A   1      32.478  20.559  23.515  1.00  0.00     0.009 A 
BRANCH  16  21
ATOM     21  N   UNL A   1      34.632  17.070  24.431  1.00  0.00    -0.326 N 
ATOM     22  C   UNL A   1      32.902  15.691  25.585  1.00  0.00     0.114 C 
ATOM     23  C   UNL A   1      34.311  15.941  25.128  1.00  0.00     0.221 C 
ATOM     24  O   UNL A   1      35.189  15.097  25.319  1.00  0.00    -0.275 OA
ATOM     25  H   UNL A   1      35.526  17.045  24.022  1.00  0.00     0.169 HD
ENDBRANCH  16  21
ENDBRANCH   9  15
ENDBRANCH   5   8
ENDBRANCH   3   4
ENDBRANCH   2   3
ENDBRANCH   1   2
BRANCH   1  26
ATOM     26  C   UNL A   1      32.715  29.484  25.693  1.00  0.00     0.116 C 
BRANCH  26  27
ATOM     27  N   UNL A   1      32.316  30.792  26.192  1.00  0.00    -0.352 N 
ATOM     28  C   UNL A   1      32.956  31.625  27.083  1.00  0.00     0.251 C 
ATOM     29  H   UNL A   1      31.461  31.131  25.841  1.00  0.00     0.163 HD
ATOM     30  O   UNL A   1      32.420  32.670  27.432  1.00  0.00    -0.269 OA
BRANCH  28  31
ATOM     31  C   UNL A   1      34.271  31.239  27.649  1.00  0.00     0.039 A 
ATOM     32  C   UNL A   1      35.263  32.216  27.776  1.00  0.00     0.014 A 
ATOM     33  C   UNL A   1      34.519  29.934  28.078  1.00  0.00     0.014 A 
ATOM     34  C   UNL A   1      36.469  31.904  28.410  1.00  0.00     0.010 A 
ATOM     35  C   UNL A   1      35.683  29.647  28.783  1.00  0.00     0.010 A 
ATOM     36  C   UNL A   1      36.673  30.626  28.956  1.00  0.00    -0.014 A 
BRANCH  36  37
ATOM     37  C   UNL A   1      37.912  30.288  29.707  1.00  0.00     0.031 A 
ATOM     38  C   UNL A   1      38.908  29.324  29.118  1.00  0.00     0.074 A 
ATOM     39  C   UNL A   1      38.096  30.770  30.952  1.00  0.00     0.049 A 
ATOM     40  N   UNL A   1      40.004  28.843  29.647  1.00  0.00    -0.248 NA
ATOM     41  C   UNL A   1      38.618  28.806  27.770  1.00  0.00     0.031 C 
ATOM     42  C   UNL A   1      37.168  31.647  31.669  1.00  0.00     0.029 A 
ATOM     43  N   UNL A   1      39.118  30.572  31.847  1.00  0.00    -0.354 N 
ATOM     44  C   UNL A   1      40.512  27.942  28.718  1.00  0.00     0.074 A 
ATOM     45  C   UNL A   1      39.582  27.911  27.610  1.00  0.00     0.031 C 
ATOM     46  C   UNL A   1      37.666  31.917  32.887  1.00  0.00     0.029 A 
ATOM     47  C   UNL A   1      38.936  31.217  33.049  1.00  0.00     0.049 A 
ATOM     48  H   UNL A   1      39.908  30.018  31.648  1.00  0.00     0.167 HD
ATOM     49  C   UNL A   1      41.664  27.233  28.761  1.00  0.00     0.034 A 
ATOM     50  C   UNL A   1      39.708  31.245  34.154  1.00  0.00     0.034 A 
ATOM     51  C   UNL A   1      42.616  27.311  29.836  1.00  0.00     0.049 A 
ATOM     52  C   UNL A   1      41.017  30.499  34.148  1.00  0.00     0.074 A 
ATOM     53  C   UNL A   1      43.846  26.686  29.945  1.00  0.00     0.029 A 
ATOM     54  N   UNL A   1      42.449  28.069  30.984  1.00  0.00    -0.354 N 
ATOM     55  N   UNL A   1      41.547  29.769  33.198  1.00  0.00    -0.248 NA
ATOM     56  C   UNL A   1      41.855  30.619  35.351  1.00  0.00     0.031 C 
ATOM     57  C   UNL A   1      44.423  27.068  31.161  1.00  0.00     0.029 A 
ATOM     58  C   UNL A   1      43.558  27.939  31.802  1.00  0.00     0.049 A 
ATOM     59  H   UNL A   1      41.659  28.619  31.187  1.00  0.00     0.167 HD
ATOM     60  C   UNL A   1      42.797  29.383  33.667  1.00  0.00     0.074 A 
ATOM     61  C   UNL A   1      42.952  29.974  34.980  1.00  0.00     0.031 C 
ATOM     62  C   UNL A   1      43.728  28.597  33.071  1.00  0.00     0.034 A 
BRANCH  49  63
ATOM     63  C   UNL A   1      41.996  26.369  27.572  1.00  0.00     0.023 A 
ATOM     64  C   UNL A   1      42.638  26.950  26.457  1.00  0.00     0.012 A 
ATOM     65  C   UNL A   1      41.720  24.989  27.567  1.00  0.00     0.148 A 
ATOM     66  C   UNL A   1      42.964  26.180  25.343  1.00  0.00     0.002 A 
ATOM     67  C   UNL A   1      42.089  24.219  26.470  1.00  0.00     0.091 A 
ATOM     68  F   UNL A   1      41.090  24.457  28.625  1.00  0.00    -0.205 F 
ATOM     69  C   UNL A   1      42.700  24.813  25.353  1.00  0.00     0.022 A 
BRANCH  67  70
ATOM     70  S   UNL A   1      41.864  22.436  26.418  1.00  0.00     0.127 S 
ATOM     71  O   UNL A   1      40.417  22.327  26.231  1.00  0.00    -0.237 OA
ATOM     72  O   UNL A   1      42.658  22.057  25.249  1.00  0.00    -0.237 OA
ATOM     73  O   UNL A   1      42.373  21.932  27.685  1.00  0.00    -0.744 OA
ENDBRANCH  67  70
ENDBRANCH  49  63
BRANCH  50  74
ATOM     74  C   UNL A   1      39.316  32.085  35.322  1.00  0.00     0.023 A 
ATOM     75  C   UNL A   1      38.457  31.540  36.298  1.00  0.00     0.012 A 
ATOM     76  C   UNL A   1      39.792  33.399  35.484  1.00  0.00     0.148 A 
ATOM     77  C   UNL A   1      38.048  32.302  37.393  1.00  0.00     0.002 A 
ATOM     78  C   UNL A   1      39.421  34.135  36.606  1.00  0.00     0.091 A 
ATOM     79  F   UNL A   1      40.596  33.907  34.541  1.00  0.00    -0.205 F 
ATOM     80  C   UNL A   1      38.537  33.595  37.552  1.00  0.00     0.022 A 
BRANCH  78  81
ATOM     81  S   UNL A   1      40.104  35.761  36.953  1.00  0.00     0.127 S 
ATOM     82  O   UNL A   1      41.539  35.488  36.958  1.00  0.00    -0.237 OA
ATOM     83  O   UNL A   1      39.629  36.544  35.811  1.00  0.00    -0.237 OA
ATOM     84  O   UNL A   1      39.525  36.158  38.230  1.00  0.00    -0.744 OA
ENDBRANCH  78  81
ENDBRANCH  50  74
BRANCH  62  85
ATOM     85  C   UNL A   1      45.026  28.372  33.801  1.00  0.00     0.023 A 
ATOM     86  C   UNL A   1      46.094  29.273  33.628  1.00  0.00     0.012 A 
ATOM     87  C   UNL A   1      45.157  27.308  34.715  1.00  0.00     0.148 A 
ATOM     88  C   UNL A   1      47.287  29.100  34.330  1.00  0.00     0.002 A 
ATOM     89  C   UNL A   1      46.332  27.170  35.446  1.00  0.00     0.091 A 
ATOM     90  F   UNL A   1      44.138  26.447  34.851  1.00  0.00    -0.205 F 
ATOM     91  C   UNL A   1      47.401  28.057  35.247  1.00  0.00     0.022 A 
BRANCH  89  92
ATOM     92  S   UNL A   1      46.523  25.911  36.715  1.00  0.00     0.127 S 
ATOM     93  O   UNL A   1      45.550  24.907  36.288  1.00  0.00    -0.237 OA
ATOM     94  O   UNL A   1      47.922  25.511  36.551  1.00  0.00    -0.237 OA
ATOM     95  O   UNL A   1      46.234  26.575  37.978  1.00  0.00    -0.744 OA
ENDBRANCH  89  92
ENDBRANCH  62  85
ENDBRANCH  36  37
ENDBRANCH  28  31
ENDBRANCH  26  27
ENDBRANCH   1  26
TORSDOF 16
ENDMDL
