MODEL 1
REMARK VINA RESULT:     -11.5      0.000      0.000
REMARK SMILES C[C@]1(c2nnnn2CCC(=O)NCCCCNC(=O)c2ccc(-c3c4nc(c(-c5cccc(S(=O)(=O)[O-])c5F)c5ccc([nH]5)c(-c5cccc(S(=O)(=O)[O-])c5F)c5nc(c(-c6cccc(S(=O)(=O)[O-])c6F)c6ccc3[nH]6)C=C5)C=C4)cc2)CCCO1
REMARK SMILES IDX 14 1 13 2 12 3 10 4 11 5 9 7 8 8 7 9 3 10 4 11 5 12 6 13
REMARK SMILES IDX 2 14 1 15 83 16 86 17 84 18 85 19 15 20 16 21 17 22 18 23
REMARK SMILES IDX 19 25 20 26 21 27 82 28 22 29 81 30 23 31 24 32 25 33 75 34
REMARK SMILES IDX 26 35 80 36 74 37 76 38 27 39 79 40 73 41 72 42 28 44 60 45
REMARK SMILES IDX 40 46 59 47 41 48 44 49 58 50 77 51 42 52 43 53 57 55 78 56
REMARK SMILES IDX 45 57 29 58 30 59 38 60 31 61 33 62 39 63 32 64 34 65 35 66
REMARK SMILES IDX 36 67 37 68 61 69 62 70 70 71 63 72 65 73 71 74 64 75 66 76
REMARK SMILES IDX 67 77 68 78 69 79 46 80 47 81 55 82 48 83 50 84 56 85 49 86
REMARK SMILES IDX 51 87 52 88 53 89 54 90
REMARK H PARENT 12 6 17 24 76 43 44 54
REMARK Flexibility Score: inf
ROOT
ATOM      1  C   UNL A   1      37.508  22.001  24.642  1.00  0.00     0.023 C 
ENDROOT
BRANCH   1   2
ATOM      2  C   UNL A   1      36.036  22.150  24.259  1.00  0.00     0.116 C 
BRANCH   2   3
ATOM      3  N   UNL A   1      35.390  23.156  25.084  1.00  0.00    -0.356 N 
ATOM      4  C   UNL A   1      34.573  23.001  26.161  1.00  0.00     0.221 C 
ATOM      5  O   UNL A   1      33.930  23.971  26.567  1.00  0.00    -0.275 OA
ATOM      6  H   UNL A   1      35.570  24.089  24.825  1.00  0.00     0.163 HD
BRANCH   4   7
ATOM      7  C   UNL A   1      34.462  21.667  26.874  1.00  0.00     0.124 C 
BRANCH   7   8
ATOM      8  C   UNL A   1      33.119  20.982  26.637  1.00  0.00     0.158 C 
BRANCH   8   9
ATOM      9  N   UNL A   1      32.625  21.077  25.282  1.00  0.00    -0.226 N 
ATOM     10  C   UNL A   1      32.781  20.281  24.172  1.00  0.00     0.183 A 
ATOM     11  N   UNL A   1      32.402  21.007  23.131  1.00  0.00    -0.111 NA
ATOM     12  N   UNL A   1      31.724  22.078  23.640  1.00  0.00    -0.024 NA
ATOM     13  N   UNL A   1      31.797  22.090  24.961  1.00  0.00    -0.045 NA
BRANCH  10  14
ATOM     14  C   UNL A   1      32.911  18.795  24.116  1.00  0.00     0.126 C 
ATOM     15  C   UNL A   1      32.384  18.359  22.731  1.00  0.00     0.051 C 
ATOM     16  C   UNL A   1      34.312  18.254  24.376  1.00  0.00     0.046 C 
ATOM     17  O   UNL A   1      32.075  18.182  25.113  1.00  0.00    -0.367 OA
ATOM     18  C   UNL A   1      34.016  16.838  24.824  1.00  0.00     0.032 C 
ATOM     19  C   UNL A   1      32.748  17.022  25.631  1.00  0.00     0.161 C 
ENDBRANCH  10  14
ENDBRANCH   8   9
ENDBRANCH   7   8
ENDBRANCH   4   7
ENDBRANCH   2   3
ENDBRANCH   1   2
BRANCH   1  20
ATOM     20  C   UNL A   1      38.022  20.615  25.021  1.00  0.00     0.023 C 
BRANCH  20  21
ATOM     21  C   UNL A   1      39.129  20.637  26.055  1.00  0.00     0.116 C 
BRANCH  21  22
ATOM     22  N   UNL A   1      40.132  19.587  25.852  1.00  0.00    -0.352 N 
ATOM     23  C   UNL A   1      41.500  19.757  25.825  1.00  0.00     0.251 C 
ATOM     24  H   UNL A   1      39.795  18.671  25.722  1.00  0.00     0.163 HD
ATOM     25  O   UNL A   1      42.246  18.925  25.309  1.00  0.00    -0.269 OA
BRANCH  23  26
ATOM     26  C   UNL A   1      42.048  20.971  26.446  1.00  0.00     0.039 A 
ATOM     27  C   UNL A   1      42.341  22.104  25.687  1.00  0.00     0.014 A 
ATOM     28  C   UNL A   1      42.145  20.986  27.840  1.00  0.00     0.014 A 
ATOM     29  C   UNL A   1      42.628  23.292  26.353  1.00  0.00     0.010 A 
ATOM     30  C   UNL A   1      42.294  22.185  28.493  1.00  0.00     0.010 A 
ATOM     31  C   UNL A   1      42.560  23.337  27.758  1.00  0.00    -0.014 A 
BRANCH  31  32
ATOM     32  C   UNL A   1      42.540  24.626  28.451  1.00  0.00     0.031 A 
ATOM     33  C   UNL A   1      41.282  25.388  28.204  1.00  0.00     0.074 A 
ATOM     34  C   UNL A   1      43.455  24.991  29.376  1.00  0.00     0.049 A 
ATOM     35  N   UNL A   1      41.137  26.428  27.451  1.00  0.00    -0.248 NA
ATOM     36  C   UNL A   1      40.003  24.814  28.658  1.00  0.00     0.031 C 
ATOM     37  C   UNL A   1      44.547  24.166  29.914  1.00  0.00     0.029 A 
ATOM     38  N   UNL A   1      43.542  26.123  30.135  1.00  0.00    -0.354 N 
ATOM     39  C   UNL A   1      39.803  26.811  27.600  1.00  0.00     0.074 A 
ATOM     40  C   UNL A   1      39.122  25.657  28.111  1.00  0.00     0.031 C 
ATOM     41  C   UNL A   1      45.012  24.713  31.059  1.00  0.00     0.029 A 
ATOM     42  C   UNL A   1      44.382  26.006  31.245  1.00  0.00     0.049 A 
ATOM     43  H   UNL A   1      43.053  26.950  29.920  1.00  0.00     0.167 HD
ATOM     44  C   UNL A   1      39.473  28.134  27.621  1.00  0.00     0.034 A 
ATOM     45  C   UNL A   1      44.543  26.899  32.255  1.00  0.00     0.034 A 
ATOM     46  C   UNL A   1      40.601  28.924  27.186  1.00  0.00     0.049 A 
ATOM     47  C   UNL A   1      44.090  28.206  31.747  1.00  0.00     0.074 A 
ATOM     48  C   UNL A   1      41.287  29.142  26.013  1.00  0.00     0.029 A 
ATOM     49  N   UNL A   1      41.418  29.296  28.223  1.00  0.00    -0.354 N 
ATOM     50  N   UNL A   1      44.722  28.860  30.816  1.00  0.00    -0.248 NA
ATOM     51  C   UNL A   1      42.728  28.646  32.015  1.00  0.00     0.031 C 
ATOM     52  C   UNL A   1      42.623  29.457  26.401  1.00  0.00     0.029 A 
ATOM     53  C   UNL A   1      42.696  29.494  27.793  1.00  0.00     0.049 A 
ATOM     54  H   UNL A   1      41.120  29.406  29.155  1.00  0.00     0.167 HD
ATOM     55  C   UNL A   1      43.704  29.423  30.071  1.00  0.00     0.074 A 
ATOM     56  C   UNL A   1      42.543  29.433  30.953  1.00  0.00     0.031 C 
ATOM     57  C   UNL A   1      43.810  29.503  28.714  1.00  0.00     0.034 A 
BRANCH  44  58
ATOM     58  C   UNL A   1      38.408  28.788  28.501  1.00  0.00     0.023 A 
ATOM     59  C   UNL A   1      37.524  29.690  27.853  1.00  0.00     0.012 A 
ATOM     60  C   UNL A   1      38.408  28.822  29.914  1.00  0.00     0.148 A 
ATOM     61  C   UNL A   1      36.763  30.628  28.561  1.00  0.00     0.002 A 
ATOM     62  C   UNL A   1      37.608  29.720  30.618  1.00  0.00     0.091 A 
ATOM     63  F   UNL A   1      39.254  28.064  30.607  1.00  0.00    -0.205 F 
ATOM     64  C   UNL A   1      36.809  30.647  29.946  1.00  0.00     0.022 A 
BRANCH  62  65
ATOM     65  S   UNL A   1      37.605  29.782  32.417  1.00  0.00     0.127 S 
ATOM     66  O   UNL A   1      38.963  30.241  32.696  1.00  0.00    -0.237 OA
ATOM     67  O   UNL A   1      36.551  30.762  32.675  1.00  0.00    -0.237 OA
ATOM     68  O   UNL A   1      37.292  28.430  32.863  1.00  0.00    -0.744 OA
ENDBRANCH  62  65
ENDBRANCH  44  58
BRANCH  45  69
ATOM     69  C   UNL A   1      44.925  26.737  33.677  1.00  0.00     0.023 A 
ATOM     70  C   UNL A   1      46.166  27.233  34.132  1.00  0.00     0.012 A 
ATOM     71  C   UNL A   1      43.950  26.400  34.639  1.00  0.00     0.148 A 
ATOM     72  C   UNL A   1      46.407  27.444  35.496  1.00  0.00     0.002 A 
ATOM     73  C   UNL A   1      44.192  26.617  35.994  1.00  0.00     0.091 A 
ATOM     74  F   UNL A   1      42.759  25.958  34.214  1.00  0.00    -0.205 F 
ATOM     75  C   UNL A   1      45.413  27.153  36.424  1.00  0.00     0.022 A 
BRANCH  73  76
ATOM     76  S   UNL A   1      42.941  26.323  37.252  1.00  0.00     0.127 S 
ATOM     77  O   UNL A   1      43.711  26.489  38.485  1.00  0.00    -0.237 OA
ATOM     78  O   UNL A   1      41.983  27.390  36.978  1.00  0.00    -0.237 OA
ATOM     79  O   UNL A   1      42.458  24.967  37.022  1.00  0.00    -0.744 OA
ENDBRANCH  73  76
ENDBRANCH  45  69
BRANCH  57  80
ATOM     80  C   UNL A   1      45.188  29.448  28.125  1.00  0.00     0.023 A 
ATOM     81  C   UNL A   1      46.092  30.529  28.145  1.00  0.00     0.012 A 
ATOM     82  C   UNL A   1      45.613  28.205  27.634  1.00  0.00     0.148 A 
ATOM     83  C   UNL A   1      47.396  30.367  27.670  1.00  0.00     0.002 A 
ATOM     84  C   UNL A   1      46.921  28.034  27.214  1.00  0.00     0.091 A 
ATOM     85  F   UNL A   1      44.725  27.199  27.610  1.00  0.00    -0.205 F 
ATOM     86  C   UNL A   1      47.815  29.114  27.219  1.00  0.00     0.022 A 
BRANCH  84  87
ATOM     87  S   UNL A   1      47.534  26.416  26.750  1.00  0.00     0.127 S 
ATOM     88  O   UNL A   1      46.652  26.062  25.641  1.00  0.00    -0.237 OA
ATOM     89  O   UNL A   1      48.917  26.704  26.367  1.00  0.00    -0.237 OA
ATOM     90  O   UNL A   1      47.411  25.585  27.942  1.00  0.00    -0.744 OA
ENDBRANCH  84  87
ENDBRANCH  57  80
ENDBRANCH  31  32
ENDBRANCH  23  26
ENDBRANCH  21  22
ENDBRANCH  20  21
ENDBRANCH   1  20
TORSDOF 17
ENDMDL
MODEL 2
REMARK VINA RESULT:     -11.3      2.200      3.208
REMARK SMILES C[C@]1(c2nnnn2CCC(=O)NCCCCNC(=O)c2ccc(-c3c4nc(c(-c5cccc(S(=O)(=O)[O-])c5F)c5ccc([nH]5)c(-c5cccc(S(=O)(=O)[O-])c5F)c5nc(c(-c6cccc(S(=O)(=O)[O-])c6F)c6ccc3[nH]6)C=C5)C=C4)cc2)CCCO1
REMARK SMILES IDX 14 1 13 2 12 3 10 4 11 5 9 7 8 8 7 9 3 10 4 11 5 12 6 13
REMARK SMILES IDX 2 14 1 15 83 16 86 17 84 18 85 19 15 20 16 21 17 22 18 23
REMARK SMILES IDX 19 25 20 26 21 27 82 28 22 29 81 30 23 31 24 32 25 33 75 34
REMARK SMILES IDX 26 35 80 36 74 37 76 38 27 39 79 40 73 41 72 42 28 44 60 45
REMARK SMILES IDX 40 46 59 47 41 48 44 49 58 50 77 51 42 52 43 53 57 55 78 56
REMARK SMILES IDX 45 57 29 58 30 59 38 60 31 61 33 62 39 63 32 64 34 65 35 66
REMARK SMILES IDX 36 67 37 68 61 69 62 70 70 71 63 72 65 73 71 74 64 75 66 76
REMARK SMILES IDX 67 77 68 78 69 79 46 80 47 81 55 82 48 83 50 84 56 85 49 86
REMARK SMILES IDX 51 87 52 88 53 89 54 90
REMARK H PARENT 12 6 17 24 76 43 44 54
REMARK Flexibility Score: inf
ROOT
ATOM      1  C   UNL A   1      38.707  22.598  25.920  1.00  0.00     0.023 C 
ENDROOT
BRANCH   1   2
ATOM      2  C   UNL A   1      37.599  23.444  25.295  1.00  0.00     0.116 C 
BRANCH   2   3
ATOM      3  N   UNL A   1      36.361  23.299  26.040  1.00  0.00    -0.356 N 
ATOM      4  C   UNL A   1      35.110  23.745  25.740  1.00  0.00     0.221 C 
ATOM      5  O   UNL A   1      34.246  23.736  26.618  1.00  0.00    -0.275 OA
ATOM      6  H   UNL A   1      36.437  22.804  26.887  1.00  0.00     0.163 HD
BRANCH   4   7
ATOM      7  C   UNL A   1      34.765  24.228  24.343  1.00  0.00     0.124 C 
BRANCH   7   8
ATOM      8  C   UNL A   1      33.542  25.140  24.321  1.00  0.00     0.158 C 
BRANCH   8   9
ATOM      9  N   UNL A   1      33.090  25.509  22.999  1.00  0.00    -0.226 N 
ATOM     10  C   UNL A   1      31.926  26.073  22.532  1.00  0.00     0.183 A 
ATOM     11  N   UNL A   1      31.912  25.879  21.221  1.00  0.00    -0.111 NA
ATOM     12  N   UNL A   1      33.182  25.514  20.877  1.00  0.00    -0.024 NA
ATOM     13  N   UNL A   1      33.930  25.353  21.957  1.00  0.00    -0.045 NA
BRANCH  10  14
ATOM     14  C   UNL A   1      31.053  27.078  23.208  1.00  0.00     0.126 C 
ATOM     15  C   UNL A   1      30.121  26.287  24.152  1.00  0.00     0.051 C 
ATOM     16  C   UNL A   1      31.793  28.184  23.952  1.00  0.00     0.046 C 
ATOM     17  O   UNL A   1      30.228  27.754  22.244  1.00  0.00    -0.367 OA
ATOM     18  C   UNL A   1      30.746  29.278  23.995  1.00  0.00     0.032 C 
ATOM     19  C   UNL A   1      30.077  29.126  22.645  1.00  0.00     0.161 C 
ENDBRANCH  10  14
ENDBRANCH   8   9
ENDBRANCH   7   8
ENDBRANCH   4   7
ENDBRANCH   2   3
ENDBRANCH   1   2
BRANCH   1  20
ATOM     20  C   UNL A   1      38.811  21.129  25.523  1.00  0.00     0.023 C 
BRANCH  20  21
ATOM     21  C   UNL A   1      39.471  20.258  26.572  1.00  0.00     0.116 C 
BRANCH  21  22
ATOM     22  N   UNL A   1      40.540  19.412  26.033  1.00  0.00    -0.352 N 
ATOM     23  C   UNL A   1      41.828  19.808  25.739  1.00  0.00     0.251 C 
ATOM     24  H   UNL A   1      40.317  18.467  25.865  1.00  0.00     0.163 HD
ATOM     25  O   UNL A   1      42.548  19.161  24.978  1.00  0.00    -0.269 OA
BRANCH  23  26
ATOM     26  C   UNL A   1      42.326  21.036  26.376  1.00  0.00     0.039 A 
ATOM     27  C   UNL A   1      42.544  22.198  25.635  1.00  0.00     0.014 A 
ATOM     28  C   UNL A   1      42.449  21.028  27.767  1.00  0.00     0.014 A 
ATOM     29  C   UNL A   1      42.782  23.386  26.321  1.00  0.00     0.010 A 
ATOM     30  C   UNL A   1      42.549  22.219  28.443  1.00  0.00     0.010 A 
ATOM     31  C   UNL A   1      42.740  23.398  27.728  1.00  0.00    -0.014 A 
BRANCH  31  32
ATOM     32  C   UNL A   1      42.667  24.670  28.449  1.00  0.00     0.031 A 
ATOM     33  C   UNL A   1      41.389  25.397  28.198  1.00  0.00     0.074 A 
ATOM     34  C   UNL A   1      43.555  25.044  29.397  1.00  0.00     0.049 A 
ATOM     35  N   UNL A   1      41.223  26.448  27.465  1.00  0.00    -0.248 NA
ATOM     36  C   UNL A   1      40.123  24.772  28.618  1.00  0.00     0.031 C 
ATOM     37  C   UNL A   1      44.665  24.242  29.934  1.00  0.00     0.029 A 
ATOM     38  N   UNL A   1      43.594  26.160  30.182  1.00  0.00    -0.354 N 
ATOM     39  C   UNL A   1      39.875  26.785  27.600  1.00  0.00     0.074 A 
ATOM     40  C   UNL A   1      39.224  25.599  28.075  1.00  0.00     0.031 C 
ATOM     41  C   UNL A   1      45.094  24.778  31.099  1.00  0.00     0.029 A 
ATOM     42  C   UNL A   1      44.419  26.046  31.303  1.00  0.00     0.049 A 
ATOM     43  H   UNL A   1      43.082  26.976  29.976  1.00  0.00     0.167 HD
ATOM     44  C   UNL A   1      39.502  28.096  27.645  1.00  0.00     0.034 A 
ATOM     45  C   UNL A   1      44.535  26.920  32.335  1.00  0.00     0.034 A 
ATOM     46  C   UNL A   1      40.611  28.931  27.247  1.00  0.00     0.049 A 
ATOM     47  C   UNL A   1      44.048  28.223  31.848  1.00  0.00     0.074 A 
ATOM     48  C   UNL A   1      41.308  29.197  26.090  1.00  0.00     0.029 A 
ATOM     49  N   UNL A   1      41.398  29.306  28.305  1.00  0.00    -0.354 N 
ATOM     50  N   UNL A   1      44.674  28.918  30.942  1.00  0.00    -0.248 NA
ATOM     51  C   UNL A   1      42.669  28.613  32.103  1.00  0.00     0.031 C 
ATOM     52  C   UNL A   1      42.627  29.546  26.507  1.00  0.00     0.029 A 
ATOM     53  C   UNL A   1      42.676  29.555  27.901  1.00  0.00     0.049 A 
ATOM     54  H   UNL A   1      41.082  29.385  29.233  1.00  0.00     0.167 HD
ATOM     55  C   UNL A   1      43.649  29.464  30.193  1.00  0.00     0.074 A 
ATOM     56  C   UNL A   1      42.475  29.417  31.055  1.00  0.00     0.031 C 
ATOM     57  C   UNL A   1      43.775  29.578  28.840  1.00  0.00     0.034 A 
BRANCH  44  58
ATOM     58  C   UNL A   1      38.403  28.696  28.521  1.00  0.00     0.023 A 
ATOM     59  C   UNL A   1      37.446  29.510  27.861  1.00  0.00     0.012 A 
ATOM     60  C   UNL A   1      38.418  28.772  29.932  1.00  0.00     0.148 A 
ATOM     61  C   UNL A   1      36.626  30.410  28.552  1.00  0.00     0.002 A 
ATOM     62  C   UNL A   1      37.562  29.629  30.622  1.00  0.00     0.091 A 
ATOM     63  F   UNL A   1      39.327  28.099  30.634  1.00  0.00    -0.205 F 
ATOM     64  C   UNL A   1      36.688  30.474  29.936  1.00  0.00     0.022 A 
BRANCH  62  65
ATOM     65  S   UNL A   1      37.577  29.744  32.419  1.00  0.00     0.127 S 
ATOM     66  O   UNL A   1      37.327  28.358  32.803  1.00  0.00    -0.237 OA
ATOM     67  O   UNL A   1      38.935  30.224  32.670  1.00  0.00    -0.237 OA
ATOM     68  O   UNL A   1      36.529  30.694  32.767  1.00  0.00    -0.744 OA
ENDBRANCH  62  65
ENDBRANCH  44  58
BRANCH  45  69
ATOM     69  C   UNL A   1      44.899  26.738  33.759  1.00  0.00     0.023 A 
ATOM     70  C   UNL A   1      46.131  27.234  34.238  1.00  0.00     0.012 A 
ATOM     71  C   UNL A   1      43.913  26.381  34.703  1.00  0.00     0.148 A 
ATOM     72  C   UNL A   1      46.353  27.426  35.607  1.00  0.00     0.002 A 
ATOM     73  C   UNL A   1      44.137  26.579  36.064  1.00  0.00     0.091 A 
ATOM     74  F   UNL A   1      42.731  25.940  34.256  1.00  0.00    -0.205 F 
ATOM     75  C   UNL A   1      45.349  27.116  36.518  1.00  0.00     0.022 A 
BRANCH  73  76
ATOM     76  S   UNL A   1      42.871  26.259  37.301  1.00  0.00     0.127 S 
ATOM     77  O   UNL A   1      43.611  26.464  38.547  1.00  0.00    -0.237 OA
ATOM     78  O   UNL A   1      41.885  27.291  36.996  1.00  0.00    -0.237 OA
ATOM     79  O   UNL A   1      42.436  24.886  37.078  1.00  0.00    -0.744 OA
ENDBRANCH  73  76
ENDBRANCH  45  69
BRANCH  57  80
ATOM     80  C   UNL A   1      45.163  29.581  28.273  1.00  0.00     0.023 A 
ATOM     81  C   UNL A   1      46.026  30.693  28.321  1.00  0.00     0.012 A 
ATOM     82  C   UNL A   1      45.641  28.360  27.774  1.00  0.00     0.148 A 
ATOM     83  C   UNL A   1      47.342  30.584  27.865  1.00  0.00     0.002 A 
ATOM     84  C   UNL A   1      46.961  28.242  27.373  1.00  0.00     0.091 A 
ATOM     85  F   UNL A   1      44.791  27.323  27.724  1.00  0.00    -0.205 F 
ATOM     86  C   UNL A   1      47.815  29.354  27.406  1.00  0.00     0.022 A 
BRANCH  84  87
ATOM     87  S   UNL A   1      47.640  26.653  26.900  1.00  0.00     0.127 S 
ATOM     88  O   UNL A   1      46.905  26.362  25.672  1.00  0.00    -0.237 OA
ATOM     89  O   UNL A   1      49.057  26.964  26.709  1.00  0.00    -0.237 OA
ATOM     90  O   UNL A   1      47.376  25.756  28.019  1.00  0.00    -0.744 OA
ENDBRANCH  84  87
ENDBRANCH  57  80
ENDBRANCH  31  32
ENDBRANCH  23  26
ENDBRANCH  21  22
ENDBRANCH  20  21
ENDBRANCH   1  20
TORSDOF 17
ENDMDL
MODEL 3
REMARK VINA RESULT:     -11.1      2.322      3.238
REMARK SMILES C[C@]1(c2nnnn2CCC(=O)NCCCCNC(=O)c2ccc(-c3c4nc(c(-c5cccc(S(=O)(=O)[O-])c5F)c5ccc([nH]5)c(-c5cccc(S(=O)(=O)[O-])c5F)c5nc(c(-c6cccc(S(=O)(=O)[O-])c6F)c6ccc3[nH]6)C=C5)C=C4)cc2)CCCO1
REMARK SMILES IDX 14 1 13 2 12 3 10 4 11 5 9 7 8 8 7 9 3 10 4 11 5 12 6 13
REMARK SMILES IDX 2 14 1 15 83 16 86 17 84 18 85 19 15 20 16 21 17 22 18 23
REMARK SMILES IDX 19 25 20 26 21 27 82 28 22 29 81 30 23 31 24 32 25 33 75 34
REMARK SMILES IDX 26 35 80 36 74 37 76 38 27 39 79 40 73 41 72 42 28 44 60 45
REMARK SMILES IDX 40 46 59 47 41 48 44 49 58 50 77 51 42 52 43 53 57 55 78 56
REMARK SMILES IDX 45 57 29 58 30 59 38 60 31 61 33 62 39 63 32 64 34 65 35 66
REMARK SMILES IDX 36 67 37 68 61 69 62 70 70 71 63 72 65 73 71 74 64 75 66 76
REMARK SMILES IDX 67 77 68 78 69 79 46 80 47 81 55 82 48 83 50 84 56 85 49 86
REMARK SMILES IDX 51 87 52 88 53 89 54 90
REMARK H PARENT 12 6 17 24 76 43 44 54
REMARK Flexibility Score: inf
ROOT
ATOM      1  C   UNL A   1      38.680  22.203  26.131  1.00  0.00     0.023 C 
ENDROOT
BRANCH   1   2
ATOM      2  C   UNL A   1      37.318  22.737  25.691  1.00  0.00     0.116 C 
BRANCH   2   3
ATOM      3  N   UNL A   1      36.253  21.856  26.139  1.00  0.00    -0.356 N 
ATOM      4  C   UNL A   1      35.019  22.164  26.624  1.00  0.00     0.221 C 
ATOM      5  O   UNL A   1      34.360  21.284  27.181  1.00  0.00    -0.275 OA
ATOM      6  H   UNL A   1      36.454  20.894  26.083  1.00  0.00     0.163 HD
BRANCH   4   7
ATOM      7  C   UNL A   1      34.442  23.558  26.469  1.00  0.00     0.124 C 
BRANCH   7   8
ATOM      8  C   UNL A   1      33.369  23.634  25.387  1.00  0.00     0.158 C 
BRANCH   8   9
ATOM      9  N   UNL A   1      32.023  23.804  25.884  1.00  0.00    -0.226 N 
ATOM     10  C   UNL A   1      31.045  24.739  25.637  1.00  0.00     0.183 A 
ATOM     11  N   UNL A   1      30.148  24.611  26.603  1.00  0.00    -0.111 NA
ATOM     12  N   UNL A   1      30.409  23.417  27.210  1.00  0.00    -0.024 NA
ATOM     13  N   UNL A   1      31.519  22.881  26.727  1.00  0.00    -0.045 NA
BRANCH  10  14
ATOM     14  C   UNL A   1      30.759  25.457  24.359  1.00  0.00     0.126 C 
ATOM     15  C   UNL A   1      30.492  24.370  23.295  1.00  0.00     0.051 C 
ATOM     16  C   UNL A   1      29.621  26.468  24.423  1.00  0.00     0.046 C 
ATOM     17  O   UNL A   1      31.911  26.207  23.938  1.00  0.00    -0.367 OA
ATOM     18  C   UNL A   1      29.957  27.382  23.262  1.00  0.00     0.032 C 
ATOM     19  C   UNL A   1      31.469  27.432  23.330  1.00  0.00     0.161 C 
ENDBRANCH  10  14
ENDBRANCH   8   9
ENDBRANCH   7   8
ENDBRANCH   4   7
ENDBRANCH   2   3
ENDBRANCH   1   2
BRANCH   1  20
ATOM     20  C   UNL A   1      39.143  20.855  25.585  1.00  0.00     0.023 C 
BRANCH  20  21
ATOM     21  C   UNL A   1      39.964  20.048  26.568  1.00  0.00     0.116 C 
BRANCH  21  22
ATOM     22  N   UNL A   1      41.082  19.336  25.942  1.00  0.00    -0.352 N 
ATOM     23  C   UNL A   1      42.334  19.848  25.678  1.00  0.00     0.251 C 
ATOM     24  H   UNL A   1      40.922  18.398  25.684  1.00  0.00     0.163 HD
ATOM     25  O   UNL A   1      43.086  19.330  24.852  1.00  0.00    -0.269 OA
BRANCH  23  26
ATOM     26  C   UNL A   1      42.754  21.042  26.427  1.00  0.00     0.039 A 
ATOM     27  C   UNL A   1      43.247  22.171  25.773  1.00  0.00     0.014 A 
ATOM     28  C   UNL A   1      42.520  21.044  27.804  1.00  0.00     0.014 A 
ATOM     29  C   UNL A   1      43.401  23.345  26.504  1.00  0.00     0.010 A 
ATOM     30  C   UNL A   1      42.544  22.234  28.491  1.00  0.00     0.010 A 
ATOM     31  C   UNL A   1      43.006  23.382  27.854  1.00  0.00    -0.014 A 
BRANCH  31  32
ATOM     32  C   UNL A   1      42.858  24.667  28.541  1.00  0.00     0.031 A 
ATOM     33  C   UNL A   1      41.541  25.311  28.270  1.00  0.00     0.074 A 
ATOM     34  C   UNL A   1      43.722  25.117  29.479  1.00  0.00     0.049 A 
ATOM     35  N   UNL A   1      41.315  26.331  27.510  1.00  0.00    -0.248 NA
ATOM     36  C   UNL A   1      40.312  24.625  28.707  1.00  0.00     0.031 C 
ATOM     37  C   UNL A   1      44.875  24.395  30.037  1.00  0.00     0.029 A 
ATOM     38  N   UNL A   1      43.694  26.254  30.234  1.00  0.00    -0.354 N 
ATOM     39  C   UNL A   1      39.949  26.592  27.636  1.00  0.00     0.074 A 
ATOM     40  C   UNL A   1      39.367  25.383  28.142  1.00  0.00     0.031 C 
ATOM     41  C   UNL A   1      45.270  24.987  31.187  1.00  0.00     0.029 A 
ATOM     42  C   UNL A   1      44.523  26.218  31.357  1.00  0.00     0.049 A 
ATOM     43  H   UNL A   1      43.135  27.033  30.006  1.00  0.00     0.167 HD
ATOM     44  C   UNL A   1      39.500  27.880  27.646  1.00  0.00     0.034 A 
ATOM     45  C   UNL A   1      44.586  27.124  32.365  1.00  0.00     0.034 A 
ATOM     46  C   UNL A   1      40.559  28.767  27.225  1.00  0.00     0.049 A 
ATOM     47  C   UNL A   1      44.025  28.384  31.844  1.00  0.00     0.074 A 
ATOM     48  C   UNL A   1      41.241  29.042  26.062  1.00  0.00     0.029 A 
ATOM     49  N   UNL A   1      41.321  29.215  28.273  1.00  0.00    -0.354 N 
ATOM     50  N   UNL A   1      44.610  29.089  30.919  1.00  0.00    -0.248 NA
ATOM     51  C   UNL A   1      42.625  28.699  32.089  1.00  0.00     0.031 C 
ATOM     52  C   UNL A   1      42.537  29.478  26.469  1.00  0.00     0.029 A 
ATOM     53  C   UNL A   1      42.584  29.527  27.862  1.00  0.00     0.049 A 
ATOM     54  H   UNL A   1      41.000  29.300  29.199  1.00  0.00     0.167 HD
ATOM     55  C   UNL A   1      43.557  29.555  30.156  1.00  0.00     0.074 A 
ATOM     56  C   UNL A   1      42.385  29.463  31.019  1.00  0.00     0.031 C 
ATOM     57  C   UNL A   1      43.677  29.639  28.801  1.00  0.00     0.034 A 
BRANCH  44  58
ATOM     58  C   UNL A   1      38.366  28.438  28.506  1.00  0.00     0.023 A 
ATOM     59  C   UNL A   1      37.349  29.150  27.820  1.00  0.00     0.012 A 
ATOM     60  C   UNL A   1      38.386  28.579  29.912  1.00  0.00     0.148 A 
ATOM     61  C   UNL A   1      36.470  30.019  28.478  1.00  0.00     0.002 A 
ATOM     62  C   UNL A   1      37.475  29.402  30.572  1.00  0.00     0.091 A 
ATOM     63  F   UNL A   1      39.346  28.006  30.634  1.00  0.00    -0.205 F 
ATOM     64  C   UNL A   1      36.537  30.150  29.857  1.00  0.00     0.022 A 
BRANCH  62  65
ATOM     65  S   UNL A   1      37.495  29.599  32.361  1.00  0.00     0.127 S 
ATOM     66  O   UNL A   1      36.280  30.378  32.583  1.00  0.00    -0.237 OA
ATOM     67  O   UNL A   1      37.433  28.209  32.809  1.00  0.00    -0.237 OA
ATOM     68  O   UNL A   1      38.746  30.278  32.675  1.00  0.00    -0.744 OA
ENDBRANCH  62  65
ENDBRANCH  44  58
BRANCH  45  69
ATOM     69  C   UNL A   1      44.957  27.002  33.794  1.00  0.00     0.023 A 
ATOM     70  C   UNL A   1      46.113  27.654  34.277  1.00  0.00     0.012 A 
ATOM     71  C   UNL A   1      44.017  26.532  34.733  1.00  0.00     0.148 A 
ATOM     72  C   UNL A   1      46.297  27.884  35.646  1.00  0.00     0.002 A 
ATOM     73  C   UNL A   1      44.202  26.768  36.094  1.00  0.00     0.091 A 
ATOM     74  F   UNL A   1      42.904  25.940  34.282  1.00  0.00    -0.205 F 
ATOM     75  C   UNL A   1      45.333  27.457  36.553  1.00  0.00     0.022 A 
BRANCH  73  76
ATOM     76  S   UNL A   1      42.976  26.301  37.325  1.00  0.00     0.127 S 
ATOM     77  O   UNL A   1      41.863  27.190  36.993  1.00  0.00    -0.237 OA
ATOM     78  O   UNL A   1      42.752  24.893  37.006  1.00  0.00    -0.237 OA
ATOM     79  O   UNL A   1      43.593  26.564  38.619  1.00  0.00    -0.744 OA
ENDBRANCH  73  76
ENDBRANCH  45  69
BRANCH  57  80
ATOM     80  C   UNL A   1      45.064  29.708  28.233  1.00  0.00     0.023 A 
ATOM     81  C   UNL A   1      45.816  28.576  27.863  1.00  0.00     0.012 A 
ATOM     82  C   UNL A   1      45.570  30.988  27.963  1.00  0.00     0.148 A 
ATOM     83  C   UNL A   1      47.059  28.727  27.243  1.00  0.00     0.002 A 
ATOM     84  C   UNL A   1      46.776  31.133  27.300  1.00  0.00     0.091 A 
ATOM     85  F   UNL A   1      44.840  32.048  28.343  1.00  0.00    -0.205 F 
ATOM     86  C   UNL A   1      47.532  30.006  26.946  1.00  0.00     0.022 A 
BRANCH  84  87
ATOM     87  S   UNL A   1      47.356  32.749  26.788  1.00  0.00     0.127 S 
ATOM     88  O   UNL A   1      46.259  33.212  25.941  1.00  0.00    -0.237 OA
ATOM     89  O   UNL A   1      47.487  33.453  28.064  1.00  0.00    -0.237 OA
ATOM     90  O   UNL A   1      48.625  32.521  26.105  1.00  0.00    -0.744 OA
ENDBRANCH  84  87
ENDBRANCH  57  80
ENDBRANCH  31  32
ENDBRANCH  23  26
ENDBRANCH  21  22
ENDBRANCH  20  21
ENDBRANCH   1  20
TORSDOF 17
ENDMDL
