MODEL 1
REMARK VINA RESULT:     -12.2      0.000      0.000
REMARK SMILES Cc1cc(C(=O)NCCCCNC(=O)c2ccc(-c3c4nc(c(-c5cccc(S(=O)(=O)[O-])c5F)c5ccc([nH]5)c(-c5cccc(S(=O)(=O)[O-])c5F)c5nc(c(-c6cccc(S(=O)(=O)[O-])c6F)c6ccc3[nH]6)C=C5)C=C4)cc2)c(NC(=O)c2nc(C(C)(C)C)n[nH]2)s1
REMARK SMILES IDX 9 1 8 2 7 3 5 4 6 5 4 7 1 8 2 9 3 10 91 11 78 12 79 13 80 14
REMARK SMILES IDX 81 16 82 17 83 18 90 19 84 20 89 21 85 23 86 24 87 25 88 26
REMARK SMILES IDX 10 27 11 28 12 29 13 30 14 32 15 33 16 34 77 35 17 36 76 37
REMARK SMILES IDX 18 38 19 39 20 40 70 41 21 42 75 43 69 44 71 45 22 46 74 47
REMARK SMILES IDX 68 48 67 49 23 51 55 52 35 53 54 54 36 55 39 56 53 57 72 58
REMARK SMILES IDX 37 59 38 60 52 62 73 63 40 64 24 65 25 66 33 67 26 68 28 69
REMARK SMILES IDX 34 70 27 71 29 72 30 73 31 74 32 75 56 76 57 77 65 78 58 79
REMARK SMILES IDX 60 80 66 81 59 82 61 83 62 84 63 85 64 86 41 87 42 88 50 89
REMARK SMILES IDX 43 90 45 91 51 92 44 93 46 94 47 95 48 96 49 97
REMARK H PARENT 7 6 79 15 90 22 12 31 71 50 39 61
REMARK Flexibility Score: inf
ROOT
ATOM      1  C   UNL A   1      36.632  22.605  23.680  1.00  0.00     0.023 C 
ENDROOT
BRANCH   1   2
ATOM      2  C   UNL A   1      35.287  23.145  24.169  1.00  0.00     0.116 C 
BRANCH   2   3
ATOM      3  N   UNL A   1      34.672  24.013  23.191  1.00  0.00    -0.352 N 
ATOM      4  C   UNL A   1      33.520  24.753  23.191  1.00  0.00     0.254 C 
ATOM      5  O   UNL A   1      33.318  25.434  22.182  1.00  0.00    -0.269 OA
ATOM      6  H   UNL A   1      35.185  24.086  22.353  1.00  0.00     0.163 HD
BRANCH   4   7
ATOM      7  C   UNL A   1      32.559  24.778  24.310  1.00  0.00     0.074 A 
ATOM      8  C   UNL A   1      30.044  23.331  26.783  1.00  0.00     0.056 C 
ATOM      9  C   UNL A   1      30.954  24.138  25.922  1.00  0.00     0.004 A 
ATOM     10  C   UNL A   1      31.682  23.751  24.818  1.00  0.00     0.031 A 
ATOM     11  S   UNL A   1      31.180  25.781  26.245  1.00  0.00    -0.122 S 
ATOM     12  C   UNL A   1      32.405  25.934  25.084  1.00  0.00     0.108 A 
BRANCH  12  13
ATOM     13  N   UNL A   1      33.103  27.123  24.917  1.00  0.00    -0.310 N 
ATOM     14  C   UNL A   1      32.901  28.244  24.136  1.00  0.00     0.293 C 
ATOM     15  H   UNL A   1      33.914  27.178  25.473  1.00  0.00     0.171 HD
ATOM     16  O   UNL A   1      33.798  29.090  24.119  1.00  0.00    -0.265 OA
BRANCH  14  17
ATOM     17  C   UNL A   1      31.656  28.455  23.446  1.00  0.00     0.214 A 
ATOM     18  N   UNL A   1      30.754  29.367  23.749  1.00  0.00    -0.207 NA
ATOM     19  N   UNL A   1      31.203  27.729  22.384  1.00  0.00    -0.255 N 
ATOM     20  C   UNL A   1      29.803  29.219  22.770  1.00  0.00     0.156 A 
ATOM     21  N   UNL A   1      30.030  28.203  21.925  1.00  0.00    -0.158 NA
ATOM     22  H   UNL A   1      31.676  26.956  22.001  1.00  0.00     0.192 HD
BRANCH  20  23
ATOM     23  C   UNL A   1      28.601  30.127  22.693  1.00  0.00     0.024 C 
ATOM     24  C   UNL A   1      27.335  29.320  23.031  1.00  0.00     0.019 C 
ATOM     25  C   UNL A   1      28.741  31.284  23.704  1.00  0.00     0.019 C 
ATOM     26  C   UNL A   1      28.442  30.748  21.291  1.00  0.00     0.019 C 
ENDBRANCH  20  23
ENDBRANCH  14  17
ENDBRANCH  12  13
ENDBRANCH   4   7
ENDBRANCH   2   3
ENDBRANCH   1   2
BRANCH   1  27
ATOM     27  C   UNL A   1      37.098  21.334  24.402  1.00  0.00     0.023 C 
BRANCH  27  28
ATOM     28  C   UNL A   1      37.794  21.558  25.744  1.00  0.00     0.116 C 
BRANCH  28  29
ATOM     29  N   UNL A   1      38.906  20.652  25.984  1.00  0.00    -0.352 N 
ATOM     30  C   UNL A   1      40.151  20.948  26.492  1.00  0.00     0.251 C 
ATOM     31  H   UNL A   1      38.750  19.708  25.753  1.00  0.00     0.163 HD
ATOM     32  O   UNL A   1      41.016  20.085  26.551  1.00  0.00    -0.269 OA
BRANCH  30  33
ATOM     33  C   UNL A   1      40.438  22.333  26.923  1.00  0.00     0.039 A 
ATOM     34  C   UNL A   1      41.259  22.535  28.035  1.00  0.00     0.014 A 
ATOM     35  C   UNL A   1      39.939  23.421  26.204  1.00  0.00     0.014 A 
ATOM     36  C   UNL A   1      41.641  23.831  28.383  1.00  0.00     0.010 A 
ATOM     37  C   UNL A   1      40.372  24.706  26.513  1.00  0.00     0.010 A 
ATOM     38  C   UNL A   1      41.230  24.926  27.602  1.00  0.00    -0.014 A 
BRANCH  38  39
ATOM     39  C   UNL A   1      41.707  26.302  27.889  1.00  0.00     0.031 A 
ATOM     40  C   UNL A   1      43.114  26.703  27.543  1.00  0.00     0.074 A 
ATOM     41  C   UNL A   1      40.904  27.158  28.551  1.00  0.00     0.049 A 
ATOM     42  N   UNL A   1      43.730  27.833  27.778  1.00  0.00    -0.248 NA
ATOM     43  C   UNL A   1      43.950  25.695  26.870  1.00  0.00     0.031 C 
ATOM     44  C   UNL A   1      39.548  26.857  29.020  1.00  0.00     0.029 A 
ATOM     45  N   UNL A   1      41.120  28.447  28.973  1.00  0.00    -0.354 N 
ATOM     46  C   UNL A   1      45.028  27.661  27.315  1.00  0.00     0.074 A 
ATOM     47  C   UNL A   1      45.124  26.307  26.816  1.00  0.00     0.031 C 
ATOM     48  C   UNL A   1      39.056  27.928  29.662  1.00  0.00     0.029 A 
ATOM     49  C   UNL A   1      40.065  28.983  29.675  1.00  0.00     0.049 A 
ATOM     50  H   UNL A   1      41.952  28.939  28.791  1.00  0.00     0.167 HD
ATOM     51  C   UNL A   1      46.041  28.560  27.279  1.00  0.00     0.034 A 
ATOM     52  C   UNL A   1      39.927  30.187  30.264  1.00  0.00     0.034 A 
ATOM     53  C   UNL A   1      45.928  29.920  27.728  1.00  0.00     0.049 A 
ATOM     54  C   UNL A   1      41.051  31.183  30.159  1.00  0.00     0.074 A 
ATOM     55  C   UNL A   1      46.868  30.932  27.650  1.00  0.00     0.029 A 
ATOM     56  N   UNL A   1      44.807  30.462  28.337  1.00  0.00    -0.354 N 
ATOM     57  N   UNL A   1      42.214  31.056  29.568  1.00  0.00    -0.248 NA
ATOM     58  C   UNL A   1      40.828  32.504  30.767  1.00  0.00     0.031 C 
ATOM     59  C   UNL A   1      46.318  32.084  28.224  1.00  0.00     0.029 A 
ATOM     60  C   UNL A   1      45.031  31.792  28.644  1.00  0.00     0.049 A 
ATOM     61  H   UNL A   1      43.974  29.972  28.525  1.00  0.00     0.167 HD
ATOM     62  C   UNL A   1      42.845  32.287  29.701  1.00  0.00     0.074 A 
ATOM     63  C   UNL A   1      41.926  33.154  30.409  1.00  0.00     0.031 C 
ATOM     64  C   UNL A   1      44.083  32.661  29.292  1.00  0.00     0.034 A 
BRANCH  51  65
ATOM     65  C   UNL A   1      47.346  28.120  26.668  1.00  0.00     0.023 A 
ATOM     66  C   UNL A   1      48.426  27.794  27.512  1.00  0.00     0.012 A 
ATOM     67  C   UNL A   1      47.484  27.964  25.276  1.00  0.00     0.148 A 
ATOM     68  C   UNL A   1      49.636  27.349  26.981  1.00  0.00     0.002 A 
ATOM     69  C   UNL A   1      48.679  27.479  24.754  1.00  0.00     0.091 A 
ATOM     70  F   UNL A   1      46.452  28.298  24.487  1.00  0.00    -0.205 F 
ATOM     71  C   UNL A   1      49.758  27.181  25.604  1.00  0.00     0.022 A 
BRANCH  69  72
ATOM     72  S   UNL A   1      48.915  27.156  23.003  1.00  0.00     0.127 S 
ATOM     73  O   UNL A   1      48.284  28.331  22.400  1.00  0.00    -0.237 OA
ATOM     74  O   UNL A   1      50.372  27.122  22.890  1.00  0.00    -0.237 OA
ATOM     75  O   UNL A   1      48.254  25.886  22.736  1.00  0.00    -0.744 OA
ENDBRANCH  69  72
ENDBRANCH  51  65
BRANCH  52  76
ATOM     76  C   UNL A   1      38.651  30.545  30.944  1.00  0.00     0.023 A 
ATOM     77  C   UNL A   1      38.479  30.217  32.303  1.00  0.00     0.012 A 
ATOM     78  C   UNL A   1      37.618  31.222  30.266  1.00  0.00     0.148 A 
ATOM     79  C   UNL A   1      37.289  30.523  32.965  1.00  0.00     0.002 A 
ATOM     80  C   UNL A   1      36.458  31.573  30.946  1.00  0.00     0.091 A 
ATOM     81  F   UNL A   1      37.793  31.513  28.969  1.00  0.00    -0.205 F 
ATOM     82  C   UNL A   1      36.283  31.210  32.290  1.00  0.00     0.022 A 
BRANCH  80  83
ATOM     83  S   UNL A   1      35.172  32.574  30.189  1.00  0.00     0.127 S 
ATOM     84  O   UNL A   1      34.720  31.709  29.103  1.00  0.00    -0.237 OA
ATOM     85  O   UNL A   1      34.220  32.733  31.288  1.00  0.00    -0.237 OA
ATOM     86  O   UNL A   1      35.832  33.811  29.790  1.00  0.00    -0.744 OA
ENDBRANCH  80  83
ENDBRANCH  52  76
BRANCH  64  87
ATOM     87  C   UNL A   1      44.511  34.079  29.563  1.00  0.00     0.023 A 
ATOM     88  C   UNL A   1      45.091  34.407  30.803  1.00  0.00     0.012 A 
ATOM     89  C   UNL A   1      44.411  35.065  28.561  1.00  0.00     0.148 A 
ATOM     90  C   UNL A   1      45.540  35.704  31.053  1.00  0.00     0.002 A 
ATOM     91  C   UNL A   1      44.902  36.342  28.801  1.00  0.00     0.091 A 
ATOM     92  F   UNL A   1      43.836  34.736  27.395  1.00  0.00    -0.205 F 
ATOM     93  C   UNL A   1      45.457  36.666  30.050  1.00  0.00     0.022 A 
BRANCH  91  94
ATOM     94  S   UNL A   1      44.922  37.617  27.535  1.00  0.00     0.127 S 
ATOM     95  O   UNL A   1      45.815  37.032  26.536  1.00  0.00    -0.237 OA
ATOM     96  O   UNL A   1      43.516  37.679  27.134  1.00  0.00    -0.237 OA
ATOM     97  O   UNL A   1      45.414  38.821  28.190  1.00  0.00    -0.744 OA
ENDBRANCH  91  94
ENDBRANCH  64  87
ENDBRANCH  38  39
ENDBRANCH  30  33
ENDBRANCH  28  29
ENDBRANCH  27  28
ENDBRANCH   1  27
TORSDOF 17
ENDMDL
MODEL 2
REMARK VINA RESULT:     -12.2      2.840      4.022
REMARK SMILES Cc1cc(C(=O)NCCCCNC(=O)c2ccc(-c3c4nc(c(-c5cccc(S(=O)(=O)[O-])c5F)c5ccc([nH]5)c(-c5cccc(S(=O)(=O)[O-])c5F)c5nc(c(-c6cccc(S(=O)(=O)[O-])c6F)c6ccc3[nH]6)C=C5)C=C4)cc2)c(NC(=O)c2nc(C(C)(C)C)n[nH]2)s1
REMARK SMILES IDX 9 1 8 2 7 3 5 4 6 5 4 7 1 8 2 9 3 10 91 11 78 12 79 13 80 14
REMARK SMILES IDX 81 16 82 17 83 18 90 19 84 20 89 21 85 23 86 24 87 25 88 26
REMARK SMILES IDX 10 27 11 28 12 29 13 30 14 32 15 33 16 34 77 35 17 36 76 37
REMARK SMILES IDX 18 38 19 39 20 40 70 41 21 42 75 43 69 44 71 45 22 46 74 47
REMARK SMILES IDX 68 48 67 49 23 51 55 52 35 53 54 54 36 55 39 56 53 57 72 58
REMARK SMILES IDX 37 59 38 60 52 62 73 63 40 64 24 65 25 66 33 67 26 68 28 69
REMARK SMILES IDX 34 70 27 71 29 72 30 73 31 74 32 75 56 76 57 77 65 78 58 79
REMARK SMILES IDX 60 80 66 81 59 82 61 83 62 84 63 85 64 86 41 87 42 88 50 89
REMARK SMILES IDX 43 90 45 91 51 92 44 93 46 94 47 95 48 96 49 97
REMARK H PARENT 7 6 79 15 90 22 12 31 71 50 39 61
REMARK Flexibility Score: inf
ROOT
ATOM      1  C   UNL A   1      34.243  23.364  26.794  1.00  0.00     0.023 C 
ENDROOT
BRANCH   1   2
ATOM      2  C   UNL A   1      33.802  24.599  26.008  1.00  0.00     0.116 C 
BRANCH   2   3
ATOM      3  N   UNL A   1      32.403  24.894  26.214  1.00  0.00    -0.352 N 
ATOM      4  C   UNL A   1      31.702  26.064  26.331  1.00  0.00     0.254 C 
ATOM      5  O   UNL A   1      30.480  25.948  26.456  1.00  0.00    -0.269 OA
ATOM      6  H   UNL A   1      31.839  24.090  26.286  1.00  0.00     0.163 HD
BRANCH   4   7
ATOM      7  C   UNL A   1      32.324  27.402  26.300  1.00  0.00     0.074 A 
ATOM      8  C   UNL A   1      34.890  30.078  27.186  1.00  0.00     0.056 C 
ATOM      9  C   UNL A   1      33.755  29.236  26.716  1.00  0.00     0.004 A 
ATOM     10  C   UNL A   1      33.426  27.943  27.059  1.00  0.00     0.031 A 
ATOM     11  S   UNL A   1      32.637  29.869  25.617  1.00  0.00    -0.122 S 
ATOM     12  C   UNL A   1      31.855  28.379  25.416  1.00  0.00     0.108 A 
BRANCH  12  13
ATOM     13  N   UNL A   1      30.821  28.220  24.501  1.00  0.00    -0.310 N 
ATOM     14  C   UNL A   1      30.719  27.577  23.283  1.00  0.00     0.293 C 
ATOM     15  H   UNL A   1      29.985  28.659  24.780  1.00  0.00     0.171 HD
ATOM     16  O   UNL A   1      29.677  27.739  22.644  1.00  0.00    -0.265 OA
BRANCH  14  17
ATOM     17  C   UNL A   1      31.750  26.683  22.825  1.00  0.00     0.214 A 
ATOM     18  N   UNL A   1      31.793  25.384  23.045  1.00  0.00    -0.207 NA
ATOM     19  N   UNL A   1      32.856  27.043  22.113  1.00  0.00    -0.255 N 
ATOM     20  C   UNL A   1      32.907  24.976  22.353  1.00  0.00     0.156 A 
ATOM     21  N   UNL A   1      33.604  25.973  21.788  1.00  0.00    -0.158 NA
ATOM     22  H   UNL A   1      33.078  27.969  21.867  1.00  0.00     0.192 HD
BRANCH  20  23
ATOM     23  C   UNL A   1      33.301  23.523  22.275  1.00  0.00     0.024 C 
ATOM     24  C   UNL A   1      33.160  23.037  20.822  1.00  0.00     0.019 C 
ATOM     25  C   UNL A   1      34.768  23.344  22.720  1.00  0.00     0.019 C 
ATOM     26  C   UNL A   1      32.425  22.642  23.187  1.00  0.00     0.019 C 
ENDBRANCH  20  23
ENDBRANCH  14  17
ENDBRANCH  12  13
ENDBRANCH   4   7
ENDBRANCH   2   3
ENDBRANCH   1   2
BRANCH   1  27
ATOM     27  C   UNL A   1      35.347  22.545  26.112  1.00  0.00     0.023 C 
BRANCH  27  28
ATOM     28  C   UNL A   1      36.672  23.277  25.900  1.00  0.00     0.116 C 
BRANCH  28  29
ATOM     29  N   UNL A   1      37.839  22.417  26.021  1.00  0.00    -0.352 N 
ATOM     30  C   UNL A   1      39.104  22.755  26.446  1.00  0.00     0.251 C 
ATOM     31  H   UNL A   1      37.708  21.475  25.765  1.00  0.00     0.163 HD
ATOM     32  O   UNL A   1      40.009  21.933  26.406  1.00  0.00    -0.269 OA
BRANCH  30  33
ATOM     33  C   UNL A   1      39.360  24.136  26.907  1.00  0.00     0.039 A 
ATOM     34  C   UNL A   1      39.053  24.471  28.229  1.00  0.00     0.014 A 
ATOM     35  C   UNL A   1      39.945  25.075  26.055  1.00  0.00     0.014 A 
ATOM     36  C   UNL A   1      39.400  25.731  28.718  1.00  0.00     0.010 A 
ATOM     37  C   UNL A   1      40.348  26.306  26.563  1.00  0.00     0.010 A 
ATOM     38  C   UNL A   1      40.084  26.647  27.899  1.00  0.00    -0.014 A 
BRANCH  38  39
ATOM     39  C   UNL A   1      40.556  27.951  28.426  1.00  0.00     0.031 A 
ATOM     40  C   UNL A   1      42.027  28.208  28.606  1.00  0.00     0.074 A 
ATOM     41  C   UNL A   1      39.656  28.868  28.835  1.00  0.00     0.049 A 
ATOM     42  N   UNL A   1      42.625  29.255  29.113  1.00  0.00    -0.248 NA
ATOM     43  C   UNL A   1      42.948  27.139  28.187  1.00  0.00     0.031 C 
ATOM     44  C   UNL A   1      38.200  28.701  28.794  1.00  0.00     0.029 A 
ATOM     45  N   UNL A   1      39.830  30.109  29.394  1.00  0.00    -0.354 N 
ATOM     46  C   UNL A   1      43.981  28.958  29.108  1.00  0.00     0.074 A 
ATOM     47  C   UNL A   1      44.119  27.620  28.577  1.00  0.00     0.031 C 
ATOM     48  C   UNL A   1      37.617  29.797  29.305  1.00  0.00     0.029 A 
ATOM     49  C   UNL A   1      38.652  30.733  29.732  1.00  0.00     0.049 A 
ATOM     50  H   UNL A   1      40.715  30.514  29.539  1.00  0.00     0.167 HD
ATOM     51  C   UNL A   1      45.022  29.741  29.479  1.00  0.00     0.034 A 
ATOM     52  C   UNL A   1      38.430  31.924  30.323  1.00  0.00     0.034 A 
ATOM     53  C   UNL A   1      44.886  31.090  29.957  1.00  0.00     0.049 A 
ATOM     54  C   UNL A   1      39.606  32.795  30.674  1.00  0.00     0.074 A 
ATOM     55  C   UNL A   1      45.883  31.995  30.273  1.00  0.00     0.029 A 
ATOM     56  N   UNL A   1      43.678  31.729  30.187  1.00  0.00    -0.354 N 
ATOM     57  N   UNL A   1      40.885  32.561  30.505  1.00  0.00    -0.248 NA
ATOM     58  C   UNL A   1      39.309  34.110  31.261  1.00  0.00     0.031 C 
ATOM     59  C   UNL A   1      45.277  33.179  30.706  1.00  0.00     0.029 A 
ATOM     60  C   UNL A   1      43.903  33.016  30.643  1.00  0.00     0.049 A 
ATOM     61  H   UNL A   1      42.790  31.327  30.047  1.00  0.00     0.167 HD
ATOM     62  C   UNL A   1      41.541  33.711  30.929  1.00  0.00     0.074 A 
ATOM     63  C   UNL A   1      40.518  34.648  31.342  1.00  0.00     0.031 C 
ATOM     64  C   UNL A   1      42.873  33.960  30.991  1.00  0.00     0.034 A 
BRANCH  51  65
ATOM     65  C   UNL A   1      46.411  29.182  29.317  1.00  0.00     0.023 A 
ATOM     66  C   UNL A   1      46.999  28.478  30.387  1.00  0.00     0.012 A 
ATOM     67  C   UNL A   1      47.105  29.293  28.097  1.00  0.00     0.148 A 
ATOM     68  C   UNL A   1      48.269  27.916  30.257  1.00  0.00     0.002 A 
ATOM     69  C   UNL A   1      48.354  28.695  27.960  1.00  0.00     0.091 A 
ATOM     70  F   UNL A   1      46.539  29.985  27.098  1.00  0.00    -0.205 F 
ATOM     71  C   UNL A   1      48.940  28.016  29.042  1.00  0.00     0.022 A 
BRANCH  69  72
ATOM     72  S   UNL A   1      49.269  28.700  26.415  1.00  0.00     0.127 S 
ATOM     73  O   UNL A   1      49.802  30.063  26.393  1.00  0.00    -0.237 OA
ATOM     74  O   UNL A   1      50.270  27.659  26.646  1.00  0.00    -0.237 OA
ATOM     75  O   UNL A   1      48.300  28.392  25.373  1.00  0.00    -0.744 OA
ENDBRANCH  69  72
ENDBRANCH  51  65
BRANCH  52  76
ATOM     76  C   UNL A   1      37.035  32.397  30.553  1.00  0.00     0.023 A 
ATOM     77  C   UNL A   1      36.463  32.256  31.833  1.00  0.00     0.012 A 
ATOM     78  C   UNL A   1      36.281  32.999  29.527  1.00  0.00     0.148 A 
ATOM     79  C   UNL A   1      35.154  32.672  32.078  1.00  0.00     0.002 A 
ATOM     80  C   UNL A   1      34.998  33.461  29.792  1.00  0.00     0.091 A 
ATOM     81  F   UNL A   1      36.836  33.111  28.312  1.00  0.00    -0.205 F 
ATOM     82  C   UNL A   1      34.425  33.284  31.061  1.00  0.00     0.022 A 
BRANCH  80  83
ATOM     83  S   UNL A   1      34.043  34.379  28.578  1.00  0.00     0.127 S 
ATOM     84  O   UNL A   1      33.921  33.408  27.495  1.00  0.00    -0.237 OA
ATOM     85  O   UNL A   1      32.803  34.652  29.306  1.00  0.00    -0.237 OA
ATOM     86  O   UNL A   1      34.833  35.569  28.286  1.00  0.00    -0.744 OA
ENDBRANCH  80  83
ENDBRANCH  52  76
BRANCH  64  87
ATOM     87  C   UNL A   1      43.308  35.313  31.489  1.00  0.00     0.023 A 
ATOM     88  C   UNL A   1      43.639  36.323  30.565  1.00  0.00     0.012 A 
ATOM     89  C   UNL A   1      43.311  35.606  32.867  1.00  0.00     0.148 A 
ATOM     90  C   UNL A   1      43.995  37.597  31.007  1.00  0.00     0.002 A 
ATOM     91  C   UNL A   1      43.621  36.890  33.297  1.00  0.00     0.091 A 
ATOM     92  F   UNL A   1      43.012  34.624  33.731  1.00  0.00    -0.205 F 
ATOM     93  C   UNL A   1      43.975  37.883  32.370  1.00  0.00     0.022 A 
BRANCH  91  94
ATOM     94  S   UNL A   1      43.528  37.373  35.026  1.00  0.00     0.127 S 
ATOM     95  O   UNL A   1      43.859  38.795  34.957  1.00  0.00    -0.237 OA
ATOM     96  O   UNL A   1      42.131  37.087  35.355  1.00  0.00    -0.237 OA
ATOM     97  O   UNL A   1      44.494  36.535  35.725  1.00  0.00    -0.744 OA
ENDBRANCH  91  94
ENDBRANCH  64  87
ENDBRANCH  38  39
ENDBRANCH  30  33
ENDBRANCH  28  29
ENDBRANCH  27  28
ENDBRANCH   1  27
TORSDOF 17
ENDMDL
MODEL 3
REMARK VINA RESULT:     -12.1      2.180      8.013
REMARK SMILES Cc1cc(C(=O)NCCCCNC(=O)c2ccc(-c3c4nc(c(-c5cccc(S(=O)(=O)[O-])c5F)c5ccc([nH]5)c(-c5cccc(S(=O)(=O)[O-])c5F)c5nc(c(-c6cccc(S(=O)(=O)[O-])c6F)c6ccc3[nH]6)C=C5)C=C4)cc2)c(NC(=O)c2nc(C(C)(C)C)n[nH]2)s1
REMARK SMILES IDX 9 1 8 2 7 3 5 4 6 5 4 7 1 8 2 9 3 10 91 11 78 12 79 13 80 14
REMARK SMILES IDX 81 16 82 17 83 18 90 19 84 20 89 21 85 23 86 24 87 25 88 26
REMARK SMILES IDX 10 27 11 28 12 29 13 30 14 32 15 33 16 34 77 35 17 36 76 37
REMARK SMILES IDX 18 38 19 39 20 40 70 41 21 42 75 43 69 44 71 45 22 46 74 47
REMARK SMILES IDX 68 48 67 49 23 51 55 52 35 53 54 54 36 55 39 56 53 57 72 58
REMARK SMILES IDX 37 59 38 60 52 62 73 63 40 64 24 65 25 66 33 67 26 68 28 69
REMARK SMILES IDX 34 70 27 71 29 72 30 73 31 74 32 75 56 76 57 77 65 78 58 79
REMARK SMILES IDX 60 80 66 81 59 82 61 83 62 84 63 85 64 86 41 87 42 88 50 89
REMARK SMILES IDX 43 90 45 91 51 92 44 93 46 94 47 95 48 96 49 97
REMARK H PARENT 7 6 79 15 90 22 12 31 71 50 39 61
REMARK Flexibility Score: inf
ROOT
ATOM      1  C   UNL A   1      36.501  21.469  24.895  1.00  0.00     0.023 C 
ENDROOT
BRANCH   1   2
ATOM      2  C   UNL A   1      35.625  21.645  26.137  1.00  0.00     0.116 C 
BRANCH   2   3
ATOM      3  N   UNL A   1      34.547  20.684  26.171  1.00  0.00    -0.352 N 
ATOM      4  C   UNL A   1      33.375  20.569  25.474  1.00  0.00     0.254 C 
ATOM      5  O   UNL A   1      32.692  19.572  25.729  1.00  0.00    -0.269 OA
ATOM      6  H   UNL A   1      34.683  19.965  26.831  1.00  0.00     0.163 HD
BRANCH   4   7
ATOM      7  C   UNL A   1      32.922  21.541  24.461  1.00  0.00     0.074 A 
ATOM      8  C   UNL A   1      32.920  23.321  21.090  1.00  0.00     0.056 C 
ATOM      9  C   UNL A   1      32.738  22.815  22.479  1.00  0.00     0.004 A 
ATOM     10  C   UNL A   1      33.473  21.877  23.170  1.00  0.00     0.031 A 
ATOM     11  S   UNL A   1      31.492  23.429  23.441  1.00  0.00    -0.122 S 
ATOM     12  C   UNL A   1      31.771  22.306  24.679  1.00  0.00     0.108 A 
BRANCH  12  13
ATOM     13  N   UNL A   1      30.951  22.240  25.799  1.00  0.00    -0.310 N 
ATOM     14  C   UNL A   1      30.426  23.191  26.650  1.00  0.00     0.293 C 
ATOM     15  H   UNL A   1      30.691  21.320  26.035  1.00  0.00     0.171 HD
ATOM     16  O   UNL A   1      29.830  22.786  27.652  1.00  0.00    -0.265 OA
BRANCH  14  17
ATOM     17  C   UNL A   1      30.492  24.593  26.332  1.00  0.00     0.214 A 
ATOM     18  N   UNL A   1      31.441  25.424  26.714  1.00  0.00    -0.207 NA
ATOM     19  N   UNL A   1      29.570  25.288  25.605  1.00  0.00    -0.255 N 
ATOM     20  C   UNL A   1      31.101  26.606  26.105  1.00  0.00     0.156 A 
ATOM     21  N   UNL A   1      29.940  26.570  25.434  1.00  0.00    -0.158 NA
ATOM     22  H   UNL A   1      28.739  24.899  25.249  1.00  0.00     0.192 HD
BRANCH  20  23
ATOM     23  C   UNL A   1      31.970  27.833  26.220  1.00  0.00     0.024 C 
ATOM     24  C   UNL A   1      31.530  28.865  25.168  1.00  0.00     0.019 C 
ATOM     25  C   UNL A   1      31.825  28.459  27.624  1.00  0.00     0.019 C 
ATOM     26  C   UNL A   1      33.460  27.502  26.007  1.00  0.00     0.019 C 
ENDBRANCH  20  23
ENDBRANCH  14  17
ENDBRANCH  12  13
ENDBRANCH   4   7
ENDBRANCH   2   3
ENDBRANCH   1   2
BRANCH   1  27
ATOM     27  C   UNL A   1      37.518  20.325  25.000  1.00  0.00     0.023 C 
BRANCH  27  28
ATOM     28  C   UNL A   1      38.814  20.664  25.736  1.00  0.00     0.116 C 
BRANCH  28  29
ATOM     29  N   UNL A   1      39.728  19.538  25.857  1.00  0.00    -0.352 N 
ATOM     30  C   UNL A   1      41.073  19.561  26.149  1.00  0.00     0.251 C 
ATOM     31  H   UNL A   1      39.335  18.647  25.710  1.00  0.00     0.163 HD
ATOM     32  O   UNL A   1      41.728  18.528  26.127  1.00  0.00    -0.269 OA
BRANCH  30  33
ATOM     33  C   UNL A   1      41.719  20.857  26.446  1.00  0.00     0.039 A 
ATOM     34  C   UNL A   1      42.112  21.672  25.381  1.00  0.00     0.014 A 
ATOM     35  C   UNL A   1      41.889  21.283  27.765  1.00  0.00     0.014 A 
ATOM     36  C   UNL A   1      42.611  22.950  25.640  1.00  0.00     0.010 A 
ATOM     37  C   UNL A   1      42.325  22.580  28.018  1.00  0.00     0.010 A 
ATOM     38  C   UNL A   1      42.687  23.429  26.959  1.00  0.00    -0.014 A 
BRANCH  38  39
ATOM     39  C   UNL A   1      43.114  24.819  27.253  1.00  0.00     0.031 A 
ATOM     40  C   UNL A   1      42.161  25.784  27.902  1.00  0.00     0.074 A 
ATOM     41  C   UNL A   1      44.329  25.241  26.846  1.00  0.00     0.049 A 
ATOM     42  N   UNL A   1      42.329  27.052  28.173  1.00  0.00    -0.248 NA
ATOM     43  C   UNL A   1      40.833  25.265  28.269  1.00  0.00     0.031 C 
ATOM     44  C   UNL A   1      45.311  24.424  26.127  1.00  0.00     0.029 A 
ATOM     45  N   UNL A   1      44.933  26.469  26.949  1.00  0.00    -0.354 N 
ATOM     46  C   UNL A   1      41.125  27.490  28.708  1.00  0.00     0.074 A 
ATOM     47  C   UNL A   1      40.220  26.361  28.693  1.00  0.00     0.031 C 
ATOM     48  C   UNL A   1      46.392  25.173  25.856  1.00  0.00     0.029 A 
ATOM     49  C   UNL A   1      46.174  26.526  26.357  1.00  0.00     0.049 A 
ATOM     50  H   UNL A   1      44.518  27.236  27.404  1.00  0.00     0.167 HD
ATOM     51  C   UNL A   1      40.809  28.712  29.198  1.00  0.00     0.034 A 
ATOM     52  C   UNL A   1      47.036  27.554  26.229  1.00  0.00     0.034 A 
ATOM     53  C   UNL A   1      41.725  29.817  29.260  1.00  0.00     0.049 A 
ATOM     54  C   UNL A   1      46.679  28.885  26.832  1.00  0.00     0.074 A 
ATOM     55  C   UNL A   1      41.529  31.067  29.819  1.00  0.00     0.029 A 
ATOM     56  N   UNL A   1      43.013  29.807  28.746  1.00  0.00    -0.354 N 
ATOM     57  N   UNL A   1      45.595  29.232  27.484  1.00  0.00    -0.248 NA
ATOM     58  C   UNL A   1      47.679  29.957  26.718  1.00  0.00     0.031 C 
ATOM     59  C   UNL A   1      42.696  31.817  29.633  1.00  0.00     0.029 A 
ATOM     60  C   UNL A   1      43.623  31.028  28.972  1.00  0.00     0.049 A 
ATOM     61  H   UNL A   1      43.431  29.044  28.286  1.00  0.00     0.167 HD
ATOM     62  C   UNL A   1      45.798  30.546  27.889  1.00  0.00     0.074 A 
ATOM     63  C   UNL A   1      47.117  30.927  27.428  1.00  0.00     0.031 C 
ATOM     64  C   UNL A   1      44.960  31.371  28.563  1.00  0.00     0.034 A 
BRANCH  51  65
ATOM     65  C   UNL A   1      39.430  28.901  29.774  1.00  0.00     0.023 A 
ATOM     66  C   UNL A   1      39.150  28.410  31.066  1.00  0.00     0.012 A 
ATOM     67  C   UNL A   1      38.438  29.615  29.075  1.00  0.00     0.148 A 
ATOM     68  C   UNL A   1      37.895  28.600  31.642  1.00  0.00     0.002 A 
ATOM     69  C   UNL A   1      37.202  29.837  29.673  1.00  0.00     0.091 A 
ATOM     70  F   UNL A   1      38.716  30.056  27.840  1.00  0.00    -0.205 F 
ATOM     71  C   UNL A   1      36.926  29.322  30.951  1.00  0.00     0.022 A 
BRANCH  69  72
ATOM     72  S   UNL A   1      35.911  30.818  28.899  1.00  0.00     0.127 S 
ATOM     73  O   UNL A   1      36.696  31.809  28.164  1.00  0.00    -0.237 OA
ATOM     74  O   UNL A   1      35.237  29.830  28.058  1.00  0.00    -0.237 OA
ATOM     75  O   UNL A   1      35.100  31.345  29.988  1.00  0.00    -0.744 OA
ENDBRANCH  69  72
ENDBRANCH  51  65
BRANCH  52  76
ATOM     76  C   UNL A   1      48.353  27.346  25.564  1.00  0.00     0.023 A 
ATOM     77  C   UNL A   1      49.455  26.923  26.334  1.00  0.00     0.012 A 
ATOM     78  C   UNL A   1      48.520  27.542  24.179  1.00  0.00     0.148 A 
ATOM     79  C   UNL A   1      50.706  26.736  25.745  1.00  0.00     0.002 A 
ATOM     80  C   UNL A   1      49.755  27.301  23.589  1.00  0.00     0.091 A 
ATOM     81  F   UNL A   1      47.465  27.959  23.464  1.00  0.00    -0.205 F 
ATOM     82  C   UNL A   1      50.854  26.914  24.372  1.00  0.00     0.022 A 
BRANCH  80  83
ATOM     83  S   UNL A   1      49.996  27.377  21.811  1.00  0.00     0.127 S 
ATOM     84  O   UNL A   1      51.310  26.759  21.659  1.00  0.00    -0.237 OA
ATOM     85  O   UNL A   1      48.876  26.576  21.315  1.00  0.00    -0.237 OA
ATOM     86  O   UNL A   1      49.910  28.792  21.471  1.00  0.00    -0.744 OA
ENDBRANCH  80  83
ENDBRANCH  52  76
BRANCH  64  87
ATOM     87  C   UNL A   1      45.450  32.760  28.880  1.00  0.00     0.023 A 
ATOM     88  C   UNL A   1      46.210  32.981  30.045  1.00  0.00     0.012 A 
ATOM     89  C   UNL A   1      45.227  33.824  27.984  1.00  0.00     0.148 A 
ATOM     90  C   UNL A   1      46.715  34.250  30.329  1.00  0.00     0.002 A 
ATOM     91  C   UNL A   1      45.773  35.073  28.250  1.00  0.00     0.091 A 
ATOM     92  F   UNL A   1      44.484  33.596  26.891  1.00  0.00    -0.205 F 
ATOM     93  C   UNL A   1      46.508  35.291  29.427  1.00  0.00     0.022 A 
BRANCH  91  94
ATOM     94  S   UNL A   1      45.636  36.446  27.100  1.00  0.00     0.127 S 
ATOM     95  O   UNL A   1      46.346  37.506  27.813  1.00  0.00    -0.237 OA
ATOM     96  O   UNL A   1      46.332  35.934  25.919  1.00  0.00    -0.237 OA
ATOM     97  O   UNL A   1      44.208  36.664  26.908  1.00  0.00    -0.744 OA
ENDBRANCH  91  94
ENDBRANCH  64  87
ENDBRANCH  38  39
ENDBRANCH  30  33
ENDBRANCH  28  29
ENDBRANCH  27  28
ENDBRANCH   1  27
TORSDOF 17
ENDMDL
