MODEL 1
REMARK VINA RESULT:     -13.3      0.000      0.000
REMARK SMILES CC(C)(C)c1cc2c(cc1Cl)C=C(C(=O)NCCCCNC(=O)c1ccc(-c3c4nc(c(-c5cccc(S(=O)(=O)[O-])c5F)c5ccc([nH]5)c(-c5cccc(S(=O)(=O)[O-])c5F)c5nc(c(-c6cccc(S(=O)(=O)[O-])c6F)c6ccc3[nH]6)C=C5)C=C4)cc1)[C@@H](C(F)(F)F)O2
REMARK SMILES IDX 19 1 18 2 17 3 16 4 14 5 15 6 13 8 5 9 6 10 10 11 7 12 9 13
REMARK SMILES IDX 11 14 8 15 92 16 12 17 87 18 2 19 1 20 3 21 4 22 88 23 89 24
REMARK SMILES IDX 90 25 91 26 20 27 21 28 22 29 23 31 24 32 25 33 86 34 26 35
REMARK SMILES IDX 85 36 27 37 28 38 29 39 79 40 30 41 84 42 78 43 80 44 31 45
REMARK SMILES IDX 83 46 77 47 76 48 32 50 64 51 44 52 63 53 45 54 48 55 62 56
REMARK SMILES IDX 81 57 46 58 47 59 61 61 82 62 49 63 33 64 34 65 42 66 35 67
REMARK SMILES IDX 37 68 43 69 36 70 38 71 39 72 40 73 41 74 65 75 66 76 74 77
REMARK SMILES IDX 67 78 69 79 75 80 68 81 70 82 71 83 72 84 73 85 50 86 51 87
REMARK SMILES IDX 59 88 52 89 54 90 60 91 53 92 55 93 56 94 57 95 58 96
REMARK H PARENT 16 7 21 30 80 49 48 60
REMARK Flexibility Score: inf
ROOT
ATOM      1  C   UNL A   1      32.224  30.032  25.418  1.00  0.00     0.023 C 
ENDROOT
BRANCH   1   2
ATOM      2  C   UNL A   1      33.282  29.133  24.768  1.00  0.00     0.023 C 
BRANCH   2   3
ATOM      3  C   UNL A   1      33.318  29.197  23.243  1.00  0.00     0.116 C 
BRANCH   3   4
ATOM      4  N   UNL A   1      32.086  28.719  22.640  1.00  0.00    -0.352 N 
ATOM      5  C   UNL A   1      31.363  27.574  22.644  1.00  0.00     0.251 C 
ATOM      6  O   UNL A   1      30.326  27.600  21.972  1.00  0.00    -0.270 OA
ATOM      7  H   UNL A   1      31.665  29.411  22.081  1.00  0.00     0.163 HD
BRANCH   5   8
ATOM      8  C   UNL A   1      31.728  26.324  23.376  1.00  0.00     0.067 C 
ATOM      9  C   UNL A   1      32.964  21.512  24.540  1.00  0.00    -0.020 A 
ATOM     10  C   UNL A   1      33.045  22.779  25.176  1.00  0.00     0.053 A 
ATOM     11  C   UNL A   1      32.405  21.515  23.243  1.00  0.00     0.045 A 
ATOM     12  C   UNL A   1      32.631  23.961  24.562  1.00  0.00     0.128 A 
ATOM     13  C   UNL A   1      32.000  22.718  22.625  1.00  0.00     0.032 A 
ATOM     14  Cl  UNL A   1      32.135  20.113  22.270  1.00  0.00    -0.084 Cl
ATOM     15  C   UNL A   1      32.120  23.944  23.277  1.00  0.00     0.019 A 
ATOM     16  O   UNL A   1      32.806  25.113  25.273  1.00  0.00    -0.475 OA
ATOM     17  C   UNL A   1      31.770  25.203  22.631  1.00  0.00     0.025 C 
ATOM     18  C   UNL A   1      32.004  26.253  24.852  1.00  0.00     0.314 C 
BRANCH   9  19
ATOM     19  C   UNL A   1      33.499  20.304  25.351  1.00  0.00    -0.012 C 
ATOM     20  C   UNL A   1      32.669  19.004  25.343  1.00  0.00     0.016 C 
ATOM     21  C   UNL A   1      33.639  20.722  26.836  1.00  0.00     0.016 C 
ATOM     22  C   UNL A   1      34.897  19.899  24.811  1.00  0.00     0.016 C 
ENDBRANCH   9  19
BRANCH  18  23
ATOM     23  C   UNL A   1      30.715  26.301  25.695  1.00  0.00     0.429 C 
ATOM     24  F   UNL A   1      30.809  27.266  26.645  1.00  0.00    -0.167 F 
ATOM     25  F   UNL A   1      29.620  26.592  24.956  1.00  0.00    -0.167 F 
ATOM     26  F   UNL A   1      30.466  25.133  26.330  1.00  0.00    -0.167 F 
ENDBRANCH  18  23
ENDBRANCH   5   8
ENDBRANCH   3   4
ENDBRANCH   2   3
ENDBRANCH   1   2
BRANCH   1  27
ATOM     27  C   UNL A   1      32.466  30.374  26.887  1.00  0.00     0.116 C 
BRANCH  27  28
ATOM     28  N   UNL A   1      32.338  31.789  27.210  1.00  0.00    -0.352 N 
ATOM     29  C   UNL A   1      33.316  32.624  27.712  1.00  0.00     0.251 C 
ATOM     30  H   UNL A   1      31.455  32.195  27.053  1.00  0.00     0.163 HD
ATOM     31  O   UNL A   1      33.055  33.782  28.015  1.00  0.00    -0.269 OA
BRANCH  29  32
ATOM     32  C   UNL A   1      34.666  32.063  27.936  1.00  0.00     0.039 A 
ATOM     33  C   UNL A   1      34.811  30.718  28.274  1.00  0.00     0.014 A 
ATOM     34  C   UNL A   1      35.768  32.921  27.942  1.00  0.00     0.014 A 
ATOM     35  C   UNL A   1      36.013  30.280  28.814  1.00  0.00     0.010 A 
ATOM     36  C   UNL A   1      37.000  32.454  28.409  1.00  0.00     0.010 A 
ATOM     37  C   UNL A   1      37.111  31.152  28.922  1.00  0.00    -0.014 A 
BRANCH  37  38
ATOM     38  C   UNL A   1      38.334  30.683  29.626  1.00  0.00     0.031 A 
ATOM     39  C   UNL A   1      38.587  31.056  31.066  1.00  0.00     0.074 A 
ATOM     40  C   UNL A   1      39.170  29.836  28.997  1.00  0.00     0.049 A 
ATOM     41  N   UNL A   1      39.534  30.636  31.865  1.00  0.00    -0.248 NA
ATOM     42  C   UNL A   1      37.668  32.022  31.692  1.00  0.00     0.031 C 
ATOM     43  C   UNL A   1      39.044  29.415  27.600  1.00  0.00     0.029 A 
ATOM     44  N   UNL A   1      40.266  29.149  29.454  1.00  0.00    -0.354 N 
ATOM     45  C   UNL A   1      39.351  31.312  33.066  1.00  0.00     0.074 A 
ATOM     46  C   UNL A   1      38.205  32.175  32.895  1.00  0.00     0.031 C 
ATOM     47  C   UNL A   1      39.982  28.493  27.334  1.00  0.00     0.029 A 
ATOM     48  C   UNL A   1      40.799  28.287  28.526  1.00  0.00     0.049 A 
ATOM     49  H   UNL A   1      40.636  29.263  30.360  1.00  0.00     0.167 HD
ATOM     50  C   UNL A   1      40.055  31.202  34.215  1.00  0.00     0.034 A 
ATOM     51  C   UNL A   1      41.821  27.414  28.622  1.00  0.00     0.034 A 
ATOM     52  C   UNL A   1      41.144  30.288  34.416  1.00  0.00     0.049 A 
ATOM     53  C   UNL A   1      42.563  27.286  29.920  1.00  0.00     0.074 A 
ATOM     54  C   UNL A   1      41.872  30.064  35.573  1.00  0.00     0.029 A 
ATOM     55  N   UNL A   1      41.656  29.442  33.448  1.00  0.00    -0.354 N 
ATOM     56  N   UNL A   1      42.314  27.868  31.067  1.00  0.00    -0.248 NA
ATOM     57  C   UNL A   1      43.721  26.380  29.943  1.00  0.00     0.031 C 
ATOM     58  C   UNL A   1      42.824  29.078  35.303  1.00  0.00     0.029 A 
ATOM     59  C   UNL A   1      42.692  28.695  33.978  1.00  0.00     0.049 A 
ATOM     60  H   UNL A   1      41.331  29.381  32.520  1.00  0.00     0.167 HD
ATOM     61  C   UNL A   1      43.279  27.399  31.949  1.00  0.00     0.074 A 
ATOM     62  C   UNL A   1      44.104  26.465  31.212  1.00  0.00     0.031 C 
ATOM     63  C   UNL A   1      43.476  27.736  33.245  1.00  0.00     0.034 A 
BRANCH  50  64
ATOM     64  C   UNL A   1      39.636  32.044  35.389  1.00  0.00     0.023 A 
ATOM     65  C   UNL A   1      39.993  33.406  35.413  1.00  0.00     0.012 A 
ATOM     66  C   UNL A   1      38.802  31.523  36.398  1.00  0.00     0.148 A 
ATOM     67  C   UNL A   1      39.530  34.240  36.430  1.00  0.00     0.002 A 
ATOM     68  C   UNL A   1      38.326  32.366  37.395  1.00  0.00     0.091 A 
ATOM     69  F   UNL A   1      38.489  30.220  36.357  1.00  0.00    -0.205 F 
ATOM     70  C   UNL A   1      38.691  33.723  37.413  1.00  0.00     0.022 A 
BRANCH  68  71
ATOM     71  S   UNL A   1      37.200  31.814  38.681  1.00  0.00     0.127 S 
ATOM     72  O   UNL A   1      36.073  32.729  38.496  1.00  0.00    -0.237 OA
ATOM     73  O   UNL A   1      36.935  30.431  38.287  1.00  0.00    -0.237 OA
ATOM     74  O   UNL A   1      37.920  31.964  39.938  1.00  0.00    -0.744 OA
ENDBRANCH  68  71
ENDBRANCH  50  64
BRANCH  51  75
ATOM     75  C   UNL A   1      42.140  26.542  27.460  1.00  0.00     0.023 A 
ATOM     76  C   UNL A   1      42.948  27.048  26.424  1.00  0.00     0.012 A 
ATOM     77  C   UNL A   1      41.729  25.196  27.422  1.00  0.00     0.148 A 
ATOM     78  C   UNL A   1      43.343  26.226  25.368  1.00  0.00     0.002 A 
ATOM     79  C   UNL A   1      42.164  24.371  26.393  1.00  0.00     0.091 A 
ATOM     80  F   UNL A   1      40.949  24.744  28.415  1.00  0.00    -0.205 F 
ATOM     81  C   UNL A   1      42.963  24.886  25.360  1.00  0.00     0.022 A 
BRANCH  79  82
ATOM     82  S   UNL A   1      41.829  22.607  26.366  1.00  0.00     0.127 S 
ATOM     83  O   UNL A   1      42.440  22.169  27.619  1.00  0.00    -0.237 OA
ATOM     84  O   UNL A   1      40.367  22.578  26.349  1.00  0.00    -0.237 OA
ATOM     85  O   UNL A   1      42.455  22.106  25.150  1.00  0.00    -0.744 OA
ENDBRANCH  79  82
ENDBRANCH  51  75
BRANCH  63  86
ATOM     86  C   UNL A   1      44.636  27.117  33.972  1.00  0.00     0.023 A 
ATOM     87  C   UNL A   1      45.882  27.773  33.940  1.00  0.00     0.012 A 
ATOM     88  C   UNL A   1      44.457  25.994  34.800  1.00  0.00     0.148 A 
ATOM     89  C   UNL A   1      46.938  27.318  34.727  1.00  0.00     0.002 A 
ATOM     90  C   UNL A   1      45.507  25.563  35.603  1.00  0.00     0.091 A 
ATOM     91  F   UNL A   1      43.258  25.395  34.812  1.00  0.00    -0.205 F 
ATOM     92  C   UNL A   1      46.748  26.221  35.566  1.00  0.00     0.022 A 
BRANCH  90  93
ATOM     93  S   UNL A   1      45.346  24.206  36.769  1.00  0.00     0.127 S 
ATOM     94  O   UNL A   1      44.336  24.722  37.690  1.00  0.00    -0.237 OA
ATOM     95  O   UNL A   1      44.887  23.116  35.908  1.00  0.00    -0.237 OA
ATOM     96  O   UNL A   1      46.666  24.013  37.353  1.00  0.00    -0.744 OA
ENDBRANCH  90  93
ENDBRANCH  63  86
ENDBRANCH  37  38
ENDBRANCH  29  32
ENDBRANCH  27  28
ENDBRANCH   1  27
TORSDOF 16
ENDMDL
MODEL 2
REMARK VINA RESULT:     -13.1      1.856      2.244
REMARK SMILES CC(C)(C)c1cc2c(cc1Cl)C=C(C(=O)NCCCCNC(=O)c1ccc(-c3c4nc(c(-c5cccc(S(=O)(=O)[O-])c5F)c5ccc([nH]5)c(-c5cccc(S(=O)(=O)[O-])c5F)c5nc(c(-c6cccc(S(=O)(=O)[O-])c6F)c6ccc3[nH]6)C=C5)C=C4)cc1)[C@@H](C(F)(F)F)O2
REMARK SMILES IDX 19 1 18 2 17 3 16 4 14 5 15 6 13 8 5 9 6 10 10 11 7 12 9 13
REMARK SMILES IDX 11 14 8 15 92 16 12 17 87 18 2 19 1 20 3 21 4 22 88 23 89 24
REMARK SMILES IDX 90 25 91 26 20 27 21 28 22 29 23 31 24 32 25 33 86 34 26 35
REMARK SMILES IDX 85 36 27 37 28 38 29 39 79 40 30 41 84 42 78 43 80 44 31 45
REMARK SMILES IDX 83 46 77 47 76 48 32 50 64 51 44 52 63 53 45 54 48 55 62 56
REMARK SMILES IDX 81 57 46 58 47 59 61 61 82 62 49 63 33 64 34 65 42 66 35 67
REMARK SMILES IDX 37 68 43 69 36 70 38 71 39 72 40 73 41 74 65 75 66 76 74 77
REMARK SMILES IDX 67 78 69 79 75 80 68 81 70 82 71 83 72 84 73 85 50 86 51 87
REMARK SMILES IDX 59 88 52 89 54 90 60 91 53 92 55 93 56 94 57 95 58 96
REMARK H PARENT 16 7 21 30 80 49 48 60
REMARK Flexibility Score: inf
ROOT
ATOM      1  C   UNL A   1      31.863  30.081  25.446  1.00  0.00     0.023 C 
ENDROOT
BRANCH   1   2
ATOM      2  C   UNL A   1      32.989  29.335  24.722  1.00  0.00     0.023 C 
BRANCH   2   3
ATOM      3  C   UNL A   1      32.522  28.436  23.579  1.00  0.00     0.116 C 
BRANCH   3   4
ATOM      4  N   UNL A   1      31.126  28.056  23.709  1.00  0.00    -0.352 N 
ATOM      5  C   UNL A   1      30.419  26.904  23.789  1.00  0.00     0.251 C 
ATOM      6  O   UNL A   1      29.196  27.041  23.907  1.00  0.00    -0.270 OA
ATOM      7  H   UNL A   1      30.540  28.845  23.752  1.00  0.00     0.163 HD
BRANCH   5   8
ATOM      8  C   UNL A   1      30.999  25.528  23.737  1.00  0.00     0.067 C 
ATOM      9  C   UNL A   1      32.907  20.966  24.996  1.00  0.00    -0.020 A 
ATOM     10  C   UNL A   1      32.344  21.563  23.837  1.00  0.00     0.053 A 
ATOM     11  C   UNL A   1      32.989  21.800  26.133  1.00  0.00     0.045 A 
ATOM     12  C   UNL A   1      31.872  22.876  23.816  1.00  0.00     0.128 A 
ATOM     13  C   UNL A   1      32.497  23.123  26.106  1.00  0.00     0.032 A 
ATOM     14  Cl  UNL A   1      33.680  21.350  27.652  1.00  0.00    -0.084 Cl
ATOM     15  C   UNL A   1      31.929  23.661  24.953  1.00  0.00     0.019 A 
ATOM     16  O   UNL A   1      31.316  23.307  22.647  1.00  0.00    -0.475 OA
ATOM     17  C   UNL A   1      31.356  25.001  24.924  1.00  0.00     0.025 C 
ATOM     18  C   UNL A   1      31.229  24.749  22.472  1.00  0.00     0.314 C 
BRANCH   9  19
ATOM     19  C   UNL A   1      33.351  19.488  24.856  1.00  0.00    -0.012 C 
ATOM     20  C   UNL A   1      32.870  18.484  25.923  1.00  0.00     0.016 C 
ATOM     21  C   UNL A   1      34.899  19.429  24.870  1.00  0.00     0.016 C 
ATOM     22  C   UNL A   1      32.841  18.922  23.503  1.00  0.00     0.016 C 
ENDBRANCH   9  19
BRANCH  18  23
ATOM     23  C   UNL A   1      32.468  25.239  21.697  1.00  0.00     0.429 C 
ATOM     24  F   UNL A   1      33.468  25.556  22.558  1.00  0.00    -0.167 F 
ATOM     25  F   UNL A   1      32.963  24.299  20.860  1.00  0.00    -0.167 F 
ATOM     26  F   UNL A   1      32.214  26.338  20.952  1.00  0.00    -0.167 F 
ENDBRANCH  18  23
ENDBRANCH   5   8
ENDBRANCH   3   4
ENDBRANCH   2   3
ENDBRANCH   1   2
BRANCH   1  27
ATOM     27  C   UNL A   1      32.171  30.503  26.882  1.00  0.00     0.116 C 
BRANCH  27  28
ATOM     28  N   UNL A   1      32.029  31.929  27.139  1.00  0.00    -0.352 N 
ATOM     29  C   UNL A   1      32.998  32.798  27.598  1.00  0.00     0.251 C 
ATOM     30  H   UNL A   1      31.141  32.318  26.966  1.00  0.00     0.163 HD
ATOM     31  O   UNL A   1      32.725  33.966  27.849  1.00  0.00    -0.269 OA
BRANCH  29  32
ATOM     32  C   UNL A   1      34.355  32.263  27.844  1.00  0.00     0.039 A 
ATOM     33  C   UNL A   1      34.522  30.916  28.168  1.00  0.00     0.014 A 
ATOM     34  C   UNL A   1      35.438  33.144  27.884  1.00  0.00     0.014 A 
ATOM     35  C   UNL A   1      35.721  30.497  28.728  1.00  0.00     0.010 A 
ATOM     36  C   UNL A   1      36.670  32.697  28.372  1.00  0.00     0.010 A 
ATOM     37  C   UNL A   1      36.798  31.391  28.869  1.00  0.00    -0.014 A 
BRANCH  37  38
ATOM     38  C   UNL A   1      38.016  30.938  29.594  1.00  0.00     0.031 A 
ATOM     39  C   UNL A   1      38.258  31.345  31.026  1.00  0.00     0.074 A 
ATOM     40  C   UNL A   1      38.857  30.077  28.991  1.00  0.00     0.049 A 
ATOM     41  N   UNL A   1      39.199  30.943  31.842  1.00  0.00    -0.248 NA
ATOM     42  C   UNL A   1      37.335  32.325  31.623  1.00  0.00     0.031 C 
ATOM     43  C   UNL A   1      38.741  29.623  27.603  1.00  0.00     0.029 A 
ATOM     44  N   UNL A   1      39.949  29.401  29.472  1.00  0.00    -0.354 N 
ATOM     45  C   UNL A   1      39.008  31.647  33.025  1.00  0.00     0.074 A 
ATOM     46  C   UNL A   1      37.863  32.506  32.826  1.00  0.00     0.031 C 
ATOM     47  C   UNL A   1      39.680  28.695  27.366  1.00  0.00     0.029 A 
ATOM     48  C   UNL A   1      40.488  28.517  28.568  1.00  0.00     0.049 A 
ATOM     49  H   UNL A   1      40.312  29.536  30.378  1.00  0.00     0.167 HD
ATOM     50  C   UNL A   1      39.703  31.565  34.182  1.00  0.00     0.034 A 
ATOM     51  C   UNL A   1      41.510  27.647  28.692  1.00  0.00     0.034 A 
ATOM     52  C   UNL A   1      40.791  30.656  34.412  1.00  0.00     0.049 A 
ATOM     53  C   UNL A   1      42.242  27.549  29.998  1.00  0.00     0.074 A 
ATOM     54  C   UNL A   1      41.510  30.459  35.579  1.00  0.00     0.029 A 
ATOM     55  N   UNL A   1      41.310  29.787  33.467  1.00  0.00    -0.354 N 
ATOM     56  N   UNL A   1      41.985  28.158  31.129  1.00  0.00    -0.248 NA
ATOM     57  C   UNL A   1      43.400  26.644  30.050  1.00  0.00     0.031 C 
ATOM     58  C   UNL A   1      42.464  29.466  35.339  1.00  0.00     0.029 A 
ATOM     59  C   UNL A   1      42.342  29.053  34.022  1.00  0.00     0.049 A 
ATOM     60  H   UNL A   1      40.992  29.704  32.539  1.00  0.00     0.167 HD
ATOM     61  C   UNL A   1      42.944  27.710  32.029  1.00  0.00     0.074 A 
ATOM     62  C   UNL A   1      43.774  26.759  31.320  1.00  0.00     0.031 C 
ATOM     63  C   UNL A   1      43.131  28.077  33.318  1.00  0.00     0.034 A 
BRANCH  50  64
ATOM     64  C   UNL A   1      39.276  32.434  35.332  1.00  0.00     0.023 A 
ATOM     65  C   UNL A   1      38.434  31.889  36.322  1.00  0.00     0.012 A 
ATOM     66  C   UNL A   1      39.792  33.734  35.493  1.00  0.00     0.148 A 
ATOM     67  C   UNL A   1      38.107  32.631  37.457  1.00  0.00     0.002 A 
ATOM     68  C   UNL A   1      39.479  34.458  36.637  1.00  0.00     0.091 A 
ATOM     69  F   UNL A   1      40.580  34.232  34.528  1.00  0.00    -0.205 F 
ATOM     70  C   UNL A   1      38.636  33.908  37.618  1.00  0.00     0.022 A 
BRANCH  68  71
ATOM     71  S   UNL A   1      40.146  36.093  36.969  1.00  0.00     0.127 S 
ATOM     72  O   UNL A   1      41.566  35.797  37.158  1.00  0.00    -0.237 OA
ATOM     73  O   UNL A   1      39.830  36.810  35.735  1.00  0.00    -0.237 OA
ATOM     74  O   UNL A   1      39.451  36.578  38.153  1.00  0.00    -0.744 OA
ENDBRANCH  68  71
ENDBRANCH  50  64
BRANCH  51  75
ATOM     75  C   UNL A   1      41.837  26.748  27.553  1.00  0.00     0.023 A 
ATOM     76  C   UNL A   1      42.658  27.227  26.514  1.00  0.00     0.012 A 
ATOM     77  C   UNL A   1      41.421  25.403  27.541  1.00  0.00     0.148 A 
ATOM     78  C   UNL A   1      43.061  26.380  25.481  1.00  0.00     0.002 A 
ATOM     79  C   UNL A   1      41.863  24.554  26.534  1.00  0.00     0.091 A 
ATOM     80  F   UNL A   1      40.629  24.977  28.535  1.00  0.00    -0.205 F 
ATOM     81  C   UNL A   1      42.675  25.042  25.499  1.00  0.00     0.022 A 
BRANCH  79  82
ATOM     82  S   UNL A   1      41.521  22.791  26.543  1.00  0.00     0.127 S 
ATOM     83  O   UNL A   1      42.096  22.382  27.822  1.00  0.00    -0.237 OA
ATOM     84  O   UNL A   1      40.059  22.767  26.489  1.00  0.00    -0.237 OA
ATOM     85  O   UNL A   1      42.175  22.257  25.357  1.00  0.00    -0.744 OA
ENDBRANCH  79  82
ENDBRANCH  51  75
BRANCH  63  86
ATOM     86  C   UNL A   1      44.286  27.475  34.067  1.00  0.00     0.023 A 
ATOM     87  C   UNL A   1      45.502  28.183  34.117  1.00  0.00     0.012 A 
ATOM     88  C   UNL A   1      44.122  26.310  34.839  1.00  0.00     0.148 A 
ATOM     89  C   UNL A   1      46.544  27.738  34.929  1.00  0.00     0.002 A 
ATOM     90  C   UNL A   1      45.155  25.888  35.668  1.00  0.00     0.091 A 
ATOM     91  F   UNL A   1      42.950  25.662  34.774  1.00  0.00    -0.205 F 
ATOM     92  C   UNL A   1      46.366  26.599  35.712  1.00  0.00     0.022 A 
BRANCH  90  93
ATOM     93  S   UNL A   1      45.005  24.476  36.767  1.00  0.00     0.127 S 
ATOM     94  O   UNL A   1      46.360  24.371  37.306  1.00  0.00    -0.237 OA
ATOM     95  O   UNL A   1      44.001  24.939  37.725  1.00  0.00    -0.237 OA
ATOM     96  O   UNL A   1      44.588  23.356  35.935  1.00  0.00    -0.744 OA
ENDBRANCH  90  93
ENDBRANCH  63  86
ENDBRANCH  37  38
ENDBRANCH  29  32
ENDBRANCH  27  28
ENDBRANCH   1  27
TORSDOF 16
ENDMDL
MODEL 3
REMARK VINA RESULT:     -13.1      1.571      2.052
REMARK SMILES CC(C)(C)c1cc2c(cc1Cl)C=C(C(=O)NCCCCNC(=O)c1ccc(-c3c4nc(c(-c5cccc(S(=O)(=O)[O-])c5F)c5ccc([nH]5)c(-c5cccc(S(=O)(=O)[O-])c5F)c5nc(c(-c6cccc(S(=O)(=O)[O-])c6F)c6ccc3[nH]6)C=C5)C=C4)cc1)[C@@H](C(F)(F)F)O2
REMARK SMILES IDX 19 1 18 2 17 3 16 4 14 5 15 6 13 8 5 9 6 10 10 11 7 12 9 13
REMARK SMILES IDX 11 14 8 15 92 16 12 17 87 18 2 19 1 20 3 21 4 22 88 23 89 24
REMARK SMILES IDX 90 25 91 26 20 27 21 28 22 29 23 31 24 32 25 33 86 34 26 35
REMARK SMILES IDX 85 36 27 37 28 38 29 39 79 40 30 41 84 42 78 43 80 44 31 45
REMARK SMILES IDX 83 46 77 47 76 48 32 50 64 51 44 52 63 53 45 54 48 55 62 56
REMARK SMILES IDX 81 57 46 58 47 59 61 61 82 62 49 63 33 64 34 65 42 66 35 67
REMARK SMILES IDX 37 68 43 69 36 70 38 71 39 72 40 73 41 74 65 75 66 76 74 77
REMARK SMILES IDX 67 78 69 79 75 80 68 81 70 82 71 83 72 84 73 85 50 86 51 87
REMARK SMILES IDX 59 88 52 89 54 90 60 91 53 92 55 93 56 94 57 95 58 96
REMARK H PARENT 16 7 21 30 80 49 48 60
REMARK Flexibility Score: inf
ROOT
ATOM      1  C   UNL A   1      32.062  28.858  27.427  1.00  0.00     0.023 C 
ENDROOT
BRANCH   1   2
ATOM      2  C   UNL A   1      31.434  27.609  26.798  1.00  0.00     0.023 C 
BRANCH   2   3
ATOM      3  C   UNL A   1      32.316  26.905  25.769  1.00  0.00     0.116 C 
BRANCH   3   4
ATOM      4  N   UNL A   1      31.594  26.582  24.551  1.00  0.00    -0.352 N 
ATOM      5  C   UNL A   1      31.315  25.468  23.833  1.00  0.00     0.251 C 
ATOM      6  O   UNL A   1      30.631  25.649  22.820  1.00  0.00    -0.270 OA
ATOM      7  H   UNL A   1      31.204  27.385  24.138  1.00  0.00     0.163 HD
BRANCH   5   8
ATOM      8  C   UNL A   1      31.770  24.086  24.171  1.00  0.00     0.067 C 
ATOM      9  C   UNL A   1      33.172  19.187  23.902  1.00  0.00    -0.020 A 
ATOM     10  C   UNL A   1      33.309  20.248  24.836  1.00  0.00     0.053 A 
ATOM     11  C   UNL A   1      32.475  19.504  22.716  1.00  0.00     0.045 A 
ATOM     12  C   UNL A   1      32.819  21.532  24.599  1.00  0.00     0.128 A 
ATOM     13  C   UNL A   1      31.994  20.810  22.479  1.00  0.00     0.032 A 
ATOM     14  Cl  UNL A   1      32.115  18.393  21.442  1.00  0.00    -0.084 Cl
ATOM     15  C   UNL A   1      32.172  21.829  23.413  1.00  0.00     0.019 A 
ATOM     16  O   UNL A   1      33.058  22.466  25.564  1.00  0.00    -0.475 OA
ATOM     17  C   UNL A   1      31.741  23.198  23.159  1.00  0.00     0.025 C 
ATOM     18  C   UNL A   1      32.205  23.645  25.541  1.00  0.00     0.314 C 
BRANCH   9  19
ATOM     19  C   UNL A   1      33.803  17.831  24.310  1.00  0.00    -0.012 C 
ATOM     20  C   UNL A   1      33.878  16.719  23.244  1.00  0.00     0.016 C 
ATOM     21  C   UNL A   1      33.000  17.243  25.497  1.00  0.00     0.016 C 
ATOM     22  C   UNL A   1      35.270  18.062  24.764  1.00  0.00     0.016 C 
ENDBRANCH   9  19
BRANCH  18  23
ATOM     23  C   UNL A   1      31.015  23.424  26.494  1.00  0.00     0.429 C 
ATOM     24  F   UNL A   1      30.345  24.588  26.689  1.00  0.00    -0.167 F 
ATOM     25  F   UNL A   1      30.116  22.538  26.009  1.00  0.00    -0.167 F 
ATOM     26  F   UNL A   1      31.399  22.973  27.710  1.00  0.00    -0.167 F 
ENDBRANCH  18  23
ENDBRANCH   5   8
ENDBRANCH   3   4
ENDBRANCH   2   3
ENDBRANCH   1   2
BRANCH   1  27
ATOM     27  C   UNL A   1      32.530  29.926  26.442  1.00  0.00     0.116 C 
BRANCH  27  28
ATOM     28  N   UNL A   1      32.255  31.295  26.855  1.00  0.00    -0.352 N 
ATOM     29  C   UNL A   1      33.121  32.173  27.475  1.00  0.00     0.251 C 
ATOM     30  H   UNL A   1      31.348  31.633  26.671  1.00  0.00     0.163 HD
ATOM     31  O   UNL A   1      32.738  33.277  27.843  1.00  0.00    -0.269 OA
BRANCH  29  32
ATOM     32  C   UNL A   1      34.502  31.717  27.744  1.00  0.00     0.039 A 
ATOM     33  C   UNL A   1      34.749  30.370  28.007  1.00  0.00     0.014 A 
ATOM     34  C   UNL A   1      35.520  32.665  27.868  1.00  0.00     0.014 A 
ATOM     35  C   UNL A   1      35.955  30.002  28.590  1.00  0.00     0.010 A 
ATOM     36  C   UNL A   1      36.763  32.275  28.378  1.00  0.00     0.010 A 
ATOM     37  C   UNL A   1      36.963  30.957  28.815  1.00  0.00    -0.014 A 
BRANCH  37  38
ATOM     38  C   UNL A   1      38.183  30.549  29.561  1.00  0.00     0.031 A 
ATOM     39  C   UNL A   1      38.382  30.958  30.999  1.00  0.00     0.074 A 
ATOM     40  C   UNL A   1      39.069  29.724  28.970  1.00  0.00     0.049 A 
ATOM     41  N   UNL A   1      39.322  30.589  31.831  1.00  0.00    -0.248 NA
ATOM     42  C   UNL A   1      37.409  31.897  31.583  1.00  0.00     0.031 C 
ATOM     43  C   UNL A   1      38.998  29.274  27.578  1.00  0.00     0.029 A 
ATOM     44  N   UNL A   1      40.178  29.090  29.470  1.00  0.00    -0.354 N 
ATOM     45  C   UNL A   1      39.080  31.279  33.014  1.00  0.00     0.074 A 
ATOM     46  C   UNL A   1      37.907  32.093  32.796  1.00  0.00     0.031 C 
ATOM     47  C   UNL A   1      39.978  28.385  27.356  1.00  0.00     0.029 A 
ATOM     48  C   UNL A   1      40.769  28.233  28.573  1.00  0.00     0.049 A 
ATOM     49  H   UNL A   1      40.518  29.235  30.383  1.00  0.00     0.167 HD
ATOM     50  C   UNL A   1      39.756  31.218  34.184  1.00  0.00     0.034 A 
ATOM     51  C   UNL A   1      41.822  27.403  28.712  1.00  0.00     0.034 A 
ATOM     52  C   UNL A   1      40.875  30.352  34.431  1.00  0.00     0.049 A 
ATOM     53  C   UNL A   1      42.533  27.328  30.032  1.00  0.00     0.074 A 
ATOM     54  C   UNL A   1      41.579  30.177  35.610  1.00  0.00     0.029 A 
ATOM     55  N   UNL A   1      41.446  29.509  33.492  1.00  0.00    -0.354 N 
ATOM     56  N   UNL A   1      42.230  27.920  31.161  1.00  0.00    -0.248 NA
ATOM     57  C   UNL A   1      43.724  26.469  30.103  1.00  0.00     0.031 C 
ATOM     58  C   UNL A   1      42.575  29.225  35.385  1.00  0.00     0.029 A 
ATOM     59  C   UNL A   1      42.496  28.813  34.064  1.00  0.00     0.049 A 
ATOM     60  H   UNL A   1      41.149  29.418  32.558  1.00  0.00     0.167 HD
ATOM     61  C   UNL A   1      43.188  27.506  32.077  1.00  0.00     0.074 A 
ATOM     62  C   UNL A   1      44.068  26.592  31.380  1.00  0.00     0.031 C 
ATOM     63  C   UNL A   1      43.336  27.874  33.371  1.00  0.00     0.034 A 
BRANCH  50  64
ATOM     64  C   UNL A   1      39.273  32.063  35.329  1.00  0.00     0.023 A 
ATOM     65  C   UNL A   1      38.406  31.491  36.281  1.00  0.00     0.012 A 
ATOM     66  C   UNL A   1      39.760  33.370  35.526  1.00  0.00     0.148 A 
ATOM     67  C   UNL A   1      38.025  32.211  37.413  1.00  0.00     0.002 A 
ATOM     68  C   UNL A   1      39.394  34.073  36.668  1.00  0.00     0.091 A 
ATOM     69  F   UNL A   1      40.573  33.895  34.597  1.00  0.00    -0.205 F 
ATOM     70  C   UNL A   1      38.526  33.495  37.610  1.00  0.00     0.022 A 
BRANCH  68  71
ATOM     71  S   UNL A   1      40.019  35.714  37.045  1.00  0.00     0.127 S 
ATOM     72  O   UNL A   1      41.457  35.463  37.148  1.00  0.00    -0.237 OA
ATOM     73  O   UNL A   1      39.615  36.476  35.865  1.00  0.00    -0.237 OA
ATOM     74  O   UNL A   1      39.370  36.117  38.285  1.00  0.00    -0.744 OA
ENDBRANCH  68  71
ENDBRANCH  50  64
BRANCH  51  75
ATOM     75  C   UNL A   1      42.206  26.524  27.576  1.00  0.00     0.023 A 
ATOM     76  C   UNL A   1      43.099  27.011  26.603  1.00  0.00     0.012 A 
ATOM     77  C   UNL A   1      41.770  25.187  27.507  1.00  0.00     0.148 A 
ATOM     78  C   UNL A   1      43.553  26.181  25.578  1.00  0.00     0.002 A 
ATOM     79  C   UNL A   1      42.262  24.352  26.511  1.00  0.00     0.091 A 
ATOM     80  F   UNL A   1      40.910  24.753  28.439  1.00  0.00    -0.205 F 
ATOM     81  C   UNL A   1      43.145  24.849  25.540  1.00  0.00     0.022 A 
BRANCH  79  82
ATOM     82  S   UNL A   1      41.892  22.595  26.458  1.00  0.00     0.127 S 
ATOM     83  O   UNL A   1      40.432  22.599  26.422  1.00  0.00    -0.237 OA
ATOM     84  O   UNL A   1      42.539  22.189  25.211  1.00  0.00    -0.237 OA
ATOM     85  O   UNL A   1      42.492  22.031  27.660  1.00  0.00    -0.744 OA
ENDBRANCH  79  82
ENDBRANCH  51  75
BRANCH  63  86
ATOM     86  C   UNL A   1      44.499  27.314  34.140  1.00  0.00     0.023 A 
ATOM     87  C   UNL A   1      45.705  28.040  34.166  1.00  0.00     0.012 A 
ATOM     88  C   UNL A   1      44.351  26.173  34.951  1.00  0.00     0.148 A 
ATOM     89  C   UNL A   1      46.753  27.638  34.992  1.00  0.00     0.002 A 
ATOM     90  C   UNL A   1      45.390  25.794  35.793  1.00  0.00     0.091 A 
ATOM     91  F   UNL A   1      43.189  25.506  34.907  1.00  0.00    -0.205 F 
ATOM     92  C   UNL A   1      46.592  26.523  35.812  1.00  0.00     0.022 A 
BRANCH  90  93
ATOM     93  S   UNL A   1      45.260  24.418  36.939  1.00  0.00     0.127 S 
ATOM     94  O   UNL A   1      44.219  24.887  37.852  1.00  0.00    -0.237 OA
ATOM     95  O   UNL A   1      44.853  23.324  36.058  1.00  0.00    -0.237 OA
ATOM     96  O   UNL A   1      46.577  24.263  37.540  1.00  0.00    -0.744 OA
ENDBRANCH  90  93
ENDBRANCH  63  86
ENDBRANCH  37  38
ENDBRANCH  29  32
ENDBRANCH  27  28
ENDBRANCH   1  27
TORSDOF 16
ENDMDL
