MODEL 1
REMARK VINA RESULT:     -13.0      0.000      0.000
REMARK SMILES O=C(NCCCCNC(=O)[C@@H](Cc1ccc(F)cc1)NC(=O)c1ccn(C2CCCC2)n1)c1ccc(-c2c3nc(c(-c4cccc(S(=O)(=O)[O-])c4F)c4ccc([nH]4)c(-c4cccc(S(=O)(=O)[O-])c4F)c4nc(c(-c5cccc(S(=O)(=O)[O-])c5F)c5ccc2[nH]5)C=C4)C=C3)cc1
REMARK SMILES IDX 5 1 4 2 3 3 1 4 2 5 33 7 34 8 95 9 35 10 94 11 36 12 37 13
REMARK SMILES IDX 38 14 88 15 39 16 93 17 87 18 89 19 40 20 92 21 86 22 85 23
REMARK SMILES IDX 41 25 73 26 53 27 72 28 54 29 57 30 71 31 90 32 55 33 56 34
REMARK SMILES IDX 70 36 91 37 58 38 42 39 43 40 51 41 44 42 46 43 52 44 45 45
REMARK SMILES IDX 47 46 48 47 49 48 50 49 74 50 75 51 83 52 76 53 78 54 84 55
REMARK SMILES IDX 77 56 79 57 80 58 81 59 82 60 59 61 60 62 68 63 61 64 63 65
REMARK SMILES IDX 69 66 62 67 64 68 65 69 66 70 67 71 6 72 7 73 8 74 9 75
REMARK SMILES IDX 10 77 11 78 12 79 13 80 14 81 19 82 15 83 18 84 16 85 17 86
REMARK SMILES IDX 20 87 21 88 22 90 23 91 24 92 32 93 25 94 26 95 27 96 28 97
REMARK SMILES IDX 31 98 29 99 30 100
REMARK H PARENT 3 6 89 24 57 35 8 76 20 89
REMARK Flexibility Score: inf
ROOT
ATOM      1  C   UNL A   1      32.636  28.599  26.884  1.00  0.00     0.023 C 
ENDROOT
BRANCH   1   2
ATOM      2  C   UNL A   1      33.885  29.486  26.812  1.00  0.00     0.116 C 
BRANCH   2   3
ATOM      3  N   UNL A   1      33.958  30.514  27.829  1.00  0.00    -0.352 N 
ATOM      4  O   UNL A   1      34.713  32.218  29.018  1.00  0.00    -0.269 OA
ATOM      5  C   UNL A   1      35.001  31.188  28.407  1.00  0.00     0.251 C 
ATOM      6  H   UNL A   1      33.076  30.783  28.177  1.00  0.00     0.163 HD
BRANCH   5   7
ATOM      7  C   UNL A   1      36.401  30.692  28.415  1.00  0.00     0.039 A 
ATOM      8  C   UNL A   1      36.789  29.394  28.075  1.00  0.00     0.014 A 
ATOM      9  C   UNL A   1      37.373  31.582  28.902  1.00  0.00     0.014 A 
ATOM     10  C   UNL A   1      38.065  28.941  28.348  1.00  0.00     0.010 A 
ATOM     11  C   UNL A   1      38.668  31.149  29.140  1.00  0.00     0.010 A 
ATOM     12  C   UNL A   1      38.986  29.810  28.916  1.00  0.00    -0.014 A 
BRANCH  12  13
ATOM     13  C   UNL A   1      40.318  29.283  29.160  1.00  0.00     0.031 A 
ATOM     14  C   UNL A   1      40.631  29.003  30.595  1.00  0.00     0.074 A 
ATOM     15  C   UNL A   1      41.123  28.954  28.133  1.00  0.00     0.049 A 
ATOM     16  N   UNL A   1      41.658  29.370  31.294  1.00  0.00    -0.248 NA
ATOM     17  C   UNL A   1      39.595  28.305  31.378  1.00  0.00     0.031 C 
ATOM     18  C   UNL A   1      40.771  28.918  26.709  1.00  0.00     0.029 A 
ATOM     19  N   UNL A   1      42.358  28.382  28.164  1.00  0.00    -0.354 N 
ATOM     20  C   UNL A   1      41.487  28.778  32.548  1.00  0.00     0.074 A 
ATOM     21  C   UNL A   1      40.144  28.268  32.589  1.00  0.00     0.031 C 
ATOM     22  C   UNL A   1      41.616  28.077  26.076  1.00  0.00     0.029 A 
ATOM     23  C   UNL A   1      42.620  27.627  27.025  1.00  0.00     0.049 A 
ATOM     24  H   UNL A   1      42.993  28.489  28.908  1.00  0.00     0.167 HD
ATOM     25  C   UNL A   1      42.517  28.549  33.408  1.00  0.00     0.034 A 
ATOM     26  C   UNL A   1      43.488  26.591  26.938  1.00  0.00     0.034 A 
ATOM     27  C   UNL A   1      43.676  29.335  33.105  1.00  0.00     0.049 A 
ATOM     28  C   UNL A   1      44.410  26.674  28.095  1.00  0.00     0.074 A 
ATOM     29  C   UNL A   1      43.952  30.686  33.050  1.00  0.00     0.029 A 
ATOM     30  N   UNL A   1      44.714  28.711  32.461  1.00  0.00    -0.354 N 
ATOM     31  N   UNL A   1      45.276  27.632  28.269  1.00  0.00    -0.248 NA
ATOM     32  C   UNL A   1      44.078  25.903  29.282  1.00  0.00     0.031 C 
ATOM     33  C   UNL A   1      44.859  30.827  31.963  1.00  0.00     0.029 A 
ATOM     34  C   UNL A   1      45.106  29.549  31.452  1.00  0.00     0.049 A 
ATOM     35  H   UNL A   1      45.102  27.834  32.681  1.00  0.00     0.167 HD
ATOM     36  C   UNL A   1      45.270  27.861  29.639  1.00  0.00     0.074 A 
ATOM     37  C   UNL A   1      44.593  26.703  30.217  1.00  0.00     0.031 C 
ATOM     38  C   UNL A   1      45.550  29.095  30.155  1.00  0.00     0.034 A 
BRANCH  25  39
ATOM     39  C   UNL A   1      42.577  27.377  34.350  1.00  0.00     0.023 A 
ATOM     40  C   UNL A   1      42.201  27.576  35.695  1.00  0.00     0.012 A 
ATOM     41  C   UNL A   1      43.226  26.161  34.034  1.00  0.00     0.148 A 
ATOM     42  C   UNL A   1      42.472  26.618  36.679  1.00  0.00     0.002 A 
ATOM     43  C   UNL A   1      43.413  25.176  34.996  1.00  0.00     0.091 A 
ATOM     44  F   UNL A   1      43.789  26.000  32.831  1.00  0.00    -0.205 F 
ATOM     45  C   UNL A   1      43.063  25.409  36.327  1.00  0.00     0.022 A 
BRANCH  43  46
ATOM     46  S   UNL A   1      44.105  23.577  34.564  1.00  0.00     0.127 S 
ATOM     47  O   UNL A   1      45.348  23.962  33.904  1.00  0.00    -0.237 OA
ATOM     48  O   UNL A   1      44.267  22.951  35.878  1.00  0.00    -0.237 OA
ATOM     49  O   UNL A   1      43.094  22.942  33.728  1.00  0.00    -0.744 OA
ENDBRANCH  43  46
ENDBRANCH  25  39
BRANCH  26  50
ATOM     50  C   UNL A   1      43.327  25.341  26.157  1.00  0.00     0.023 A 
ATOM     51  C   UNL A   1      44.254  25.036  25.143  1.00  0.00     0.012 A 
ATOM     52  C   UNL A   1      42.436  24.325  26.576  1.00  0.00     0.148 A 
ATOM     53  C   UNL A   1      44.307  23.755  24.580  1.00  0.00     0.002 A 
ATOM     54  C   UNL A   1      42.481  23.060  26.001  1.00  0.00     0.091 A 
ATOM     55  F   UNL A   1      41.612  24.567  27.603  1.00  0.00    -0.205 F 
ATOM     56  C   UNL A   1      43.424  22.768  25.010  1.00  0.00     0.022 A 
BRANCH  54  57
ATOM     57  S   UNL A   1      41.383  21.733  26.520  1.00  0.00     0.127 S 
ATOM     58  O   UNL A   1      41.717  21.602  27.939  1.00  0.00    -0.237 OA
ATOM     59  O   UNL A   1      40.068  22.309  26.251  1.00  0.00    -0.237 OA
ATOM     60  O   UNL A   1      41.748  20.577  25.712  1.00  0.00    -0.744 OA
ENDBRANCH  54  57
ENDBRANCH  26  50
BRANCH  38  61
ATOM     61  C   UNL A   1      46.075  30.163  29.229  1.00  0.00     0.023 A 
ATOM     62  C   UNL A   1      47.446  30.265  28.914  1.00  0.00     0.012 A 
ATOM     63  C   UNL A   1      45.152  30.925  28.495  1.00  0.00     0.148 A 
ATOM     64  C   UNL A   1      47.887  31.121  27.901  1.00  0.00     0.002 A 
ATOM     65  C   UNL A   1      45.588  31.735  27.454  1.00  0.00     0.091 A 
ATOM     66  F   UNL A   1      43.850  30.814  28.803  1.00  0.00    -0.205 F 
ATOM     67  C   UNL A   1      46.956  31.843  27.160  1.00  0.00     0.022 A 
BRANCH  65  68
ATOM     68  S   UNL A   1      44.425  32.564  26.369  1.00  0.00     0.127 S 
ATOM     69  O   UNL A   1      45.309  33.156  25.368  1.00  0.00    -0.237 OA
ATOM     70  O   UNL A   1      43.601  31.457  25.879  1.00  0.00    -0.237 OA
ATOM     71  O   UNL A   1      43.701  33.511  27.210  1.00  0.00    -0.744 OA
ENDBRANCH  65  68
ENDBRANCH  38  61
ENDBRANCH  12  13
ENDBRANCH   5   7
ENDBRANCH   2   3
ENDBRANCH   1   2
BRANCH   1  72
ATOM     72  C   UNL A   1      31.525  29.013  25.922  1.00  0.00     0.023 C 
BRANCH  72  73
ATOM     73  C   UNL A   1      32.022  29.597  24.606  1.00  0.00     0.116 C 
BRANCH  73  74
ATOM     74  N   UNL A   1      30.987  29.609  23.604  1.00  0.00    -0.354 N 
ATOM     75  C   UNL A   1      30.490  28.604  22.844  1.00  0.00     0.242 C 
ATOM     76  H   UNL A   1      30.575  30.490  23.448  1.00  0.00     0.163 HD
ATOM     77  O   UNL A   1      29.575  28.897  22.065  1.00  0.00    -0.273 OA
BRANCH  75  78
ATOM     78  C   UNL A   1      31.000  27.147  22.920  1.00  0.00     0.176 C 
BRANCH  78  79
ATOM     79  C   UNL A   1      30.086  26.109  23.616  1.00  0.00     0.070 C 
BRANCH  79  80
ATOM     80  C   UNL A   1      30.623  25.059  24.569  1.00  0.00    -0.045 A 
ATOM     81  C   UNL A   1      30.785  23.740  24.101  1.00  0.00     0.007 A 
ATOM     82  C   UNL A   1      30.902  25.316  25.921  1.00  0.00     0.007 A 
ATOM     83  C   UNL A   1      31.304  22.741  24.929  1.00  0.00     0.039 A 
ATOM     84  C   UNL A   1      31.464  24.328  26.737  1.00  0.00     0.039 A 
ATOM     85  C   UNL A   1      31.667  23.052  26.232  1.00  0.00     0.123 A 
ATOM     86  F   UNL A   1      32.218  22.112  27.009  1.00  0.00    -0.207 F 
ENDBRANCH  79  80
ENDBRANCH  78  79
BRANCH  78  87
ATOM     87  N   UNL A   1      31.621  26.679  21.685  1.00  0.00    -0.339 N 
ATOM     88  C   UNL A   1      32.753  25.919  21.481  1.00  0.00     0.272 C 
ATOM     89  H   UNL A   1      31.154  26.950  20.862  1.00  0.00     0.164 HD
ATOM     90  O   UNL A   1      33.098  25.739  20.320  1.00  0.00    -0.267 OA
BRANCH  88  91
ATOM     91  C   UNL A   1      33.507  25.392  22.631  1.00  0.00     0.150 A 
ATOM     92  C   UNL A   1      33.877  26.021  23.853  1.00  0.00     0.056 A 
ATOM     93  N   UNL A   1      33.938  24.118  22.620  1.00  0.00    -0.167 NA
ATOM     94  C   UNL A   1      34.636  25.098  24.533  1.00  0.00     0.110 A 
ATOM     95  N   UNL A   1      34.635  23.977  23.758  1.00  0.00    -0.269 N 
BRANCH  95  96
ATOM     96  C   UNL A   1      35.268  22.712  24.061  1.00  0.00     0.107 C 
ATOM     97  C   UNL A   1      36.689  22.595  23.515  1.00  0.00     0.027 C 
ATOM     98  C   UNL A   1      35.448  22.442  25.555  1.00  0.00     0.027 C 
ATOM     99  C   UNL A   1      37.264  21.408  24.275  1.00  0.00     0.002 C 
ATOM    100  C   UNL A   1      36.567  21.405  25.635  1.00  0.00     0.002 C 
ENDBRANCH  95  96
ENDBRANCH  88  91
ENDBRANCH  78  87
ENDBRANCH  75  78
ENDBRANCH  73  74
ENDBRANCH  72  73
ENDBRANCH   1  72
TORSDOF 19
ENDMDL
MODEL 2
REMARK VINA RESULT:     -12.6      1.870      2.716
REMARK SMILES O=C(NCCCCNC(=O)[C@@H](Cc1ccc(F)cc1)NC(=O)c1ccn(C2CCCC2)n1)c1ccc(-c2c3nc(c(-c4cccc(S(=O)(=O)[O-])c4F)c4ccc([nH]4)c(-c4cccc(S(=O)(=O)[O-])c4F)c4nc(c(-c5cccc(S(=O)(=O)[O-])c5F)c5ccc2[nH]5)C=C4)C=C3)cc1
REMARK SMILES IDX 5 1 4 2 3 3 1 4 2 5 33 7 34 8 95 9 35 10 94 11 36 12 37 13
REMARK SMILES IDX 38 14 88 15 39 16 93 17 87 18 89 19 40 20 92 21 86 22 85 23
REMARK SMILES IDX 41 25 73 26 53 27 72 28 54 29 57 30 71 31 90 32 55 33 56 34
REMARK SMILES IDX 70 36 91 37 58 38 42 39 43 40 51 41 44 42 46 43 52 44 45 45
REMARK SMILES IDX 47 46 48 47 49 48 50 49 74 50 75 51 83 52 76 53 78 54 84 55
REMARK SMILES IDX 77 56 79 57 80 58 81 59 82 60 59 61 60 62 68 63 61 64 63 65
REMARK SMILES IDX 69 66 62 67 64 68 65 69 66 70 67 71 6 72 7 73 8 74 9 75
REMARK SMILES IDX 10 77 11 78 12 79 13 80 14 81 19 82 15 83 18 84 16 85 17 86
REMARK SMILES IDX 20 87 21 88 22 90 23 91 24 92 32 93 25 94 26 95 27 96 28 97
REMARK SMILES IDX 31 98 29 99 30 100
REMARK H PARENT 3 6 89 24 57 35 8 76 20 89
REMARK Flexibility Score: inf
ROOT
ATOM      1  C   UNL A   1      34.301  29.038  27.231  1.00  0.00     0.023 C 
ENDROOT
BRANCH   1   2
ATOM      2  C   UNL A   1      34.938  30.428  27.367  1.00  0.00     0.116 C 
BRANCH   2   3
ATOM      3  N   UNL A   1      34.681  31.091  28.627  1.00  0.00    -0.352 N 
ATOM      4  O   UNL A   1      35.006  32.310  30.443  1.00  0.00    -0.269 OA
ATOM      5  C   UNL A   1      35.492  31.501  29.652  1.00  0.00     0.251 C 
ATOM      6  H   UNL A   1      33.728  31.288  28.779  1.00  0.00     0.163 HD
BRANCH   5   7
ATOM      7  C   UNL A   1      36.850  30.952  29.901  1.00  0.00     0.039 A 
ATOM      8  C   UNL A   1      38.022  31.710  29.933  1.00  0.00     0.014 A 
ATOM      9  C   UNL A   1      36.946  29.554  30.006  1.00  0.00     0.014 A 
ATOM     10  C   UNL A   1      39.262  31.101  29.919  1.00  0.00     0.010 A 
ATOM     11  C   UNL A   1      38.186  28.934  30.034  1.00  0.00     0.010 A 
ATOM     12  C   UNL A   1      39.335  29.715  29.928  1.00  0.00    -0.014 A 
BRANCH  12  13
ATOM     13  C   UNL A   1      40.667  29.131  29.934  1.00  0.00     0.031 A 
ATOM     14  C   UNL A   1      41.213  28.825  31.293  1.00  0.00     0.074 A 
ATOM     15  C   UNL A   1      41.265  28.779  28.782  1.00  0.00     0.049 A 
ATOM     16  N   UNL A   1      42.361  29.144  31.803  1.00  0.00    -0.248 NA
ATOM     17  C   UNL A   1      40.301  28.163  32.243  1.00  0.00     0.031 C 
ATOM     18  C   UNL A   1      40.670  28.771  27.442  1.00  0.00     0.029 A 
ATOM     19  N   UNL A   1      42.463  28.156  28.596  1.00  0.00    -0.354 N 
ATOM     20  C   UNL A   1      42.386  28.548  33.066  1.00  0.00     0.074 A 
ATOM     21  C   UNL A   1      41.050  28.092  33.340  1.00  0.00     0.031 C 
ATOM     22  C   UNL A   1      41.356  27.902  26.670  1.00  0.00     0.029 A 
ATOM     23  C   UNL A   1      42.490  27.402  27.428  1.00  0.00     0.049 A 
ATOM     24  H   UNL A   1      43.221  28.231  29.219  1.00  0.00     0.167 HD
ATOM     25  C   UNL A   1      43.540  28.269  33.733  1.00  0.00     0.034 A 
ATOM     26  C   UNL A   1      43.285  26.331  27.189  1.00  0.00     0.034 A 
ATOM     27  C   UNL A   1      44.659  29.010  33.234  1.00  0.00     0.049 A 
ATOM     28  C   UNL A   1      44.397  26.367  28.167  1.00  0.00     0.074 A 
ATOM     29  C   UNL A   1      44.978  30.348  33.134  1.00  0.00     0.029 A 
ATOM     30  N   UNL A   1      45.543  28.349  32.417  1.00  0.00    -0.354 N 
ATOM     31  N   UNL A   1      45.320  27.287  28.189  1.00  0.00    -0.248 NA
ATOM     32  C   UNL A   1      44.245  25.599  29.393  1.00  0.00     0.031 C 
ATOM     33  C   UNL A   1      45.688  30.461  31.905  1.00  0.00     0.029 A 
ATOM     34  C   UNL A   1      45.787  29.180  31.357  1.00  0.00     0.049 A 
ATOM     35  H   UNL A   1      45.926  27.455  32.565  1.00  0.00     0.167 HD
ATOM     36  C   UNL A   1      45.562  27.503  29.540  1.00  0.00     0.074 A 
ATOM     37  C   UNL A   1      44.948  26.368  30.225  1.00  0.00     0.031 C 
ATOM     38  C   UNL A   1      45.979  28.719  30.001  1.00  0.00     0.034 A 
BRANCH  25  39
ATOM     39  C   UNL A   1      43.714  27.086  34.648  1.00  0.00     0.023 A 
ATOM     40  C   UNL A   1      43.945  27.326  36.019  1.00  0.00     0.012 A 
ATOM     41  C   UNL A   1      43.914  25.767  34.180  1.00  0.00     0.148 A 
ATOM     42  C   UNL A   1      44.370  26.305  36.877  1.00  0.00     0.002 A 
ATOM     43  C   UNL A   1      44.249  24.740  35.052  1.00  0.00     0.091 A 
ATOM     44  F   UNL A   1      43.914  25.521  32.865  1.00  0.00    -0.205 F 
ATOM     45  C   UNL A   1      44.506  25.007  36.398  1.00  0.00     0.022 A 
BRANCH  43  46
ATOM     46  S   UNL A   1      44.361  23.041  34.485  1.00  0.00     0.127 S 
ATOM     47  O   UNL A   1      43.058  22.853  33.856  1.00  0.00    -0.237 OA
ATOM     48  O   UNL A   1      45.494  23.103  33.558  1.00  0.00    -0.237 OA
ATOM     49  O   UNL A   1      44.623  22.257  35.686  1.00  0.00    -0.744 OA
ENDBRANCH  43  46
ENDBRANCH  25  39
BRANCH  26  50
ATOM     50  C   UNL A   1      42.939  25.096  26.446  1.00  0.00     0.023 A 
ATOM     51  C   UNL A   1      43.776  24.660  25.403  1.00  0.00     0.012 A 
ATOM     52  C   UNL A   1      41.948  24.207  26.925  1.00  0.00     0.148 A 
ATOM     53  C   UNL A   1      43.647  23.372  24.869  1.00  0.00     0.002 A 
ATOM     54  C   UNL A   1      41.813  22.935  26.379  1.00  0.00     0.091 A 
ATOM     55  F   UNL A   1      41.205  24.568  27.978  1.00  0.00    -0.205 F 
ATOM     56  C   UNL A   1      42.669  22.510  25.358  1.00  0.00     0.022 A 
BRANCH  54  57
ATOM     57  S   UNL A   1      40.583  21.765  26.974  1.00  0.00     0.127 S 
ATOM     58  O   UNL A   1      39.334  22.484  26.717  1.00  0.00    -0.237 OA
ATOM     59  O   UNL A   1      40.817  20.614  26.106  1.00  0.00    -0.237 OA
ATOM     60  O   UNL A   1      40.876  21.566  28.388  1.00  0.00    -0.744 OA
ENDBRANCH  54  57
ENDBRANCH  26  50
BRANCH  38  61
ATOM     61  C   UNL A   1      46.379  29.774  29.000  1.00  0.00     0.023 A 
ATOM     62  C   UNL A   1      47.694  29.858  28.494  1.00  0.00     0.012 A 
ATOM     63  C   UNL A   1      45.370  30.540  28.396  1.00  0.00     0.148 A 
ATOM     64  C   UNL A   1      47.996  30.699  27.420  1.00  0.00     0.002 A 
ATOM     65  C   UNL A   1      45.663  31.336  27.296  1.00  0.00     0.091 A 
ATOM     66  F   UNL A   1      44.123  30.447  28.885  1.00  0.00    -0.205 F 
ATOM     67  C   UNL A   1      46.977  31.426  26.811  1.00  0.00     0.022 A 
BRANCH  65  68
ATOM     68  S   UNL A   1      44.367  32.169  26.377  1.00  0.00     0.127 S 
ATOM     69  O   UNL A   1      43.924  33.187  27.326  1.00  0.00    -0.237 OA
ATOM     70  O   UNL A   1      45.087  32.690  25.213  1.00  0.00    -0.237 OA
ATOM     71  O   UNL A   1      43.386  31.140  26.052  1.00  0.00    -0.744 OA
ENDBRANCH  65  68
ENDBRANCH  38  61
ENDBRANCH  12  13
ENDBRANCH   5   7
ENDBRANCH   2   3
ENDBRANCH   1   2
BRANCH   1  72
ATOM     72  C   UNL A   1      33.922  28.667  25.800  1.00  0.00     0.023 C 
BRANCH  72  73
ATOM     73  C   UNL A   1      32.496  28.155  25.643  1.00  0.00     0.116 C 
BRANCH  73  74
ATOM     74  N   UNL A   1      32.210  27.785  24.280  1.00  0.00    -0.354 N 
ATOM     75  C   UNL A   1      32.308  26.585  23.658  1.00  0.00     0.242 C 
ATOM     76  H   UNL A   1      31.893  28.522  23.710  1.00  0.00     0.163 HD
ATOM     77  O   UNL A   1      31.975  26.548  22.468  1.00  0.00    -0.273 OA
BRANCH  75  78
ATOM     78  C   UNL A   1      32.796  25.298  24.363  1.00  0.00     0.176 C 
BRANCH  78  79
ATOM     79  C   UNL A   1      34.277  25.252  24.814  1.00  0.00     0.070 C 
BRANCH  79  80
ATOM     80  C   UNL A   1      35.096  23.976  24.791  1.00  0.00    -0.045 A 
ATOM     81  C   UNL A   1      35.784  23.635  23.610  1.00  0.00     0.007 A 
ATOM     82  C   UNL A   1      35.147  23.074  25.866  1.00  0.00     0.007 A 
ATOM     83  C   UNL A   1      36.577  22.486  23.545  1.00  0.00     0.039 A 
ATOM     84  C   UNL A   1      35.976  21.948  25.817  1.00  0.00     0.039 A 
ATOM     85  C   UNL A   1      36.689  21.668  24.660  1.00  0.00     0.123 A 
ATOM     86  F   UNL A   1      37.493  20.599  24.620  1.00  0.00    -0.207 F 
ENDBRANCH  79  80
ENDBRANCH  78  79
BRANCH  78  87
ATOM     87  N   UNL A   1      31.847  24.768  25.336  1.00  0.00    -0.339 N 
ATOM     88  C   UNL A   1      31.304  23.507  25.467  1.00  0.00     0.272 C 
ATOM     89  H   UNL A   1      31.545  25.417  26.012  1.00  0.00     0.164 HD
ATOM     90  O   UNL A   1      30.456  23.357  26.337  1.00  0.00    -0.267 OA
BRANCH  88  91
ATOM     91  C   UNL A   1      31.722  22.425  24.561  1.00  0.00     0.150 A 
ATOM     92  C   UNL A   1      31.831  22.404  23.142  1.00  0.00     0.056 A 
ATOM     93  N   UNL A   1      32.097  21.237  25.067  1.00  0.00    -0.167 NA
ATOM     94  C   UNL A   1      32.192  21.119  22.813  1.00  0.00     0.110 A 
ATOM     95  N   UNL A   1      32.345  20.465  23.999  1.00  0.00    -0.269 N 
BRANCH  95  96
ATOM     96  C   UNL A   1      32.758  19.091  24.184  1.00  0.00     0.107 C 
ATOM     97  C   UNL A   1      32.624  18.239  22.924  1.00  0.00     0.027 C 
ATOM     98  C   UNL A   1      34.230  18.923  24.561  1.00  0.00     0.027 C 
ATOM     99  C   UNL A   1      33.462  17.008  23.238  1.00  0.00     0.002 C 
ATOM    100  C   UNL A   1      34.573  17.486  24.172  1.00  0.00     0.002 C 
ENDBRANCH  95  96
ENDBRANCH  88  91
ENDBRANCH  78  87
ENDBRANCH  75  78
ENDBRANCH  73  74
ENDBRANCH  72  73
ENDBRANCH   1  72
TORSDOF 19
ENDMDL
MODEL 3
REMARK VINA RESULT:     -12.6      1.284      3.423
REMARK SMILES O=C(NCCCCNC(=O)[C@@H](Cc1ccc(F)cc1)NC(=O)c1ccn(C2CCCC2)n1)c1ccc(-c2c3nc(c(-c4cccc(S(=O)(=O)[O-])c4F)c4ccc([nH]4)c(-c4cccc(S(=O)(=O)[O-])c4F)c4nc(c(-c5cccc(S(=O)(=O)[O-])c5F)c5ccc2[nH]5)C=C4)C=C3)cc1
REMARK SMILES IDX 5 1 4 2 3 3 1 4 2 5 33 7 34 8 95 9 35 10 94 11 36 12 37 13
REMARK SMILES IDX 38 14 88 15 39 16 93 17 87 18 89 19 40 20 92 21 86 22 85 23
REMARK SMILES IDX 41 25 73 26 53 27 72 28 54 29 57 30 71 31 90 32 55 33 56 34
REMARK SMILES IDX 70 36 91 37 58 38 42 39 43 40 51 41 44 42 46 43 52 44 45 45
REMARK SMILES IDX 47 46 48 47 49 48 50 49 74 50 75 51 83 52 76 53 78 54 84 55
REMARK SMILES IDX 77 56 79 57 80 58 81 59 82 60 59 61 60 62 68 63 61 64 63 65
REMARK SMILES IDX 69 66 62 67 64 68 65 69 66 70 67 71 6 72 7 73 8 74 9 75
REMARK SMILES IDX 10 77 11 78 12 79 13 80 14 81 19 82 15 83 18 84 16 85 17 86
REMARK SMILES IDX 20 87 21 88 22 90 23 91 24 92 32 93 25 94 26 95 27 96 28 97
REMARK SMILES IDX 31 98 29 99 30 100
REMARK H PARENT 3 6 89 24 57 35 8 76 20 89
REMARK Flexibility Score: inf
ROOT
ATOM      1  C   UNL A   1      32.183  29.341  27.230  1.00  0.00     0.023 C 
ENDROOT
BRANCH   1   2
ATOM      2  C   UNL A   1      33.661  29.611  27.538  1.00  0.00     0.116 C 
BRANCH   2   3
ATOM      3  N   UNL A   1      34.009  31.011  27.663  1.00  0.00    -0.352 N 
ATOM      4  O   UNL A   1      35.182  32.883  27.564  1.00  0.00    -0.269 OA
ATOM      5  C   UNL A   1      35.201  31.672  27.793  1.00  0.00     0.251 C 
ATOM      6  H   UNL A   1      33.227  31.611  27.652  1.00  0.00     0.163 HD
BRANCH   5   7
ATOM      7  C   UNL A   1      36.451  31.033  28.281  1.00  0.00     0.039 A 
ATOM      8  C   UNL A   1      37.375  31.640  29.133  1.00  0.00     0.014 A 
ATOM      9  C   UNL A   1      36.749  29.767  27.750  1.00  0.00     0.014 A 
ATOM     10  C   UNL A   1      38.622  31.084  29.338  1.00  0.00     0.010 A 
ATOM     11  C   UNL A   1      37.984  29.180  27.983  1.00  0.00     0.010 A 
ATOM     12  C   UNL A   1      38.934  29.877  28.729  1.00  0.00    -0.014 A 
BRANCH  12  13
ATOM     13  C   UNL A   1      40.254  29.330  28.999  1.00  0.00     0.031 A 
ATOM     14  C   UNL A   1      40.540  29.060  30.442  1.00  0.00     0.074 A 
ATOM     15  C   UNL A   1      41.068  28.975  27.988  1.00  0.00     0.049 A 
ATOM     16  N   UNL A   1      41.562  29.418  31.153  1.00  0.00    -0.248 NA
ATOM     17  C   UNL A   1      39.480  28.389  31.216  1.00  0.00     0.031 C 
ATOM     18  C   UNL A   1      40.738  28.930  26.559  1.00  0.00     0.029 A 
ATOM     19  N   UNL A   1      42.293  28.383  28.045  1.00  0.00    -0.354 N 
ATOM     20  C   UNL A   1      41.361  28.843  32.410  1.00  0.00     0.074 A 
ATOM     21  C   UNL A   1      40.008  28.356  32.436  1.00  0.00     0.031 C 
ATOM     22  C   UNL A   1      41.579  28.067  25.949  1.00  0.00     0.029 A 
ATOM     23  C   UNL A   1      42.559  27.611  26.919  1.00  0.00     0.049 A 
ATOM     24  H   UNL A   1      42.918  28.488  28.798  1.00  0.00     0.167 HD
ATOM     25  C   UNL A   1      42.373  28.607  33.289  1.00  0.00     0.034 A 
ATOM     26  C   UNL A   1      43.411  26.559  26.857  1.00  0.00     0.034 A 
ATOM     27  C   UNL A   1      43.550  29.369  32.995  1.00  0.00     0.049 A 
ATOM     28  C   UNL A   1      44.316  26.640  28.027  1.00  0.00     0.074 A 
ATOM     29  C   UNL A   1      43.850  30.714  32.930  1.00  0.00     0.029 A 
ATOM     30  N   UNL A   1      44.587  28.720  32.374  1.00  0.00    -0.354 N 
ATOM     31  N   UNL A   1      45.196  27.585  28.204  1.00  0.00    -0.248 NA
ATOM     32  C   UNL A   1      43.952  25.888  29.217  1.00  0.00     0.031 C 
ATOM     33  C   UNL A   1      44.776  30.827  31.855  1.00  0.00     0.029 A 
ATOM     34  C   UNL A   1      45.009  29.540  31.363  1.00  0.00     0.049 A 
ATOM     35  H   UNL A   1      44.957  27.839  32.611  1.00  0.00     0.167 HD
ATOM     36  C   UNL A   1      45.172  27.830  29.571  1.00  0.00     0.074 A 
ATOM     37  C   UNL A   1      44.466  26.689  30.152  1.00  0.00     0.031 C 
ATOM     38  C   UNL A   1      45.465  29.064  30.078  1.00  0.00     0.034 A 
BRANCH  25  39
ATOM     39  C   UNL A   1      42.399  27.444  34.244  1.00  0.00     0.023 A 
ATOM     40  C   UNL A   1      41.889  27.633  35.546  1.00  0.00     0.012 A 
ATOM     41  C   UNL A   1      43.130  26.257  34.003  1.00  0.00     0.148 A 
ATOM     42  C   UNL A   1      42.111  26.694  36.561  1.00  0.00     0.002 A 
ATOM     43  C   UNL A   1      43.271  25.289  34.988  1.00  0.00     0.091 A 
ATOM     44  F   UNL A   1      43.810  26.117  32.860  1.00  0.00    -0.205 F 
ATOM     45  C   UNL A   1      42.787  25.513  36.278  1.00  0.00     0.022 A 
BRANCH  43  46
ATOM     46  S   UNL A   1      44.073  23.721  34.639  1.00  0.00     0.127 S 
ATOM     47  O   UNL A   1      45.445  24.144  34.375  1.00  0.00    -0.237 OA
ATOM     48  O   UNL A   1      43.878  22.994  35.896  1.00  0.00    -0.237 OA
ATOM     49  O   UNL A   1      43.336  23.162  33.513  1.00  0.00    -0.744 OA
ENDBRANCH  43  46
ENDBRANCH  25  39
BRANCH  26  50
ATOM     50  C   UNL A   1      43.241  25.303  26.087  1.00  0.00     0.023 A 
ATOM     51  C   UNL A   1      44.179  24.970  25.094  1.00  0.00     0.012 A 
ATOM     52  C   UNL A   1      42.324  24.309  26.501  1.00  0.00     0.148 A 
ATOM     53  C   UNL A   1      44.219  23.682  24.545  1.00  0.00     0.002 A 
ATOM     54  C   UNL A   1      42.356  23.036  25.941  1.00  0.00     0.091 A 
ATOM     55  F   UNL A   1      41.486  24.577  27.511  1.00  0.00    -0.205 F 
ATOM     56  C   UNL A   1      43.311  22.716  24.970  1.00  0.00     0.022 A 
BRANCH  54  57
ATOM     57  S   UNL A   1      41.223  21.736  26.455  1.00  0.00     0.127 S 
ATOM     58  O   UNL A   1      41.408  21.732  27.907  1.00  0.00    -0.237 OA
ATOM     59  O   UNL A   1      39.938  22.260  26.002  1.00  0.00    -0.237 OA
ATOM     60  O   UNL A   1      41.685  20.524  25.792  1.00  0.00    -0.744 OA
ENDBRANCH  54  57
ENDBRANCH  26  50
BRANCH  38  61
ATOM     61  C   UNL A   1      46.023  30.113  29.149  1.00  0.00     0.023 A 
ATOM     62  C   UNL A   1      47.392  30.155  28.813  1.00  0.00     0.012 A 
ATOM     63  C   UNL A   1      45.123  30.919  28.433  1.00  0.00     0.148 A 
ATOM     64  C   UNL A   1      47.854  30.996  27.796  1.00  0.00     0.002 A 
ATOM     65  C   UNL A   1      45.578  31.714  27.389  1.00  0.00     0.091 A 
ATOM     66  F   UNL A   1      43.822  30.864  28.761  1.00  0.00    -0.205 F 
ATOM     67  C   UNL A   1      46.945  31.763  27.074  1.00  0.00     0.022 A 
BRANCH  65  68
ATOM     68  S   UNL A   1      44.436  32.600  26.326  1.00  0.00     0.127 S 
ATOM     69  O   UNL A   1      43.837  33.558  27.251  1.00  0.00    -0.237 OA
ATOM     70  O   UNL A   1      45.327  33.191  25.325  1.00  0.00    -0.237 OA
ATOM     71  O   UNL A   1      43.531  31.591  25.788  1.00  0.00    -0.744 OA
ENDBRANCH  65  68
ENDBRANCH  38  61
ENDBRANCH  12  13
ENDBRANCH   5   7
ENDBRANCH   2   3
ENDBRANCH   1   2
BRANCH   1  72
ATOM     72  C   UNL A   1      31.806  27.862  27.245  1.00  0.00     0.023 C 
BRANCH  72  73
ATOM     73  C   UNL A   1      31.306  27.330  25.908  1.00  0.00     0.116 C 
BRANCH  73  74
ATOM     74  N   UNL A   1      31.218  25.892  25.907  1.00  0.00    -0.354 N 
ATOM     75  C   UNL A   1      32.056  24.962  25.389  1.00  0.00     0.242 C 
ATOM     76  H   UNL A   1      30.420  25.528  26.354  1.00  0.00     0.163 HD
ATOM     77  O   UNL A   1      31.739  23.777  25.552  1.00  0.00    -0.273 OA
BRANCH  75  78
ATOM     78  C   UNL A   1      33.359  25.315  24.636  1.00  0.00     0.176 C 
BRANCH  78  79
ATOM     79  C   UNL A   1      34.698  24.986  25.340  1.00  0.00     0.070 C 
BRANCH  79  80
ATOM     80  C   UNL A   1      35.409  23.659  25.159  1.00  0.00    -0.045 A 
ATOM     81  C   UNL A   1      35.247  22.665  26.145  1.00  0.00     0.007 A 
ATOM     82  C   UNL A   1      36.283  23.391  24.093  1.00  0.00     0.007 A 
ATOM     83  C   UNL A   1      35.855  21.414  26.013  1.00  0.00     0.039 A 
ATOM     84  C   UNL A   1      36.855  22.124  23.937  1.00  0.00     0.039 A 
ATOM     85  C   UNL A   1      36.630  21.145  24.894  1.00  0.00     0.123 A 
ATOM     86  F   UNL A   1      37.167  19.929  24.736  1.00  0.00    -0.207 F 
ENDBRANCH  79  80
ENDBRANCH  78  79
BRANCH  78  87
ATOM     87  N   UNL A   1      33.322  24.985  23.214  1.00  0.00    -0.339 N 
ATOM     88  C   UNL A   1      32.839  25.700  22.139  1.00  0.00     0.272 C 
ATOM     89  H   UNL A   1      33.706  24.108  22.986  1.00  0.00     0.164 HD
ATOM     90  O   UNL A   1      32.859  25.142  21.050  1.00  0.00    -0.267 OA
BRANCH  88  91
ATOM     91  C   UNL A   1      32.298  27.055  22.335  1.00  0.00     0.150 A 
ATOM     92  C   UNL A   1      32.958  28.266  22.688  1.00  0.00     0.056 A 
ATOM     93  N   UNL A   1      30.985  27.284  22.155  1.00  0.00    -0.167 NA
ATOM     94  C   UNL A   1      31.967  29.210  22.809  1.00  0.00     0.110 A 
ATOM     95  N   UNL A   1      30.810  28.575  22.472  1.00  0.00    -0.269 N 
BRANCH  95  96
ATOM     96  C   UNL A   1      29.487  29.158  22.409  1.00  0.00     0.107 C 
ATOM     97  C   UNL A   1      28.383  28.217  22.885  1.00  0.00     0.027 C 
ATOM     98  C   UNL A   1      29.300  30.389  23.296  1.00  0.00     0.027 C 
ATOM     99  C   UNL A   1      27.197  29.145  23.105  1.00  0.00     0.002 C 
ATOM    100  C   UNL A   1      27.791  30.494  23.508  1.00  0.00     0.002 C 
ENDBRANCH  95  96
ENDBRANCH  88  91
ENDBRANCH  78  87
ENDBRANCH  75  78
ENDBRANCH  73  74
ENDBRANCH  72  73
ENDBRANCH   1  72
TORSDOF 19
ENDMDL
