MODEL 1
REMARK VINA RESULT:     -11.9      0.000      0.000
REMARK SMILES CC1(C)C(CNC(=O)N2C[C@H](O)C[C@@H]2C(=O)NCCCCNC(=O)c2ccc(-c3c4nc(c(-c5cccc(S(=O)(=O)[O-])c5F)c5ccc([nH]5)c(-c5cccc(S(=O)(=O)[O-])c5F)c5nc(c(-c6cccc(S(=O)(=O)[O-])c6F)c6ccc3[nH]6)C=C5)C=C4)cc2)C1(C)C
REMARK SMILES IDX 19 1 18 2 17 3 15 4 16 5 14 7 9 8 10 9 11 10 13 11 7 12 6 13
REMARK SMILES IDX 8 15 5 16 4 17 1 18 2 19 3 20 88 21 89 22 90 23 12 24 20 26
REMARK SMILES IDX 21 27 22 28 23 29 24 31 25 32 26 33 87 34 27 35 86 36 28 37
REMARK SMILES IDX 29 38 30 39 80 40 31 41 85 42 79 43 81 44 32 45 84 46 78 47
REMARK SMILES IDX 77 48 33 50 65 51 45 52 64 53 46 54 49 55 63 56 82 57 47 58
REMARK SMILES IDX 48 59 62 61 83 62 50 63 34 64 35 65 43 66 36 67 38 68 44 69
REMARK SMILES IDX 37 70 39 71 40 72 41 73 42 74 66 75 67 76 75 77 68 78 70 79
REMARK SMILES IDX 76 80 69 81 71 82 72 83 73 84 74 85 51 86 52 87 60 88 53 89
REMARK SMILES IDX 55 90 61 91 54 92 56 93 57 94 58 95 59 96
REMARK H PARENT 17 6 6 14 12 25 22 30 81 49 49 60
REMARK Flexibility Score: inf
ROOT
ATOM      1  C   UNL A   1      35.261  29.541  27.324  1.00  0.00     0.023 C 
ENDROOT
BRANCH   1   2
ATOM      2  C   UNL A   1      34.399  28.582  26.512  1.00  0.00     0.116 C 
BRANCH   2   3
ATOM      3  N   UNL A   1      34.168  29.018  25.155  1.00  0.00    -0.354 N 
ATOM      4  C   UNL A   1      33.266  28.575  24.232  1.00  0.00     0.242 C 
ATOM      5  O   UNL A   1      33.108  29.297  23.238  1.00  0.00    -0.273 OA
ATOM      6  H   UNL A   1      34.752  29.749  24.848  1.00  0.00     0.163 HD
BRANCH   4   7
ATOM      7  C   UNL A   1      32.618  27.158  24.245  1.00  0.00     0.179 C 
ATOM      8  N   UNL A   1      32.186  26.499  23.003  1.00  0.00    -0.310 N 
ATOM      9  C   UNL A   1      30.735  26.372  22.962  1.00  0.00     0.154 C 
ATOM     10  C   UNL A   1      30.211  27.203  24.133  1.00  0.00     0.136 C 
ATOM     11  C   UNL A   1      31.358  27.204  25.128  1.00  0.00     0.069 C 
BRANCH   8  12
ATOM     12  C   UNL A   1      33.115  25.881  22.225  1.00  0.00     0.318 C 
ATOM     13  N   UNL A   1      33.493  24.600  22.403  1.00  0.00    -0.338 N 
ATOM     14  H   UNL A   1      34.345  24.402  21.952  1.00  0.00     0.165 HD
ATOM     15  O   UNL A   1      33.646  26.474  21.282  1.00  0.00    -0.249 OA
BRANCH  13  16
ATOM     16  C   UNL A   1      32.961  23.433  23.095  1.00  0.00     0.122 C 
BRANCH  16  17
ATOM     17  C   UNL A   1      34.099  22.561  23.491  1.00  0.00     0.021 C 
ATOM     18  C   UNL A   1      36.571  23.005  23.432  1.00  0.00     0.012 C 
ATOM     19  C   UNL A   1      35.309  23.061  24.283  1.00  0.00    -0.025 C 
ATOM     20  C   UNL A   1      35.396  24.292  25.162  1.00  0.00     0.012 C 
ATOM     21  C   UNL A   1      34.321  21.935  24.845  1.00  0.00    -0.025 C 
ATOM     22  C   UNL A   1      34.593  20.447  24.911  1.00  0.00     0.012 C 
ATOM     23  C   UNL A   1      33.365  22.270  25.973  1.00  0.00     0.012 C 
ENDBRANCH  16  17
ENDBRANCH  13  16
ENDBRANCH   8  12
BRANCH  10  24
ATOM     24  O   UNL A   1      29.891  28.529  23.719  1.00  0.00    -0.391 OA
ATOM     25  H   UNL A   1      28.931  28.612  23.614  1.00  0.00     0.211 HD
ENDBRANCH  10  24
ENDBRANCH   4   7
ENDBRANCH   2   3
ENDBRANCH   1   2
BRANCH   1  26
ATOM     26  C   UNL A   1      34.807  31.000  27.391  1.00  0.00     0.023 C 
BRANCH  26  27
ATOM     27  C   UNL A   1      33.346  31.278  27.753  1.00  0.00     0.116 C 
BRANCH  27  28
ATOM     28  N   UNL A   1      32.997  32.688  27.701  1.00  0.00    -0.352 N 
ATOM     29  C   UNL A   1      33.389  33.768  28.452  1.00  0.00     0.251 C 
ATOM     30  H   UNL A   1      32.355  32.912  26.989  1.00  0.00     0.163 HD
ATOM     31  O   UNL A   1      32.837  34.862  28.377  1.00  0.00    -0.269 OA
BRANCH  29  32
ATOM     32  C   UNL A   1      34.480  33.651  29.398  1.00  0.00     0.039 A 
ATOM     33  C   UNL A   1      34.258  32.895  30.554  1.00  0.00     0.014 A 
ATOM     34  C   UNL A   1      35.705  34.238  29.112  1.00  0.00     0.014 A 
ATOM     35  C   UNL A   1      35.335  32.580  31.354  1.00  0.00     0.010 A 
ATOM     36  C   UNL A   1      36.795  33.827  29.837  1.00  0.00     0.010 A 
ATOM     37  C   UNL A   1      36.609  32.971  30.933  1.00  0.00    -0.014 A 
BRANCH  37  38
ATOM     38  C   UNL A   1      37.805  32.416  31.564  1.00  0.00     0.031 A 
ATOM     39  C   UNL A   1      38.515  31.302  30.879  1.00  0.00     0.074 A 
ATOM     40  C   UNL A   1      38.092  32.831  32.813  1.00  0.00     0.049 A 
ATOM     41  N   UNL A   1      39.485  30.559  31.324  1.00  0.00    -0.248 NA
ATOM     42  C   UNL A   1      38.030  30.931  29.534  1.00  0.00     0.031 C 
ATOM     43  C   UNL A   1      37.342  33.848  33.564  1.00  0.00     0.029 A 
ATOM     44  N   UNL A   1      39.060  32.427  33.684  1.00  0.00    -0.354 N 
ATOM     45  C   UNL A   1      39.696  29.604  30.340  1.00  0.00     0.074 A 
ATOM     46  C   UNL A   1      38.725  29.831  29.296  1.00  0.00     0.031 C 
ATOM     47  C   UNL A   1      37.889  33.993  34.780  1.00  0.00     0.029 A 
ATOM     48  C   UNL A   1      38.995  33.057  34.905  1.00  0.00     0.049 A 
ATOM     49  H   UNL A   1      39.740  31.751  33.462  1.00  0.00     0.167 HD
ATOM     50  C   UNL A   1      40.645  28.645  30.315  1.00  0.00     0.034 A 
ATOM     51  C   UNL A   1      39.754  32.878  36.000  1.00  0.00     0.034 A 
ATOM     52  C   UNL A   1      41.609  28.490  31.368  1.00  0.00     0.049 A 
ATOM     53  C   UNL A   1      40.858  31.865  35.906  1.00  0.00     0.074 A 
ATOM     54  C   UNL A   1      42.680  27.624  31.438  1.00  0.00     0.029 A 
ATOM     55  N   UNL A   1      41.606  29.232  32.544  1.00  0.00    -0.354 N 
ATOM     56  N   UNL A   1      41.154  31.065  34.907  1.00  0.00    -0.248 NA
ATOM     57  C   UNL A   1      41.753  31.751  37.060  1.00  0.00     0.031 C 
ATOM     58  C   UNL A   1      43.316  27.833  32.667  1.00  0.00     0.029 A 
ATOM     59  C   UNL A   1      42.658  28.846  33.350  1.00  0.00     0.049 A 
ATOM     60  H   UNL A   1      40.950  29.931  32.769  1.00  0.00     0.167 HD
ATOM     61  C   UNL A   1      42.290  30.373  35.296  1.00  0.00     0.074 A 
ATOM     62  C   UNL A   1      42.639  30.869  36.615  1.00  0.00     0.031 C 
ATOM     63  C   UNL A   1      42.978  29.407  34.639  1.00  0.00     0.034 A 
BRANCH  50  64
ATOM     64  C   UNL A   1      40.695  27.752  29.106  1.00  0.00     0.023 A 
ATOM     65  C   UNL A   1      39.834  26.637  29.026  1.00  0.00     0.012 A 
ATOM     66  C   UNL A   1      41.590  28.009  28.052  1.00  0.00     0.148 A 
ATOM     67  C   UNL A   1      39.892  25.768  27.938  1.00  0.00     0.002 A 
ATOM     68  C   UNL A   1      41.607  27.166  26.947  1.00  0.00     0.091 A 
ATOM     69  F   UNL A   1      42.423  29.053  28.160  1.00  0.00    -0.205 F 
ATOM     70  C   UNL A   1      40.772  26.038  26.895  1.00  0.00     0.022 A 
BRANCH  68  71
ATOM     71  S   UNL A   1      42.650  27.464  25.515  1.00  0.00     0.127 S 
ATOM     72  O   UNL A   1      42.475  26.226  24.758  1.00  0.00    -0.237 OA
ATOM     73  O   UNL A   1      42.018  28.640  24.918  1.00  0.00    -0.237 OA
ATOM     74  O   UNL A   1      43.992  27.691  26.035  1.00  0.00    -0.744 OA
ENDBRANCH  68  71
ENDBRANCH  50  64
BRANCH  51  75
ATOM     75  C   UNL A   1      39.547  33.730  37.204  1.00  0.00     0.023 A 
ATOM     76  C   UNL A   1      40.003  35.063  37.189  1.00  0.00     0.012 A 
ATOM     77  C   UNL A   1      38.848  33.259  38.333  1.00  0.00     0.148 A 
ATOM     78  C   UNL A   1      39.798  35.899  38.288  1.00  0.00     0.002 A 
ATOM     79  C   UNL A   1      38.603  34.113  39.404  1.00  0.00     0.091 A 
ATOM     80  F   UNL A   1      38.417  31.989  38.330  1.00  0.00    -0.205 F 
ATOM     81  C   UNL A   1      39.091  35.428  39.390  1.00  0.00     0.022 A 
BRANCH  79  82
ATOM     82  S   UNL A   1      37.586  33.633  40.807  1.00  0.00     0.127 S 
ATOM     83  O   UNL A   1      36.393  33.110  40.145  1.00  0.00    -0.237 OA
ATOM     84  O   UNL A   1      38.422  32.623  41.457  1.00  0.00    -0.237 OA
ATOM     85  O   UNL A   1      37.398  34.848  41.587  1.00  0.00    -0.744 OA
ENDBRANCH  79  82
ENDBRANCH  51  75
BRANCH  63  86
ATOM     86  C   UNL A   1      44.189  28.853  35.332  1.00  0.00     0.023 A 
ATOM     87  C   UNL A   1      45.454  29.419  35.089  1.00  0.00     0.012 A 
ATOM     88  C   UNL A   1      44.050  27.827  36.287  1.00  0.00     0.148 A 
ATOM     89  C   UNL A   1      46.575  28.949  35.768  1.00  0.00     0.002 A 
ATOM     90  C   UNL A   1      45.162  27.404  36.999  1.00  0.00     0.091 A 
ATOM     91  F   UNL A   1      42.836  27.294  36.483  1.00  0.00    -0.205 F 
ATOM     92  C   UNL A   1      46.428  27.953  36.731  1.00  0.00     0.022 A 
BRANCH  90  93
ATOM     93  S   UNL A   1      45.045  26.208  38.331  1.00  0.00     0.127 S 
ATOM     94  O   UNL A   1      46.433  26.129  38.783  1.00  0.00    -0.237 OA
ATOM     95  O   UNL A   1      44.135  26.873  39.265  1.00  0.00    -0.237 OA
ATOM     96  O   UNL A   1      44.512  24.991  37.732  1.00  0.00    -0.744 OA
ENDBRANCH  90  93
ENDBRANCH  63  86
ENDBRANCH  37  38
ENDBRANCH  29  32
ENDBRANCH  27  28
ENDBRANCH  26  27
ENDBRANCH   1  26
TORSDOF 18
ENDMDL
MODEL 2
REMARK VINA RESULT:     -11.8      5.861     11.662
REMARK SMILES CC1(C)C(CNC(=O)N2C[C@H](O)C[C@@H]2C(=O)NCCCCNC(=O)c2ccc(-c3c4nc(c(-c5cccc(S(=O)(=O)[O-])c5F)c5ccc([nH]5)c(-c5cccc(S(=O)(=O)[O-])c5F)c5nc(c(-c6cccc(S(=O)(=O)[O-])c6F)c6ccc3[nH]6)C=C5)C=C4)cc2)C1(C)C
REMARK SMILES IDX 19 1 18 2 17 3 15 4 16 5 14 7 9 8 10 9 11 10 13 11 7 12 6 13
REMARK SMILES IDX 8 15 5 16 4 17 1 18 2 19 3 20 88 21 89 22 90 23 12 24 20 26
REMARK SMILES IDX 21 27 22 28 23 29 24 31 25 32 26 33 87 34 27 35 86 36 28 37
REMARK SMILES IDX 29 38 30 39 80 40 31 41 85 42 79 43 81 44 32 45 84 46 78 47
REMARK SMILES IDX 77 48 33 50 65 51 45 52 64 53 46 54 49 55 63 56 82 57 47 58
REMARK SMILES IDX 48 59 62 61 83 62 50 63 34 64 35 65 43 66 36 67 38 68 44 69
REMARK SMILES IDX 37 70 39 71 40 72 41 73 42 74 66 75 67 76 75 77 68 78 70 79
REMARK SMILES IDX 76 80 69 81 71 82 72 83 73 84 74 85 51 86 52 87 60 88 53 89
REMARK SMILES IDX 55 90 61 91 54 92 56 93 57 94 58 95 59 96
REMARK H PARENT 17 6 6 14 12 25 22 30 81 49 49 60
REMARK Flexibility Score: inf
ROOT
ATOM      1  C   UNL A   1      38.214  23.673  26.677  1.00  0.00     0.023 C 
ENDROOT
BRANCH   1   2
ATOM      2  C   UNL A   1      36.951  23.499  25.843  1.00  0.00     0.116 C 
BRANCH   2   3
ATOM      3  N   UNL A   1      35.841  22.943  26.581  1.00  0.00    -0.354 N 
ATOM      4  C   UNL A   1      34.987  21.931  26.252  1.00  0.00     0.242 C 
ATOM      5  O   UNL A   1      34.293  21.486  27.175  1.00  0.00    -0.273 OA
ATOM      6  H   UNL A   1      35.675  23.358  27.458  1.00  0.00     0.163 HD
BRANCH   4   7
ATOM      7  C   UNL A   1      34.684  21.475  24.793  1.00  0.00     0.179 C 
ATOM      8  N   UNL A   1      33.841  22.280  23.896  1.00  0.00    -0.310 N 
ATOM      9  C   UNL A   1      32.591  21.591  23.603  1.00  0.00     0.154 C 
ATOM     10  C   UNL A   1      32.545  20.392  24.550  1.00  0.00     0.136 C 
ATOM     11  C   UNL A   1      34.005  20.094  24.841  1.00  0.00     0.069 C 
BRANCH   8  12
ATOM     12  C   UNL A   1      34.385  23.357  23.266  1.00  0.00     0.318 C 
ATOM     13  N   UNL A   1      34.076  24.630  23.579  1.00  0.00    -0.338 N 
ATOM     14  H   UNL A   1      34.336  25.257  22.867  1.00  0.00     0.165 HD
ATOM     15  O   UNL A   1      35.228  23.209  22.377  1.00  0.00    -0.249 OA
BRANCH  13  16
ATOM     16  C   UNL A   1      33.453  25.314  24.705  1.00  0.00     0.122 C 
BRANCH  16  17
ATOM     17  C   UNL A   1      32.638  26.441  24.178  1.00  0.00     0.021 C 
ATOM     18  C   UNL A   1      31.399  26.661  22.004  1.00  0.00     0.012 C 
ATOM     19  C   UNL A   1      31.296  26.252  23.467  1.00  0.00    -0.025 C 
ATOM     20  C   UNL A   1      30.363  25.062  23.552  1.00  0.00     0.012 C 
ATOM     21  C   UNL A   1      31.433  27.064  24.838  1.00  0.00    -0.025 C 
ATOM     22  C   UNL A   1      31.404  28.569  25.004  1.00  0.00     0.012 C 
ATOM     23  C   UNL A   1      30.908  26.458  26.126  1.00  0.00     0.012 C 
ENDBRANCH  16  17
ENDBRANCH  13  16
ENDBRANCH   8  12
BRANCH  10  24
ATOM     24  O   UNL A   1      31.839  20.710  25.747  1.00  0.00    -0.391 OA
ATOM     25  H   UNL A   1      31.282  21.490  25.596  1.00  0.00     0.211 HD
ENDBRANCH  10  24
ENDBRANCH   4   7
ENDBRANCH   2   3
ENDBRANCH   1   2
BRANCH   1  26
ATOM     26  C   UNL A   1      39.187  22.492  26.724  1.00  0.00     0.023 C 
BRANCH  26  27
ATOM     27  C   UNL A   1      39.121  21.468  25.589  1.00  0.00     0.116 C 
BRANCH  27  28
ATOM     28  N   UNL A   1      39.813  20.226  25.892  1.00  0.00    -0.352 N 
ATOM     29  C   UNL A   1      41.123  19.946  26.195  1.00  0.00     0.251 C 
ATOM     30  H   UNL A   1      39.230  19.433  25.879  1.00  0.00     0.163 HD
ATOM     31  O   UNL A   1      41.561  18.799  26.237  1.00  0.00    -0.269 OA
BRANCH  29  32
ATOM     32  C   UNL A   1      42.064  21.014  26.461  1.00  0.00     0.039 A 
ATOM     33  C   UNL A   1      42.499  21.781  25.375  1.00  0.00     0.014 A 
ATOM     34  C   UNL A   1      42.459  21.274  27.766  1.00  0.00     0.014 A 
ATOM     35  C   UNL A   1      43.209  22.935  25.623  1.00  0.00     0.010 A 
ATOM     36  C   UNL A   1      43.059  22.481  28.023  1.00  0.00     0.010 A 
ATOM     37  C   UNL A   1      43.399  23.322  26.953  1.00  0.00    -0.014 A 
BRANCH  37  38
ATOM     38  C   UNL A   1      43.869  24.668  27.278  1.00  0.00     0.031 A 
ATOM     39  C   UNL A   1      42.877  25.665  27.765  1.00  0.00     0.074 A 
ATOM     40  C   UNL A   1      45.139  24.973  26.951  1.00  0.00     0.049 A 
ATOM     41  N   UNL A   1      43.033  26.942  27.955  1.00  0.00    -0.248 NA
ATOM     42  C   UNL A   1      41.507  25.174  28.015  1.00  0.00     0.031 C 
ATOM     43  C   UNL A   1      46.112  24.042  26.360  1.00  0.00     0.029 A 
ATOM     44  N   UNL A   1      45.819  26.152  27.029  1.00  0.00    -0.354 N 
ATOM     45  C   UNL A   1      41.777  27.417  28.299  1.00  0.00     0.074 A 
ATOM     46  C   UNL A   1      40.859  26.304  28.248  1.00  0.00     0.031 C 
ATOM     47  C   UNL A   1      47.267  24.688  26.142  1.00  0.00     0.029 A 
ATOM     48  C   UNL A   1      47.102  26.078  26.538  1.00  0.00     0.049 A 
ATOM     49  H   UNL A   1      45.431  26.977  27.402  1.00  0.00     0.167 HD
ATOM     50  C   UNL A   1      41.443  28.676  28.654  1.00  0.00     0.034 A 
ATOM     51  C   UNL A   1      48.029  27.043  26.422  1.00  0.00     0.034 A 
ATOM     52  C   UNL A   1      42.407  29.737  28.722  1.00  0.00     0.049 A 
ATOM     53  C   UNL A   1      47.652  28.413  26.910  1.00  0.00     0.074 A 
ATOM     54  C   UNL A   1      42.233  31.037  29.150  1.00  0.00     0.029 A 
ATOM     55  N   UNL A   1      43.739  29.606  28.345  1.00  0.00    -0.354 N 
ATOM     56  N   UNL A   1      46.499  28.826  27.385  1.00  0.00    -0.248 NA
ATOM     57  C   UNL A   1      48.700  29.437  26.887  1.00  0.00     0.031 C 
ATOM     58  C   UNL A   1      43.459  31.697  29.015  1.00  0.00     0.029 A 
ATOM     59  C   UNL A   1      44.403  30.802  28.529  1.00  0.00     0.049 A 
ATOM     60  H   UNL A   1      44.149  28.781  27.997  1.00  0.00     0.167 HD
ATOM     61  C   UNL A   1      46.687  30.149  27.747  1.00  0.00     0.074 A 
ATOM     62  C   UNL A   1      48.076  30.459  27.458  1.00  0.00     0.031 C 
ATOM     63  C   UNL A   1      45.799  31.038  28.259  1.00  0.00     0.034 A 
BRANCH  50  64
ATOM     64  C   UNL A   1      40.008  28.932  29.027  1.00  0.00     0.023 A 
ATOM     65  C   UNL A   1      39.045  29.115  28.013  1.00  0.00     0.012 A 
ATOM     66  C   UNL A   1      39.611  28.995  30.376  1.00  0.00     0.148 A 
ATOM     67  C   UNL A   1      37.718  29.399  28.333  1.00  0.00     0.002 A 
ATOM     68  C   UNL A   1      38.277  29.228  30.687  1.00  0.00     0.091 A 
ATOM     69  F   UNL A   1      40.545  28.851  31.326  1.00  0.00    -0.205 F 
ATOM     70  C   UNL A   1      37.333  29.446  29.669  1.00  0.00     0.022 A 
BRANCH  68  71
ATOM     71  S   UNL A   1      37.661  29.237  32.374  1.00  0.00     0.127 S 
ATOM     72  O   UNL A   1      36.289  29.707  32.186  1.00  0.00    -0.237 OA
ATOM     73  O   UNL A   1      37.778  27.828  32.748  1.00  0.00    -0.237 OA
ATOM     74  O   UNL A   1      38.531  30.139  33.116  1.00  0.00    -0.744 OA
ENDBRANCH  68  71
ENDBRANCH  50  64
BRANCH  51  75
ATOM     75  C   UNL A   1      49.393  26.718  25.919  1.00  0.00     0.023 A 
ATOM     76  C   UNL A   1      50.247  25.927  26.712  1.00  0.00     0.012 A 
ATOM     77  C   UNL A   1      49.828  27.125  24.643  1.00  0.00     0.148 A 
ATOM     78  C   UNL A   1      51.520  25.577  26.259  1.00  0.00     0.002 A 
ATOM     79  C   UNL A   1      51.078  26.730  24.176  1.00  0.00     0.091 A 
ATOM     80  F   UNL A   1      49.001  27.875  23.899  1.00  0.00    -0.205 F 
ATOM     81  C   UNL A   1      51.931  25.970  24.989  1.00  0.00     0.022 A 
BRANCH  79  82
ATOM     82  S   UNL A   1      51.636  27.077  22.503  1.00  0.00     0.127 S 
ATOM     83  O   UNL A   1      51.933  28.505  22.577  1.00  0.00    -0.237 OA
ATOM     84  O   UNL A   1      52.808  26.209  22.387  1.00  0.00    -0.237 OA
ATOM     85  O   UNL A   1      50.527  26.703  21.636  1.00  0.00    -0.744 OA
ENDBRANCH  79  82
ENDBRANCH  51  75
BRANCH  63  86
ATOM     86  C   UNL A   1      46.321  32.413  28.560  1.00  0.00     0.023 A 
ATOM     87  C   UNL A   1      46.814  32.708  29.844  1.00  0.00     0.012 A 
ATOM     88  C   UNL A   1      46.396  33.380  27.540  1.00  0.00     0.148 A 
ATOM     89  C   UNL A   1      47.350  33.964  30.118  1.00  0.00     0.002 A 
ATOM     90  C   UNL A   1      46.983  34.608  27.806  1.00  0.00     0.091 A 
ATOM     91  F   UNL A   1      45.900  33.077  26.331  1.00  0.00    -0.205 F 
ATOM     92  C   UNL A   1      47.447  34.907  29.098  1.00  0.00     0.022 A 
BRANCH  90  93
ATOM     93  S   UNL A   1      47.248  35.838  26.527  1.00  0.00     0.127 S 
ATOM     94  O   UNL A   1      45.880  36.257  26.229  1.00  0.00    -0.237 OA
ATOM     95  O   UNL A   1      48.057  36.839  27.223  1.00  0.00    -0.237 OA
ATOM     96  O   UNL A   1      47.940  35.149  25.445  1.00  0.00    -0.744 OA
ENDBRANCH  90  93
ENDBRANCH  63  86
ENDBRANCH  37  38
ENDBRANCH  29  32
ENDBRANCH  27  28
ENDBRANCH  26  27
ENDBRANCH   1  26
TORSDOF 18
ENDMDL
MODEL 3
REMARK VINA RESULT:     -11.8      5.597      8.465
REMARK SMILES CC1(C)C(CNC(=O)N2C[C@H](O)C[C@@H]2C(=O)NCCCCNC(=O)c2ccc(-c3c4nc(c(-c5cccc(S(=O)(=O)[O-])c5F)c5ccc([nH]5)c(-c5cccc(S(=O)(=O)[O-])c5F)c5nc(c(-c6cccc(S(=O)(=O)[O-])c6F)c6ccc3[nH]6)C=C5)C=C4)cc2)C1(C)C
REMARK SMILES IDX 19 1 18 2 17 3 15 4 16 5 14 7 9 8 10 9 11 10 13 11 7 12 6 13
REMARK SMILES IDX 8 15 5 16 4 17 1 18 2 19 3 20 88 21 89 22 90 23 12 24 20 26
REMARK SMILES IDX 21 27 22 28 23 29 24 31 25 32 26 33 87 34 27 35 86 36 28 37
REMARK SMILES IDX 29 38 30 39 80 40 31 41 85 42 79 43 81 44 32 45 84 46 78 47
REMARK SMILES IDX 77 48 33 50 65 51 45 52 64 53 46 54 49 55 63 56 82 57 47 58
REMARK SMILES IDX 48 59 62 61 83 62 50 63 34 64 35 65 43 66 36 67 38 68 44 69
REMARK SMILES IDX 37 70 39 71 40 72 41 73 42 74 66 75 67 76 75 77 68 78 70 79
REMARK SMILES IDX 76 80 69 81 71 82 72 83 73 84 74 85 51 86 52 87 60 88 53 89
REMARK SMILES IDX 55 90 61 91 54 92 56 93 57 94 58 95 59 96
REMARK H PARENT 17 6 6 14 12 25 22 30 81 49 49 60
REMARK Flexibility Score: inf
ROOT
ATOM      1  C   UNL A   1      36.041  20.784  24.813  1.00  0.00     0.023 C 
ENDROOT
BRANCH   1   2
ATOM      2  C   UNL A   1      35.279  21.187  26.069  1.00  0.00     0.116 C 
BRANCH   2   3
ATOM      3  N   UNL A   1      33.902  20.752  26.076  1.00  0.00    -0.354 N 
ATOM      4  C   UNL A   1      32.802  21.311  25.493  1.00  0.00     0.242 C 
ATOM      5  O   UNL A   1      31.793  20.594  25.440  1.00  0.00    -0.273 OA
ATOM      6  H   UNL A   1      33.730  19.924  26.579  1.00  0.00     0.163 HD
BRANCH   4   7
ATOM      7  C   UNL A   1      32.678  22.816  25.110  1.00  0.00     0.179 C 
ATOM      8  N   UNL A   1      31.391  23.525  25.185  1.00  0.00    -0.310 N 
ATOM      9  C   UNL A   1      30.924  23.893  23.855  1.00  0.00     0.154 C 
ATOM     10  C   UNL A   1      31.851  23.174  22.875  1.00  0.00     0.136 C 
ATOM     11  C   UNL A   1      33.142  22.992  23.653  1.00  0.00     0.069 C 
BRANCH   8  12
ATOM     12  C   UNL A   1      30.952  23.971  26.394  1.00  0.00     0.318 C 
ATOM     13  N   UNL A   1      31.091  25.246  26.806  1.00  0.00    -0.338 N 
ATOM     14  H   UNL A   1      30.976  25.332  27.779  1.00  0.00     0.165 HD
ATOM     15  O   UNL A   1      30.368  23.212  27.173  1.00  0.00    -0.249 OA
BRANCH  13  16
ATOM     16  C   UNL A   1      31.368  26.530  26.175  1.00  0.00     0.122 C 
BRANCH  16  17
ATOM     17  C   UNL A   1      32.823  26.812  26.302  1.00  0.00     0.021 C 
ATOM     18  C   UNL A   1      34.799  25.532  25.425  1.00  0.00     0.012 C 
ATOM     19  C   UNL A   1      33.816  26.661  25.147  1.00  0.00    -0.025 C 
ATOM     20  C   UNL A   1      33.515  26.661  23.662  1.00  0.00     0.012 C 
ATOM     21  C   UNL A   1      33.537  28.065  25.861  1.00  0.00    -0.025 C 
ATOM     22  C   UNL A   1      34.437  28.766  26.858  1.00  0.00     0.012 C 
ATOM     23  C   UNL A   1      32.751  29.137  25.129  1.00  0.00     0.012 C 
ENDBRANCH  16  17
ENDBRANCH  13  16
ENDBRANCH   8  12
BRANCH  10  24
ATOM     24  O   UNL A   1      31.308  21.916  22.484  1.00  0.00    -0.391 OA
ATOM     25  H   UNL A   1      30.342  21.985  22.426  1.00  0.00     0.211 HD
ENDBRANCH  10  24
ENDBRANCH   4   7
ENDBRANCH   2   3
ENDBRANCH   1   2
BRANCH   1  26
ATOM     26  C   UNL A   1      37.292  21.595  24.466  1.00  0.00     0.023 C 
BRANCH  26  27
ATOM     27  C   UNL A   1      37.916  22.452  25.570  1.00  0.00     0.116 C 
BRANCH  27  28
ATOM     28  N   UNL A   1      39.258  22.031  25.938  1.00  0.00    -0.352 N 
ATOM     29  C   UNL A   1      40.341  22.715  26.431  1.00  0.00     0.251 C 
ATOM     30  H   UNL A   1      39.421  21.069  25.809  1.00  0.00     0.163 HD
ATOM     31  O   UNL A   1      41.460  22.216  26.506  1.00  0.00    -0.269 OA
BRANCH  29  32
ATOM     32  C   UNL A   1      40.208  24.088  26.874  1.00  0.00     0.039 A 
ATOM     33  C   UNL A   1      40.026  24.313  28.243  1.00  0.00     0.014 A 
ATOM     34  C   UNL A   1      40.314  25.121  25.953  1.00  0.00     0.014 A 
ATOM     35  C   UNL A   1      40.123  25.603  28.718  1.00  0.00     0.010 A 
ATOM     36  C   UNL A   1      40.531  26.387  26.436  1.00  0.00     0.010 A 
ATOM     37  C   UNL A   1      40.470  26.615  27.818  1.00  0.00    -0.014 A 
BRANCH  37  38
ATOM     38  C   UNL A   1      40.883  27.932  28.302  1.00  0.00     0.031 A 
ATOM     39  C   UNL A   1      42.337  28.200  28.470  1.00  0.00     0.074 A 
ATOM     40  C   UNL A   1      39.914  28.763  28.730  1.00  0.00     0.049 A 
ATOM     41  N   UNL A   1      42.917  29.221  29.030  1.00  0.00    -0.248 NA
ATOM     42  C   UNL A   1      43.265  27.152  28.002  1.00  0.00     0.031 C 
ATOM     43  C   UNL A   1      38.471  28.482  28.685  1.00  0.00     0.029 A 
ATOM     44  N   UNL A   1      39.990  29.990  29.321  1.00  0.00    -0.354 N 
ATOM     45  C   UNL A   1      44.270  28.921  29.025  1.00  0.00     0.074 A 
ATOM     46  C   UNL A   1      44.424  27.605  28.451  1.00  0.00     0.031 C 
ATOM     47  C   UNL A   1      37.801  29.516  29.216  1.00  0.00     0.029 A 
ATOM     48  C   UNL A   1      38.764  30.506  29.672  1.00  0.00     0.049 A 
ATOM     49  H   UNL A   1      40.839  30.461  29.481  1.00  0.00     0.167 HD
ATOM     50  C   UNL A   1      45.288  29.704  29.443  1.00  0.00     0.034 A 
ATOM     51  C   UNL A   1      38.470  31.656  30.300  1.00  0.00     0.034 A 
ATOM     52  C   UNL A   1      45.076  31.021  29.973  1.00  0.00     0.049 A 
ATOM     53  C   UNL A   1      39.623  32.545  30.671  1.00  0.00     0.074 A 
ATOM     54  C   UNL A   1      46.012  31.961  30.352  1.00  0.00     0.029 A 
ATOM     55  N   UNL A   1      43.823  31.580  30.197  1.00  0.00    -0.354 N 
ATOM     56  N   UNL A   1      40.909  32.323  30.523  1.00  0.00    -0.248 NA
ATOM     57  C   UNL A   1      39.295  33.848  31.255  1.00  0.00     0.031 C 
ATOM     58  C   UNL A   1      45.322  33.083  30.822  1.00  0.00     0.029 A 
ATOM     59  C   UNL A   1      43.958  32.854  30.711  1.00  0.00     0.049 A 
ATOM     60  H   UNL A   1      42.965  31.132  30.017  1.00  0.00     0.167 HD
ATOM     61  C   UNL A   1      41.547  33.471  30.965  1.00  0.00     0.074 A 
ATOM     62  C   UNL A   1      40.499  34.393  31.364  1.00  0.00     0.031 C 
ATOM     63  C   UNL A   1      42.874  33.741  31.051  1.00  0.00     0.034 A 
BRANCH  50  64
ATOM     64  C   UNL A   1      46.683  29.163  29.294  1.00  0.00     0.023 A 
ATOM     65  C   UNL A   1      47.260  28.418  30.344  1.00  0.00     0.012 A 
ATOM     66  C   UNL A   1      47.426  29.391  28.121  1.00  0.00     0.148 A 
ATOM     67  C   UNL A   1      48.568  27.946  30.248  1.00  0.00     0.002 A 
ATOM     68  C   UNL A   1      48.712  28.874  28.012  1.00  0.00     0.091 A 
ATOM     69  F   UNL A   1      46.875  30.129  27.147  1.00  0.00    -0.205 F 
ATOM     70  C   UNL A   1      49.289  28.166  29.079  1.00  0.00     0.022 A 
BRANCH  68  71
ATOM     71  S   UNL A   1      49.701  29.037  26.523  1.00  0.00     0.127 S 
ATOM     72  O   UNL A   1      48.815  28.460  25.514  1.00  0.00    -0.237 OA
ATOM     73  O   UNL A   1      49.873  30.487  26.429  1.00  0.00    -0.237 OA
ATOM     74  O   UNL A   1      50.929  28.293  26.771  1.00  0.00    -0.744 OA
ENDBRANCH  68  71
ENDBRANCH  50  64
BRANCH  51  75
ATOM     75  C   UNL A   1      37.051  32.051  30.519  1.00  0.00     0.023 A 
ATOM     76  C   UNL A   1      36.468  31.844  31.785  1.00  0.00     0.012 A 
ATOM     77  C   UNL A   1      36.295  32.688  29.515  1.00  0.00     0.148 A 
ATOM     78  C   UNL A   1      35.150  32.230  32.036  1.00  0.00     0.002 A 
ATOM     79  C   UNL A   1      35.000  33.117  29.787  1.00  0.00     0.091 A 
ATOM     80  F   UNL A   1      36.867  32.882  28.317  1.00  0.00    -0.205 F 
ATOM     81  C   UNL A   1      34.420  32.874  31.041  1.00  0.00     0.022 A 
BRANCH  79  82
ATOM     82  S   UNL A   1      34.035  34.074  28.610  1.00  0.00     0.127 S 
ATOM     83  O   UNL A   1      33.712  33.068  27.602  1.00  0.00    -0.237 OA
ATOM     84  O   UNL A   1      32.904  34.511  29.429  1.00  0.00    -0.237 OA
ATOM     85  O   UNL A   1      34.909  35.154  28.174  1.00  0.00    -0.744 OA
ENDBRANCH  79  82
ENDBRANCH  51  75
BRANCH  63  86
ATOM     86  C   UNL A   1      43.252  35.098  31.571  1.00  0.00     0.023 A 
ATOM     87  C   UNL A   1      43.484  35.280  32.947  1.00  0.00     0.012 A 
ATOM     88  C   UNL A   1      43.457  36.166  30.677  1.00  0.00     0.148 A 
ATOM     89  C   UNL A   1      43.887  36.521  33.432  1.00  0.00     0.002 A 
ATOM     90  C   UNL A   1      43.914  37.382  31.162  1.00  0.00     0.091 A 
ATOM     91  F   UNL A   1      43.209  35.969  29.374  1.00  0.00    -0.205 F 
ATOM     92  C   UNL A   1      44.115  37.566  32.540  1.00  0.00     0.022 A 
BRANCH  90  93
ATOM     93  S   UNL A   1      44.338  38.745  30.075  1.00  0.00     0.127 S 
ATOM     94  O   UNL A   1      44.792  39.756  31.029  1.00  0.00    -0.237 OA
ATOM     95  O   UNL A   1      45.398  38.165  29.250  1.00  0.00    -0.237 OA
ATOM     96  O   UNL A   1      43.119  39.074  29.348  1.00  0.00    -0.744 OA
ENDBRANCH  90  93
ENDBRANCH  63  86
ENDBRANCH  37  38
ENDBRANCH  29  32
ENDBRANCH  27  28
ENDBRANCH  26  27
ENDBRANCH   1  26
TORSDOF 18
ENDMDL
