MODEL 1
REMARK VINA RESULT:     -11.8      0.000      0.000
REMARK SMILES Cc1csc([C@H](C)Nc2cc(C)c(N)c(C(=O)NCCCCNC(=O)c3ccc(-c4c5nc(c(-c6cccc(S(=O)(=O)[O-])c6F)c6ccc([nH]6)c(-c6cccc(S(=O)(=O)[O-])c6F)c6nc(c(-c7cccc(S(=O)(=O)[O-])c7F)c7ccc4[nH]7)C=C6)C=C5)cc3)c2)n1
REMARK SMILES IDX 20 1 19 2 18 3 16 4 17 5 15 7 9 8 10 9 89 10 11 11 12 12
REMARK SMILES IDX 13 13 8 14 6 16 7 17 5 18 1 19 2 20 3 21 90 22 4 23 14 24
REMARK SMILES IDX 21 27 22 28 23 29 24 30 25 32 26 33 27 34 88 35 28 36 87 37
REMARK SMILES IDX 29 38 30 39 31 40 81 41 32 42 86 43 80 44 82 45 33 46 85 47
REMARK SMILES IDX 79 48 78 49 34 51 66 52 46 53 65 54 47 55 50 56 64 57 83 58
REMARK SMILES IDX 48 59 49 60 63 62 84 63 51 64 35 65 36 66 44 67 37 68 39 69
REMARK SMILES IDX 45 70 38 71 40 72 41 73 42 74 43 75 67 76 68 77 76 78 69 79
REMARK SMILES IDX 71 80 77 81 70 82 72 83 73 84 74 85 75 86 52 87 53 88 61 89
REMARK SMILES IDX 54 90 56 91 62 92 55 93 57 94 58 95 59 96 60 97
REMARK H PARENT 18 6 8 15 14 25 14 26 23 31 82 50 50 61
REMARK Flexibility Score: inf
ROOT
ATOM      1  C   UNL A   1      32.714  28.712  25.713  1.00  0.00     0.023 C 
ENDROOT
BRANCH   1   2
ATOM      2  C   UNL A   1      32.556  27.855  26.972  1.00  0.00     0.116 C 
BRANCH   2   3
ATOM      3  N   UNL A   1      31.349  27.055  26.898  1.00  0.00    -0.352 N 
ATOM      4  C   UNL A   1      31.003  25.919  26.206  1.00  0.00     0.253 C 
ATOM      5  O   UNL A   1      29.845  25.523  26.379  1.00  0.00    -0.269 OA
ATOM      6  H   UNL A   1      30.621  27.400  27.465  1.00  0.00     0.163 HD
BRANCH   4   7
ATOM      7  C   UNL A   1      31.923  25.143  25.301  1.00  0.00     0.065 A 
ATOM      8  C   UNL A   1      33.600  23.382  24.948  1.00  0.00     0.036 A 
ATOM      9  C   UNL A   1      33.610  23.671  23.589  1.00  0.00     0.031 A 
ATOM     10  C   UNL A   1      32.767  24.133  25.778  1.00  0.00     0.041 A 
ATOM     11  C   UNL A   1      32.830  24.718  23.066  1.00  0.00    -0.025 A 
ATOM     12  C   UNL A   1      32.897  25.002  21.589  1.00  0.00     0.046 C 
ATOM     13  C   UNL A   1      31.990  25.471  23.920  1.00  0.00     0.047 A 
BRANCH   8  14
ATOM     14  N   UNL A   1      34.225  22.275  25.500  1.00  0.00    -0.376 N 
ATOM     15  H   UNL A   1      34.174  22.145  26.475  1.00  0.00     0.161 HD
BRANCH  14  16
ATOM     16  C   UNL A   1      34.960  21.287  24.701  1.00  0.00     0.135 C 
ATOM     17  C   UNL A   1      36.327  21.148  25.391  1.00  0.00     0.039 C 
BRANCH  16  18
ATOM     18  C   UNL A   1      34.240  19.944  24.561  1.00  0.00     0.115 A 
ATOM     19  C   UNL A   1      34.398  16.340  24.688  1.00  0.00     0.067 C 
ATOM     20  C   UNL A   1      33.922  17.738  24.535  1.00  0.00     0.049 A 
ATOM     21  C   UNL A   1      32.633  18.146  24.260  1.00  0.00     0.090 A 
ATOM     22  N   UNL A   1      34.834  18.769  24.687  1.00  0.00    -0.244 NA
ATOM     23  S   UNL A   1      32.542  19.853  24.267  1.00  0.00    -0.125 S 
ENDBRANCH  16  18
ENDBRANCH  14  16
ENDBRANCH   8  14
BRANCH  13  24
ATOM     24  N   UNL A   1      31.121  26.417  23.356  1.00  0.00    -0.398 N 
ATOM     25  H   UNL A   1      30.273  26.126  22.950  1.00  0.00     0.156 HD
ATOM     26  H   UNL A   1      31.360  27.372  23.366  1.00  0.00     0.156 HD
ENDBRANCH  13  24
ENDBRANCH   4   7
ENDBRANCH   2   3
ENDBRANCH   1   2
BRANCH   1  27
ATOM     27  C   UNL A   1      32.309  30.179  25.891  1.00  0.00     0.023 C 
BRANCH  27  28
ATOM     28  C   UNL A   1      32.620  30.769  27.261  1.00  0.00     0.116 C 
BRANCH  28  29
ATOM     29  N   UNL A   1      32.796  32.214  27.240  1.00  0.00    -0.352 N 
ATOM     30  C   UNL A   1      33.871  32.949  27.683  1.00  0.00     0.251 C 
ATOM     31  H   UNL A   1      32.051  32.731  26.860  1.00  0.00     0.163 HD
ATOM     32  O   UNL A   1      33.825  34.171  27.687  1.00  0.00    -0.269 OA
BRANCH  30  33
ATOM     33  C   UNL A   1      35.064  32.242  28.195  1.00  0.00     0.039 A 
ATOM     34  C   UNL A   1      36.285  32.922  28.227  1.00  0.00     0.014 A 
ATOM     35  C   UNL A   1      34.971  30.932  28.672  1.00  0.00     0.014 A 
ATOM     36  C   UNL A   1      37.400  32.307  28.798  1.00  0.00     0.010 A 
ATOM     37  C   UNL A   1      36.066  30.349  29.301  1.00  0.00     0.010 A 
ATOM     38  C   UNL A   1      37.291  31.029  29.368  1.00  0.00    -0.014 A 
BRANCH  38  39
ATOM     39  C   UNL A   1      38.441  30.392  30.056  1.00  0.00     0.031 A 
ATOM     40  C   UNL A   1      38.827  30.822  31.444  1.00  0.00     0.074 A 
ATOM     41  C   UNL A   1      39.197  29.495  29.392  1.00  0.00     0.049 A 
ATOM     42  N   UNL A   1      39.827  30.419  32.183  1.00  0.00    -0.248 NA
ATOM     43  C   UNL A   1      37.998  31.864  32.074  1.00  0.00     0.031 C 
ATOM     44  C   UNL A   1      38.979  29.065  28.008  1.00  0.00     0.029 A 
ATOM     45  N   UNL A   1      40.316  28.803  29.781  1.00  0.00    -0.354 N 
ATOM     46  C   UNL A   1      39.772  31.180  33.344  1.00  0.00     0.074 A 
ATOM     47  C   UNL A   1      38.660  32.092  33.200  1.00  0.00     0.031 C 
ATOM     48  C   UNL A   1      39.934  28.186  27.665  1.00  0.00     0.029 A 
ATOM     49  C   UNL A   1      40.841  28.002  28.794  1.00  0.00     0.049 A 
ATOM     50  H   UNL A   1      40.708  28.875  30.681  1.00  0.00     0.167 HD
ATOM     51  C   UNL A   1      40.557  31.104  34.445  1.00  0.00     0.034 A 
ATOM     52  C   UNL A   1      41.929  27.208  28.799  1.00  0.00     0.034 A 
ATOM     53  C   UNL A   1      41.626  30.157  34.608  1.00  0.00     0.049 A 
ATOM     54  C   UNL A   1      42.742  27.090  30.060  1.00  0.00     0.074 A 
ATOM     55  C   UNL A   1      42.413  29.931  35.722  1.00  0.00     0.029 A 
ATOM     56  N   UNL A   1      42.060  29.280  33.626  1.00  0.00    -0.354 N 
ATOM     57  N   UNL A   1      42.565  27.690  31.213  1.00  0.00    -0.248 NA
ATOM     58  C   UNL A   1      43.876  26.156  30.036  1.00  0.00     0.031 C 
ATOM     59  C   UNL A   1      43.333  28.923  35.410  1.00  0.00     0.029 A 
ATOM     60  C   UNL A   1      43.107  28.513  34.106  1.00  0.00     0.049 A 
ATOM     61  H   UNL A   1      41.681  29.213  32.720  1.00  0.00     0.167 HD
ATOM     62  C   UNL A   1      43.543  27.182  32.060  1.00  0.00     0.074 A 
ATOM     63  C   UNL A   1      44.295  26.208  31.294  1.00  0.00     0.031 C 
ATOM     64  C   UNL A   1      43.807  27.505  33.350  1.00  0.00     0.034 A 
BRANCH  51  65
ATOM     65  C   UNL A   1      40.242  32.028  35.592  1.00  0.00     0.023 A 
ATOM     66  C   UNL A   1      41.034  33.179  35.790  1.00  0.00     0.012 A 
ATOM     67  C   UNL A   1      39.140  31.794  36.438  1.00  0.00     0.148 A 
ATOM     68  C   UNL A   1      40.755  34.062  36.832  1.00  0.00     0.002 A 
ATOM     69  C   UNL A   1      38.843  32.703  37.447  1.00  0.00     0.091 A 
ATOM     70  F   UNL A   1      38.413  30.684  36.249  1.00  0.00    -0.205 F 
ATOM     71  C   UNL A   1      39.655  33.831  37.652  1.00  0.00     0.022 A 
BRANCH  69  72
ATOM     72  S   UNL A   1      37.403  32.533  38.509  1.00  0.00     0.127 S 
ATOM     73  O   UNL A   1      37.369  31.089  38.730  1.00  0.00    -0.237 OA
ATOM     74  O   UNL A   1      37.789  33.320  39.680  1.00  0.00    -0.237 OA
ATOM     75  O   UNL A   1      36.284  33.080  37.754  1.00  0.00    -0.744 OA
ENDBRANCH  69  72
ENDBRANCH  51  65
BRANCH  52  76
ATOM     76  C   UNL A   1      42.260  26.394  27.595  1.00  0.00     0.023 A 
ATOM     77  C   UNL A   1      42.990  26.984  26.545  1.00  0.00     0.012 A 
ATOM     78  C   UNL A   1      41.892  25.039  27.497  1.00  0.00     0.148 A 
ATOM     79  C   UNL A   1      43.321  26.249  25.406  1.00  0.00     0.002 A 
ATOM     80  C   UNL A   1      42.271  24.296  26.384  1.00  0.00     0.091 A 
ATOM     81  F   UNL A   1      41.186  24.497  28.501  1.00  0.00    -0.205 F 
ATOM     82  C   UNL A   1      42.971  24.905  25.330  1.00  0.00     0.022 A 
BRANCH  80  83
ATOM     83  S   UNL A   1      41.977  22.529  26.263  1.00  0.00     0.127 S 
ATOM     84  O   UNL A   1      40.519  22.469  26.238  1.00  0.00    -0.237 OA
ATOM     85  O   UNL A   1      42.630  22.198  24.995  1.00  0.00    -0.237 OA
ATOM     86  O   UNL A   1      42.619  21.947  27.434  1.00  0.00    -0.744 OA
ENDBRANCH  80  83
ENDBRANCH  52  76
BRANCH  64  87
ATOM     87  C   UNL A   1      44.937  26.783  34.034  1.00  0.00     0.023 A 
ATOM     88  C   UNL A   1      46.251  27.278  33.923  1.00  0.00     0.012 A 
ATOM     89  C   UNL A   1      44.687  25.661  34.849  1.00  0.00     0.148 A 
ATOM     90  C   UNL A   1      47.303  26.653  34.588  1.00  0.00     0.002 A 
ATOM     91  C   UNL A   1      45.734  25.069  35.546  1.00  0.00     0.091 A 
ATOM     92  F   UNL A   1      43.433  25.191  34.925  1.00  0.00    -0.205 F 
ATOM     93  C   UNL A   1      47.044  25.557  35.409  1.00  0.00     0.022 A 
BRANCH  91  94
ATOM     94  S   UNL A   1      45.474  23.715  36.697  1.00  0.00     0.127 S 
ATOM     95  O   UNL A   1      46.837  23.433  37.141  1.00  0.00    -0.237 OA
ATOM     96  O   UNL A   1      44.615  24.327  37.713  1.00  0.00    -0.237 OA
ATOM     97  O   UNL A   1      44.831  22.658  35.927  1.00  0.00    -0.744 OA
ENDBRANCH  91  94
ENDBRANCH  64  87
ENDBRANCH  38  39
ENDBRANCH  30  33
ENDBRANCH  28  29
ENDBRANCH  27  28
ENDBRANCH   1  27
TORSDOF 18
ENDMDL
MODEL 2
REMARK VINA RESULT:     -11.7      5.267      8.695
REMARK SMILES Cc1csc([C@H](C)Nc2cc(C)c(N)c(C(=O)NCCCCNC(=O)c3ccc(-c4c5nc(c(-c6cccc(S(=O)(=O)[O-])c6F)c6ccc([nH]6)c(-c6cccc(S(=O)(=O)[O-])c6F)c6nc(c(-c7cccc(S(=O)(=O)[O-])c7F)c7ccc4[nH]7)C=C6)C=C5)cc3)c2)n1
REMARK SMILES IDX 20 1 19 2 18 3 16 4 17 5 15 7 9 8 10 9 89 10 11 11 12 12
REMARK SMILES IDX 13 13 8 14 6 16 7 17 5 18 1 19 2 20 3 21 90 22 4 23 14 24
REMARK SMILES IDX 21 27 22 28 23 29 24 30 25 32 26 33 27 34 88 35 28 36 87 37
REMARK SMILES IDX 29 38 30 39 31 40 81 41 32 42 86 43 80 44 82 45 33 46 85 47
REMARK SMILES IDX 79 48 78 49 34 51 66 52 46 53 65 54 47 55 50 56 64 57 83 58
REMARK SMILES IDX 48 59 49 60 63 62 84 63 51 64 35 65 36 66 44 67 37 68 39 69
REMARK SMILES IDX 45 70 38 71 40 72 41 73 42 74 43 75 67 76 68 77 76 78 69 79
REMARK SMILES IDX 71 80 77 81 70 82 72 83 73 84 74 85 75 86 52 87 53 88 61 89
REMARK SMILES IDX 54 90 56 91 62 92 55 93 57 94 58 95 59 96 60 97
REMARK H PARENT 18 6 8 15 14 25 14 26 23 31 82 50 50 61
REMARK Flexibility Score: inf
ROOT
ATOM      1  C   UNL A   1      37.059  21.733  24.342  1.00  0.00     0.023 C 
ENDROOT
BRANCH   1   2
ATOM      2  C   UNL A   1      36.664  22.843  25.320  1.00  0.00     0.116 C 
BRANCH   2   3
ATOM      3  N   UNL A   1      35.820  22.320  26.376  1.00  0.00    -0.352 N 
ATOM      4  C   UNL A   1      34.553  21.787  26.402  1.00  0.00     0.253 C 
ATOM      5  O   UNL A   1      34.138  21.458  27.519  1.00  0.00    -0.269 OA
ATOM      6  H   UNL A   1      36.245  22.353  27.263  1.00  0.00     0.163 HD
BRANCH   4   7
ATOM      7  C   UNL A   1      33.681  21.567  25.194  1.00  0.00     0.065 A 
ATOM      8  C   UNL A   1      32.287  22.439  23.368  1.00  0.00     0.036 A 
ATOM      9  C   UNL A   1      32.083  21.143  22.912  1.00  0.00     0.031 A 
ATOM     10  C   UNL A   1      33.070  22.623  24.509  1.00  0.00     0.041 A 
ATOM     11  C   UNL A   1      32.620  20.040  23.600  1.00  0.00    -0.025 A 
ATOM     12  C   UNL A   1      32.349  18.657  23.073  1.00  0.00     0.046 C 
ATOM     13  C   UNL A   1      33.413  20.242  24.755  1.00  0.00     0.047 A 
BRANCH   8  14
ATOM     14  N   UNL A   1      31.915  23.569  22.658  1.00  0.00    -0.376 N 
ATOM     15  H   UNL A   1      31.102  23.528  22.103  1.00  0.00     0.161 HD
BRANCH  14  16
ATOM     16  C   UNL A   1      32.674  24.824  22.694  1.00  0.00     0.135 C 
ATOM     17  C   UNL A   1      32.898  25.203  21.220  1.00  0.00     0.039 C 
BRANCH  16  18
ATOM     18  C   UNL A   1      31.988  25.941  23.483  1.00  0.00     0.115 A 
ATOM     19  C   UNL A   1      31.407  27.558  26.658  1.00  0.00     0.067 C 
ATOM     20  C   UNL A   1      31.379  27.204  25.217  1.00  0.00     0.049 A 
ATOM     21  C   UNL A   1      30.719  27.881  24.213  1.00  0.00     0.090 A 
ATOM     22  N   UNL A   1      32.085  26.090  24.794  1.00  0.00    -0.244 NA
ATOM     23  S   UNL A   1      31.048  27.159  22.699  1.00  0.00    -0.125 S 
ENDBRANCH  16  18
ENDBRANCH  14  16
ENDBRANCH   8  14
BRANCH  13  24
ATOM     24  N   UNL A   1      34.049  19.139  25.343  1.00  0.00    -0.398 N 
ATOM     25  H   UNL A   1      33.518  18.362  25.634  1.00  0.00     0.156 HD
ATOM     26  H   UNL A   1      35.026  19.142  25.466  1.00  0.00     0.156 HD
ENDBRANCH  13  24
ENDBRANCH   4   7
ENDBRANCH   2   3
ENDBRANCH   1   2
BRANCH   1  27
ATOM     27  C   UNL A   1      37.636  20.479  25.008  1.00  0.00     0.023 C 
BRANCH  27  28
ATOM     28  C   UNL A   1      38.814  20.733  25.942  1.00  0.00     0.116 C 
BRANCH  28  29
ATOM     29  N   UNL A   1      39.787  19.651  25.950  1.00  0.00    -0.352 N 
ATOM     30  C   UNL A   1      41.148  19.728  26.133  1.00  0.00     0.251 C 
ATOM     31  H   UNL A   1      39.424  18.748  25.806  1.00  0.00     0.163 HD
ATOM     32  O   UNL A   1      41.846  18.732  26.012  1.00  0.00    -0.269 OA
BRANCH  30  33
ATOM     33  C   UNL A   1      41.759  21.040  26.434  1.00  0.00     0.039 A 
ATOM     34  C   UNL A   1      42.068  21.896  25.374  1.00  0.00     0.014 A 
ATOM     35  C   UNL A   1      41.992  21.436  27.754  1.00  0.00     0.014 A 
ATOM     36  C   UNL A   1      42.553  23.177  25.642  1.00  0.00     0.010 A 
ATOM     37  C   UNL A   1      42.410  22.736  28.020  1.00  0.00     0.010 A 
ATOM     38  C   UNL A   1      42.697  23.618  26.967  1.00  0.00    -0.014 A 
BRANCH  38  39
ATOM     39  C   UNL A   1      43.128  25.004  27.275  1.00  0.00     0.031 A 
ATOM     40  C   UNL A   1      42.169  25.974  27.905  1.00  0.00     0.074 A 
ATOM     41  C   UNL A   1      44.355  25.415  26.896  1.00  0.00     0.049 A 
ATOM     42  N   UNL A   1      42.348  27.235  28.200  1.00  0.00    -0.248 NA
ATOM     43  C   UNL A   1      40.821  25.471  28.218  1.00  0.00     0.031 C 
ATOM     44  C   UNL A   1      45.343  24.593  26.193  1.00  0.00     0.029 A 
ATOM     45  N   UNL A   1      44.971  26.635  27.025  1.00  0.00    -0.354 N 
ATOM     46  C   UNL A   1      41.131  27.686  28.696  1.00  0.00     0.074 A 
ATOM     47  C   UNL A   1      40.210  26.572  28.633  1.00  0.00     0.031 C 
ATOM     48  C   UNL A   1      46.438  25.332  25.953  1.00  0.00     0.029 A 
ATOM     49  C   UNL A   1      46.226  26.682  26.466  1.00  0.00     0.049 A 
ATOM     50  H   UNL A   1      44.552  27.405  27.474  1.00  0.00     0.167 HD
ATOM     51  C   UNL A   1      40.815  28.906  29.190  1.00  0.00     0.034 A 
ATOM     52  C   UNL A   1      47.107  27.698  26.378  1.00  0.00     0.034 A 
ATOM     53  C   UNL A   1      41.749  29.994  29.304  1.00  0.00     0.049 A 
ATOM     54  C   UNL A   1      46.757  29.023  26.998  1.00  0.00     0.074 A 
ATOM     55  C   UNL A   1      41.558  31.235  29.883  1.00  0.00     0.029 A 
ATOM     56  N   UNL A   1      43.051  29.970  28.827  1.00  0.00    -0.354 N 
ATOM     57  N   UNL A   1      45.660  29.376  27.625  1.00  0.00    -0.248 NA
ATOM     58  C   UNL A   1      47.780  30.077  26.939  1.00  0.00     0.031 C 
ATOM     59  C   UNL A   1      42.743  31.968  29.745  1.00  0.00     0.029 A 
ATOM     60  C   UNL A   1      43.675  31.176  29.094  1.00  0.00     0.049 A 
ATOM     61  H   UNL A   1      43.470  29.208  28.366  1.00  0.00     0.167 HD
ATOM     62  C   UNL A   1      45.873  30.678  28.062  1.00  0.00     0.074 A 
ATOM     63  C   UNL A   1      47.213  31.043  27.650  1.00  0.00     0.031 C 
ATOM     64  C   UNL A   1      45.029  31.503  28.730  1.00  0.00     0.034 A 
BRANCH  51  65
ATOM     65  C   UNL A   1      39.417  29.110  29.711  1.00  0.00     0.023 A 
ATOM     66  C   UNL A   1      39.106  28.711  31.028  1.00  0.00     0.012 A 
ATOM     67  C   UNL A   1      38.430  29.740  28.928  1.00  0.00     0.148 A 
ATOM     68  C   UNL A   1      37.826  28.904  31.545  1.00  0.00     0.002 A 
ATOM     69  C   UNL A   1      37.169  29.968  29.467  1.00  0.00     0.091 A 
ATOM     70  F   UNL A   1      38.737  30.092  27.672  1.00  0.00    -0.205 F 
ATOM     71  C   UNL A   1      36.862  29.542  30.769  1.00  0.00     0.022 A 
BRANCH  69  72
ATOM     72  S   UNL A   1      35.881  30.849  28.575  1.00  0.00     0.127 S 
ATOM     73  O   UNL A   1      36.631  31.966  28.003  1.00  0.00    -0.237 OA
ATOM     74  O   UNL A   1      35.441  29.849  27.602  1.00  0.00    -0.237 OA
ATOM     75  O   UNL A   1      34.880  31.209  29.570  1.00  0.00    -0.744 OA
ENDBRANCH  69  72
ENDBRANCH  51  65
BRANCH  52  76
ATOM     76  C   UNL A   1      48.441  27.472  25.752  1.00  0.00     0.023 A 
ATOM     77  C   UNL A   1      49.519  27.060  26.559  1.00  0.00     0.012 A 
ATOM     78  C   UNL A   1      48.640  27.625  24.367  1.00  0.00     0.148 A 
ATOM     79  C   UNL A   1      50.778  26.835  26.004  1.00  0.00     0.002 A 
ATOM     80  C   UNL A   1      49.884  27.347  23.811  1.00  0.00     0.091 A 
ATOM     81  F   UNL A   1      47.605  28.030  23.616  1.00  0.00    -0.205 F 
ATOM     82  C   UNL A   1      50.958  26.968  24.631  1.00  0.00     0.022 A 
BRANCH  80  83
ATOM     83  S   UNL A   1      50.170  27.365  22.038  1.00  0.00     0.127 S 
ATOM     84  O   UNL A   1      51.563  26.936  21.955  1.00  0.00    -0.237 OA
ATOM     85  O   UNL A   1      49.193  26.385  21.562  1.00  0.00    -0.237 OA
ATOM     86  O   UNL A   1      49.898  28.732  21.614  1.00  0.00    -0.744 OA
ENDBRANCH  80  83
ENDBRANCH  52  76
BRANCH  64  87
ATOM     87  C   UNL A   1      45.533  32.876  29.086  1.00  0.00     0.023 A 
ATOM     88  C   UNL A   1      45.311  33.952  28.205  1.00  0.00     0.012 A 
ATOM     89  C   UNL A   1      46.155  33.116  30.328  1.00  0.00     0.148 A 
ATOM     90  C   UNL A   1      45.726  35.240  28.539  1.00  0.00     0.002 A 
ATOM     91  C   UNL A   1      46.525  34.411  30.674  1.00  0.00     0.091 A 
ATOM     92  F   UNL A   1      46.377  32.076  31.145  1.00  0.00    -0.205 F 
ATOM     93  C   UNL A   1      46.321  35.472  29.777  1.00  0.00     0.022 A 
BRANCH  91  94
ATOM     94  S   UNL A   1      47.210  34.812  32.285  1.00  0.00     0.127 S 
ATOM     95  O   UNL A   1      48.443  34.026  32.290  1.00  0.00    -0.237 OA
ATOM     96  O   UNL A   1      47.409  36.259  32.190  1.00  0.00    -0.237 OA
ATOM     97  O   UNL A   1      46.203  34.408  33.257  1.00  0.00    -0.744 OA
ENDBRANCH  91  94
ENDBRANCH  64  87
ENDBRANCH  38  39
ENDBRANCH  30  33
ENDBRANCH  28  29
ENDBRANCH  27  28
ENDBRANCH   1  27
TORSDOF 18
ENDMDL
MODEL 3
REMARK VINA RESULT:     -11.6      5.207     10.209
REMARK SMILES Cc1csc([C@H](C)Nc2cc(C)c(N)c(C(=O)NCCCCNC(=O)c3ccc(-c4c5nc(c(-c6cccc(S(=O)(=O)[O-])c6F)c6ccc([nH]6)c(-c6cccc(S(=O)(=O)[O-])c6F)c6nc(c(-c7cccc(S(=O)(=O)[O-])c7F)c7ccc4[nH]7)C=C6)C=C5)cc3)c2)n1
REMARK SMILES IDX 20 1 19 2 18 3 16 4 17 5 15 7 9 8 10 9 89 10 11 11 12 12
REMARK SMILES IDX 13 13 8 14 6 16 7 17 5 18 1 19 2 20 3 21 90 22 4 23 14 24
REMARK SMILES IDX 21 27 22 28 23 29 24 30 25 32 26 33 27 34 88 35 28 36 87 37
REMARK SMILES IDX 29 38 30 39 31 40 81 41 32 42 86 43 80 44 82 45 33 46 85 47
REMARK SMILES IDX 79 48 78 49 34 51 66 52 46 53 65 54 47 55 50 56 64 57 83 58
REMARK SMILES IDX 48 59 49 60 63 62 84 63 51 64 35 65 36 66 44 67 37 68 39 69
REMARK SMILES IDX 45 70 38 71 40 72 41 73 42 74 43 75 67 76 68 77 76 78 69 79
REMARK SMILES IDX 71 80 77 81 70 82 72 83 73 84 74 85 75 86 52 87 53 88 61 89
REMARK SMILES IDX 54 90 56 91 62 92 55 93 57 94 58 95 59 96 60 97
REMARK H PARENT 18 6 8 15 14 25 14 26 23 31 82 50 50 61
REMARK Flexibility Score: inf
ROOT
ATOM      1  C   UNL A   1      36.892  21.953  24.477  1.00  0.00     0.023 C 
ENDROOT
BRANCH   1   2
ATOM      2  C   UNL A   1      36.469  22.987  25.524  1.00  0.00     0.116 C 
BRANCH   2   3
ATOM      3  N   UNL A   1      35.610  22.382  26.522  1.00  0.00    -0.352 N 
ATOM      4  C   UNL A   1      34.364  21.802  26.478  1.00  0.00     0.253 C 
ATOM      5  O   UNL A   1      33.923  21.404  27.562  1.00  0.00    -0.269 OA
ATOM      6  H   UNL A   1      36.002  22.388  27.426  1.00  0.00     0.163 HD
BRANCH   4   7
ATOM      7  C   UNL A   1      33.543  21.610  25.230  1.00  0.00     0.065 A 
ATOM      8  C   UNL A   1      32.198  22.520  23.385  1.00  0.00     0.036 A 
ATOM      9  C   UNL A   1      32.042  21.238  22.873  1.00  0.00     0.031 A 
ATOM     10  C   UNL A   1      32.934  22.678  24.562  1.00  0.00     0.041 A 
ATOM     11  C   UNL A   1      32.579  20.122  23.539  1.00  0.00    -0.025 A 
ATOM     12  C   UNL A   1      32.361  18.754  22.951  1.00  0.00     0.046 C 
ATOM     13  C   UNL A   1      33.323  20.297  24.731  1.00  0.00     0.047 A 
BRANCH   8  14
ATOM     14  N   UNL A   1      31.826  23.668  22.704  1.00  0.00    -0.376 N 
ATOM     15  H   UNL A   1      30.996  23.651  22.174  1.00  0.00     0.161 HD
BRANCH  14  16
ATOM     16  C   UNL A   1      32.611  24.908  22.735  1.00  0.00     0.135 C 
ATOM     17  C   UNL A   1      32.819  25.290  21.260  1.00  0.00     0.039 C 
BRANCH  16  18
ATOM     18  C   UNL A   1      31.960  26.034  23.541  1.00  0.00     0.115 A 
ATOM     19  C   UNL A   1      31.440  27.627  26.739  1.00  0.00     0.067 C 
ATOM     20  C   UNL A   1      31.395  27.291  25.293  1.00  0.00     0.049 A 
ATOM     21  C   UNL A   1      30.748  27.999  24.301  1.00  0.00     0.090 A 
ATOM     22  N   UNL A   1      32.067  26.164  24.853  1.00  0.00    -0.244 NA
ATOM     23  S   UNL A   1      31.050  27.286  22.777  1.00  0.00    -0.125 S 
ENDBRANCH  16  18
ENDBRANCH  14  16
ENDBRANCH   8  14
BRANCH  13  24
ATOM     24  N   UNL A   1      33.963  19.187  25.301  1.00  0.00    -0.398 N 
ATOM     25  H   UNL A   1      34.707  18.750  24.827  1.00  0.00     0.156 HD
ATOM     26  H   UNL A   1      33.667  18.845  26.176  1.00  0.00     0.156 HD
ENDBRANCH  13  24
ENDBRANCH   4   7
ENDBRANCH   2   3
ENDBRANCH   1   2
BRANCH   1  27
ATOM     27  C   UNL A   1      37.769  20.821  25.023  1.00  0.00     0.023 C 
BRANCH  27  28
ATOM     28  C   UNL A   1      38.956  21.277  25.863  1.00  0.00     0.116 C 
BRANCH  28  29
ATOM     29  N   UNL A   1      39.981  20.254  26.016  1.00  0.00    -0.352 N 
ATOM     30  C   UNL A   1      41.298  20.413  26.380  1.00  0.00     0.251 C 
ATOM     31  H   UNL A   1      39.694  19.330  25.836  1.00  0.00     0.163 HD
ATOM     32  O   UNL A   1      42.062  19.458  26.366  1.00  0.00    -0.269 OA
BRANCH  30  33
ATOM     33  C   UNL A   1      41.786  21.759  26.744  1.00  0.00     0.039 A 
ATOM     34  C   UNL A   1      42.001  22.693  25.727  1.00  0.00     0.014 A 
ATOM     35  C   UNL A   1      41.993  22.109  28.081  1.00  0.00     0.014 A 
ATOM     36  C   UNL A   1      42.366  23.999  26.057  1.00  0.00     0.010 A 
ATOM     37  C   UNL A   1      42.290  23.427  28.410  1.00  0.00     0.010 A 
ATOM     38  C   UNL A   1      42.481  24.385  27.402  1.00  0.00    -0.014 A 
BRANCH  38  39
ATOM     39  C   UNL A   1      42.783  25.788  27.777  1.00  0.00     0.031 A 
ATOM     40  C   UNL A   1      44.196  26.299  27.726  1.00  0.00     0.074 A 
ATOM     41  C   UNL A   1      41.797  26.572  28.257  1.00  0.00     0.049 A 
ATOM     42  N   UNL A   1      44.659  27.475  28.063  1.00  0.00    -0.248 NA
ATOM     43  C   UNL A   1      45.230  25.357  27.265  1.00  0.00     0.031 C 
ATOM     44  C   UNL A   1      40.403  26.161  28.442  1.00  0.00     0.029 A 
ATOM     45  N   UNL A   1      41.821  27.870  28.702  1.00  0.00    -0.354 N 
ATOM     46  C   UNL A   1      46.036  27.403  27.892  1.00  0.00     0.074 A 
ATOM     47  C   UNL A   1      46.339  26.059  27.452  1.00  0.00     0.031 C 
ATOM     48  C   UNL A   1      39.708  27.184  28.962  1.00  0.00     0.029 A 
ATOM     49  C   UNL A   1      40.606  28.317  29.165  1.00  0.00     0.049 A 
ATOM     50  H   UNL A   1      42.632  28.428  28.693  1.00  0.00     0.167 HD
ATOM     51  C   UNL A   1      46.962  28.377  28.055  1.00  0.00     0.034 A 
ATOM     52  C   UNL A   1      40.255  29.506  29.693  1.00  0.00     0.034 A 
ATOM     53  C   UNL A   1      46.651  29.728  28.437  1.00  0.00     0.049 A 
ATOM     54  C   UNL A   1      41.290  30.593  29.796  1.00  0.00     0.074 A 
ATOM     55  C   UNL A   1      47.502  30.814  28.530  1.00  0.00     0.029 A 
ATOM     56  N   UNL A   1      45.388  30.177  28.792  1.00  0.00    -0.354 N 
ATOM     57  N   UNL A   1      42.557  30.559  29.459  1.00  0.00    -0.248 NA
ATOM     58  C   UNL A   1      40.841  31.894  30.311  1.00  0.00     0.031 C 
ATOM     59  C   UNL A   1      46.755  31.919  28.954  1.00  0.00     0.029 A 
ATOM     60  C   UNL A   1      45.436  31.523  29.110  1.00  0.00     0.049 A 
ATOM     61  H   UNL A   1      44.577  29.620  28.816  1.00  0.00     0.167 HD
ATOM     62  C   UNL A   1      43.047  31.840  29.689  1.00  0.00     0.074 A 
ATOM     63  C   UNL A   1      41.934  32.632  30.173  1.00  0.00     0.031 C 
ATOM     64  C   UNL A   1      44.308  32.313  29.532  1.00  0.00     0.034 A 
BRANCH  51  65
ATOM     65  C   UNL A   1      48.397  28.035  27.750  1.00  0.00     0.023 A 
ATOM     66  C   UNL A   1      48.890  28.225  26.442  1.00  0.00     0.012 A 
ATOM     67  C   UNL A   1      49.270  27.582  28.759  1.00  0.00     0.148 A 
ATOM     68  C   UNL A   1      50.218  27.935  26.135  1.00  0.00     0.002 A 
ATOM     69  C   UNL A   1      50.604  27.338  28.453  1.00  0.00     0.091 A 
ATOM     70  F   UNL A   1      48.779  27.387  29.991  1.00  0.00    -0.205 F 
ATOM     71  C   UNL A   1      51.077  27.503  27.141  1.00  0.00     0.022 A 
BRANCH  69  72
ATOM     72  S   UNL A   1      51.807  26.850  29.696  1.00  0.00     0.127 S 
ATOM     73  O   UNL A   1      51.813  28.018  30.575  1.00  0.00    -0.237 OA
ATOM     74  O   UNL A   1      51.188  25.656  30.273  1.00  0.00    -0.237 OA
ATOM     75  O   UNL A   1      53.048  26.601  28.975  1.00  0.00    -0.744 OA
ENDBRANCH  69  72
ENDBRANCH  51  65
BRANCH  52  76
ATOM     76  C   UNL A   1      38.838  29.757  30.081  1.00  0.00     0.023 A 
ATOM     77  C   UNL A   1      38.413  29.434  31.384  1.00  0.00     0.012 A 
ATOM     78  C   UNL A   1      37.922  30.344  29.187  1.00  0.00     0.148 A 
ATOM     79  C   UNL A   1      37.096  29.660  31.781  1.00  0.00     0.002 A 
ATOM     80  C   UNL A   1      36.624  30.618  29.606  1.00  0.00     0.091 A 
ATOM     81  F   UNL A   1      38.341  30.635  27.946  1.00  0.00    -0.205 F 
ATOM     82  C   UNL A   1      36.205  30.261  30.896  1.00  0.00     0.022 A 
BRANCH  80  83
ATOM     83  S   UNL A   1      35.451  31.509  28.577  1.00  0.00     0.127 S 
ATOM     84  O   UNL A   1      36.299  32.532  27.973  1.00  0.00    -0.237 OA
ATOM     85  O   UNL A   1      34.996  30.463  27.660  1.00  0.00    -0.237 OA
ATOM     86  O   UNL A   1      34.423  31.991  29.490  1.00  0.00    -0.744 OA
ENDBRANCH  80  83
ENDBRANCH  52  76
BRANCH  64  87
ATOM     87  C   UNL A   1      44.555  33.762  29.855  1.00  0.00     0.023 A 
ATOM     88  C   UNL A   1      44.948  34.129  31.157  1.00  0.00     0.012 A 
ATOM     89  C   UNL A   1      44.476  34.748  28.852  1.00  0.00     0.148 A 
ATOM     90  C   UNL A   1      45.230  35.459  31.464  1.00  0.00     0.002 A 
ATOM     91  C   UNL A   1      44.802  36.065  29.153  1.00  0.00     0.091 A 
ATOM     92  F   UNL A   1      44.079  34.383  27.624  1.00  0.00    -0.205 F 
ATOM     93  C   UNL A   1      45.169  36.425  30.460  1.00  0.00     0.022 A 
BRANCH  91  94
ATOM     94  S   UNL A   1      44.842  37.353  27.901  1.00  0.00     0.127 S 
ATOM     95  O   UNL A   1      43.421  37.533  27.612  1.00  0.00    -0.237 OA
ATOM     96  O   UNL A   1      45.465  38.467  28.617  1.00  0.00    -0.237 OA
ATOM     97  O   UNL A   1      45.644  36.819  26.808  1.00  0.00    -0.744 OA
ENDBRANCH  91  94
ENDBRANCH  64  87
ENDBRANCH  38  39
ENDBRANCH  30  33
ENDBRANCH  28  29
ENDBRANCH  27  28
ENDBRANCH   1  27
TORSDOF 18
ENDMDL
