MODEL 1
REMARK VINA RESULT:     -11.5      0.000      0.000
REMARK SMILES O=C(CCn1cc(Cl)c([N+](=O)[O-])n1)NCCCCNC(=O)c1ccc(-c2c3nc(c(-c4cccc(S(=O)(=O)[O-])c4F)c4ccc([nH]4)c(-c4cccc(S(=O)(=O)[O-])c4F)c4nc(c(-c5cccc(S(=O)(=O)[O-])c5F)c5ccc2[nH]5)C=C4)C=C3)cc1
REMARK SMILES IDX 16 1 15 2 14 3 1 4 2 5 3 7 4 8 5 9 6 10 13 11 7 12 9 13 8 14
REMARK SMILES IDX 10 15 11 16 12 17 17 18 18 19 19 20 20 21 21 23 22 24 23 25
REMARK SMILES IDX 84 26 24 27 83 28 25 29 26 30 27 31 77 32 28 33 82 34 76 35
REMARK SMILES IDX 78 36 29 37 81 38 75 39 74 40 30 42 62 43 42 44 61 45 43 46
REMARK SMILES IDX 46 47 60 48 79 49 44 50 45 51 59 53 80 54 47 55 31 56 32 57
REMARK SMILES IDX 40 58 33 59 35 60 41 61 34 62 36 63 37 64 38 65 39 66 63 67
REMARK SMILES IDX 64 68 72 69 65 70 67 71 73 72 66 73 68 74 69 75 70 76 71 77
REMARK SMILES IDX 48 78 49 79 57 80 50 81 52 82 58 83 51 84 53 85 54 86 55 87
REMARK SMILES IDX 56 88
REMARK H PARENT 14 6 19 22 78 41 46 52
REMARK Flexibility Score: inf
ROOT
ATOM      1  C   UNL A   1      35.363  24.172  24.594  1.00  0.00     0.023 C 
ENDROOT
BRANCH   1   2
ATOM      2  C   UNL A   1      33.862  24.218  24.911  1.00  0.00     0.116 C 
BRANCH   2   3
ATOM      3  N   UNL A   1      33.300  22.953  25.340  1.00  0.00    -0.356 N 
ATOM      4  O   UNL A   1      32.852  22.126  23.245  1.00  0.00    -0.275 OA
ATOM      5  C   UNL A   1      32.909  21.965  24.463  1.00  0.00     0.221 C 
ATOM      6  H   UNL A   1      33.193  22.791  26.305  1.00  0.00     0.163 HD
BRANCH   5   7
ATOM      7  C   UNL A   1      32.519  20.643  25.103  1.00  0.00     0.125 C 
BRANCH   7   8
ATOM      8  C   UNL A   1      32.535  19.479  24.108  1.00  0.00     0.179 C 
BRANCH   8   9
ATOM      9  N   UNL A   1      33.116  18.247  24.622  1.00  0.00    -0.178 N 
ATOM     10  C   UNL A   1      34.442  17.928  24.658  1.00  0.00     0.161 A 
ATOM     11  N   UNL A   1      32.318  17.249  25.066  1.00  0.00     0.061 NA
ATOM     12  C   UNL A   1      34.523  16.636  25.129  1.00  0.00     0.160 A 
ATOM     13  C   UNL A   1      33.187  16.256  25.345  1.00  0.00     0.408 A 
ATOM     14  Cl  UNL A   1      35.935  15.734  25.346  1.00  0.00    -0.073 Cl
BRANCH  13  15
ATOM     15  N   UNL A   1      32.608  15.020  25.821  1.00  0.00    -0.020 N 
ATOM     16  O   UNL A   1      33.131  13.960  25.469  1.00  0.00    -0.358 OA
ATOM     17  O   UNL A   1      31.653  15.100  26.614  1.00  0.00    -0.358 OA
ENDBRANCH  13  15
ENDBRANCH   8   9
ENDBRANCH   7   8
ENDBRANCH   5   7
ENDBRANCH   2   3
ENDBRANCH   1   2
BRANCH   1  18
ATOM     18  C   UNL A   1      36.243  23.288  25.490  1.00  0.00     0.023 C 
BRANCH  18  19
ATOM     19  C   UNL A   1      37.682  23.757  25.672  1.00  0.00     0.116 C 
BRANCH  19  20
ATOM     20  N   UNL A   1      38.597  22.689  26.074  1.00  0.00    -0.352 N 
ATOM     21  C   UNL A   1      39.829  22.823  26.694  1.00  0.00     0.251 C 
ATOM     22  H   UNL A   1      38.304  21.769  25.882  1.00  0.00     0.163 HD
ATOM     23  O   UNL A   1      40.668  21.937  26.608  1.00  0.00    -0.269 OA
BRANCH  21  24
ATOM     24  C   UNL A   1      40.117  24.049  27.472  1.00  0.00     0.039 A 
ATOM     25  C   UNL A   1      41.418  24.357  27.881  1.00  0.00     0.014 A 
ATOM     26  C   UNL A   1      39.057  24.886  27.807  1.00  0.00     0.014 A 
ATOM     27  C   UNL A   1      41.651  25.546  28.578  1.00  0.00     0.010 A 
ATOM     28  C   UNL A   1      39.306  26.116  28.370  1.00  0.00     0.010 A 
ATOM     29  C   UNL A   1      40.590  26.431  28.815  1.00  0.00    -0.014 A 
BRANCH  29  30
ATOM     30  C   UNL A   1      40.827  27.748  29.419  1.00  0.00     0.031 A 
ATOM     31  C   UNL A   1      41.771  28.635  28.670  1.00  0.00     0.074 A 
ATOM     32  C   UNL A   1      40.037  28.244  30.400  1.00  0.00     0.049 A 
ATOM     33  N   UNL A   1      42.849  29.218  29.083  1.00  0.00    -0.248 NA
ATOM     34  C   UNL A   1      41.520  28.827  27.239  1.00  0.00     0.031 C 
ATOM     35  C   UNL A   1      38.849  27.619  31.002  1.00  0.00     0.029 A 
ATOM     36  N   UNL A   1      40.014  29.496  30.938  1.00  0.00    -0.354 N 
ATOM     37  C   UNL A   1      43.277  30.025  28.022  1.00  0.00     0.074 A 
ATOM     38  C   UNL A   1      42.528  29.614  26.869  1.00  0.00     0.031 C 
ATOM     39  C   UNL A   1      38.081  28.571  31.573  1.00  0.00     0.029 A 
ATOM     40  C   UNL A   1      38.799  29.829  31.535  1.00  0.00     0.049 A 
ATOM     41  H   UNL A   1      40.784  30.108  30.909  1.00  0.00     0.167 HD
ATOM     42  C   UNL A   1      44.043  31.133  28.226  1.00  0.00     0.034 A 
ATOM     43  C   UNL A   1      38.384  31.062  31.914  1.00  0.00     0.034 A 
ATOM     44  C   UNL A   1      44.665  31.104  29.525  1.00  0.00     0.049 A 
ATOM     45  C   UNL A   1      39.587  31.919  32.008  1.00  0.00     0.074 A 
ATOM     46  C   UNL A   1      45.472  30.209  30.199  1.00  0.00     0.029 A 
ATOM     47  N   UNL A   1      44.152  31.938  30.488  1.00  0.00    -0.354 N 
ATOM     48  N   UNL A   1      40.525  31.752  32.896  1.00  0.00    -0.248 NA
ATOM     49  C   UNL A   1      39.950  32.708  30.845  1.00  0.00     0.031 C 
ATOM     50  C   UNL A   1      44.977  30.219  31.537  1.00  0.00     0.029 A 
ATOM     51  C   UNL A   1      43.963  31.176  31.609  1.00  0.00     0.049 A 
ATOM     52  H   UNL A   1      43.957  32.899  30.392  1.00  0.00     0.167 HD
ATOM     53  C   UNL A   1      41.699  32.001  32.198  1.00  0.00     0.074 A 
ATOM     54  C   UNL A   1      41.278  32.689  30.980  1.00  0.00     0.031 C 
ATOM     55  C   UNL A   1      42.866  31.369  32.528  1.00  0.00     0.034 A 
BRANCH  42  56
ATOM     56  C   UNL A   1      43.951  32.421  27.429  1.00  0.00     0.023 A 
ATOM     57  C   UNL A   1      44.644  32.462  26.196  1.00  0.00     0.012 A 
ATOM     58  C   UNL A   1      43.490  33.658  27.939  1.00  0.00     0.148 A 
ATOM     59  C   UNL A   1      44.941  33.670  25.554  1.00  0.00     0.002 A 
ATOM     60  C   UNL A   1      43.720  34.850  27.257  1.00  0.00     0.091 A 
ATOM     61  F   UNL A   1      42.938  33.723  29.153  1.00  0.00    -0.205 F 
ATOM     62  C   UNL A   1      44.477  34.866  26.085  1.00  0.00     0.022 A 
BRANCH  60  63
ATOM     63  S   UNL A   1      43.099  36.424  27.867  1.00  0.00     0.127 S 
ATOM     64  O   UNL A   1      43.901  36.608  29.073  1.00  0.00    -0.237 OA
ATOM     65  O   UNL A   1      43.428  37.326  26.761  1.00  0.00    -0.237 OA
ATOM     66  O   UNL A   1      41.669  36.230  28.067  1.00  0.00    -0.744 OA
ENDBRANCH  60  63
ENDBRANCH  42  56
BRANCH  43  67
ATOM     67  C   UNL A   1      37.022  31.640  31.972  1.00  0.00     0.023 A 
ATOM     68  C   UNL A   1      36.486  32.017  33.221  1.00  0.00     0.012 A 
ATOM     69  C   UNL A   1      36.374  32.094  30.802  1.00  0.00     0.148 A 
ATOM     70  C   UNL A   1      35.368  32.854  33.302  1.00  0.00     0.002 A 
ATOM     71  C   UNL A   1      35.261  32.929  30.887  1.00  0.00     0.091 A 
ATOM     72  F   UNL A   1      36.901  31.789  29.609  1.00  0.00    -0.205 F 
ATOM     73  C   UNL A   1      34.762  33.320  32.137  1.00  0.00     0.022 A 
BRANCH  71  74
ATOM     74  S   UNL A   1      34.460  33.606  29.424  1.00  0.00     0.127 S 
ATOM     75  O   UNL A   1      33.355  34.367  30.005  1.00  0.00    -0.237 OA
ATOM     76  O   UNL A   1      35.524  34.416  28.837  1.00  0.00    -0.237 OA
ATOM     77  O   UNL A   1      34.046  32.462  28.616  1.00  0.00    -0.744 OA
ENDBRANCH  71  74
ENDBRANCH  43  67
BRANCH  55  78
ATOM     78  C   UNL A   1      42.933  30.598  33.821  1.00  0.00     0.023 A 
ATOM     79  C   UNL A   1      43.155  31.216  35.069  1.00  0.00     0.012 A 
ATOM     80  C   UNL A   1      42.592  29.235  33.792  1.00  0.00     0.148 A 
ATOM     81  C   UNL A   1      43.069  30.485  36.256  1.00  0.00     0.002 A 
ATOM     82  C   UNL A   1      42.459  28.523  34.978  1.00  0.00     0.091 A 
ATOM     83  F   UNL A   1      42.382  28.656  32.600  1.00  0.00    -0.205 F 
ATOM     84  C   UNL A   1      42.707  29.141  36.212  1.00  0.00     0.022 A 
BRANCH  82  85
ATOM     85  S   UNL A   1      41.872  26.828  34.976  1.00  0.00     0.127 S 
ATOM     86  O   UNL A   1      42.950  26.133  34.278  1.00  0.00    -0.237 OA
ATOM     87  O   UNL A   1      41.772  26.523  36.404  1.00  0.00    -0.237 OA
ATOM     88  O   UNL A   1      40.587  26.857  34.287  1.00  0.00    -0.744 OA
ENDBRANCH  82  85
ENDBRANCH  55  78
ENDBRANCH  29  30
ENDBRANCH  21  24
ENDBRANCH  19  20
ENDBRANCH  18  19
ENDBRANCH   1  18
TORSDOF 17
ENDMDL
MODEL 2
REMARK VINA RESULT:     -11.3      3.839      6.387
REMARK SMILES O=C(CCn1cc(Cl)c([N+](=O)[O-])n1)NCCCCNC(=O)c1ccc(-c2c3nc(c(-c4cccc(S(=O)(=O)[O-])c4F)c4ccc([nH]4)c(-c4cccc(S(=O)(=O)[O-])c4F)c4nc(c(-c5cccc(S(=O)(=O)[O-])c5F)c5ccc2[nH]5)C=C4)C=C3)cc1
REMARK SMILES IDX 16 1 15 2 14 3 1 4 2 5 3 7 4 8 5 9 6 10 13 11 7 12 9 13 8 14
REMARK SMILES IDX 10 15 11 16 12 17 17 18 18 19 19 20 20 21 21 23 22 24 23 25
REMARK SMILES IDX 84 26 24 27 83 28 25 29 26 30 27 31 77 32 28 33 82 34 76 35
REMARK SMILES IDX 78 36 29 37 81 38 75 39 74 40 30 42 62 43 42 44 61 45 43 46
REMARK SMILES IDX 46 47 60 48 79 49 44 50 45 51 59 53 80 54 47 55 31 56 32 57
REMARK SMILES IDX 40 58 33 59 35 60 41 61 34 62 36 63 37 64 38 65 39 66 63 67
REMARK SMILES IDX 64 68 72 69 65 70 67 71 73 72 66 73 68 74 69 75 70 76 71 77
REMARK SMILES IDX 48 78 49 79 57 80 50 81 52 82 58 83 51 84 53 85 54 86 55 87
REMARK SMILES IDX 56 88
REMARK H PARENT 14 6 19 22 78 41 46 52
REMARK Flexibility Score: inf
ROOT
ATOM      1  C   UNL A   1      41.827  19.140  26.268  1.00  0.00     0.023 C 
ENDROOT
BRANCH   1   2
ATOM      2  C   UNL A   1      43.190  18.803  25.650  1.00  0.00     0.116 C 
BRANCH   2   3
ATOM      3  N   UNL A   1      43.936  19.952  25.176  1.00  0.00    -0.356 N 
ATOM      4  O   UNL A   1      45.568  18.782  24.062  1.00  0.00    -0.275 OA
ATOM      5  C   UNL A   1      45.030  19.851  24.345  1.00  0.00     0.221 C 
ATOM      6  H   UNL A   1      43.645  20.848  25.461  1.00  0.00     0.163 HD
BRANCH   5   7
ATOM      7  C   UNL A   1      45.563  21.169  23.807  1.00  0.00     0.125 C 
BRANCH   7   8
ATOM      8  C   UNL A   1      46.148  22.060  24.907  1.00  0.00     0.179 C 
BRANCH   8   9
ATOM      9  N   UNL A   1      45.501  23.357  25.046  1.00  0.00    -0.178 N 
ATOM     10  C   UNL A   1      44.158  23.599  25.035  1.00  0.00     0.161 A 
ATOM     11  N   UNL A   1      46.243  24.484  25.135  1.00  0.00     0.061 NA
ATOM     12  C   UNL A   1      44.005  24.967  25.096  1.00  0.00     0.160 A 
ATOM     13  C   UNL A   1      45.319  25.467  25.134  1.00  0.00     0.408 A 
ATOM     14  Cl  UNL A   1      42.544  25.815  25.085  1.00  0.00    -0.073 Cl
BRANCH  13  15
ATOM     15  N   UNL A   1      45.828  26.818  25.190  1.00  0.00    -0.020 N 
ATOM     16  O   UNL A   1      45.727  27.433  26.255  1.00  0.00    -0.358 OA
ATOM     17  O   UNL A   1      46.399  27.261  24.178  1.00  0.00    -0.358 OA
ENDBRANCH  13  15
ENDBRANCH   8   9
ENDBRANCH   7   8
ENDBRANCH   5   7
ENDBRANCH   2   3
ENDBRANCH   1   2
BRANCH   1  18
ATOM     18  C   UNL A   1      41.829  19.828  27.641  1.00  0.00     0.023 C 
BRANCH  18  19
ATOM     19  C   UNL A   1      41.105  21.167  27.710  1.00  0.00     0.116 C 
BRANCH  19  20
ATOM     20  N   UNL A   1      40.160  21.376  26.613  1.00  0.00    -0.352 N 
ATOM     21  C   UNL A   1      39.346  22.476  26.399  1.00  0.00     0.251 C 
ATOM     22  H   UNL A   1      40.095  20.650  25.951  1.00  0.00     0.163 HD
ATOM     23  O   UNL A   1      38.331  22.377  25.724  1.00  0.00    -0.269 OA
BRANCH  21  24
ATOM     24  C   UNL A   1      39.723  23.779  26.990  1.00  0.00     0.039 A 
ATOM     25  C   UNL A   1      38.875  24.889  26.897  1.00  0.00     0.014 A 
ATOM     26  C   UNL A   1      40.954  23.887  27.630  1.00  0.00     0.014 A 
ATOM     27  C   UNL A   1      39.252  26.089  27.506  1.00  0.00     0.010 A 
ATOM     28  C   UNL A   1      41.260  25.023  28.342  1.00  0.00     0.010 A 
ATOM     29  C   UNL A   1      40.447  26.151  28.238  1.00  0.00    -0.014 A 
BRANCH  29  30
ATOM     30  C   UNL A   1      40.800  27.353  29.003  1.00  0.00     0.031 A 
ATOM     31  C   UNL A   1      41.824  28.239  28.366  1.00  0.00     0.074 A 
ATOM     32  C   UNL A   1      40.056  27.788  30.046  1.00  0.00     0.049 A 
ATOM     33  N   UNL A   1      42.949  28.665  28.841  1.00  0.00    -0.248 NA
ATOM     34  C   UNL A   1      41.596  28.636  26.974  1.00  0.00     0.031 C 
ATOM     35  C   UNL A   1      38.814  27.200  30.574  1.00  0.00     0.029 A 
ATOM     36  N   UNL A   1      40.145  28.957  30.741  1.00  0.00    -0.354 N 
ATOM     37  C   UNL A   1      43.452  29.560  27.888  1.00  0.00     0.074 A 
ATOM     38  C   UNL A   1      42.671  29.370  26.699  1.00  0.00     0.031 C 
ATOM     39  C   UNL A   1      38.134  28.137  31.268  1.00  0.00     0.029 A 
ATOM     40  C   UNL A   1      38.963  29.320  31.386  1.00  0.00     0.049 A 
ATOM     41  H   UNL A   1      40.968  29.496  30.784  1.00  0.00     0.167 HD
ATOM     42  C   UNL A   1      44.314  30.559  28.226  1.00  0.00     0.034 A 
ATOM     43  C   UNL A   1      38.661  30.526  31.923  1.00  0.00     0.034 A 
ATOM     44  C   UNL A   1      44.927  30.307  29.506  1.00  0.00     0.049 A 
ATOM     45  C   UNL A   1      39.936  31.252  32.116  1.00  0.00     0.074 A 
ATOM     46  C   UNL A   1      45.647  29.263  30.052  1.00  0.00     0.029 A 
ATOM     47  N   UNL A   1      44.488  31.053  30.572  1.00  0.00    -0.354 N 
ATOM     48  N   UNL A   1      40.853  30.887  32.967  1.00  0.00    -0.248 NA
ATOM     49  C   UNL A   1      40.373  32.148  31.060  1.00  0.00     0.031 C 
ATOM     50  C   UNL A   1      45.151  29.145  31.384  1.00  0.00     0.029 A 
ATOM     51  C   UNL A   1      44.228  30.173  31.587  1.00  0.00     0.049 A 
ATOM     52  H   UNL A   1      44.382  32.032  30.601  1.00  0.00     0.167 HD
ATOM     53  C   UNL A   1      42.046  31.117  32.297  1.00  0.00     0.074 A 
ATOM     54  C   UNL A   1      41.693  31.992  31.180  1.00  0.00     0.031 C 
ATOM     55  C   UNL A   1      43.150  30.345  32.532  1.00  0.00     0.034 A 
BRANCH  42  56
ATOM     56  C   UNL A   1      44.342  31.941  27.602  1.00  0.00     0.023 A 
ATOM     57  C   UNL A   1      45.334  32.182  26.622  1.00  0.00     0.012 A 
ATOM     58  C   UNL A   1      43.669  33.076  28.116  1.00  0.00     0.148 A 
ATOM     59  C   UNL A   1      45.700  33.479  26.242  1.00  0.00     0.002 A 
ATOM     60  C   UNL A   1      43.983  34.359  27.677  1.00  0.00     0.091 A 
ATOM     61  F   UNL A   1      42.810  32.948  29.129  1.00  0.00    -0.205 F 
ATOM     62  C   UNL A   1      45.023  34.569  26.770  1.00  0.00     0.022 A 
BRANCH  60  63
ATOM     63  S   UNL A   1      43.105  35.807  28.284  1.00  0.00     0.127 S 
ATOM     64  O   UNL A   1      43.630  35.920  29.642  1.00  0.00    -0.237 OA
ATOM     65  O   UNL A   1      43.559  36.845  27.357  1.00  0.00    -0.237 OA
ATOM     66  O   UNL A   1      41.689  35.485  28.165  1.00  0.00    -0.744 OA
ENDBRANCH  60  63
ENDBRANCH  42  56
BRANCH  43  67
ATOM     67  C   UNL A   1      37.356  31.213  32.067  1.00  0.00     0.023 A 
ATOM     68  C   UNL A   1      36.947  31.655  33.342  1.00  0.00     0.012 A 
ATOM     69  C   UNL A   1      36.660  31.695  30.936  1.00  0.00     0.148 A 
ATOM     70  C   UNL A   1      35.907  32.580  33.484  1.00  0.00     0.002 A 
ATOM     71  C   UNL A   1      35.626  32.618  31.082  1.00  0.00     0.091 A 
ATOM     72  F   UNL A   1      37.071  31.326  29.716  1.00  0.00    -0.205 F 
ATOM     73  C   UNL A   1      35.255  33.071  32.355  1.00  0.00     0.022 A 
BRANCH  71  74
ATOM     74  S   UNL A   1      34.774  33.330  29.665  1.00  0.00     0.127 S 
ATOM     75  O   UNL A   1      34.312  32.137  28.955  1.00  0.00    -0.237 OA
ATOM     76  O   UNL A   1      33.719  34.113  30.302  1.00  0.00    -0.237 OA
ATOM     77  O   UNL A   1      35.768  34.116  28.940  1.00  0.00    -0.744 OA
ENDBRANCH  71  74
ENDBRANCH  43  67
BRANCH  55  78
ATOM     78  C   UNL A   1      43.143  29.412  33.715  1.00  0.00     0.023 A 
ATOM     79  C   UNL A   1      42.790  28.051  33.614  1.00  0.00     0.012 A 
ATOM     80  C   UNL A   1      43.674  29.884  34.928  1.00  0.00     0.148 A 
ATOM     81  C   UNL A   1      42.934  27.189  34.704  1.00  0.00     0.002 A 
ATOM     82  C   UNL A   1      43.862  29.013  35.995  1.00  0.00     0.091 A 
ATOM     83  F   UNL A   1      44.008  31.181  35.015  1.00  0.00    -0.205 F 
ATOM     84  C   UNL A   1      43.483  27.668  35.891  1.00  0.00     0.022 A 
BRANCH  82  85
ATOM     85  S   UNL A   1      44.682  29.555  37.496  1.00  0.00     0.127 S 
ATOM     86  O   UNL A   1      45.942  30.085  36.981  1.00  0.00    -0.237 OA
ATOM     87  O   UNL A   1      43.760  30.566  38.016  1.00  0.00    -0.237 OA
ATOM     88  O   UNL A   1      44.791  28.368  38.336  1.00  0.00    -0.744 OA
ENDBRANCH  82  85
ENDBRANCH  55  78
ENDBRANCH  29  30
ENDBRANCH  21  24
ENDBRANCH  19  20
ENDBRANCH  18  19
ENDBRANCH   1  18
TORSDOF 17
ENDMDL
MODEL 3
REMARK VINA RESULT:     -11.3      4.493      9.432
REMARK SMILES O=C(CCn1cc(Cl)c([N+](=O)[O-])n1)NCCCCNC(=O)c1ccc(-c2c3nc(c(-c4cccc(S(=O)(=O)[O-])c4F)c4ccc([nH]4)c(-c4cccc(S(=O)(=O)[O-])c4F)c4nc(c(-c5cccc(S(=O)(=O)[O-])c5F)c5ccc2[nH]5)C=C4)C=C3)cc1
REMARK SMILES IDX 16 1 15 2 14 3 1 4 2 5 3 7 4 8 5 9 6 10 13 11 7 12 9 13 8 14
REMARK SMILES IDX 10 15 11 16 12 17 17 18 18 19 19 20 20 21 21 23 22 24 23 25
REMARK SMILES IDX 84 26 24 27 83 28 25 29 26 30 27 31 77 32 28 33 82 34 76 35
REMARK SMILES IDX 78 36 29 37 81 38 75 39 74 40 30 42 62 43 42 44 61 45 43 46
REMARK SMILES IDX 46 47 60 48 79 49 44 50 45 51 59 53 80 54 47 55 31 56 32 57
REMARK SMILES IDX 40 58 33 59 35 60 41 61 34 62 36 63 37 64 38 65 39 66 63 67
REMARK SMILES IDX 64 68 72 69 65 70 67 71 73 72 66 73 68 74 69 75 70 76 71 77
REMARK SMILES IDX 48 78 49 79 57 80 50 81 52 82 58 83 51 84 53 85 54 86 55 87
REMARK SMILES IDX 56 88
REMARK H PARENT 14 6 19 22 78 41 46 52
REMARK Flexibility Score: inf
ROOT
ATOM      1  C   UNL A   1      34.580  29.636  27.429  1.00  0.00     0.023 C 
ENDROOT
BRANCH   1   2
ATOM      2  C   UNL A   1      33.667  28.557  26.832  1.00  0.00     0.116 C 
BRANCH   2   3
ATOM      3  N   UNL A   1      33.904  28.277  25.430  1.00  0.00    -0.356 N 
ATOM      4  O   UNL A   1      32.248  29.631  24.594  1.00  0.00    -0.275 OA
ATOM      5  C   UNL A   1      33.222  28.904  24.410  1.00  0.00     0.221 C 
ATOM      6  H   UNL A   1      34.587  27.608  25.195  1.00  0.00     0.163 HD
BRANCH   5   7
ATOM      7  C   UNL A   1      33.738  28.617  23.010  1.00  0.00     0.125 C 
BRANCH   7   8
ATOM      8  C   UNL A   1      33.278  27.254  22.481  1.00  0.00     0.179 C 
BRANCH   8   9
ATOM      9  N   UNL A   1      32.051  26.751  23.083  1.00  0.00    -0.178 N 
ATOM     10  C   UNL A   1      30.778  27.125  22.763  1.00  0.00     0.161 A 
ATOM     11  N   UNL A   1      32.104  25.873  24.109  1.00  0.00     0.061 NA
ATOM     12  C   UNL A   1      29.944  26.474  23.645  1.00  0.00     0.160 A 
ATOM     13  C   UNL A   1      30.811  25.733  24.467  1.00  0.00     0.408 A 
ATOM     14  Cl  UNL A   1      28.261  26.600  23.713  1.00  0.00    -0.073 Cl
BRANCH  13  15
ATOM     15  N   UNL A   1      30.553  24.856  25.586  1.00  0.00    -0.020 N 
ATOM     16  O   UNL A   1      29.989  25.329  26.577  1.00  0.00    -0.358 OA
ATOM     17  O   UNL A   1      30.855  23.657  25.459  1.00  0.00    -0.358 OA
ENDBRANCH  13  15
ENDBRANCH   8   9
ENDBRANCH   7   8
ENDBRANCH   5   7
ENDBRANCH   2   3
ENDBRANCH   1   2
BRANCH   1  18
ATOM     18  C   UNL A   1      34.048  31.077  27.446  1.00  0.00     0.023 C 
BRANCH  18  19
ATOM     19  C   UNL A   1      35.075  32.157  27.763  1.00  0.00     0.116 C 
BRANCH  19  20
ATOM     20  N   UNL A   1      34.947  32.704  29.113  1.00  0.00    -0.352 N 
ATOM     21  C   UNL A   1      35.616  32.295  30.256  1.00  0.00     0.251 C 
ATOM     22  H   UNL A   1      34.312  33.449  29.224  1.00  0.00     0.163 HD
ATOM     23  O   UNL A   1      35.148  32.520  31.364  1.00  0.00    -0.269 OA
BRANCH  21  24
ATOM     24  C   UNL A   1      36.909  31.589  30.122  1.00  0.00     0.039 A 
ATOM     25  C   UNL A   1      38.108  32.295  29.975  1.00  0.00     0.014 A 
ATOM     26  C   UNL A   1      36.909  30.198  30.127  1.00  0.00     0.014 A 
ATOM     27  C   UNL A   1      39.311  31.589  29.894  1.00  0.00     0.010 A 
ATOM     28  C   UNL A   1      38.099  29.511  30.185  1.00  0.00     0.010 A 
ATOM     29  C   UNL A   1      39.305  30.191  30.008  1.00  0.00    -0.014 A 
BRANCH  29  30
ATOM     30  C   UNL A   1      40.560  29.434  30.067  1.00  0.00     0.031 A 
ATOM     31  C   UNL A   1      40.998  29.026  31.439  1.00  0.00     0.074 A 
ATOM     32  C   UNL A   1      41.125  28.885  28.965  1.00  0.00     0.049 A 
ATOM     33  N   UNL A   1      42.118  29.252  32.043  1.00  0.00    -0.248 NA
ATOM     34  C   UNL A   1      40.013  28.343  32.282  1.00  0.00     0.031 C 
ATOM     35  C   UNL A   1      40.617  28.914  27.585  1.00  0.00     0.029 A 
ATOM     36  N   UNL A   1      42.176  28.023  28.873  1.00  0.00    -0.354 N 
ATOM     37  C   UNL A   1      42.052  28.544  33.249  1.00  0.00     0.074 A 
ATOM     38  C   UNL A   1      40.682  28.152  33.417  1.00  0.00     0.031 C 
ATOM     39  C   UNL A   1      41.167  27.900  26.883  1.00  0.00     0.029 A 
ATOM     40  C   UNL A   1      42.185  27.271  27.699  1.00  0.00     0.049 A 
ATOM     41  H   UNL A   1      42.865  27.939  29.571  1.00  0.00     0.167 HD
ATOM     42  C   UNL A   1      43.174  28.126  33.900  1.00  0.00     0.034 A 
ATOM     43  C   UNL A   1      42.929  26.169  27.440  1.00  0.00     0.034 A 
ATOM     44  C   UNL A   1      44.338  28.841  33.441  1.00  0.00     0.049 A 
ATOM     45  C   UNL A   1      44.046  26.155  28.410  1.00  0.00     0.074 A 
ATOM     46  C   UNL A   1      44.684  30.174  33.337  1.00  0.00     0.029 A 
ATOM     47  N   UNL A   1      45.210  28.166  32.623  1.00  0.00    -0.354 N 
ATOM     48  N   UNL A   1      45.005  27.037  28.420  1.00  0.00    -0.248 NA
ATOM     49  C   UNL A   1      43.869  25.399  29.637  1.00  0.00     0.031 C 
ATOM     50  C   UNL A   1      45.361  30.270  32.085  1.00  0.00     0.029 A 
ATOM     51  C   UNL A   1      45.456  28.983  31.553  1.00  0.00     0.049 A 
ATOM     52  H   UNL A   1      45.586  27.269  32.776  1.00  0.00     0.167 HD
ATOM     53  C   UNL A   1      45.232  27.274  29.768  1.00  0.00     0.074 A 
ATOM     54  C   UNL A   1      44.585  26.163  30.464  1.00  0.00     0.031 C 
ATOM     55  C   UNL A   1      45.663  28.494  30.210  1.00  0.00     0.034 A 
BRANCH  42  56
ATOM     56  C   UNL A   1      43.305  26.829  34.676  1.00  0.00     0.023 A 
ATOM     57  C   UNL A   1      43.289  26.923  36.088  1.00  0.00     0.012 A 
ATOM     58  C   UNL A   1      43.732  25.596  34.127  1.00  0.00     0.148 A 
ATOM     59  C   UNL A   1      43.755  25.886  36.904  1.00  0.00     0.002 A 
ATOM     60  C   UNL A   1      44.122  24.539  34.946  1.00  0.00     0.091 A 
ATOM     61  F   UNL A   1      43.895  25.466  32.809  1.00  0.00    -0.205 F 
ATOM     62  C   UNL A   1      44.172  24.692  36.332  1.00  0.00     0.022 A 
BRANCH  60  63
ATOM     63  S   UNL A   1      44.621  22.950  34.266  1.00  0.00     0.127 S 
ATOM     64  O   UNL A   1      44.645  22.115  35.463  1.00  0.00    -0.237 OA
ATOM     65  O   UNL A   1      43.529  22.665  33.334  1.00  0.00    -0.237 OA
ATOM     66  O   UNL A   1      45.905  23.188  33.619  1.00  0.00    -0.744 OA
ENDBRANCH  60  63
ENDBRANCH  42  56
BRANCH  43  67
ATOM     67  C   UNL A   1      42.638  24.994  26.586  1.00  0.00     0.023 A 
ATOM     68  C   UNL A   1      43.525  24.664  25.540  1.00  0.00     0.012 A 
ATOM     69  C   UNL A   1      41.674  24.035  26.972  1.00  0.00     0.148 A 
ATOM     70  C   UNL A   1      43.483  23.407  24.929  1.00  0.00     0.002 A 
ATOM     71  C   UNL A   1      41.636  22.784  26.362  1.00  0.00     0.091 A 
ATOM     72  F   UNL A   1      40.859  24.313  27.999  1.00  0.00    -0.205 F 
ATOM     73  C   UNL A   1      42.547  22.462  25.346  1.00  0.00     0.022 A 
BRANCH  71  74
ATOM     74  S   UNL A   1      40.487  21.500  26.884  1.00  0.00     0.127 S 
ATOM     75  O   UNL A   1      40.917  20.358  26.077  1.00  0.00    -0.237 OA
ATOM     76  O   UNL A   1      40.777  21.389  28.311  1.00  0.00    -0.237 OA
ATOM     77  O   UNL A   1      39.150  21.992  26.567  1.00  0.00    -0.744 OA
ENDBRANCH  71  74
ENDBRANCH  43  67
BRANCH  55  78
ATOM     78  C   UNL A   1      46.144  29.502  29.198  1.00  0.00     0.023 A 
ATOM     79  C   UNL A   1      47.479  29.555  28.747  1.00  0.00     0.012 A 
ATOM     80  C   UNL A   1      45.183  30.305  28.561  1.00  0.00     0.148 A 
ATOM     81  C   UNL A   1      47.851  30.410  27.706  1.00  0.00     0.002 A 
ATOM     82  C   UNL A   1      45.547  31.118  27.494  1.00  0.00     0.091 A 
ATOM     83  F   UNL A   1      43.915  30.248  28.997  1.00  0.00    -0.205 F 
ATOM     84  C   UNL A   1      46.882  31.182  27.070  1.00  0.00     0.022 A 
BRANCH  82  85
ATOM     85  S   UNL A   1      44.313  32.030  26.565  1.00  0.00     0.127 S 
ATOM     86  O   UNL A   1      45.081  32.497  25.414  1.00  0.00    -0.237 OA
ATOM     87  O   UNL A   1      43.317  31.001  26.260  1.00  0.00    -0.237 OA
ATOM     88  O   UNL A   1      43.830  33.070  27.468  1.00  0.00    -0.744 OA
ENDBRANCH  82  85
ENDBRANCH  55  78
ENDBRANCH  29  30
ENDBRANCH  21  24
ENDBRANCH  19  20
ENDBRANCH  18  19
ENDBRANCH   1  18
TORSDOF 17
ENDMDL
