MODEL 1
REMARK VINA RESULT:     -12.6      0.000      0.000
REMARK SMILES O=C(NCCCCNC(=O)c1ccc2nc(C3CCCCC3)[nH]c2c1)c1ccc(-c2c3nc(c(-c4cccc(S(=O)(=O)[O-])c4F)c4ccc([nH]4)c(-c4cccc(S(=O)(=O)[O-])c4F)c4nc(c(-c5cccc(S(=O)(=O)[O-])c5F)c5ccc2[nH]5)C=C4)C=C3)cc1
REMARK SMILES IDX 4 1 3 2 1 3 2 4 26 6 27 7 88 8 28 9 87 10 29 11 30 12 31 13
REMARK SMILES IDX 81 14 32 15 86 16 80 17 82 18 33 19 85 20 79 21 78 22 34 24
REMARK SMILES IDX 66 25 46 26 65 27 47 28 50 29 64 30 83 31 48 32 49 33 63 35
REMARK SMILES IDX 84 36 51 37 35 38 36 39 44 40 37 41 39 42 45 43 38 44 40 45
REMARK SMILES IDX 41 46 42 47 43 48 67 49 68 50 76 51 69 52 71 53 77 54 70 55
REMARK SMILES IDX 72 56 73 57 74 58 75 59 52 60 53 61 61 62 54 63 56 64 62 65
REMARK SMILES IDX 55 66 57 67 58 68 59 69 60 70 5 71 6 72 7 73 8 74 9 75 10 77
REMARK SMILES IDX 11 78 12 79 25 80 13 81 24 82 14 83 23 84 15 85 16 86 17 88
REMARK SMILES IDX 18 89 22 90 19 91 21 92 20 93
REMARK H PARENT 3 5 82 23 50 34 8 76 23 87
REMARK Flexibility Score: inf
ROOT
ATOM      1  C   UNL A   1      32.835  29.463  25.638  1.00  0.00     0.116 C 
ENDROOT
BRANCH   1   2
ATOM      2  N   UNL A   1      32.442  30.806  26.035  1.00  0.00    -0.352 N 
ATOM      3  O   UNL A   1      32.467  32.695  27.262  1.00  0.00    -0.269 OA
ATOM      4  C   UNL A   1      33.022  31.641  26.960  1.00  0.00     0.251 C 
ATOM      5  H   UNL A   1      31.651  31.169  25.575  1.00  0.00     0.163 HD
BRANCH   4   6
ATOM      6  C   UNL A   1      34.291  31.248  27.612  1.00  0.00     0.039 A 
ATOM      7  C   UNL A   1      34.517  29.923  27.992  1.00  0.00     0.014 A 
ATOM      8  C   UNL A   1      35.260  32.224  27.858  1.00  0.00     0.014 A 
ATOM      9  C   UNL A   1      35.641  29.603  28.745  1.00  0.00     0.010 A 
ATOM     10  C   UNL A   1      36.430  31.882  28.544  1.00  0.00     0.010 A 
ATOM     11  C   UNL A   1      36.613  30.577  29.025  1.00  0.00    -0.014 A 
BRANCH  11  12
ATOM     12  C   UNL A   1      37.844  30.190  29.760  1.00  0.00     0.031 A 
ATOM     13  C   UNL A   1      38.109  30.678  31.158  1.00  0.00     0.074 A 
ATOM     14  C   UNL A   1      38.727  29.375  29.150  1.00  0.00     0.049 A 
ATOM     15  N   UNL A   1      39.119  30.405  31.945  1.00  0.00    -0.248 NA
ATOM     16  C   UNL A   1      37.121  31.595  31.750  1.00  0.00     0.031 C 
ATOM     17  C   UNL A   1      38.596  28.871  27.780  1.00  0.00     0.029 A 
ATOM     18  N   UNL A   1      39.901  28.825  29.595  1.00  0.00    -0.354 N 
ATOM     19  C   UNL A   1      38.910  31.137  33.106  1.00  0.00     0.074 A 
ATOM     20  C   UNL A   1      37.680  31.876  32.922  1.00  0.00     0.031 C 
ATOM     21  C   UNL A   1      39.630  28.063  27.508  1.00  0.00     0.029 A 
ATOM     22  C   UNL A   1      40.521  28.028  28.662  1.00  0.00     0.049 A 
ATOM     23  H   UNL A   1      40.266  28.985  30.495  1.00  0.00     0.167 HD
ATOM     24  C   UNL A   1      39.665  31.174  34.232  1.00  0.00     0.034 A 
ATOM     25  C   UNL A   1      41.682  27.347  28.721  1.00  0.00     0.034 A 
ATOM     26  C   UNL A   1      40.866  30.405  34.426  1.00  0.00     0.049 A 
ATOM     27  C   UNL A   1      42.483  27.389  29.990  1.00  0.00     0.074 A 
ATOM     28  C   UNL A   1      41.670  30.334  35.551  1.00  0.00     0.029 A 
ATOM     29  N   UNL A   1      41.441  29.578  33.472  1.00  0.00    -0.354 N 
ATOM     30  N   UNL A   1      42.205  27.992  31.120  1.00  0.00    -0.248 NA
ATOM     31  C   UNL A   1      43.744  26.637  30.002  1.00  0.00     0.031 C 
ATOM     32  C   UNL A   1      42.736  29.469  35.275  1.00  0.00     0.029 A 
ATOM     33  C   UNL A   1      42.591  28.994  33.981  1.00  0.00     0.049 A 
ATOM     34  H   UNL A   1      41.085  29.427  32.568  1.00  0.00     0.167 HD
ATOM     35  C   UNL A   1      43.245  27.678  31.985  1.00  0.00     0.074 A 
ATOM     36  C   UNL A   1      44.144  26.806  31.256  1.00  0.00     0.031 C 
ATOM     37  C   UNL A   1      43.449  28.091  33.260  1.00  0.00     0.034 A 
BRANCH  24  38
ATOM     38  C   UNL A   1      39.188  32.035  35.373  1.00  0.00     0.023 A 
ATOM     39  C   UNL A   1      38.272  31.501  36.303  1.00  0.00     0.012 A 
ATOM     40  C   UNL A   1      39.697  33.334  35.571  1.00  0.00     0.148 A 
ATOM     41  C   UNL A   1      37.856  32.254  37.401  1.00  0.00     0.002 A 
ATOM     42  C   UNL A   1      39.303  34.065  36.687  1.00  0.00     0.091 A 
ATOM     43  F   UNL A   1      40.549  33.833  34.663  1.00  0.00    -0.205 F 
ATOM     44  C   UNL A   1      38.377  33.530  37.598  1.00  0.00     0.022 A 
BRANCH  42  45
ATOM     45  S   UNL A   1      39.973  35.689  37.063  1.00  0.00     0.127 S 
ATOM     46  O   UNL A   1      41.395  35.389  37.232  1.00  0.00    -0.237 OA
ATOM     47  O   UNL A   1      39.651  36.448  35.854  1.00  0.00    -0.237 OA
ATOM     48  O   UNL A   1      39.278  36.138  38.262  1.00  0.00    -0.744 OA
ENDBRANCH  42  45
ENDBRANCH  24  38
BRANCH  25  49
ATOM     49  C   UNL A   1      42.110  26.524  27.558  1.00  0.00     0.023 A 
ATOM     50  C   UNL A   1      42.929  27.100  26.568  1.00  0.00     0.012 A 
ATOM     51  C   UNL A   1      41.769  25.160  27.460  1.00  0.00     0.148 A 
ATOM     52  C   UNL A   1      43.387  26.338  25.494  1.00  0.00     0.002 A 
ATOM     53  C   UNL A   1      42.278  24.393  26.419  1.00  0.00     0.091 A 
ATOM     54  F   UNL A   1      40.973  24.635  28.401  1.00  0.00    -0.205 F 
ATOM     55  C   UNL A   1      43.075  24.983  25.427  1.00  0.00     0.022 A 
BRANCH  53  56
ATOM     56  S   UNL A   1      42.043  22.613  26.348  1.00  0.00     0.127 S 
ATOM     57  O   UNL A   1      42.710  22.175  27.571  1.00  0.00    -0.237 OA
ATOM     58  O   UNL A   1      40.585  22.495  26.366  1.00  0.00    -0.237 OA
ATOM     59  O   UNL A   1      42.659  22.193  25.097  1.00  0.00    -0.744 OA
ENDBRANCH  53  56
ENDBRANCH  25  49
BRANCH  37  60
ATOM     60  C   UNL A   1      44.689  27.599  33.954  1.00  0.00     0.023 A 
ATOM     61  C   UNL A   1      45.865  28.373  33.903  1.00  0.00     0.012 A 
ATOM     62  C   UNL A   1      44.675  26.408  34.707  1.00  0.00     0.148 A 
ATOM     63  C   UNL A   1      47.018  27.956  34.568  1.00  0.00     0.002 A 
ATOM     64  C   UNL A   1      45.815  26.020  35.400  1.00  0.00     0.091 A 
ATOM     65  F   UNL A   1      43.552  25.674  34.723  1.00  0.00    -0.205 F 
ATOM     66  C   UNL A   1      46.990  26.787  35.324  1.00  0.00     0.022 A 
BRANCH  64  67
ATOM     67  S   UNL A   1      45.839  24.574  36.466  1.00  0.00     0.127 S 
ATOM     68  O   UNL A   1      44.766  24.882  37.411  1.00  0.00    -0.237 OA
ATOM     69  O   UNL A   1      45.534  23.490  35.531  1.00  0.00    -0.237 OA
ATOM     70  O   UNL A   1      47.181  24.519  37.031  1.00  0.00    -0.744 OA
ENDBRANCH  64  67
ENDBRANCH  37  60
ENDBRANCH  11  12
ENDBRANCH   4   6
ENDBRANCH   1   2
BRANCH   1  71
ATOM     71  C   UNL A   1      31.772  28.417  25.947  1.00  0.00     0.023 C 
BRANCH  71  72
ATOM     72  C   UNL A   1      32.148  26.980  25.597  1.00  0.00     0.023 C 
BRANCH  72  73
ATOM     73  C   UNL A   1      31.384  26.373  24.424  1.00  0.00     0.116 C 
BRANCH  73  74
ATOM     74  N   UNL A   1      32.093  26.514  23.163  1.00  0.00    -0.352 N 
ATOM     75  C   UNL A   1      33.042  25.690  22.614  1.00  0.00     0.251 C 
ATOM     76  H   UNL A   1      31.860  27.308  22.630  1.00  0.00     0.163 HD
ATOM     77  O   UNL A   1      33.652  26.014  21.601  1.00  0.00    -0.269 OA
BRANCH  75  78
ATOM     78  C   UNL A   1      33.360  24.413  23.280  1.00  0.00     0.042 A 
ATOM     79  C   UNL A   1      34.358  24.354  24.262  1.00  0.00     0.016 A 
ATOM     80  C   UNL A   1      32.635  23.280  22.889  1.00  0.00     0.042 A 
ATOM     81  C   UNL A   1      34.714  23.128  24.837  1.00  0.00     0.031 A 
ATOM     82  C   UNL A   1      33.013  22.078  23.486  1.00  0.00     0.066 A 
ATOM     83  C   UNL A   1      34.029  21.973  24.429  1.00  0.00     0.089 A 
ATOM     84  N   UNL A   1      32.554  20.797  23.341  1.00  0.00    -0.342 N 
ATOM     85  N   UNL A   1      34.192  20.671  24.827  1.00  0.00    -0.233 NA
ATOM     86  C   UNL A   1      33.290  19.978  24.163  1.00  0.00     0.110 A 
ATOM     87  H   UNL A   1      31.822  20.511  22.747  1.00  0.00     0.168 HD
BRANCH  86  88
ATOM     88  C   UNL A   1      33.030  18.509  24.297  1.00  0.00     0.055 C 
ATOM     89  C   UNL A   1      34.202  17.703  23.716  1.00  0.00     0.011 C 
ATOM     90  C   UNL A   1      32.733  18.107  25.749  1.00  0.00     0.011 C 
ATOM     91  C   UNL A   1      33.982  16.200  23.866  1.00  0.00     0.001 C 
ATOM     92  C   UNL A   1      32.526  16.601  25.885  1.00  0.00     0.001 C 
ATOM     93  C   UNL A   1      33.706  15.818  25.316  1.00  0.00     0.000 C 
ENDBRANCH  86  88
ENDBRANCH  75  78
ENDBRANCH  73  74
ENDBRANCH  72  73
ENDBRANCH  71  72
ENDBRANCH   1  71
TORSDOF 15
ENDMDL
MODEL 2
REMARK VINA RESULT:     -12.6      4.862     10.457
REMARK SMILES O=C(NCCCCNC(=O)c1ccc2nc(C3CCCCC3)[nH]c2c1)c1ccc(-c2c3nc(c(-c4cccc(S(=O)(=O)[O-])c4F)c4ccc([nH]4)c(-c4cccc(S(=O)(=O)[O-])c4F)c4nc(c(-c5cccc(S(=O)(=O)[O-])c5F)c5ccc2[nH]5)C=C4)C=C3)cc1
REMARK SMILES IDX 4 1 3 2 1 3 2 4 26 6 27 7 88 8 28 9 87 10 29 11 30 12 31 13
REMARK SMILES IDX 81 14 32 15 86 16 80 17 82 18 33 19 85 20 79 21 78 22 34 24
REMARK SMILES IDX 66 25 46 26 65 27 47 28 50 29 64 30 83 31 48 32 49 33 63 35
REMARK SMILES IDX 84 36 51 37 35 38 36 39 44 40 37 41 39 42 45 43 38 44 40 45
REMARK SMILES IDX 41 46 42 47 43 48 67 49 68 50 76 51 69 52 71 53 77 54 70 55
REMARK SMILES IDX 72 56 73 57 74 58 75 59 52 60 53 61 61 62 54 63 56 64 62 65
REMARK SMILES IDX 55 66 57 67 58 68 59 69 60 70 5 71 6 72 7 73 8 74 9 75 10 77
REMARK SMILES IDX 11 78 12 79 25 80 13 81 24 82 14 83 23 84 15 85 16 86 17 88
REMARK SMILES IDX 18 89 22 90 19 91 21 92 20 93
REMARK H PARENT 3 5 82 23 50 34 8 76 23 87
REMARK Flexibility Score: inf
ROOT
ATOM      1  C   UNL A   1      36.324  22.065  25.721  1.00  0.00     0.116 C 
ENDROOT
BRANCH   1   2
ATOM      2  N   UNL A   1      37.297  20.985  25.712  1.00  0.00    -0.352 N 
ATOM      3  O   UNL A   1      39.339  20.034  25.767  1.00  0.00    -0.269 OA
ATOM      4  C   UNL A   1      38.650  21.034  25.954  1.00  0.00     0.251 C 
ATOM      5  H   UNL A   1      36.937  20.093  25.504  1.00  0.00     0.163 HD
BRANCH   4   6
ATOM      6  C   UNL A   1      39.271  22.299  26.403  1.00  0.00     0.039 A 
ATOM      7  C   UNL A   1      38.822  23.527  25.913  1.00  0.00     0.014 A 
ATOM      8  C   UNL A   1      40.328  22.252  27.317  1.00  0.00     0.014 A 
ATOM      9  C   UNL A   1      39.520  24.690  26.219  1.00  0.00     0.010 A 
ATOM     10  C   UNL A   1      40.976  23.433  27.689  1.00  0.00     0.010 A 
ATOM     11  C   UNL A   1      40.601  24.658  27.116  1.00  0.00    -0.014 A 
BRANCH  11  12
ATOM     12  C   UNL A   1      41.276  25.926  27.491  1.00  0.00     0.031 A 
ATOM     13  C   UNL A   1      42.688  26.218  27.064  1.00  0.00     0.074 A 
ATOM     14  C   UNL A   1      40.591  26.827  28.222  1.00  0.00     0.049 A 
ATOM     15  N   UNL A   1      43.406  27.291  27.283  1.00  0.00    -0.248 NA
ATOM     16  C   UNL A   1      43.392  25.175  26.300  1.00  0.00     0.031 C 
ATOM     17  C   UNL A   1      39.229  26.635  28.728  1.00  0.00     0.029 A 
ATOM     18  N   UNL A   1      40.936  28.078  28.664  1.00  0.00    -0.354 N 
ATOM     19  C   UNL A   1      44.650  27.043  26.718  1.00  0.00     0.074 A 
ATOM     20  C   UNL A   1      44.597  25.712  26.151  1.00  0.00     0.031 C 
ATOM     21  C   UNL A   1      38.844  27.739  29.383  1.00  0.00     0.029 A 
ATOM     22  C   UNL A   1      39.943  28.697  29.386  1.00  0.00     0.049 A 
ATOM     23  H   UNL A   1      41.809  28.493  28.481  1.00  0.00     0.167 HD
ATOM     24  C   UNL A   1      45.733  27.857  26.659  1.00  0.00     0.034 A 
ATOM     25  C   UNL A   1      39.918  29.900  29.991  1.00  0.00     0.034 A 
ATOM     26  C   UNL A   1      45.767  29.195  27.189  1.00  0.00     0.049 A 
ATOM     27  C   UNL A   1      41.123  30.789  29.888  1.00  0.00     0.074 A 
ATOM     28  C   UNL A   1      46.798  30.117  27.131  1.00  0.00     0.029 A 
ATOM     29  N   UNL A   1      44.728  29.803  27.879  1.00  0.00    -0.354 N 
ATOM     30  N   UNL A   1      42.246  30.582  29.244  1.00  0.00    -0.248 NA
ATOM     31  C   UNL A   1      41.050  32.087  30.571  1.00  0.00     0.031 C 
ATOM     32  C   UNL A   1      46.385  31.280  27.792  1.00  0.00     0.029 A 
ATOM     33  C   UNL A   1      45.094  31.085  28.254  1.00  0.00     0.049 A 
ATOM     34  H   UNL A   1      43.859  29.384  28.072  1.00  0.00     0.167 HD
ATOM     35  C   UNL A   1      43.006  31.730  29.428  1.00  0.00     0.074 A 
ATOM     36  C   UNL A   1      42.203  32.640  30.219  1.00  0.00     0.031 C 
ATOM     37  C   UNL A   1      44.265  31.997  28.999  1.00  0.00     0.034 A 
BRANCH  24  38
ATOM     38  C   UNL A   1      46.960  27.349  25.948  1.00  0.00     0.023 A 
ATOM     39  C   UNL A   1      47.106  27.592  24.567  1.00  0.00     0.012 A 
ATOM     40  C   UNL A   1      47.997  26.705  26.651  1.00  0.00     0.148 A 
ATOM     41  C   UNL A   1      48.257  27.184  23.893  1.00  0.00     0.002 A 
ATOM     42  C   UNL A   1      49.156  26.332  25.978  1.00  0.00     0.091 A 
ATOM     43  F   UNL A   1      47.830  26.462  27.959  1.00  0.00    -0.205 F 
ATOM     44  C   UNL A   1      49.285  26.563  24.599  1.00  0.00     0.022 A 
BRANCH  42  45
ATOM     45  S   UNL A   1      50.563  25.590  26.815  1.00  0.00     0.127 S 
ATOM     46  O   UNL A   1      50.988  26.677  27.696  1.00  0.00    -0.237 OA
ATOM     47  O   UNL A   1      49.952  24.452  27.504  1.00  0.00    -0.237 OA
ATOM     48  O   UNL A   1      51.505  25.227  25.765  1.00  0.00    -0.744 OA
ENDBRANCH  42  45
ENDBRANCH  24  38
BRANCH  25  49
ATOM     49  C   UNL A   1      38.683  30.344  30.691  1.00  0.00     0.023 A 
ATOM     50  C   UNL A   1      38.568  30.148  32.081  1.00  0.00     0.012 A 
ATOM     51  C   UNL A   1      37.653  31.017  30.004  1.00  0.00     0.148 A 
ATOM     52  C   UNL A   1      37.443  30.600  32.771  1.00  0.00     0.002 A 
ATOM     53  C   UNL A   1      36.563  31.516  30.708  1.00  0.00     0.091 A 
ATOM     54  F   UNL A   1      37.770  31.175  28.679  1.00  0.00    -0.205 F 
ATOM     55  C   UNL A   1      36.449  31.297  32.088  1.00  0.00     0.022 A 
BRANCH  53  56
ATOM     56  S   UNL A   1      35.320  32.550  29.925  1.00  0.00     0.127 S 
ATOM     57  O   UNL A   1      34.405  32.809  31.032  1.00  0.00    -0.237 OA
ATOM     58  O   UNL A   1      36.108  33.706  29.495  1.00  0.00    -0.237 OA
ATOM     59  O   UNL A   1      34.789  31.751  28.829  1.00  0.00    -0.744 OA
ENDBRANCH  53  56
ENDBRANCH  25  49
BRANCH  37  60
ATOM     60  C   UNL A   1      44.850  33.333  29.369  1.00  0.00     0.023 A 
ATOM     61  C   UNL A   1      45.645  33.444  30.526  1.00  0.00     0.012 A 
ATOM     62  C   UNL A   1      44.667  34.458  28.542  1.00  0.00     0.148 A 
ATOM     63  C   UNL A   1      46.227  34.663  30.872  1.00  0.00     0.002 A 
ATOM     64  C   UNL A   1      45.285  35.660  28.870  1.00  0.00     0.091 A 
ATOM     65  F   UNL A   1      43.887  34.337  27.457  1.00  0.00    -0.205 F 
ATOM     66  C   UNL A   1      46.056  35.767  30.039  1.00  0.00     0.022 A 
BRANCH  64  67
ATOM     67  S   UNL A   1      45.186  37.105  27.809  1.00  0.00     0.127 S 
ATOM     68  O   UNL A   1      45.983  38.079  28.554  1.00  0.00    -0.237 OA
ATOM     69  O   UNL A   1      45.807  36.630  26.571  1.00  0.00    -0.237 OA
ATOM     70  O   UNL A   1      43.766  37.413  27.688  1.00  0.00    -0.744 OA
ENDBRANCH  64  67
ENDBRANCH  37  60
ENDBRANCH  11  12
ENDBRANCH   4   6
ENDBRANCH   1   2
BRANCH   1  71
ATOM     71  C   UNL A   1      35.381  22.026  24.526  1.00  0.00     0.023 C 
BRANCH  71  72
ATOM     72  C   UNL A   1      34.275  20.975  24.601  1.00  0.00     0.023 C 
BRANCH  72  73
ATOM     73  C   UNL A   1      32.859  21.528  24.736  1.00  0.00     0.116 C 
BRANCH  73  74
ATOM     74  N   UNL A   1      32.469  21.731  26.122  1.00  0.00    -0.352 N 
ATOM     75  C   UNL A   1      32.233  22.908  26.785  1.00  0.00     0.251 C 
ATOM     76  H   UNL A   1      32.358  20.912  26.657  1.00  0.00     0.163 HD
ATOM     77  O   UNL A   1      32.043  22.925  27.996  1.00  0.00    -0.269 OA
BRANCH  75  78
ATOM     78  C   UNL A   1      32.250  24.175  26.031  1.00  0.00     0.042 A 
ATOM     79  C   UNL A   1      33.467  24.791  25.705  1.00  0.00     0.016 A 
ATOM     80  C   UNL A   1      31.016  24.730  25.665  1.00  0.00     0.042 A 
ATOM     81  C   UNL A   1      33.480  26.034  25.059  1.00  0.00     0.031 A 
ATOM     82  C   UNL A   1      31.069  25.964  25.020  1.00  0.00     0.066 A 
ATOM     83  C   UNL A   1      32.255  26.627  24.722  1.00  0.00     0.089 A 
ATOM     84  N   UNL A   1      30.090  26.793  24.544  1.00  0.00    -0.342 N 
ATOM     85  N   UNL A   1      32.001  27.825  24.103  1.00  0.00    -0.233 NA
ATOM     86  C   UNL A   1      30.690  27.903  24.000  1.00  0.00     0.110 A 
ATOM     87  H   UNL A   1      29.121  26.623  24.584  1.00  0.00     0.168 HD
BRANCH  86  88
ATOM     88  C   UNL A   1      29.921  29.007  23.340  1.00  0.00     0.055 C 
ATOM     89  C   UNL A   1      28.472  28.568  23.079  1.00  0.00     0.011 C 
ATOM     90  C   UNL A   1      29.979  30.311  24.149  1.00  0.00     0.011 C 
ATOM     91  C   UNL A   1      27.652  29.682  22.436  1.00  0.00     0.001 C 
ATOM     92  C   UNL A   1      29.146  31.413  23.499  1.00  0.00     0.001 C 
ATOM     93  C   UNL A   1      27.708  30.964  23.261  1.00  0.00     0.000 C 
ENDBRANCH  86  88
ENDBRANCH  75  78
ENDBRANCH  73  74
ENDBRANCH  72  73
ENDBRANCH  71  72
ENDBRANCH   1  71
TORSDOF 15
ENDMDL
MODEL 3
REMARK VINA RESULT:     -12.5      2.807      8.275
REMARK SMILES O=C(NCCCCNC(=O)c1ccc2nc(C3CCCCC3)[nH]c2c1)c1ccc(-c2c3nc(c(-c4cccc(S(=O)(=O)[O-])c4F)c4ccc([nH]4)c(-c4cccc(S(=O)(=O)[O-])c4F)c4nc(c(-c5cccc(S(=O)(=O)[O-])c5F)c5ccc2[nH]5)C=C4)C=C3)cc1
REMARK SMILES IDX 4 1 3 2 1 3 2 4 26 6 27 7 88 8 28 9 87 10 29 11 30 12 31 13
REMARK SMILES IDX 81 14 32 15 86 16 80 17 82 18 33 19 85 20 79 21 78 22 34 24
REMARK SMILES IDX 66 25 46 26 65 27 47 28 50 29 64 30 83 31 48 32 49 33 63 35
REMARK SMILES IDX 84 36 51 37 35 38 36 39 44 40 37 41 39 42 45 43 38 44 40 45
REMARK SMILES IDX 41 46 42 47 43 48 67 49 68 50 76 51 69 52 71 53 77 54 70 55
REMARK SMILES IDX 72 56 73 57 74 58 75 59 52 60 53 61 61 62 54 63 56 64 62 65
REMARK SMILES IDX 55 66 57 67 58 68 59 69 60 70 5 71 6 72 7 73 8 74 9 75 10 77
REMARK SMILES IDX 11 78 12 79 25 80 13 81 24 82 14 83 23 84 15 85 16 86 17 88
REMARK SMILES IDX 18 89 22 90 19 91 21 92 20 93
REMARK H PARENT 3 5 82 23 50 34 8 76 23 87
REMARK Flexibility Score: inf
ROOT
ATOM      1  C   UNL A   1      32.824  32.868  27.304  1.00  0.00     0.116 C 
ENDROOT
BRANCH   1   2
ATOM      2  N   UNL A   1      32.558  34.220  27.766  1.00  0.00    -0.352 N 
ATOM      3  O   UNL A   1      32.681  36.003  29.137  1.00  0.00    -0.269 OA
ATOM      4  C   UNL A   1      33.132  34.909  28.808  1.00  0.00     0.251 C 
ATOM      5  H   UNL A   1      31.871  34.713  27.262  1.00  0.00     0.163 HD
BRANCH   4   6
ATOM      6  C   UNL A   1      34.266  34.313  29.548  1.00  0.00     0.039 A 
ATOM      7  C   UNL A   1      35.574  34.446  29.077  1.00  0.00     0.014 A 
ATOM      8  C   UNL A   1      34.012  33.598  30.722  1.00  0.00     0.014 A 
ATOM      9  C   UNL A   1      36.605  33.745  29.692  1.00  0.00     0.010 A 
ATOM     10  C   UNL A   1      35.064  32.962  31.388  1.00  0.00     0.010 A 
ATOM     11  C   UNL A   1      36.363  33.000  30.859  1.00  0.00    -0.014 A 
BRANCH  11  12
ATOM     12  C   UNL A   1      37.498  32.329  31.544  1.00  0.00     0.031 A 
ATOM     13  C   UNL A   1      38.250  31.201  30.894  1.00  0.00     0.074 A 
ATOM     14  C   UNL A   1      37.852  32.760  32.770  1.00  0.00     0.049 A 
ATOM     15  N   UNL A   1      39.281  30.534  31.346  1.00  0.00    -0.248 NA
ATOM     16  C   UNL A   1      37.786  30.756  29.569  1.00  0.00     0.031 C 
ATOM     17  C   UNL A   1      37.170  33.820  33.518  1.00  0.00     0.029 A 
ATOM     18  N   UNL A   1      38.869  32.369  33.603  1.00  0.00    -0.354 N 
ATOM     19  C   UNL A   1      39.569  29.573  30.386  1.00  0.00     0.074 A 
ATOM     20  C   UNL A   1      38.598  29.735  29.325  1.00  0.00     0.031 C 
ATOM     21  C   UNL A   1      37.804  34.015  34.682  1.00  0.00     0.029 A 
ATOM     22  C   UNL A   1      38.906  33.066  34.787  1.00  0.00     0.049 A 
ATOM     23  H   UNL A   1      39.510  31.658  33.375  1.00  0.00     0.167 HD
ATOM     24  C   UNL A   1      40.564  28.653  30.380  1.00  0.00     0.034 A 
ATOM     25  C   UNL A   1      39.730  32.953  35.847  1.00  0.00     0.034 A 
ATOM     26  C   UNL A   1      41.552  28.523  31.419  1.00  0.00     0.049 A 
ATOM     27  C   UNL A   1      40.838  31.941  35.800  1.00  0.00     0.074 A 
ATOM     28  C   UNL A   1      42.632  27.657  31.476  1.00  0.00     0.029 A 
ATOM     29  N   UNL A   1      41.582  29.275  32.584  1.00  0.00    -0.354 N 
ATOM     30  N   UNL A   1      41.166  31.125  34.828  1.00  0.00    -0.248 NA
ATOM     31  C   UNL A   1      41.705  31.852  36.982  1.00  0.00     0.031 C 
ATOM     32  C   UNL A   1      43.309  27.881  32.681  1.00  0.00     0.029 A 
ATOM     33  C   UNL A   1      42.657  28.891  33.369  1.00  0.00     0.049 A 
ATOM     34  H   UNL A   1      40.934  29.977  32.818  1.00  0.00     0.167 HD
ATOM     35  C   UNL A   1      42.288  30.437  35.273  1.00  0.00     0.074 A 
ATOM     36  C   UNL A   1      42.600  30.955  36.589  1.00  0.00     0.031 C 
ATOM     37  C   UNL A   1      42.983  29.450  34.655  1.00  0.00     0.034 A 
BRANCH  24  38
ATOM     38  C   UNL A   1      40.675  27.742  29.184  1.00  0.00     0.023 A 
ATOM     39  C   UNL A   1      39.836  26.612  29.098  1.00  0.00     0.012 A 
ATOM     40  C   UNL A   1      41.545  28.041  28.117  1.00  0.00     0.148 A 
ATOM     41  C   UNL A   1      39.875  25.782  27.978  1.00  0.00     0.002 A 
ATOM     42  C   UNL A   1      41.553  27.227  26.988  1.00  0.00     0.091 A 
ATOM     43  F   UNL A   1      42.352  29.106  28.226  1.00  0.00    -0.205 F 
ATOM     44  C   UNL A   1      40.726  26.095  26.920  1.00  0.00     0.022 A 
BRANCH  42  45
ATOM     45  S   UNL A   1      42.563  27.588  25.545  1.00  0.00     0.127 S 
ATOM     46  O   UNL A   1      43.904  27.631  26.127  1.00  0.00    -0.237 OA
ATOM     47  O   UNL A   1      42.308  26.429  24.689  1.00  0.00    -0.237 OA
ATOM     48  O   UNL A   1      42.066  28.851  25.018  1.00  0.00    -0.744 OA
ENDBRANCH  42  45
ENDBRANCH  24  38
BRANCH  25  49
ATOM     49  C   UNL A   1      39.565  33.871  37.006  1.00  0.00     0.023 A 
ATOM     50  C   UNL A   1      39.922  35.226  36.870  1.00  0.00     0.012 A 
ATOM     51  C   UNL A   1      38.997  33.428  38.217  1.00  0.00     0.148 A 
ATOM     52  C   UNL A   1      39.730  36.120  37.924  1.00  0.00     0.002 A 
ATOM     53  C   UNL A   1      38.754  34.336  39.241  1.00  0.00     0.091 A 
ATOM     54  F   UNL A   1      38.683  32.131  38.335  1.00  0.00    -0.205 F 
ATOM     55  C   UNL A   1      39.134  35.679  39.102  1.00  0.00     0.022 A 
BRANCH  53  56
ATOM     56  S   UNL A   1      37.856  33.875  40.726  1.00  0.00     0.127 S 
ATOM     57  O   UNL A   1      38.812  32.998  41.395  1.00  0.00    -0.237 OA
ATOM     58  O   UNL A   1      37.650  35.171  41.375  1.00  0.00    -0.237 OA
ATOM     59  O   UNL A   1      36.630  33.245  40.255  1.00  0.00    -0.744 OA
ENDBRANCH  53  56
ENDBRANCH  25  49
BRANCH  37  60
ATOM     60  C   UNL A   1      44.159  28.870  35.393  1.00  0.00     0.023 A 
ATOM     61  C   UNL A   1      45.446  29.397  35.168  1.00  0.00     0.012 A 
ATOM     62  C   UNL A   1      43.984  27.851  36.350  1.00  0.00     0.148 A 
ATOM     63  C   UNL A   1      46.547  28.900  35.865  1.00  0.00     0.002 A 
ATOM     64  C   UNL A   1      45.080  27.390  37.071  1.00  0.00     0.091 A 
ATOM     65  F   UNL A   1      42.754  27.347  36.532  1.00  0.00    -0.205 F 
ATOM     66  C   UNL A   1      46.362  27.906  36.823  1.00  0.00     0.022 A 
BRANCH  64  67
ATOM     67  S   UNL A   1      44.916  26.172  38.381  1.00  0.00     0.127 S 
ATOM     68  O   UNL A   1      44.411  25.012  37.649  1.00  0.00    -0.237 OA
ATOM     69  O   UNL A   1      46.294  26.038  38.859  1.00  0.00    -0.237 OA
ATOM     70  O   UNL A   1      43.998  26.755  39.352  1.00  0.00    -0.744 OA
ENDBRANCH  64  67
ENDBRANCH  37  60
ENDBRANCH  11  12
ENDBRANCH   4   6
ENDBRANCH   1   2
BRANCH   1  71
ATOM     71  C   UNL A   1      31.605  32.203  26.677  1.00  0.00     0.023 C 
BRANCH  71  72
ATOM     72  C   UNL A   1      31.621  30.676  26.676  1.00  0.00     0.023 C 
BRANCH  72  73
ATOM     73  C   UNL A   1      32.279  30.032  25.460  1.00  0.00     0.116 C 
BRANCH  73  74
ATOM     74  N   UNL A   1      31.322  29.696  24.419  1.00  0.00    -0.352 N 
ATOM     75  C   UNL A   1      30.962  28.458  23.950  1.00  0.00     0.251 C 
ATOM     76  H   UNL A   1      30.871  30.459  23.993  1.00  0.00     0.163 HD
ATOM     77  O   UNL A   1      30.237  28.339  22.968  1.00  0.00    -0.269 OA
BRANCH  75  78
ATOM     78  C   UNL A   1      31.491  27.253  24.616  1.00  0.00     0.042 A 
ATOM     79  C   UNL A   1      30.725  26.580  25.577  1.00  0.00     0.016 A 
ATOM     80  C   UNL A   1      32.775  26.822  24.255  1.00  0.00     0.042 A 
ATOM     81  C   UNL A   1      31.258  25.483  26.266  1.00  0.00     0.031 A 
ATOM     82  C   UNL A   1      33.271  25.726  24.958  1.00  0.00     0.066 A 
ATOM     83  C   UNL A   1      32.558  25.061  25.950  1.00  0.00     0.089 A 
ATOM     84  N   UNL A   1      34.461  25.055  24.891  1.00  0.00    -0.342 N 
ATOM     85  N   UNL A   1      33.300  24.036  26.479  1.00  0.00    -0.233 NA
ATOM     86  C   UNL A   1      34.442  24.045  25.823  1.00  0.00     0.110 A 
ATOM     87  H   UNL A   1      35.205  25.262  24.280  1.00  0.00     0.168 HD
BRANCH  86  88
ATOM     88  C   UNL A   1      35.569  23.074  25.998  1.00  0.00     0.055 C 
ATOM     89  C   UNL A   1      35.383  21.863  25.071  1.00  0.00     0.011 C 
ATOM     90  C   UNL A   1      36.938  23.739  25.790  1.00  0.00     0.011 C 
ATOM     91  C   UNL A   1      36.533  20.870  25.203  1.00  0.00     0.001 C 
ATOM     92  C   UNL A   1      38.078  22.731  25.914  1.00  0.00     0.001 C 
ATOM     93  C   UNL A   1      37.882  21.543  24.976  1.00  0.00     0.000 C 
ENDBRANCH  86  88
ENDBRANCH  75  78
ENDBRANCH  73  74
ENDBRANCH  72  73
ENDBRANCH  71  72
ENDBRANCH   1  71
TORSDOF 15
ENDMDL
