MODEL 1
REMARK VINA RESULT:     -10.6      0.000      0.000
REMARK SMILES O=C(NCCCCNC(=O)[C@@H](CCCCO)c1ccc(Cl)cc1)c1ccc(-c2c3nc(c(-c4cccc(S(=O)(=O)[O-])c4F)c4ccc([nH]4)c(-c4cccc(S(=O)(=O)[O-])c4F)c4nc(c(-c5cccc(S(=O)(=O)[O-])c5F)c5ccc2[nH]5)C=C4)C=C3)cc1
REMARK SMILES IDX 6 1 5 2 4 3 3 4 1 5 2 6 24 8 25 9 86 10 26 11 85 12 27 13
REMARK SMILES IDX 28 14 29 15 79 16 30 17 84 18 78 19 80 20 31 21 83 22 77 23
REMARK SMILES IDX 76 24 32 26 64 27 44 28 63 29 45 30 48 31 62 32 81 33 46 34
REMARK SMILES IDX 47 35 61 37 82 38 49 39 33 40 34 41 42 42 35 43 37 44 43 45
REMARK SMILES IDX 36 46 38 47 39 48 40 49 41 50 65 51 66 52 74 53 67 54 69 55
REMARK SMILES IDX 75 56 68 57 70 58 71 59 72 60 73 61 50 62 51 63 59 64 52 65
REMARK SMILES IDX 54 66 60 67 53 68 55 69 56 70 57 71 58 72 7 73 8 74 9 75
REMARK SMILES IDX 10 77 11 78 12 79 13 80 14 81 15 82 16 83 17 85 18 86 23 87
REMARK SMILES IDX 19 88 22 89 20 90 21 91
REMARK H PARENT 3 7 80 25 48 36 8 76 16 84
REMARK Flexibility Score: inf
ROOT
ATOM      1  C   UNL A   1      33.097  27.131  23.932  1.00  0.00     0.023 C 
ENDROOT
BRANCH   1   2
ATOM      2  C   UNL A   1      32.631  28.060  25.043  1.00  0.00     0.023 C 
BRANCH   2   3
ATOM      3  C   UNL A   1      33.667  29.073  25.498  1.00  0.00     0.116 C 
BRANCH   3   4
ATOM      4  N   UNL A   1      33.097  30.294  26.046  1.00  0.00    -0.352 N 
ATOM      5  O   UNL A   1      32.998  32.029  27.496  1.00  0.00    -0.269 OA
ATOM      6  C   UNL A   1      33.610  31.072  27.067  1.00  0.00     0.251 C 
ATOM      7  H   UNL A   1      32.252  30.602  25.646  1.00  0.00     0.163 HD
BRANCH   6   8
ATOM      8  C   UNL A   1      34.911  30.664  27.641  1.00  0.00     0.039 A 
ATOM      9  C   UNL A   1      35.029  29.418  28.262  1.00  0.00     0.014 A 
ATOM     10  C   UNL A   1      35.968  31.576  27.657  1.00  0.00     0.014 A 
ATOM     11  C   UNL A   1      36.146  29.147  29.035  1.00  0.00     0.010 A 
ATOM     12  C   UNL A   1      37.134  31.256  28.355  1.00  0.00     0.010 A 
ATOM     13  C   UNL A   1      37.220  30.052  29.073  1.00  0.00    -0.014 A 
BRANCH  13  14
ATOM     14  C   UNL A   1      38.466  29.654  29.770  1.00  0.00     0.031 A 
ATOM     15  C   UNL A   1      38.835  30.207  31.117  1.00  0.00     0.074 A 
ATOM     16  C   UNL A   1      39.272  28.774  29.144  1.00  0.00     0.049 A 
ATOM     17  N   UNL A   1      39.890  29.943  31.844  1.00  0.00    -0.248 NA
ATOM     18  C   UNL A   1      37.918  31.183  31.727  1.00  0.00     0.031 C 
ATOM     19  C   UNL A   1      39.029  28.221  27.808  1.00  0.00     0.029 A 
ATOM     20  N   UNL A   1      40.449  28.192  29.532  1.00  0.00    -0.354 N 
ATOM     21  C   UNL A   1      39.795  30.751  32.969  1.00  0.00     0.074 A 
ATOM     22  C   UNL A   1      38.568  31.511  32.839  1.00  0.00     0.031 C 
ATOM     23  C   UNL A   1      40.007  27.361  27.501  1.00  0.00     0.029 A 
ATOM     24  C   UNL A   1      40.980  27.349  28.585  1.00  0.00     0.049 A 
ATOM     25  H   UNL A   1      40.873  28.360  30.406  1.00  0.00     0.167 HD
ATOM     26  C   UNL A   1      40.650  30.840  34.015  1.00  0.00     0.034 A 
ATOM     27  C   UNL A   1      42.136  26.663  28.573  1.00  0.00     0.034 A 
ATOM     28  C   UNL A   1      41.837  30.038  34.156  1.00  0.00     0.049 A 
ATOM     29  C   UNL A   1      43.038  26.756  29.766  1.00  0.00     0.074 A 
ATOM     30  C   UNL A   1      42.713  29.982  35.227  1.00  0.00     0.029 A 
ATOM     31  N   UNL A   1      42.323  29.163  33.196  1.00  0.00    -0.354 N 
ATOM     32  N   UNL A   1      42.853  27.413  30.884  1.00  0.00    -0.248 NA
ATOM     33  C   UNL A   1      44.297  26.004  29.705  1.00  0.00     0.031 C 
ATOM     34  C   UNL A   1      43.738  29.085  34.907  1.00  0.00     0.029 A 
ATOM     35  C   UNL A   1      43.496  28.576  33.640  1.00  0.00     0.049 A 
ATOM     36  H   UNL A   1      41.896  28.985  32.328  1.00  0.00     0.167 HD
ATOM     37  C   UNL A   1      43.972  27.154  31.663  1.00  0.00     0.074 A 
ATOM     38  C   UNL A   1      44.807  26.245  30.905  1.00  0.00     0.031 C 
ATOM     39  C   UNL A   1      44.294  27.648  32.883  1.00  0.00     0.034 A 
BRANCH  26  40
ATOM     40  C   UNL A   1      40.328  31.805  35.126  1.00  0.00     0.023 A 
ATOM     41  C   UNL A   1      40.971  33.059  35.162  1.00  0.00     0.012 A 
ATOM     42  C   UNL A   1      39.308  31.523  36.056  1.00  0.00     0.148 A 
ATOM     43  C   UNL A   1      40.607  34.015  36.112  1.00  0.00     0.002 A 
ATOM     44  C   UNL A   1      38.930  32.491  36.980  1.00  0.00     0.091 A 
ATOM     45  F   UNL A   1      38.723  30.317  36.014  1.00  0.00    -0.205 F 
ATOM     46  C   UNL A   1      39.581  33.736  37.011  1.00  0.00     0.022 A 
BRANCH  44  47
ATOM     47  S   UNL A   1      37.575  32.257  38.137  1.00  0.00     0.127 S 
ATOM     48  O   UNL A   1      38.127  32.846  39.357  1.00  0.00    -0.237 OA
ATOM     49  O   UNL A   1      36.502  33.033  37.517  1.00  0.00    -0.237 OA
ATOM     50  O   UNL A   1      37.336  30.822  38.192  1.00  0.00    -0.744 OA
ENDBRANCH  44  47
ENDBRANCH  26  40
BRANCH  27  51
ATOM     51  C   UNL A   1      42.474  25.817  27.395  1.00  0.00     0.023 A 
ATOM     52  C   UNL A   1      43.256  26.355  26.357  1.00  0.00     0.012 A 
ATOM     53  C   UNL A   1      42.089  24.464  27.336  1.00  0.00     0.148 A 
ATOM     54  C   UNL A   1      43.637  25.561  25.273  1.00  0.00     0.002 A 
ATOM     55  C   UNL A   1      42.525  23.665  26.287  1.00  0.00     0.091 A 
ATOM     56  F   UNL A   1      41.323  23.972  28.320  1.00  0.00    -0.205 F 
ATOM     57  C   UNL A   1      43.286  24.213  25.246  1.00  0.00     0.022 A 
BRANCH  55  58
ATOM     58  S   UNL A   1      42.247  21.889  26.302  1.00  0.00     0.127 S 
ATOM     59  O   UNL A   1      43.154  21.431  25.255  1.00  0.00    -0.237 OA
ATOM     60  O   UNL A   1      42.637  21.517  27.662  1.00  0.00    -0.237 OA
ATOM     61  O   UNL A   1      40.821  21.739  26.036  1.00  0.00    -0.744 OA
ENDBRANCH  55  58
ENDBRANCH  27  51
BRANCH  39  62
ATOM     62  C   UNL A   1      45.615  27.223  33.462  1.00  0.00     0.023 A 
ATOM     63  C   UNL A   1      46.739  28.054  33.286  1.00  0.00     0.012 A 
ATOM     64  C   UNL A   1      45.733  26.041  34.215  1.00  0.00     0.148 A 
ATOM     65  C   UNL A   1      47.972  27.697  33.826  1.00  0.00     0.002 A 
ATOM     66  C   UNL A   1      46.958  25.713  34.786  1.00  0.00     0.091 A 
ATOM     67  F   UNL A   1      44.656  25.255  34.349  1.00  0.00    -0.205 F 
ATOM     68  C   UNL A   1      48.079  26.534  34.584  1.00  0.00     0.022 A 
BRANCH  66  69
ATOM     69  S   UNL A   1      47.162  24.275  35.842  1.00  0.00     0.127 S 
ATOM     70  O   UNL A   1      47.441  23.224  34.865  1.00  0.00    -0.237 OA
ATOM     71  O   UNL A   1      48.306  24.655  36.673  1.00  0.00    -0.237 OA
ATOM     72  O   UNL A   1      45.909  24.140  36.572  1.00  0.00    -0.744 OA
ENDBRANCH  66  69
ENDBRANCH  39  62
ENDBRANCH  13  14
ENDBRANCH   6   8
ENDBRANCH   3   4
ENDBRANCH   2   3
ENDBRANCH   1   2
BRANCH   1  73
ATOM     73  C   UNL A   1      32.045  26.142  23.435  1.00  0.00     0.116 C 
BRANCH  73  74
ATOM     74  N   UNL A   1      32.521  25.379  22.300  1.00  0.00    -0.356 N 
ATOM     75  C   UNL A   1      33.030  24.122  22.220  1.00  0.00     0.227 C 
ATOM     76  H   UNL A   1      32.466  25.854  21.438  1.00  0.00     0.163 HD
ATOM     77  O   UNL A   1      33.292  23.712  21.082  1.00  0.00    -0.274 OA
BRANCH  75  78
ATOM     78  C   UNL A   1      33.327  23.228  23.438  1.00  0.00     0.108 C 
BRANCH  78  79
ATOM     79  C   UNL A   1      32.769  21.783  23.290  1.00  0.00     0.018 C 
BRANCH  79  80
ATOM     80  C   UNL A   1      32.623  20.851  24.500  1.00  0.00     0.004 C 
BRANCH  80  81
ATOM     81  C   UNL A   1      33.630  19.709  24.677  1.00  0.00     0.028 C 
BRANCH  81  82
ATOM     82  C   UNL A   1      33.004  18.395  25.130  1.00  0.00     0.156 C 
BRANCH  82  83
ATOM     83  O   UNL A   1      32.587  18.468  26.487  1.00  0.00    -0.396 OA
ATOM     84  H   UNL A   1      31.644  18.255  26.548  1.00  0.00     0.210 HD
ENDBRANCH  82  83
ENDBRANCH  81  82
ENDBRANCH  80  81
ENDBRANCH  79  80
ENDBRANCH  78  79
BRANCH  78  85
ATOM     85  C   UNL A   1      34.666  23.397  24.155  1.00  0.00    -0.035 A 
ATOM     86  C   UNL A   1      34.692  24.022  25.418  1.00  0.00     0.006 A 
ATOM     87  C   UNL A   1      35.897  23.024  23.593  1.00  0.00     0.006 A 
ATOM     88  C   UNL A   1      35.880  24.170  26.136  1.00  0.00     0.021 A 
ATOM     89  C   UNL A   1      37.090  23.167  24.310  1.00  0.00     0.021 A 
ATOM     90  C   UNL A   1      37.075  23.725  25.585  1.00  0.00     0.041 A 
ATOM     91  Cl  UNL A   1      38.537  23.883  26.476  1.00  0.00    -0.084 Cl
ENDBRANCH  78  85
ENDBRANCH  75  78
ENDBRANCH  73  74
ENDBRANCH   1  73
TORSDOF 20
ENDMDL
MODEL 2
REMARK VINA RESULT:     -10.6      5.570      8.388
REMARK SMILES O=C(NCCCCNC(=O)[C@@H](CCCCO)c1ccc(Cl)cc1)c1ccc(-c2c3nc(c(-c4cccc(S(=O)(=O)[O-])c4F)c4ccc([nH]4)c(-c4cccc(S(=O)(=O)[O-])c4F)c4nc(c(-c5cccc(S(=O)(=O)[O-])c5F)c5ccc2[nH]5)C=C4)C=C3)cc1
REMARK SMILES IDX 6 1 5 2 4 3 3 4 1 5 2 6 24 8 25 9 86 10 26 11 85 12 27 13
REMARK SMILES IDX 28 14 29 15 79 16 30 17 84 18 78 19 80 20 31 21 83 22 77 23
REMARK SMILES IDX 76 24 32 26 64 27 44 28 63 29 45 30 48 31 62 32 81 33 46 34
REMARK SMILES IDX 47 35 61 37 82 38 49 39 33 40 34 41 42 42 35 43 37 44 43 45
REMARK SMILES IDX 36 46 38 47 39 48 40 49 41 50 65 51 66 52 74 53 67 54 69 55
REMARK SMILES IDX 75 56 68 57 70 58 71 59 72 60 73 61 50 62 51 63 59 64 52 65
REMARK SMILES IDX 54 66 60 67 53 68 55 69 56 70 57 71 58 72 7 73 8 74 9 75
REMARK SMILES IDX 10 77 11 78 12 79 13 80 14 81 15 82 16 83 17 85 18 86 23 87
REMARK SMILES IDX 19 88 22 89 20 90 21 91
REMARK H PARENT 3 7 80 25 48 36 8 76 16 84
REMARK Flexibility Score: inf
ROOT
ATOM      1  C   UNL A   1      37.438  19.923  24.919  1.00  0.00     0.023 C 
ENDROOT
BRANCH   1   2
ATOM      2  C   UNL A   1      38.714  20.688  25.239  1.00  0.00     0.023 C 
BRANCH   2   3
ATOM      3  C   UNL A   1      39.477  20.171  26.445  1.00  0.00     0.116 C 
BRANCH   3   4
ATOM      4  N   UNL A   1      40.540  19.235  26.114  1.00  0.00    -0.352 N 
ATOM      5  O   UNL A   1      42.673  18.657  25.626  1.00  0.00    -0.269 OA
ATOM      6  C   UNL A   1      41.889  19.509  25.991  1.00  0.00     0.251 C 
ATOM      7  H   UNL A   1      40.269  18.301  25.960  1.00  0.00     0.163 HD
BRANCH   6   8
ATOM      8  C   UNL A   1      42.327  20.893  26.279  1.00  0.00     0.039 A 
ATOM      9  C   UNL A   1      42.545  21.284  27.603  1.00  0.00     0.014 A 
ATOM     10  C   UNL A   1      42.403  21.818  25.237  1.00  0.00     0.014 A 
ATOM     11  C   UNL A   1      42.682  22.631  27.900  1.00  0.00     0.010 A 
ATOM     12  C   UNL A   1      42.642  23.161  25.533  1.00  0.00     0.010 A 
ATOM     13  C   UNL A   1      42.754  23.581  26.868  1.00  0.00    -0.014 A 
BRANCH  13  14
ATOM     14  C   UNL A   1      43.072  24.987  27.212  1.00  0.00     0.031 A 
ATOM     15  C   UNL A   1      42.075  25.885  27.888  1.00  0.00     0.074 A 
ATOM     16  C   UNL A   1      44.298  25.443  26.888  1.00  0.00     0.049 A 
ATOM     17  N   UNL A   1      42.219  27.134  28.253  1.00  0.00    -0.248 NA
ATOM     18  C   UNL A   1      40.747  25.324  28.188  1.00  0.00     0.031 C 
ATOM     19  C   UNL A   1      45.319  24.665  26.180  1.00  0.00     0.029 A 
ATOM     20  N   UNL A   1      44.897  26.656  27.102  1.00  0.00    -0.354 N 
ATOM     21  C   UNL A   1      40.994  27.526  28.776  1.00  0.00     0.074 A 
ATOM     22  C   UNL A   1      40.115  26.378  28.696  1.00  0.00     0.031 C 
ATOM     23  C   UNL A   1      46.425  25.407  26.044  1.00  0.00     0.029 A 
ATOM     24  C   UNL A   1      46.172  26.732  26.594  1.00  0.00     0.049 A 
ATOM     25  H   UNL A   1      44.457  27.400  27.574  1.00  0.00     0.167 HD
ATOM     26  C   UNL A   1      40.645  28.731  29.284  1.00  0.00     0.034 A 
ATOM     27  C   UNL A   1      47.036  27.761  26.546  1.00  0.00     0.034 A 
ATOM     28  C   UNL A   1      41.547  29.847  29.407  1.00  0.00     0.049 A 
ATOM     29  C   UNL A   1      46.627  29.069  27.154  1.00  0.00     0.074 A 
ATOM     30  C   UNL A   1      41.317  31.076  30.001  1.00  0.00     0.029 A 
ATOM     31  N   UNL A   1      42.845  29.875  28.919  1.00  0.00    -0.354 N 
ATOM     32  N   UNL A   1      45.515  29.371  27.777  1.00  0.00    -0.248 NA
ATOM     33  C   UNL A   1      47.593  30.170  27.066  1.00  0.00     0.031 C 
ATOM     34  C   UNL A   1      42.471  31.854  29.857  1.00  0.00     0.029 A 
ATOM     35  C   UNL A   1      43.422  31.106  29.181  1.00  0.00     0.049 A 
ATOM     36  H   UNL A   1      43.290  29.130  28.457  1.00  0.00     0.167 HD
ATOM     37  C   UNL A   1      45.647  30.698  28.160  1.00  0.00     0.074 A 
ATOM     38  C   UNL A   1      46.965  31.127  27.735  1.00  0.00     0.031 C 
ATOM     39  C   UNL A   1      44.747  31.501  28.779  1.00  0.00     0.034 A 
BRANCH  26  40
ATOM     40  C   UNL A   1      39.239  28.917  29.792  1.00  0.00     0.023 A 
ATOM     41  C   UNL A   1      38.942  28.608  31.135  1.00  0.00     0.012 A 
ATOM     42  C   UNL A   1      38.250  29.510  28.983  1.00  0.00     0.148 A 
ATOM     43  C   UNL A   1      37.679  28.880  31.662  1.00  0.00     0.002 A 
ATOM     44  C   UNL A   1      37.003  29.807  29.523  1.00  0.00     0.091 A 
ATOM     45  F   UNL A   1      38.550  29.780  27.704  1.00  0.00    -0.205 F 
ATOM     46  C   UNL A   1      36.716  29.488  30.861  1.00  0.00     0.022 A 
BRANCH  44  47
ATOM     47  S   UNL A   1      35.716  30.651  28.596  1.00  0.00     0.127 S 
ATOM     48  O   UNL A   1      35.020  31.378  29.658  1.00  0.00    -0.237 OA
ATOM     49  O   UNL A   1      36.492  31.495  27.688  1.00  0.00    -0.237 OA
ATOM     50  O   UNL A   1      34.939  29.607  27.944  1.00  0.00    -0.744 OA
ENDBRANCH  44  47
ENDBRANCH  26  40
BRANCH  27  51
ATOM     51  C   UNL A   1      48.372  27.568  25.919  1.00  0.00     0.023 A 
ATOM     52  C   UNL A   1      49.464  27.185  26.719  1.00  0.00     0.012 A 
ATOM     53  C   UNL A   1      48.547  27.688  24.528  1.00  0.00     0.148 A 
ATOM     54  C   UNL A   1      50.712  26.938  26.142  1.00  0.00     0.002 A 
ATOM     55  C   UNL A   1      49.774  27.377  23.954  1.00  0.00     0.091 A 
ATOM     56  F   UNL A   1      47.504  28.077  23.781  1.00  0.00    -0.205 F 
ATOM     57  C   UNL A   1      50.862  27.017  24.759  1.00  0.00     0.022 A 
BRANCH  55  58
ATOM     58  S   UNL A   1      49.964  27.296  22.169  1.00  0.00     0.127 S 
ATOM     59  O   UNL A   1      49.772  28.689  21.780  1.00  0.00    -0.237 OA
ATOM     60  O   UNL A   1      51.332  26.796  22.017  1.00  0.00    -0.237 OA
ATOM     61  O   UNL A   1      48.941  26.353  21.733  1.00  0.00    -0.744 OA
ENDBRANCH  55  58
ENDBRANCH  27  51
BRANCH  39  62
ATOM     62  C   UNL A   1      45.158  32.927  29.018  1.00  0.00     0.023 A 
ATOM     63  C   UNL A   1      45.878  33.245  30.186  1.00  0.00     0.012 A 
ATOM     64  C   UNL A   1      44.879  33.933  28.075  1.00  0.00     0.148 A 
ATOM     65  C   UNL A   1      46.289  34.553  30.428  1.00  0.00     0.002 A 
ATOM     66  C   UNL A   1      45.330  35.228  28.304  1.00  0.00     0.091 A 
ATOM     67  F   UNL A   1      44.173  33.612  26.983  1.00  0.00    -0.205 F 
ATOM     68  C   UNL A   1      46.025  35.542  29.483  1.00  0.00     0.022 A 
BRANCH  66  69
ATOM     69  S   UNL A   1      45.101  36.543  27.102  1.00  0.00     0.127 S 
ATOM     70  O   UNL A   1      46.073  36.178  26.072  1.00  0.00    -0.237 OA
ATOM     71  O   UNL A   1      43.702  36.370  26.709  1.00  0.00    -0.237 OA
ATOM     72  O   UNL A   1      45.375  37.783  27.815  1.00  0.00    -0.744 OA
ENDBRANCH  66  69
ENDBRANCH  39  62
ENDBRANCH  13  14
ENDBRANCH   6   8
ENDBRANCH   3   4
ENDBRANCH   2   3
ENDBRANCH   1   2
BRANCH   1  73
ATOM     73  C   UNL A   1      36.196  20.790  24.728  1.00  0.00     0.116 C 
BRANCH  73  74
ATOM     74  N   UNL A   1      35.608  21.169  25.995  1.00  0.00    -0.356 N 
ATOM     75  C   UNL A   1      34.552  21.974  26.283  1.00  0.00     0.227 C 
ATOM     76  H   UNL A   1      36.049  20.776  26.783  1.00  0.00     0.163 HD
ATOM     77  O   UNL A   1      34.240  22.057  27.477  1.00  0.00    -0.274 OA
BRANCH  75  78
ATOM     78  C   UNL A   1      33.778  22.797  25.236  1.00  0.00     0.108 C 
BRANCH  78  79
ATOM     79  C   UNL A   1      32.808  21.939  24.375  1.00  0.00     0.018 C 
BRANCH  79  80
ATOM     80  C   UNL A   1      32.213  20.627  24.904  1.00  0.00     0.004 C 
BRANCH  80  81
ATOM     81  C   UNL A   1      32.628  19.309  24.240  1.00  0.00     0.028 C 
BRANCH  81  82
ATOM     82  C   UNL A   1      33.092  18.240  25.221  1.00  0.00     0.156 C 
BRANCH  82  83
ATOM     83  O   UNL A   1      32.555  18.467  26.517  1.00  0.00    -0.396 OA
ATOM     84  H   UNL A   1      32.644  17.662  27.050  1.00  0.00     0.210 HD
ENDBRANCH  82  83
ENDBRANCH  81  82
ENDBRANCH  80  81
ENDBRANCH  79  80
ENDBRANCH  78  79
BRANCH  78  85
ATOM     85  C   UNL A   1      33.331  24.210  25.608  1.00  0.00    -0.035 A 
ATOM     86  C   UNL A   1      32.018  24.410  26.081  1.00  0.00     0.006 A 
ATOM     87  C   UNL A   1      34.137  25.346  25.438  1.00  0.00     0.006 A 
ATOM     88  C   UNL A   1      31.566  25.673  26.472  1.00  0.00     0.021 A 
ATOM     89  C   UNL A   1      33.689  26.613  25.831  1.00  0.00     0.021 A 
ATOM     90  C   UNL A   1      32.413  26.769  26.360  1.00  0.00     0.041 A 
ATOM     91  Cl  UNL A   1      31.868  28.321  26.863  1.00  0.00    -0.084 Cl
ENDBRANCH  78  85
ENDBRANCH  75  78
ENDBRANCH  73  74
ENDBRANCH   1  73
TORSDOF 20
ENDMDL
MODEL 3
REMARK VINA RESULT:     -10.6      2.619      3.398
REMARK SMILES O=C(NCCCCNC(=O)[C@@H](CCCCO)c1ccc(Cl)cc1)c1ccc(-c2c3nc(c(-c4cccc(S(=O)(=O)[O-])c4F)c4ccc([nH]4)c(-c4cccc(S(=O)(=O)[O-])c4F)c4nc(c(-c5cccc(S(=O)(=O)[O-])c5F)c5ccc2[nH]5)C=C4)C=C3)cc1
REMARK SMILES IDX 6 1 5 2 4 3 3 4 1 5 2 6 24 8 25 9 86 10 26 11 85 12 27 13
REMARK SMILES IDX 28 14 29 15 79 16 30 17 84 18 78 19 80 20 31 21 83 22 77 23
REMARK SMILES IDX 76 24 32 26 64 27 44 28 63 29 45 30 48 31 62 32 81 33 46 34
REMARK SMILES IDX 47 35 61 37 82 38 49 39 33 40 34 41 42 42 35 43 37 44 43 45
REMARK SMILES IDX 36 46 38 47 39 48 40 49 41 50 65 51 66 52 74 53 67 54 69 55
REMARK SMILES IDX 75 56 68 57 70 58 71 59 72 60 73 61 50 62 51 63 59 64 52 65
REMARK SMILES IDX 54 66 60 67 53 68 55 69 56 70 57 71 58 72 7 73 8 74 9 75
REMARK SMILES IDX 10 77 11 78 12 79 13 80 14 81 15 82 16 83 17 85 18 86 23 87
REMARK SMILES IDX 19 88 22 89 20 90 21 91
REMARK H PARENT 3 7 80 25 48 36 8 76 16 84
REMARK Flexibility Score: inf
ROOT
ATOM      1  C   UNL A   1      32.066  27.679  26.595  1.00  0.00     0.023 C 
ENDROOT
BRANCH   1   2
ATOM      2  C   UNL A   1      33.567  27.637  26.837  1.00  0.00     0.023 C 
BRANCH   2   3
ATOM      3  C   UNL A   1      34.343  28.779  26.205  1.00  0.00     0.116 C 
BRANCH   3   4
ATOM      4  N   UNL A   1      33.853  30.099  26.571  1.00  0.00    -0.352 N 
ATOM      5  O   UNL A   1      33.846  32.010  27.783  1.00  0.00    -0.269 OA
ATOM      6  C   UNL A   1      34.395  30.964  27.503  1.00  0.00     0.251 C 
ATOM      7  H   UNL A   1      33.046  30.412  26.103  1.00  0.00     0.163 HD
BRANCH   6   8
ATOM      8  C   UNL A   1      35.645  30.541  28.172  1.00  0.00     0.039 A 
ATOM      9  C   UNL A   1      36.876  30.850  27.590  1.00  0.00     0.014 A 
ATOM     10  C   UNL A   1      35.572  29.739  29.312  1.00  0.00     0.014 A 
ATOM     11  C   UNL A   1      38.024  30.228  28.055  1.00  0.00     0.010 A 
ATOM     12  C   UNL A   1      36.745  29.195  29.839  1.00  0.00     0.010 A 
ATOM     13  C   UNL A   1      37.975  29.411  29.197  1.00  0.00    -0.014 A 
BRANCH  13  14
ATOM     14  C   UNL A   1      39.245  28.901  29.766  1.00  0.00     0.031 A 
ATOM     15  C   UNL A   1      39.869  29.506  30.991  1.00  0.00     0.074 A 
ATOM     16  C   UNL A   1      39.834  27.866  29.135  1.00  0.00     0.049 A 
ATOM     17  N   UNL A   1      40.973  29.158  31.600  1.00  0.00    -0.248 NA
ATOM     18  C   UNL A   1      39.180  30.651  31.610  1.00  0.00     0.031 C 
ATOM     19  C   UNL A   1      39.336  27.242  27.905  1.00  0.00     0.029 A 
ATOM     20  N   UNL A   1      40.969  27.158  29.427  1.00  0.00    -0.354 N 
ATOM     21  C   UNL A   1      41.142  30.063  32.639  1.00  0.00     0.074 A 
ATOM     22  C   UNL A   1      40.017  30.975  32.590  1.00  0.00     0.031 C 
ATOM     23  C   UNL A   1      40.142  26.230  27.565  1.00  0.00     0.029 A 
ATOM     24  C   UNL A   1      41.248  26.172  28.511  1.00  0.00     0.049 A 
ATOM     25  H   UNL A   1      41.530  27.337  30.217  1.00  0.00     0.167 HD
ATOM     26  C   UNL A   1      42.140  30.118  33.552  1.00  0.00     0.034 A 
ATOM     27  C   UNL A   1      42.293  25.330  28.421  1.00  0.00     0.034 A 
ATOM     28  C   UNL A   1      43.223  29.170  33.621  1.00  0.00     0.049 A 
ATOM     29  C   UNL A   1      43.359  25.395  29.472  1.00  0.00     0.074 A 
ATOM     30  C   UNL A   1      44.226  29.080  34.571  1.00  0.00     0.029 A 
ATOM     31  N   UNL A   1      43.450  28.158  32.701  1.00  0.00    -0.354 N 
ATOM     32  N   UNL A   1      43.420  26.163  30.531  1.00  0.00    -0.248 NA
ATOM     33  C   UNL A   1      44.488  24.469  29.327  1.00  0.00     0.031 C 
ATOM     34  C   UNL A   1      45.071  28.023  34.215  1.00  0.00     0.029 A 
ATOM     35  C   UNL A   1      44.589  27.450  33.049  1.00  0.00     0.049 A 
ATOM     36  H   UNL A   1      42.886  27.970  31.918  1.00  0.00     0.167 HD
ATOM     37  C   UNL A   1      44.594  25.814  31.183  1.00  0.00     0.074 A 
ATOM     38  C   UNL A   1      45.189  24.735  30.421  1.00  0.00     0.031 C 
ATOM     39  C   UNL A   1      45.146  26.358  32.294  1.00  0.00     0.034 A 
BRANCH  26  40
ATOM     40  C   UNL A   1      42.106  31.208  34.591  1.00  0.00     0.023 A 
ATOM     41  C   UNL A   1      41.561  30.937  35.862  1.00  0.00     0.012 A 
ATOM     42  C   UNL A   1      42.721  32.453  34.352  1.00  0.00     0.148 A 
ATOM     43  C   UNL A   1      41.623  31.892  36.878  1.00  0.00     0.002 A 
ATOM     44  C   UNL A   1      42.806  33.388  35.378  1.00  0.00     0.091 A 
ATOM     45  F   UNL A   1      43.217  32.695  33.130  1.00  0.00    -0.205 F 
ATOM     46  C   UNL A   1      42.254  33.110  36.639  1.00  0.00     0.022 A 
BRANCH  44  47
ATOM     47  S   UNL A   1      43.657  34.961  35.195  1.00  0.00     0.127 S 
ATOM     48  O   UNL A   1      42.730  35.697  34.335  1.00  0.00    -0.237 OA
ATOM     49  O   UNL A   1      43.719  35.441  36.575  1.00  0.00    -0.237 OA
ATOM     50  O   UNL A   1      44.948  34.652  34.598  1.00  0.00    -0.744 OA
ENDBRANCH  44  47
ENDBRANCH  26  40
BRANCH  27  51
ATOM     51  C   UNL A   1      42.349  24.349  27.302  1.00  0.00     0.023 A 
ATOM     52  C   UNL A   1      43.021  24.690  26.114  1.00  0.00     0.012 A 
ATOM     53  C   UNL A   1      41.807  23.057  27.439  1.00  0.00     0.148 A 
ATOM     54  C   UNL A   1      43.139  23.763  25.076  1.00  0.00     0.002 A 
ATOM     55  C   UNL A   1      41.986  22.120  26.429  1.00  0.00     0.091 A 
ATOM     56  F   UNL A   1      41.149  22.753  28.567  1.00  0.00    -0.205 F 
ATOM     57  C   UNL A   1      42.637  22.474  25.240  1.00  0.00     0.022 A 
BRANCH  55  58
ATOM     58  S   UNL A   1      41.512  20.403  26.668  1.00  0.00     0.127 S 
ATOM     59  O   UNL A   1      40.069  20.510  26.855  1.00  0.00    -0.237 OA
ATOM     60  O   UNL A   1      41.925  19.781  25.409  1.00  0.00    -0.237 OA
ATOM     61  O   UNL A   1      42.286  19.966  27.823  1.00  0.00    -0.744 OA
ENDBRANCH  55  58
ENDBRANCH  27  51
BRANCH  39  62
ATOM     62  C   UNL A   1      46.469  25.800  32.739  1.00  0.00     0.023 A 
ATOM     63  C   UNL A   1      47.656  26.412  32.291  1.00  0.00     0.012 A 
ATOM     64  C   UNL A   1      46.539  24.714  33.631  1.00  0.00     0.148 A 
ATOM     65  C   UNL A   1      48.897  25.931  32.701  1.00  0.00     0.002 A 
ATOM     66  C   UNL A   1      47.780  24.266  34.067  1.00  0.00     0.091 A 
ATOM     67  F   UNL A   1      45.398  24.133  34.025  1.00  0.00    -0.205 F 
ATOM     68  C   UNL A   1      48.960  24.866  33.596  1.00  0.00     0.022 A 
BRANCH  66  69
ATOM     69  S   UNL A   1      47.947  22.953  35.281  1.00  0.00     0.127 S 
ATOM     70  O   UNL A   1      49.399  22.845  35.408  1.00  0.00    -0.237 OA
ATOM     71  O   UNL A   1      47.272  23.519  36.451  1.00  0.00    -0.237 OA
ATOM     72  O   UNL A   1      47.277  21.794  34.704  1.00  0.00    -0.744 OA
ENDBRANCH  66  69
ENDBRANCH  39  62
ENDBRANCH  13  14
ENDBRANCH   6   8
ENDBRANCH   3   4
ENDBRANCH   2   3
ENDBRANCH   1   2
BRANCH   1  73
ATOM     73  C   UNL A   1      31.510  26.514  25.778  1.00  0.00     0.116 C 
BRANCH  73  74
ATOM     74  N   UNL A   1      31.222  25.366  26.611  1.00  0.00    -0.356 N 
ATOM     75  C   UNL A   1      31.829  24.154  26.700  1.00  0.00     0.227 C 
ATOM     76  H   UNL A   1      30.453  25.484  27.216  1.00  0.00     0.163 HD
ATOM     77  O   UNL A   1      31.388  23.387  27.567  1.00  0.00    -0.274 OA
BRANCH  75  78
ATOM     78  C   UNL A   1      32.968  23.685  25.778  1.00  0.00     0.108 C 
BRANCH  78  79
ATOM     79  C   UNL A   1      34.381  24.070  26.303  1.00  0.00     0.018 C 
BRANCH  79  80
ATOM     80  C   UNL A   1      35.560  24.295  25.346  1.00  0.00     0.004 C 
BRANCH  80  81
ATOM     81  C   UNL A   1      36.961  23.853  25.785  1.00  0.00     0.028 C 
BRANCH  81  82
ATOM     82  C   UNL A   1      37.252  22.379  25.537  1.00  0.00     0.156 C 
BRANCH  82  83
ATOM     83  O   UNL A   1      38.619  22.176  25.204  1.00  0.00    -0.396 OA
ATOM     84  H   UNL A   1      38.867  21.259  25.397  1.00  0.00     0.210 HD
ENDBRANCH  82  83
ENDBRANCH  81  82
ENDBRANCH  80  81
ENDBRANCH  79  80
ENDBRANCH  78  79
BRANCH  78  85
ATOM     85  C   UNL A   1      32.823  22.341  25.067  1.00  0.00    -0.035 A 
ATOM     86  C   UNL A   1      33.282  21.173  25.709  1.00  0.00     0.006 A 
ATOM     87  C   UNL A   1      32.314  22.205  23.765  1.00  0.00     0.006 A 
ATOM     88  C   UNL A   1      33.140  19.913  25.123  1.00  0.00     0.021 A 
ATOM     89  C   UNL A   1      32.167  20.944  23.176  1.00  0.00     0.021 A 
ATOM     90  C   UNL A   1      32.566  19.802  23.863  1.00  0.00     0.041 A 
ATOM     91  Cl  UNL A   1      32.368  18.251  23.149  1.00  0.00    -0.084 Cl
ENDBRANCH  78  85
ENDBRANCH  75  78
ENDBRANCH  73  74
ENDBRANCH   1  73
TORSDOF 20
ENDMDL
