MODEL 1
REMARK VINA RESULT:     -12.3      0.000      0.000
REMARK SMILES O=C(NCCCCNC(=O)c1cccc2c1ccn2Cc1ccncc1)c1ccc(-c2c3nc(c(-c4cccc(S(=O)(=O)[O-])c4F)c4ccc([nH]4)c(-c4cccc(S(=O)(=O)[O-])c4F)c4nc(c(-c5cccc(S(=O)(=O)[O-])c5F)c5ccc2[nH]5)C=C4)C=C3)cc1
REMARK SMILES IDX 5 1 4 2 3 3 1 4 2 5 27 7 28 8 89 9 29 10 88 11 30 12 31 13
REMARK SMILES IDX 32 14 82 15 33 16 87 17 81 18 83 19 34 20 86 21 80 22 79 23
REMARK SMILES IDX 35 25 67 26 47 27 66 28 48 29 51 30 65 31 84 32 49 33 50 34
REMARK SMILES IDX 64 36 85 37 52 38 36 39 37 40 45 41 38 42 40 43 46 44 39 45
REMARK SMILES IDX 41 46 42 47 43 48 44 49 68 50 69 51 77 52 70 53 72 54 78 55
REMARK SMILES IDX 71 56 73 57 74 58 75 59 76 60 53 61 54 62 62 63 55 64 57 65
REMARK SMILES IDX 63 66 56 67 58 68 59 69 60 70 61 71 6 72 7 73 8 74 9 75
REMARK SMILES IDX 10 77 11 78 12 79 16 80 13 81 15 82 17 83 14 84 19 85 18 86
REMARK SMILES IDX 20 87 21 88 22 89 26 90 23 91 25 92 24 93
REMARK H PARENT 3 6 83 24 51 35 8 76
REMARK Flexibility Score: inf
ROOT
ATOM      1  C   UNL A   1      38.146  19.211  25.258  1.00  0.00     0.023 C 
ENDROOT
BRANCH   1   2
ATOM      2  C   UNL A   1      39.381  19.891  25.821  1.00  0.00     0.116 C 
BRANCH   2   3
ATOM      3  N   UNL A   1      40.590  19.053  25.795  1.00  0.00    -0.352 N 
ATOM      4  O   UNL A   1      42.823  18.748  25.458  1.00  0.00    -0.269 OA
ATOM      5  C   UNL A   1      41.919  19.465  25.856  1.00  0.00     0.251 C 
ATOM      6  H   UNL A   1      40.441  18.082  25.728  1.00  0.00     0.163 HD
BRANCH   5   7
ATOM      7  C   UNL A   1      42.204  20.789  26.442  1.00  0.00     0.039 A 
ATOM      8  C   UNL A   1      42.681  21.880  25.714  1.00  0.00     0.014 A 
ATOM      9  C   UNL A   1      41.914  20.919  27.790  1.00  0.00     0.014 A 
ATOM     10  C   UNL A   1      42.812  23.099  26.378  1.00  0.00     0.010 A 
ATOM     11  C   UNL A   1      41.705  22.154  28.312  1.00  0.00     0.010 A 
ATOM     12  C   UNL A   1      42.314  23.218  27.688  1.00  0.00    -0.014 A 
BRANCH  12  13
ATOM     13  C   UNL A   1      42.375  24.448  28.459  1.00  0.00     0.031 A 
ATOM     14  C   UNL A   1      41.217  25.335  28.235  1.00  0.00     0.074 A 
ATOM     15  C   UNL A   1      43.310  24.671  29.413  1.00  0.00     0.049 A 
ATOM     16  N   UNL A   1      41.190  26.386  27.488  1.00  0.00    -0.248 NA
ATOM     17  C   UNL A   1      39.898  24.901  28.716  1.00  0.00     0.031 C 
ATOM     18  C   UNL A   1      44.323  23.746  29.956  1.00  0.00     0.029 A 
ATOM     19  N   UNL A   1      43.481  25.767  30.196  1.00  0.00    -0.354 N 
ATOM     20  C   UNL A   1      39.911  26.903  27.641  1.00  0.00     0.074 A 
ATOM     21  C   UNL A   1      39.108  25.843  28.195  1.00  0.00     0.031 C 
ATOM     22  C   UNL A   1      44.817  24.233  31.116  1.00  0.00     0.029 A 
ATOM     23  C   UNL A   1      44.313  25.577  31.298  1.00  0.00     0.049 A 
ATOM     24  H   UNL A   1      43.050  26.629  30.000  1.00  0.00     0.167 HD
ATOM     25  C   UNL A   1      39.693  28.243  27.581  1.00  0.00     0.034 A 
ATOM     26  C   UNL A   1      44.543  26.473  32.290  1.00  0.00     0.034 A 
ATOM     27  C   UNL A   1      40.843  28.942  27.064  1.00  0.00     0.049 A 
ATOM     28  C   UNL A   1      44.221  27.798  31.713  1.00  0.00     0.074 A 
ATOM     29  C   UNL A   1      41.554  28.917  25.882  1.00  0.00     0.029 A 
ATOM     30  N   UNL A   1      41.674  29.502  28.004  1.00  0.00    -0.354 N 
ATOM     31  N   UNL A   1      44.881  28.339  30.728  1.00  0.00    -0.248 NA
ATOM     32  C   UNL A   1      42.895  28.339  31.958  1.00  0.00     0.031 C 
ATOM     33  C   UNL A   1      42.920  29.058  26.268  1.00  0.00     0.029 A 
ATOM     34  C   UNL A   1      42.970  29.234  27.654  1.00  0.00     0.049 A 
ATOM     35  H   UNL A   1      41.385  30.012  28.796  1.00  0.00     0.167 HD
ATOM     36  C   UNL A   1      43.901  28.950  29.958  1.00  0.00     0.074 A 
ATOM     37  C   UNL A   1      42.727  29.023  30.825  1.00  0.00     0.031 C 
ATOM     38  C   UNL A   1      44.048  29.068  28.606  1.00  0.00     0.034 A 
BRANCH  25  39
ATOM     39  C   UNL A   1      38.622  28.960  28.358  1.00  0.00     0.023 A 
ATOM     40  C   UNL A   1      37.786  29.848  27.652  1.00  0.00     0.012 A 
ATOM     41  C   UNL A   1      38.565  29.001  29.769  1.00  0.00     0.148 A 
ATOM     42  C   UNL A   1      36.939  30.739  28.321  1.00  0.00     0.002 A 
ATOM     43  C   UNL A   1      37.665  29.829  30.428  1.00  0.00     0.091 A 
ATOM     44  F   UNL A   1      39.478  28.346  30.493  1.00  0.00    -0.205 F 
ATOM     45  C   UNL A   1      36.866  30.718  29.709  1.00  0.00     0.022 A 
BRANCH  43  46
ATOM     46  S   UNL A   1      37.511  29.813  32.217  1.00  0.00     0.127 S 
ATOM     47  O   UNL A   1      38.777  30.418  32.623  1.00  0.00    -0.237 OA
ATOM     48  O   UNL A   1      36.328  30.649  32.421  1.00  0.00    -0.237 OA
ATOM     49  O   UNL A   1      37.322  28.413  32.578  1.00  0.00    -0.744 OA
ENDBRANCH  43  46
ENDBRANCH  25  39
BRANCH  26  50
ATOM     50  C   UNL A   1      44.738  26.296  33.752  1.00  0.00     0.023 A 
ATOM     51  C   UNL A   1      45.992  26.635  34.311  1.00  0.00     0.012 A 
ATOM     52  C   UNL A   1      43.646  26.139  34.631  1.00  0.00     0.148 A 
ATOM     53  C   UNL A   1      46.133  26.901  35.678  1.00  0.00     0.002 A 
ATOM     54  C   UNL A   1      43.795  26.396  35.994  1.00  0.00     0.091 A 
ATOM     55  F   UNL A   1      42.445  25.837  34.124  1.00  0.00    -0.205 F 
ATOM     56  C   UNL A   1      45.030  26.801  36.517  1.00  0.00     0.022 A 
BRANCH  54  57
ATOM     57  S   UNL A   1      42.416  26.296  37.145  1.00  0.00     0.127 S 
ATOM     58  O   UNL A   1      41.908  24.947  36.894  1.00  0.00    -0.237 OA
ATOM     59  O   UNL A   1      43.084  26.469  38.431  1.00  0.00    -0.237 OA
ATOM     60  O   UNL A   1      41.505  27.361  36.749  1.00  0.00    -0.744 OA
ENDBRANCH  54  57
ENDBRANCH  26  50
BRANCH  38  61
ATOM     61  C   UNL A   1      45.411  28.797  28.020  1.00  0.00     0.023 A 
ATOM     62  C   UNL A   1      46.473  29.723  28.090  1.00  0.00     0.012 A 
ATOM     63  C   UNL A   1      45.670  27.494  27.564  1.00  0.00     0.148 A 
ATOM     64  C   UNL A   1      47.769  29.350  27.718  1.00  0.00     0.002 A 
ATOM     65  C   UNL A   1      46.964  27.117  27.232  1.00  0.00     0.091 A 
ATOM     66  F   UNL A   1      44.644  26.632  27.513  1.00  0.00    -0.205 F 
ATOM     67  C   UNL A   1      48.018  28.041  27.304  1.00  0.00     0.022 A 
BRANCH  65  68
ATOM     68  S   UNL A   1      47.368  25.424  26.798  1.00  0.00     0.127 S 
ATOM     69  O   UNL A   1      48.803  25.511  26.535  1.00  0.00    -0.237 OA
ATOM     70  O   UNL A   1      47.014  24.699  28.019  1.00  0.00    -0.237 OA
ATOM     71  O   UNL A   1      46.546  25.091  25.642  1.00  0.00    -0.744 OA
ENDBRANCH  65  68
ENDBRANCH  38  61
ENDBRANCH  12  13
ENDBRANCH   5   7
ENDBRANCH   2   3
ENDBRANCH   1   2
BRANCH   1  72
ATOM     72  C   UNL A   1      37.113  20.164  24.639  1.00  0.00     0.023 C 
BRANCH  72  73
ATOM     73  C   UNL A   1      36.827  21.470  25.390  1.00  0.00     0.116 C 
BRANCH  73  74
ATOM     74  N   UNL A   1      35.823  21.322  26.426  1.00  0.00    -0.352 N 
ATOM     75  C   UNL A   1      34.494  21.680  26.415  1.00  0.00     0.251 C 
ATOM     76  H   UNL A   1      36.138  20.904  27.260  1.00  0.00     0.163 HD
ATOM     77  O   UNL A   1      33.862  21.693  27.464  1.00  0.00    -0.269 OA
BRANCH  75  78
ATOM     78  C   UNL A   1      33.849  22.101  25.153  1.00  0.00     0.049 A 
ATOM     79  C   UNL A   1      33.179  21.179  24.337  1.00  0.00     0.014 A 
ATOM     80  C   UNL A   1      33.905  23.459  24.774  1.00  0.00     0.012 A 
ATOM     81  C   UNL A   1      32.650  21.579  23.114  1.00  0.00     0.003 A 
ATOM     82  C   UNL A   1      33.334  23.850  23.553  1.00  0.00     0.049 A 
ATOM     83  C   UNL A   1      34.473  24.622  25.363  1.00  0.00     0.029 A 
ATOM     84  C   UNL A   1      32.724  22.914  22.698  1.00  0.00     0.027 A 
ATOM     85  N   UNL A   1      33.512  25.220  23.450  1.00  0.00    -0.343 N 
ATOM     86  C   UNL A   1      34.286  25.666  24.494  1.00  0.00     0.087 A 
BRANCH  85  87
ATOM     87  C   UNL A   1      33.044  26.076  22.362  1.00  0.00     0.157 C 
BRANCH  87  88
ATOM     88  C   UNL A   1      31.846  26.918  22.737  1.00  0.00    -0.025 A 
ATOM     89  C   UNL A   1      30.637  26.339  23.142  1.00  0.00     0.025 A 
ATOM     90  C   UNL A   1      31.923  28.315  22.727  1.00  0.00     0.025 A 
ATOM     91  C   UNL A   1      29.576  27.159  23.497  1.00  0.00     0.111 A 
ATOM     92  C   UNL A   1      30.811  29.051  23.118  1.00  0.00     0.111 A 
ATOM     93  N   UNL A   1      29.643  28.504  23.514  1.00  0.00    -0.265 NA
ENDBRANCH  87  88
ENDBRANCH  85  87
ENDBRANCH  75  78
ENDBRANCH  73  74
ENDBRANCH  72  73
ENDBRANCH   1  72
TORSDOF 16
ENDMDL
MODEL 2
REMARK VINA RESULT:     -12.1      2.173      2.830
REMARK SMILES O=C(NCCCCNC(=O)c1cccc2c1ccn2Cc1ccncc1)c1ccc(-c2c3nc(c(-c4cccc(S(=O)(=O)[O-])c4F)c4ccc([nH]4)c(-c4cccc(S(=O)(=O)[O-])c4F)c4nc(c(-c5cccc(S(=O)(=O)[O-])c5F)c5ccc2[nH]5)C=C4)C=C3)cc1
REMARK SMILES IDX 5 1 4 2 3 3 1 4 2 5 27 7 28 8 89 9 29 10 88 11 30 12 31 13
REMARK SMILES IDX 32 14 82 15 33 16 87 17 81 18 83 19 34 20 86 21 80 22 79 23
REMARK SMILES IDX 35 25 67 26 47 27 66 28 48 29 51 30 65 31 84 32 49 33 50 34
REMARK SMILES IDX 64 36 85 37 52 38 36 39 37 40 45 41 38 42 40 43 46 44 39 45
REMARK SMILES IDX 41 46 42 47 43 48 44 49 68 50 69 51 77 52 70 53 72 54 78 55
REMARK SMILES IDX 71 56 73 57 74 58 75 59 76 60 53 61 54 62 62 63 55 64 57 65
REMARK SMILES IDX 63 66 56 67 58 68 59 69 60 70 61 71 6 72 7 73 8 74 9 75
REMARK SMILES IDX 10 77 11 78 12 79 16 80 13 81 15 82 17 83 14 84 19 85 18 86
REMARK SMILES IDX 20 87 21 88 22 89 26 90 23 91 25 92 24 93
REMARK H PARENT 3 6 83 24 51 35 8 76
REMARK Flexibility Score: inf
ROOT
ATOM      1  C   UNL A   1      35.184  21.064  25.280  1.00  0.00     0.023 C 
ENDROOT
BRANCH   1   2
ATOM      2  C   UNL A   1      36.595  21.089  24.722  1.00  0.00     0.116 C 
BRANCH   2   3
ATOM      3  N   UNL A   1      37.417  19.937  25.124  1.00  0.00    -0.352 N 
ATOM      4  O   UNL A   1      39.428  18.918  25.463  1.00  0.00    -0.269 OA
ATOM      5  C   UNL A   1      38.755  19.935  25.514  1.00  0.00     0.251 C 
ATOM      6  H   UNL A   1      36.969  19.061  25.117  1.00  0.00     0.163 HD
BRANCH   5   7
ATOM      7  C   UNL A   1      39.327  21.198  26.017  1.00  0.00     0.039 A 
ATOM      8  C   UNL A   1      38.621  22.399  26.098  1.00  0.00     0.014 A 
ATOM      9  C   UNL A   1      40.633  21.121  26.474  1.00  0.00     0.014 A 
ATOM     10  C   UNL A   1      39.258  23.491  26.687  1.00  0.00     0.010 A 
ATOM     11  C   UNL A   1      41.092  22.055  27.344  1.00  0.00     0.010 A 
ATOM     12  C   UNL A   1      40.503  23.298  27.310  1.00  0.00    -0.014 A 
BRANCH  12  13
ATOM     13  C   UNL A   1      41.239  24.361  27.975  1.00  0.00     0.031 A 
ATOM     14  C   UNL A   1      40.464  25.610  28.110  1.00  0.00     0.074 A 
ATOM     15  C   UNL A   1      42.444  24.165  28.562  1.00  0.00     0.049 A 
ATOM     16  N   UNL A   1      40.576  26.664  27.377  1.00  0.00    -0.248 NA
ATOM     17  C   UNL A   1      39.303  25.620  29.012  1.00  0.00     0.031 C 
ATOM     18  C   UNL A   1      43.179  22.904  28.777  1.00  0.00     0.029 A 
ATOM     19  N   UNL A   1      43.231  25.063  29.206  1.00  0.00    -0.354 N 
ATOM     20  C   UNL A   1      39.683  27.577  27.921  1.00  0.00     0.074 A 
ATOM     21  C   UNL A   1      38.777  26.818  28.744  1.00  0.00     0.031 C 
ATOM     22  C   UNL A   1      44.155  23.090  29.693  1.00  0.00     0.029 A 
ATOM     23  C   UNL A   1      44.246  24.504  29.982  1.00  0.00     0.049 A 
ATOM     24  H   UNL A   1      43.096  26.035  29.131  1.00  0.00     0.167 HD
ATOM     25  C   UNL A   1      39.948  28.909  27.887  1.00  0.00     0.034 A 
ATOM     26  C   UNL A   1      45.081  25.178  30.811  1.00  0.00     0.034 A 
ATOM     27  C   UNL A   1      41.043  29.209  26.998  1.00  0.00     0.049 A 
ATOM     28  C   UNL A   1      45.085  26.577  30.325  1.00  0.00     0.074 A 
ATOM     29  C   UNL A   1      41.283  29.038  25.650  1.00  0.00     0.029 A 
ATOM     30  N   UNL A   1      42.271  29.365  27.594  1.00  0.00    -0.354 N 
ATOM     31  N   UNL A   1      45.544  26.937  29.160  1.00  0.00    -0.248 NA
ATOM     32  C   UNL A   1      44.189  27.521  30.971  1.00  0.00     0.031 C 
ATOM     33  C   UNL A   1      42.657  28.665  25.563  1.00  0.00     0.029 A 
ATOM     34  C   UNL A   1      43.203  28.695  26.849  1.00  0.00     0.049 A 
ATOM     35  H   UNL A   1      42.449  29.874  28.418  1.00  0.00     0.167 HD
ATOM     36  C   UNL A   1      44.654  27.912  28.730  1.00  0.00     0.074 A 
ATOM     37  C   UNL A   1      43.923  28.313  29.930  1.00  0.00     0.031 C 
ATOM     38  C   UNL A   1      44.395  28.086  27.401  1.00  0.00     0.034 A 
BRANCH  25  39
ATOM     39  C   UNL A   1      39.506  29.885  28.946  1.00  0.00     0.023 A 
ATOM     40  C   UNL A   1      40.149  29.825  30.199  1.00  0.00     0.012 A 
ATOM     41  C   UNL A   1      38.332  30.667  28.857  1.00  0.00     0.148 A 
ATOM     42  C   UNL A   1      39.643  30.508  31.310  1.00  0.00     0.002 A 
ATOM     43  C   UNL A   1      37.879  31.407  29.940  1.00  0.00     0.091 A 
ATOM     44  F   UNL A   1      37.563  30.592  27.767  1.00  0.00    -0.205 F 
ATOM     45  C   UNL A   1      38.517  31.313  31.178  1.00  0.00     0.022 A 
BRANCH  43  46
ATOM     46  S   UNL A   1      36.449  32.486  29.808  1.00  0.00     0.127 S 
ATOM     47  O   UNL A   1      36.663  33.390  30.935  1.00  0.00    -0.237 OA
ATOM     48  O   UNL A   1      36.646  33.081  28.486  1.00  0.00    -0.237 OA
ATOM     49  O   UNL A   1      35.290  31.606  29.899  1.00  0.00    -0.744 OA
ENDBRANCH  43  46
ENDBRANCH  25  39
BRANCH  26  50
ATOM     50  C   UNL A   1      45.655  24.821  32.135  1.00  0.00     0.023 A 
ATOM     51  C   UNL A   1      46.827  25.488  32.563  1.00  0.00     0.012 A 
ATOM     52  C   UNL A   1      44.906  24.119  33.101  1.00  0.00     0.148 A 
ATOM     53  C   UNL A   1      47.186  25.532  33.915  1.00  0.00     0.002 A 
ATOM     54  C   UNL A   1      45.274  24.160  34.446  1.00  0.00     0.091 A 
ATOM     55  F   UNL A   1      43.782  23.496  32.723  1.00  0.00    -0.205 F 
ATOM     56  C   UNL A   1      46.399  24.886  34.860  1.00  0.00     0.022 A 
BRANCH  54  57
ATOM     57  S   UNL A   1      44.306  23.354  35.730  1.00  0.00     0.127 S 
ATOM     58  O   UNL A   1      44.304  21.961  35.282  1.00  0.00    -0.237 OA
ATOM     59  O   UNL A   1      45.110  23.614  36.921  1.00  0.00    -0.237 OA
ATOM     60  O   UNL A   1      42.999  23.997  35.688  1.00  0.00    -0.744 OA
ENDBRANCH  54  57
ENDBRANCH  26  50
BRANCH  38  61
ATOM     61  C   UNL A   1      45.311  27.410  26.412  1.00  0.00     0.023 A 
ATOM     62  C   UNL A   1      46.573  27.932  26.055  1.00  0.00     0.012 A 
ATOM     63  C   UNL A   1      44.963  26.117  25.988  1.00  0.00     0.148 A 
ATOM     64  C   UNL A   1      47.469  27.172  25.296  1.00  0.00     0.002 A 
ATOM     65  C   UNL A   1      45.870  25.352  25.268  1.00  0.00     0.091 A 
ATOM     66  F   UNL A   1      43.760  25.643  26.346  1.00  0.00    -0.205 F 
ATOM     67  C   UNL A   1      47.124  25.875  24.916  1.00  0.00     0.022 A 
BRANCH  65  68
ATOM     68  S   UNL A   1      45.530  23.643  24.844  1.00  0.00     0.127 S 
ATOM     69  O   UNL A   1      46.584  23.355  23.872  1.00  0.00    -0.237 OA
ATOM     70  O   UNL A   1      45.688  22.968  26.133  1.00  0.00    -0.237 OA
ATOM     71  O   UNL A   1      44.173  23.615  24.313  1.00  0.00    -0.744 OA
ENDBRANCH  65  68
ENDBRANCH  38  61
ENDBRANCH  12  13
ENDBRANCH   5   7
ENDBRANCH   2   3
ENDBRANCH   1   2
BRANCH   1  72
ATOM     72  C   UNL A   1      34.979  21.902  26.550  1.00  0.00     0.023 C 
BRANCH  72  73
ATOM     73  C   UNL A   1      34.045  23.114  26.446  1.00  0.00     0.116 C 
BRANCH  73  74
ATOM     74  N   UNL A   1      32.752  22.890  27.063  1.00  0.00    -0.352 N 
ATOM     75  C   UNL A   1      31.517  23.386  26.712  1.00  0.00     0.251 C 
ATOM     76  H   UNL A   1      32.757  22.295  27.847  1.00  0.00     0.163 HD
ATOM     77  O   UNL A   1      30.578  23.277  27.490  1.00  0.00    -0.269 OA
BRANCH  75  78
ATOM     78  C   UNL A   1      31.340  24.098  25.428  1.00  0.00     0.049 A 
ATOM     79  C   UNL A   1      31.131  23.397  24.232  1.00  0.00     0.014 A 
ATOM     80  C   UNL A   1      31.374  25.509  25.415  1.00  0.00     0.012 A 
ATOM     81  C   UNL A   1      31.049  24.081  23.023  1.00  0.00     0.003 A 
ATOM     82  C   UNL A   1      31.253  26.182  24.190  1.00  0.00     0.049 A 
ATOM     83  C   UNL A   1      31.545  26.497  26.423  1.00  0.00     0.029 A 
ATOM     84  C   UNL A   1      31.116  25.479  22.979  1.00  0.00     0.027 A 
ATOM     85  N   UNL A   1      31.297  27.537  24.473  1.00  0.00    -0.343 N 
ATOM     86  C   UNL A   1      31.573  27.723  25.807  1.00  0.00     0.087 A 
BRANCH  85  87
ATOM     87  C   UNL A   1      31.168  28.629  23.512  1.00  0.00     0.157 C 
BRANCH  87  88
ATOM     88  C   UNL A   1      29.753  29.144  23.377  1.00  0.00    -0.025 A 
ATOM     89  C   UNL A   1      28.678  28.283  23.122  1.00  0.00     0.025 A 
ATOM     90  C   UNL A   1      29.468  30.503  23.543  1.00  0.00     0.025 A 
ATOM     91  C   UNL A   1      27.397  28.806  23.030  1.00  0.00     0.111 A 
ATOM     92  C   UNL A   1      28.149  30.928  23.451  1.00  0.00     0.111 A 
ATOM     93  N   UNL A   1      27.105  30.108  23.211  1.00  0.00    -0.265 NA
ENDBRANCH  87  88
ENDBRANCH  85  87
ENDBRANCH  75  78
ENDBRANCH  73  74
ENDBRANCH  72  73
ENDBRANCH   1  72
TORSDOF 16
ENDMDL
MODEL 3
REMARK VINA RESULT:     -12.0      2.817      7.888
REMARK SMILES O=C(NCCCCNC(=O)c1cccc2c1ccn2Cc1ccncc1)c1ccc(-c2c3nc(c(-c4cccc(S(=O)(=O)[O-])c4F)c4ccc([nH]4)c(-c4cccc(S(=O)(=O)[O-])c4F)c4nc(c(-c5cccc(S(=O)(=O)[O-])c5F)c5ccc2[nH]5)C=C4)C=C3)cc1
REMARK SMILES IDX 5 1 4 2 3 3 1 4 2 5 27 7 28 8 89 9 29 10 88 11 30 12 31 13
REMARK SMILES IDX 32 14 82 15 33 16 87 17 81 18 83 19 34 20 86 21 80 22 79 23
REMARK SMILES IDX 35 25 67 26 47 27 66 28 48 29 51 30 65 31 84 32 49 33 50 34
REMARK SMILES IDX 64 36 85 37 52 38 36 39 37 40 45 41 38 42 40 43 46 44 39 45
REMARK SMILES IDX 41 46 42 47 43 48 44 49 68 50 69 51 77 52 70 53 72 54 78 55
REMARK SMILES IDX 71 56 73 57 74 58 75 59 76 60 53 61 54 62 62 63 55 64 57 65
REMARK SMILES IDX 63 66 56 67 58 68 59 69 60 70 61 71 6 72 7 73 8 74 9 75
REMARK SMILES IDX 10 77 11 78 12 79 16 80 13 81 15 82 17 83 14 84 19 85 18 86
REMARK SMILES IDX 20 87 21 88 22 89 26 90 23 91 25 92 24 93
REMARK H PARENT 3 6 83 24 51 35 8 76
REMARK Flexibility Score: inf
ROOT
ATOM      1  C   UNL A   1      33.651  28.285  25.618  1.00  0.00     0.023 C 
ENDROOT
BRANCH   1   2
ATOM      2  C   UNL A   1      34.307  28.796  26.888  1.00  0.00     0.116 C 
BRANCH   2   3
ATOM      3  N   UNL A   1      34.335  30.263  26.998  1.00  0.00    -0.352 N 
ATOM      4  O   UNL A   1      34.746  32.189  28.146  1.00  0.00    -0.269 OA
ATOM      5  C   UNL A   1      35.070  31.040  27.891  1.00  0.00     0.251 C 
ATOM      6  H   UNL A   1      33.765  30.756  26.365  1.00  0.00     0.163 HD
BRANCH   5   7
ATOM      7  C   UNL A   1      36.271  30.439  28.500  1.00  0.00     0.039 A 
ATOM      8  C   UNL A   1      36.275  29.767  29.724  1.00  0.00     0.014 A 
ATOM      9  C   UNL A   1      37.431  30.530  27.748  1.00  0.00     0.014 A 
ATOM     10  C   UNL A   1      37.463  29.162  30.132  1.00  0.00     0.010 A 
ATOM     11  C   UNL A   1      38.444  29.656  27.975  1.00  0.00     0.010 A 
ATOM     12  C   UNL A   1      38.546  29.117  29.236  1.00  0.00    -0.014 A 
BRANCH  12  13
ATOM     13  C   UNL A   1      39.819  28.490  29.550  1.00  0.00     0.031 A 
ATOM     14  C   UNL A   1      40.175  28.578  30.980  1.00  0.00     0.074 A 
ATOM     15  C   UNL A   1      40.515  27.750  28.655  1.00  0.00     0.049 A 
ATOM     16  N   UNL A   1      41.012  29.403  31.511  1.00  0.00    -0.248 NA
ATOM     17  C   UNL A   1      39.371  27.823  31.951  1.00  0.00     0.031 C 
ATOM     18  C   UNL A   1      40.122  27.318  27.300  1.00  0.00     0.029 A 
ATOM     19  N   UNL A   1      41.706  27.119  28.816  1.00  0.00    -0.354 N 
ATOM     20  C   UNL A   1      41.043  29.066  32.858  1.00  0.00     0.074 A 
ATOM     21  C   UNL A   1      39.865  28.276  33.106  1.00  0.00     0.031 C 
ATOM     22  C   UNL A   1      40.931  26.321  26.880  1.00  0.00     0.029 A 
ATOM     23  C   UNL A   1      42.009  26.177  27.835  1.00  0.00     0.049 A 
ATOM     24  H   UNL A   1      42.310  27.313  29.569  1.00  0.00     0.167 HD
ATOM     25  C   UNL A   1      42.184  29.211  33.581  1.00  0.00     0.034 A 
ATOM     26  C   UNL A   1      43.071  25.333  27.837  1.00  0.00     0.034 A 
ATOM     27  C   UNL A   1      43.164  29.995  32.872  1.00  0.00     0.049 A 
ATOM     28  C   UNL A   1      44.079  25.963  28.721  1.00  0.00     0.074 A 
ATOM     29  C   UNL A   1      43.214  31.281  32.373  1.00  0.00     0.029 A 
ATOM     30  N   UNL A   1      44.129  29.282  32.203  1.00  0.00    -0.354 N 
ATOM     31  N   UNL A   1      44.661  27.100  28.460  1.00  0.00    -0.248 NA
ATOM     32  C   UNL A   1      44.131  25.530  30.106  1.00  0.00     0.031 C 
ATOM     33  C   UNL A   1      43.903  31.168  31.129  1.00  0.00     0.029 A 
ATOM     34  C   UNL A   1      44.301  29.839  30.965  1.00  0.00     0.049 A 
ATOM     35  H   UNL A   1      44.616  28.502  32.557  1.00  0.00     0.167 HD
ATOM     36  C   UNL A   1      44.743  27.730  29.694  1.00  0.00     0.074 A 
ATOM     37  C   UNL A   1      44.518  26.672  30.676  1.00  0.00     0.031 C 
ATOM     38  C   UNL A   1      44.692  29.091  29.788  1.00  0.00     0.034 A 
BRANCH  25  39
ATOM     39  C   UNL A   1      42.573  28.321  34.731  1.00  0.00     0.023 A 
ATOM     40  C   UNL A   1      42.857  28.937  35.968  1.00  0.00     0.012 A 
ATOM     41  C   UNL A   1      42.922  26.959  34.591  1.00  0.00     0.148 A 
ATOM     42  C   UNL A   1      43.465  28.229  37.010  1.00  0.00     0.002 A 
ATOM     43  C   UNL A   1      43.450  26.239  35.655  1.00  0.00     0.091 A 
ATOM     44  F   UNL A   1      42.879  26.381  33.387  1.00  0.00    -0.205 F 
ATOM     45  C   UNL A   1      43.746  26.876  36.861  1.00  0.00     0.022 A 
BRANCH  43  46
ATOM     46  S   UNL A   1      43.798  24.483  35.519  1.00  0.00     0.127 S 
ATOM     47  O   UNL A   1      44.148  24.149  36.897  1.00  0.00    -0.237 OA
ATOM     48  O   UNL A   1      42.512  23.959  35.060  1.00  0.00    -0.237 OA
ATOM     49  O   UNL A   1      44.871  24.375  34.538  1.00  0.00    -0.744 OA
ENDBRANCH  43  46
ENDBRANCH  25  39
BRANCH  26  50
ATOM     50  C   UNL A   1      43.211  23.922  27.393  1.00  0.00     0.023 A 
ATOM     51  C   UNL A   1      42.164  23.018  27.684  1.00  0.00     0.012 A 
ATOM     52  C   UNL A   1      44.157  23.543  26.418  1.00  0.00     0.148 A 
ATOM     53  C   UNL A   1      42.010  21.825  26.967  1.00  0.00     0.002 A 
ATOM     54  C   UNL A   1      44.004  22.349  25.713  1.00  0.00     0.091 A 
ATOM     55  F   UNL A   1      45.146  24.392  26.111  1.00  0.00    -0.205 F 
ATOM     56  C   UNL A   1      42.919  21.500  25.967  1.00  0.00     0.022 A 
BRANCH  54  57
ATOM     57  S   UNL A   1      45.132  21.859  24.400  1.00  0.00     0.127 S 
ATOM     58  O   UNL A   1      46.381  21.652  25.134  1.00  0.00    -0.237 OA
ATOM     59  O   UNL A   1      44.504  20.639  23.903  1.00  0.00    -0.237 OA
ATOM     60  O   UNL A   1      45.162  22.986  23.477  1.00  0.00    -0.744 OA
ENDBRANCH  54  57
ENDBRANCH  26  50
BRANCH  38  61
ATOM     61  C   UNL A   1      44.848  29.890  28.519  1.00  0.00     0.023 A 
ATOM     62  C   UNL A   1      43.763  30.205  27.673  1.00  0.00     0.012 A 
ATOM     63  C   UNL A   1      46.092  30.499  28.287  1.00  0.00     0.148 A 
ATOM     64  C   UNL A   1      43.919  31.116  26.623  1.00  0.00     0.002 A 
ATOM     65  C   UNL A   1      46.234  31.430  27.268  1.00  0.00     0.091 A 
ATOM     66  F   UNL A   1      47.105  30.186  29.109  1.00  0.00    -0.205 F 
ATOM     67  C   UNL A   1      45.151  31.742  26.431  1.00  0.00     0.022 A 
BRANCH  65  68
ATOM     68  S   UNL A   1      47.757  32.348  27.037  1.00  0.00     0.127 S 
ATOM     69  O   UNL A   1      47.377  33.317  26.011  1.00  0.00    -0.237 OA
ATOM     70  O   UNL A   1      47.977  32.921  28.366  1.00  0.00    -0.237 OA
ATOM     71  O   UNL A   1      48.762  31.375  26.629  1.00  0.00    -0.744 OA
ENDBRANCH  65  68
ENDBRANCH  38  61
ENDBRANCH  12  13
ENDBRANCH   5   7
ENDBRANCH   2   3
ENDBRANCH   1   2
BRANCH   1  72
ATOM     72  C   UNL A   1      32.991  29.369  24.753  1.00  0.00     0.023 C 
BRANCH  72  73
ATOM     73  C   UNL A   1      31.518  29.690  25.038  1.00  0.00     0.116 C 
BRANCH  73  74
ATOM     74  N   UNL A   1      30.700  29.718  23.840  1.00  0.00    -0.352 N 
ATOM     75  C   UNL A   1      30.295  28.680  23.033  1.00  0.00     0.251 C 
ATOM     76  H   UNL A   1      30.389  30.610  23.565  1.00  0.00     0.163 HD
ATOM     77  O   UNL A   1      29.807  28.922  21.936  1.00  0.00    -0.269 OA
BRANCH  75  78
ATOM     78  C   UNL A   1      30.500  27.280  23.463  1.00  0.00     0.049 A 
ATOM     79  C   UNL A   1      29.627  26.664  24.370  1.00  0.00     0.014 A 
ATOM     80  C   UNL A   1      31.592  26.555  22.940  1.00  0.00     0.012 A 
ATOM     81  C   UNL A   1      29.884  25.374  24.825  1.00  0.00     0.003 A 
ATOM     82  C   UNL A   1      31.814  25.242  23.384  1.00  0.00     0.049 A 
ATOM     83  C   UNL A   1      32.626  26.866  22.015  1.00  0.00     0.029 A 
ATOM     84  C   UNL A   1      30.981  24.646  24.348  1.00  0.00     0.027 A 
ATOM     85  N   UNL A   1      32.921  24.770  22.698  1.00  0.00    -0.343 N 
ATOM     86  C   UNL A   1      33.468  25.785  21.948  1.00  0.00     0.087 A 
BRANCH  85  87
ATOM     87  C   UNL A   1      33.502  23.434  22.803  1.00  0.00     0.157 C 
BRANCH  87  88
ATOM     88  C   UNL A   1      34.745  23.388  23.661  1.00  0.00    -0.025 A 
ATOM     89  C   UNL A   1      35.913  22.746  23.230  1.00  0.00     0.025 A 
ATOM     90  C   UNL A   1      34.778  24.023  24.907  1.00  0.00     0.025 A 
ATOM     91  C   UNL A   1      37.033  22.753  24.048  1.00  0.00     0.111 A 
ATOM     92  C   UNL A   1      35.953  23.990  25.646  1.00  0.00     0.111 A 
ATOM     93  N   UNL A   1      37.086  23.380  25.239  1.00  0.00    -0.265 NA
ENDBRANCH  87  88
ENDBRANCH  85  87
ENDBRANCH  75  78
ENDBRANCH  73  74
ENDBRANCH  72  73
ENDBRANCH   1  72
TORSDOF 16
ENDMDL
