MODEL 1
REMARK VINA RESULT:     -10.8      0.000      0.000
REMARK SMILES CC[C@H]1CC[C@](CC(C)(C)O)(C(=O)NCCCCNC(=O)c2ccc(-c3c4nc(c(-c5cccc(S(=O)(=O)[O-])c5F)c5ccc([nH]5)c(-c5cccc(S(=O)(=O)[O-])c5F)c5nc(c(-c6cccc(S(=O)(=O)[O-])c6F)c6ccc3[nH]6)C=C5)C=C4)cc2)C1
REMARK SMILES IDX 16 1 15 2 14 3 12 4 13 5 6 7 3 8 4 9 85 10 5 11 2 12 1 13
REMARK SMILES IDX 7 14 8 15 9 16 10 17 11 18 17 20 18 21 19 22 20 23 21 25
REMARK SMILES IDX 22 26 23 27 84 28 24 29 83 30 25 31 26 32 27 33 77 34 28 35
REMARK SMILES IDX 82 36 76 37 78 38 29 39 81 40 75 41 74 42 30 44 62 45 42 46
REMARK SMILES IDX 61 47 43 48 46 49 60 50 79 51 44 52 45 53 59 55 80 56 47 57
REMARK SMILES IDX 31 58 32 59 40 60 33 61 35 62 41 63 34 64 36 65 37 66 38 67
REMARK SMILES IDX 39 68 63 69 64 70 72 71 65 72 67 73 73 74 66 75 68 76 69 77
REMARK SMILES IDX 70 78 71 79 48 80 49 81 57 82 50 83 52 84 58 85 51 86 53 87
REMARK SMILES IDX 54 88 55 89 56 90
REMARK H PARENT 14 6 11 19 19 24 78 43 46 54
REMARK Flexibility Score: inf
ROOT
ATOM      1  C   UNL A   1      31.762  27.898  27.093  1.00  0.00     0.023 C 
ENDROOT
BRANCH   1   2
ATOM      2  C   UNL A   1      31.378  26.777  26.127  1.00  0.00     0.116 C 
BRANCH   2   3
ATOM      3  N   UNL A   1      31.305  25.486  26.778  1.00  0.00    -0.356 N 
ATOM      4  C   UNL A   1      31.990  24.324  26.701  1.00  0.00     0.226 C 
ATOM      5  O   UNL A   1      31.601  23.470  27.516  1.00  0.00    -0.274 OA
ATOM      6  H   UNL A   1      30.578  25.444  27.439  1.00  0.00     0.163 HD
BRANCH   4   7
ATOM      7  C   UNL A   1      33.223  23.996  25.806  1.00  0.00     0.052 C 
ATOM      8  C   UNL A   1      35.382  22.774  26.025  1.00  0.00    -0.010 C 
ATOM      9  C   UNL A   1      35.707  24.234  25.716  1.00  0.00     0.005 C 
ATOM     10  C   UNL A   1      33.939  22.826  26.544  1.00  0.00     0.020 C 
ATOM     11  C   UNL A   1      34.379  24.998  25.690  1.00  0.00     0.017 C 
BRANCH   8  12
ATOM     12  C   UNL A   1      35.674  21.892  24.797  1.00  0.00     0.000 C 
ATOM     13  C   UNL A   1      36.292  22.630  23.621  1.00  0.00     0.004 C 
ENDBRANCH   8  12
BRANCH   7  14
ATOM     14  C   UNL A   1      32.663  23.440  24.441  1.00  0.00     0.051 C 
BRANCH  14  15
ATOM     15  C   UNL A   1      32.488  24.373  23.222  1.00  0.00     0.060 C 
ATOM     16  C   UNL A   1      33.012  23.737  21.927  1.00  0.00     0.042 C 
ATOM     17  C   UNL A   1      30.995  24.680  23.022  1.00  0.00     0.042 C 
BRANCH  15  18
ATOM     18  O   UNL A   1      33.169  25.598  23.452  1.00  0.00    -0.390 OA
ATOM     19  H   UNL A   1      32.924  25.945  24.323  1.00  0.00     0.211 HD
ENDBRANCH  15  18
ENDBRANCH  14  15
ENDBRANCH   7  14
ENDBRANCH   4   7
ENDBRANCH   2   3
ENDBRANCH   1   2
BRANCH   1  20
ATOM     20  C   UNL A   1      33.272  28.133  27.211  1.00  0.00     0.023 C 
BRANCH  20  21
ATOM     21  C   UNL A   1      33.817  29.240  26.314  1.00  0.00     0.116 C 
BRANCH  21  22
ATOM     22  N   UNL A   1      33.733  30.567  26.909  1.00  0.00    -0.352 N 
ATOM     23  C   UNL A   1      34.616  31.142  27.793  1.00  0.00     0.251 C 
ATOM     24  H   UNL A   1      32.958  31.115  26.649  1.00  0.00     0.163 HD
ATOM     25  O   UNL A   1      34.380  32.236  28.297  1.00  0.00    -0.269 OA
BRANCH  23  26
ATOM     26  C   UNL A   1      35.830  30.388  28.170  1.00  0.00     0.039 A 
ATOM     27  C   UNL A   1      36.947  30.449  27.335  1.00  0.00     0.014 A 
ATOM     28  C   UNL A   1      35.882  29.693  29.381  1.00  0.00     0.014 A 
ATOM     29  C   UNL A   1      38.148  29.871  27.752  1.00  0.00     0.010 A 
ATOM     30  C   UNL A   1      37.096  29.177  29.823  1.00  0.00     0.010 A 
ATOM     31  C   UNL A   1      38.239  29.263  29.015  1.00  0.00    -0.014 A 
BRANCH  31  32
ATOM     32  C   UNL A   1      39.531  28.736  29.522  1.00  0.00     0.031 A 
ATOM     33  C   UNL A   1      40.253  29.443  30.635  1.00  0.00     0.074 A 
ATOM     34  C   UNL A   1      40.106  27.683  28.907  1.00  0.00     0.049 A 
ATOM     35  N   UNL A   1      41.412  29.164  31.173  1.00  0.00    -0.248 NA
ATOM     36  C   UNL A   1      39.603  30.640  31.194  1.00  0.00     0.031 C 
ATOM     37  C   UNL A   1      39.556  26.979  27.747  1.00  0.00     0.029 A 
ATOM     38  N   UNL A   1      41.296  27.045  29.149  1.00  0.00    -0.354 N 
ATOM     39  C   UNL A   1      41.648  30.168  32.103  1.00  0.00     0.074 A 
ATOM     40  C   UNL A   1      40.530  31.083  32.033  1.00  0.00     0.031 C 
ATOM     41  C   UNL A   1      40.409  26.011  27.374  1.00  0.00     0.029 A 
ATOM     42  C   UNL A   1      41.573  26.036  28.256  1.00  0.00     0.049 A 
ATOM     43  H   UNL A   1      41.896  27.286  29.891  1.00  0.00     0.167 HD
ATOM     44  C   UNL A   1      42.685  30.299  32.964  1.00  0.00     0.034 A 
ATOM     45  C   UNL A   1      42.643  25.223  28.156  1.00  0.00     0.034 A 
ATOM     46  C   UNL A   1      43.767  29.358  33.069  1.00  0.00     0.049 A 
ATOM     47  C   UNL A   1      43.744  25.338  29.175  1.00  0.00     0.074 A 
ATOM     48  C   UNL A   1      44.805  29.337  33.984  1.00  0.00     0.029 A 
ATOM     49  N   UNL A   1      43.954  28.273  32.227  1.00  0.00    -0.354 N 
ATOM     50  N   UNL A   1      43.855  26.177  30.176  1.00  0.00    -0.248 NA
ATOM     51  C   UNL A   1      44.845  24.368  29.080  1.00  0.00     0.031 C 
ATOM     52  C   UNL A   1      45.626  28.244  33.688  1.00  0.00     0.029 A 
ATOM     53  C   UNL A   1      45.092  27.577  32.595  1.00  0.00     0.049 A 
ATOM     54  H   UNL A   1      43.363  28.032  31.477  1.00  0.00     0.167 HD
ATOM     55  C   UNL A   1      45.020  25.822  30.845  1.00  0.00     0.074 A 
ATOM     56  C   UNL A   1      45.567  24.674  30.150  1.00  0.00     0.031 C 
ATOM     57  C   UNL A   1      45.596  26.405  31.926  1.00  0.00     0.034 A 
BRANCH  44  58
ATOM     58  C   UNL A   1      42.658  31.471  33.910  1.00  0.00     0.023 A 
ATOM     59  C   UNL A   1      43.214  32.701  33.500  1.00  0.00     0.012 A 
ATOM     60  C   UNL A   1      42.058  31.373  35.180  1.00  0.00     0.148 A 
ATOM     61  C   UNL A   1      43.208  33.804  34.354  1.00  0.00     0.002 A 
ATOM     62  C   UNL A   1      42.020  32.489  36.009  1.00  0.00     0.091 A 
ATOM     63  F   UNL A   1      41.559  30.190  35.564  1.00  0.00    -0.205 F 
ATOM     64  C   UNL A   1      42.603  33.700  35.602  1.00  0.00     0.022 A 
BRANCH  62  65
ATOM     65  S   UNL A   1      41.195  32.474  37.605  1.00  0.00     0.127 S 
ATOM     66  O   UNL A   1      39.882  31.937  37.254  1.00  0.00    -0.237 OA
ATOM     67  O   UNL A   1      42.037  31.563  38.382  1.00  0.00    -0.237 OA
ATOM     68  O   UNL A   1      41.208  33.853  38.072  1.00  0.00    -0.744 OA
ENDBRANCH  62  65
ENDBRANCH  44  58
BRANCH  45  69
ATOM     69  C   UNL A   1      42.678  24.177  27.096  1.00  0.00     0.023 A 
ATOM     70  C   UNL A   1      43.413  24.413  25.917  1.00  0.00     0.012 A 
ATOM     71  C   UNL A   1      42.036  22.936  27.267  1.00  0.00     0.148 A 
ATOM     72  C   UNL A   1      43.488  23.442  24.918  1.00  0.00     0.002 A 
ATOM     73  C   UNL A   1      42.158  21.953  26.292  1.00  0.00     0.091 A 
ATOM     74  F   UNL A   1      41.331  22.735  28.390  1.00  0.00    -0.205 F 
ATOM     75  C   UNL A   1      42.870  22.209  25.110  1.00  0.00     0.022 A 
BRANCH  73  76
ATOM     76  S   UNL A   1      41.512  20.291  26.515  1.00  0.00     0.127 S 
ATOM     77  O   UNL A   1      42.145  19.572  25.414  1.00  0.00    -0.237 OA
ATOM     78  O   UNL A   1      42.013  19.946  27.846  1.00  0.00    -0.237 OA
ATOM     79  O   UNL A   1      40.062  20.423  26.440  1.00  0.00    -0.744 OA
ENDBRANCH  73  76
ENDBRANCH  45  69
BRANCH  57  80
ATOM     80  C   UNL A   1      46.876  25.806  32.445  1.00  0.00     0.023 A 
ATOM     81  C   UNL A   1      48.111  26.294  31.975  1.00  0.00     0.012 A 
ATOM     82  C   UNL A   1      46.858  24.823  33.454  1.00  0.00     0.148 A 
ATOM     83  C   UNL A   1      49.310  25.797  32.484  1.00  0.00     0.002 A 
ATOM     84  C   UNL A   1      48.057  24.363  33.987  1.00  0.00     0.091 A 
ATOM     85  F   UNL A   1      45.673  24.355  33.873  1.00  0.00    -0.205 F 
ATOM     86  C   UNL A   1      49.283  24.841  33.498  1.00  0.00     0.022 A 
BRANCH  84  87
ATOM     87  S   UNL A   1      48.112  23.204  35.359  1.00  0.00     0.127 S 
ATOM     88  O   UNL A   1      49.550  22.982  35.504  1.00  0.00    -0.237 OA
ATOM     89  O   UNL A   1      47.501  23.972  36.445  1.00  0.00    -0.237 OA
ATOM     90  O   UNL A   1      47.339  22.046  34.933  1.00  0.00    -0.744 OA
ENDBRANCH  84  87
ENDBRANCH  57  80
ENDBRANCH  31  32
ENDBRANCH  23  26
ENDBRANCH  21  22
ENDBRANCH  20  21
ENDBRANCH   1  20
TORSDOF 18
ENDMDL
MODEL 2
REMARK VINA RESULT:     -10.6      2.124      2.790
REMARK SMILES CC[C@H]1CC[C@](CC(C)(C)O)(C(=O)NCCCCNC(=O)c2ccc(-c3c4nc(c(-c5cccc(S(=O)(=O)[O-])c5F)c5ccc([nH]5)c(-c5cccc(S(=O)(=O)[O-])c5F)c5nc(c(-c6cccc(S(=O)(=O)[O-])c6F)c6ccc3[nH]6)C=C5)C=C4)cc2)C1
REMARK SMILES IDX 16 1 15 2 14 3 12 4 13 5 6 7 3 8 4 9 85 10 5 11 2 12 1 13
REMARK SMILES IDX 7 14 8 15 9 16 10 17 11 18 17 20 18 21 19 22 20 23 21 25
REMARK SMILES IDX 22 26 23 27 84 28 24 29 83 30 25 31 26 32 27 33 77 34 28 35
REMARK SMILES IDX 82 36 76 37 78 38 29 39 81 40 75 41 74 42 30 44 62 45 42 46
REMARK SMILES IDX 61 47 43 48 46 49 60 50 79 51 44 52 45 53 59 55 80 56 47 57
REMARK SMILES IDX 31 58 32 59 40 60 33 61 35 62 41 63 34 64 36 65 37 66 38 67
REMARK SMILES IDX 39 68 63 69 64 70 72 71 65 72 67 73 73 74 66 75 68 76 69 77
REMARK SMILES IDX 70 78 71 79 48 80 49 81 57 82 50 83 52 84 58 85 51 86 53 87
REMARK SMILES IDX 54 88 55 89 56 90
REMARK H PARENT 14 6 11 19 19 24 78 43 46 54
REMARK Flexibility Score: inf
ROOT
ATOM      1  C   UNL A   1      31.596  28.026  27.028  1.00  0.00     0.023 C 
ENDROOT
BRANCH   1   2
ATOM      2  C   UNL A   1      32.334  26.789  26.515  1.00  0.00     0.116 C 
BRANCH   2   3
ATOM      3  N   UNL A   1      31.674  25.556  26.886  1.00  0.00    -0.356 N 
ATOM      4  C   UNL A   1      31.909  24.238  26.702  1.00  0.00     0.226 C 
ATOM      5  O   UNL A   1      31.076  23.507  27.264  1.00  0.00    -0.274 OA
ATOM      6  H   UNL A   1      30.849  25.717  27.399  1.00  0.00     0.163 HD
BRANCH   4   7
ATOM      7  C   UNL A   1      33.117  23.573  25.976  1.00  0.00     0.052 C 
ATOM      8  C   UNL A   1      35.164  22.300  26.599  1.00  0.00    -0.010 C 
ATOM      9  C   UNL A   1      35.613  23.581  25.899  1.00  0.00     0.005 C 
ATOM     10  C   UNL A   1      33.728  22.611  27.037  1.00  0.00     0.020 C 
ATOM     11  C   UNL A   1      34.354  24.408  25.617  1.00  0.00     0.017 C 
BRANCH   8  12
ATOM     12  C   UNL A   1      35.391  21.085  25.682  1.00  0.00     0.000 C 
ATOM     13  C   UNL A   1      36.606  21.195  24.775  1.00  0.00     0.004 C 
ENDBRANCH   8  12
BRANCH   7  14
ATOM     14  C   UNL A   1      32.522  22.697  24.808  1.00  0.00     0.051 C 
BRANCH  14  15
ATOM     15  C   UNL A   1      32.443  23.251  23.369  1.00  0.00     0.060 C 
ATOM     16  C   UNL A   1      31.915  24.691  23.331  1.00  0.00     0.042 C 
ATOM     17  C   UNL A   1      33.848  23.251  22.743  1.00  0.00     0.042 C 
BRANCH  15  18
ATOM     18  O   UNL A   1      31.602  22.423  22.578  1.00  0.00    -0.390 OA
ATOM     19  H   UNL A   1      32.141  21.756  22.124  1.00  0.00     0.211 HD
ENDBRANCH  15  18
ENDBRANCH  14  15
ENDBRANCH   7  14
ENDBRANCH   4   7
ENDBRANCH   2   3
ENDBRANCH   1   2
BRANCH   1  20
ATOM     20  C   UNL A   1      31.520  29.174  26.016  1.00  0.00     0.023 C 
BRANCH  20  21
ATOM     21  C   UNL A   1      32.747  30.079  25.984  1.00  0.00     0.116 C 
BRANCH  21  22
ATOM     22  N   UNL A   1      32.487  31.433  26.453  1.00  0.00    -0.352 N 
ATOM     23  C   UNL A   1      33.258  32.181  27.312  1.00  0.00     0.251 C 
ATOM     24  H   UNL A   1      31.667  31.862  26.117  1.00  0.00     0.163 HD
ATOM     25  O   UNL A   1      32.877  33.279  27.706  1.00  0.00    -0.269 OA
BRANCH  23  26
ATOM     26  C   UNL A   1      34.531  31.609  27.798  1.00  0.00     0.039 A 
ATOM     27  C   UNL A   1      35.618  32.461  28.002  1.00  0.00     0.014 A 
ATOM     28  C   UNL A   1      34.618  30.253  28.122  1.00  0.00     0.014 A 
ATOM     29  C   UNL A   1      36.775  31.965  28.605  1.00  0.00     0.010 A 
ATOM     30  C   UNL A   1      35.745  29.777  28.783  1.00  0.00     0.010 A 
ATOM     31  C   UNL A   1      36.833  30.627  29.032  1.00  0.00    -0.014 A 
BRANCH  31  32
ATOM     32  C   UNL A   1      38.011  30.106  29.769  1.00  0.00     0.031 A 
ATOM     33  C   UNL A   1      38.302  30.581  31.166  1.00  0.00     0.074 A 
ATOM     34  C   UNL A   1      38.879  29.289  29.141  1.00  0.00     0.049 A 
ATOM     35  N   UNL A   1      39.308  30.281  31.945  1.00  0.00    -0.248 NA
ATOM     36  C   UNL A   1      37.355  31.545  31.751  1.00  0.00     0.031 C 
ATOM     37  C   UNL A   1      38.765  28.844  27.750  1.00  0.00     0.029 A 
ATOM     38  N   UNL A   1      40.047  28.716  29.577  1.00  0.00    -0.354 N 
ATOM     39  C   UNL A   1      39.138  31.044  33.093  1.00  0.00     0.074 A 
ATOM     40  C   UNL A   1      37.952  31.848  32.896  1.00  0.00     0.031 C 
ATOM     41  C   UNL A   1      39.821  28.074  27.446  1.00  0.00     0.029 A 
ATOM     42  C   UNL A   1      40.697  27.984  28.611  1.00  0.00     0.049 A 
ATOM     43  H   UNL A   1      40.389  28.820  30.494  1.00  0.00     0.167 HD
ATOM     44  C   UNL A   1      39.882  31.050  34.225  1.00  0.00     0.034 A 
ATOM     45  C   UNL A   1      41.867  27.315  28.657  1.00  0.00     0.034 A 
ATOM     46  C   UNL A   1      41.028  30.209  34.438  1.00  0.00     0.049 A 
ATOM     47  C   UNL A   1      42.632  27.272  29.952  1.00  0.00     0.074 A 
ATOM     48  C   UNL A   1      41.781  30.055  35.589  1.00  0.00     0.029 A 
ATOM     49  N   UNL A   1      41.590  29.382  33.478  1.00  0.00    -0.354 N 
ATOM     50  N   UNL A   1      42.349  27.849  31.095  1.00  0.00    -0.248 NA
ATOM     51  C   UNL A   1      43.853  26.454  29.978  1.00  0.00     0.031 C 
ATOM     52  C   UNL A   1      42.807  29.142  35.320  1.00  0.00     0.029 A 
ATOM     53  C   UNL A   1      42.684  28.719  34.005  1.00  0.00     0.049 A 
ATOM     54  H   UNL A   1      41.259  29.281  32.556  1.00  0.00     0.167 HD
ATOM     55  C   UNL A   1      43.339  27.443  31.982  1.00  0.00     0.074 A 
ATOM     56  C   UNL A   1      44.215  26.551  31.251  1.00  0.00     0.031 C 
ATOM     57  C   UNL A   1      43.517  27.793  33.281  1.00  0.00     0.034 A 
BRANCH  44  58
ATOM     58  C   UNL A   1      39.432  31.949  35.346  1.00  0.00     0.023 A 
ATOM     59  C   UNL A   1      39.765  33.319  35.308  1.00  0.00     0.012 A 
ATOM     60  C   UNL A   1      38.655  31.457  36.412  1.00  0.00     0.148 A 
ATOM     61  C   UNL A   1      39.367  34.177  36.332  1.00  0.00     0.002 A 
ATOM     62  C   UNL A   1      38.227  32.328  37.408  1.00  0.00     0.091 A 
ATOM     63  F   UNL A   1      38.370  30.148  36.447  1.00  0.00    -0.205 F 
ATOM     64  C   UNL A   1      38.590  33.683  37.376  1.00  0.00     0.022 A 
BRANCH  62  65
ATOM     65  S   UNL A   1      37.160  31.799  38.754  1.00  0.00     0.127 S 
ATOM     66  O   UNL A   1      36.977  30.381  38.447  1.00  0.00    -0.237 OA
ATOM     67  O   UNL A   1      37.987  32.065  39.931  1.00  0.00    -0.237 OA
ATOM     68  O   UNL A   1      35.963  32.624  38.658  1.00  0.00    -0.744 OA
ENDBRANCH  62  65
ENDBRANCH  44  58
BRANCH  45  69
ATOM     69  C   UNL A   1      42.335  26.566  27.458  1.00  0.00     0.023 A 
ATOM     70  C   UNL A   1      43.116  27.230  26.491  1.00  0.00     0.012 A 
ATOM     71  C   UNL A   1      42.060  25.195  27.294  1.00  0.00     0.148 A 
ATOM     72  C   UNL A   1      43.593  26.548  25.371  1.00  0.00     0.002 A 
ATOM     73  C   UNL A   1      42.582  24.509  26.203  1.00  0.00     0.091 A 
ATOM     74  F   UNL A   1      41.304  24.584  28.218  1.00  0.00    -0.205 F 
ATOM     75  C   UNL A   1      43.336  25.187  25.233  1.00  0.00     0.022 A 
BRANCH  73  76
ATOM     76  S   UNL A   1      42.417  22.729  26.017  1.00  0.00     0.127 S 
ATOM     77  O   UNL A   1      40.967  22.560  26.026  1.00  0.00    -0.237 OA
ATOM     78  O   UNL A   1      43.056  22.498  24.721  1.00  0.00    -0.237 OA
ATOM     79  O   UNL A   1      43.133  22.151  27.147  1.00  0.00    -0.744 OA
ENDBRANCH  73  76
ENDBRANCH  45  69
BRANCH  57  80
ATOM     80  C   UNL A   1      44.692  27.198  34.010  1.00  0.00     0.023 A 
ATOM     81  C   UNL A   1      45.946  27.837  33.943  1.00  0.00     0.012 A 
ATOM     82  C   UNL A   1      44.537  26.060  34.825  1.00  0.00     0.148 A 
ATOM     83  C   UNL A   1      47.034  27.339  34.658  1.00  0.00     0.002 A 
ATOM     84  C   UNL A   1      45.616  25.594  35.568  1.00  0.00     0.091 A 
ATOM     85  F   UNL A   1      43.342  25.452  34.858  1.00  0.00    -0.205 F 
ATOM     86  C   UNL A   1      46.867  26.226  35.479  1.00  0.00     0.022 A 
BRANCH  84  87
ATOM     87  S   UNL A   1      45.464  24.225  36.723  1.00  0.00     0.127 S 
ATOM     88  O   UNL A   1      44.389  24.691  37.597  1.00  0.00    -0.237 OA
ATOM     89  O   UNL A   1      45.098  23.113  35.845  1.00  0.00    -0.237 OA
ATOM     90  O   UNL A   1      46.771  24.089  37.352  1.00  0.00    -0.744 OA
ENDBRANCH  84  87
ENDBRANCH  57  80
ENDBRANCH  31  32
ENDBRANCH  23  26
ENDBRANCH  21  22
ENDBRANCH  20  21
ENDBRANCH   1  20
TORSDOF 18
ENDMDL
MODEL 3
REMARK VINA RESULT:     -10.5      1.488      2.076
REMARK SMILES CC[C@H]1CC[C@](CC(C)(C)O)(C(=O)NCCCCNC(=O)c2ccc(-c3c4nc(c(-c5cccc(S(=O)(=O)[O-])c5F)c5ccc([nH]5)c(-c5cccc(S(=O)(=O)[O-])c5F)c5nc(c(-c6cccc(S(=O)(=O)[O-])c6F)c6ccc3[nH]6)C=C5)C=C4)cc2)C1
REMARK SMILES IDX 16 1 15 2 14 3 12 4 13 5 6 7 3 8 4 9 85 10 5 11 2 12 1 13
REMARK SMILES IDX 7 14 8 15 9 16 10 17 11 18 17 20 18 21 19 22 20 23 21 25
REMARK SMILES IDX 22 26 23 27 84 28 24 29 83 30 25 31 26 32 27 33 77 34 28 35
REMARK SMILES IDX 82 36 76 37 78 38 29 39 81 40 75 41 74 42 30 44 62 45 42 46
REMARK SMILES IDX 61 47 43 48 46 49 60 50 79 51 44 52 45 53 59 55 80 56 47 57
REMARK SMILES IDX 31 58 32 59 40 60 33 61 35 62 41 63 34 64 36 65 37 66 38 67
REMARK SMILES IDX 39 68 63 69 64 70 72 71 65 72 67 73 73 74 66 75 68 76 69 77
REMARK SMILES IDX 70 78 71 79 48 80 49 81 57 82 50 83 52 84 58 85 51 86 53 87
REMARK SMILES IDX 54 88 55 89 56 90
REMARK H PARENT 14 6 11 19 19 24 78 43 46 54
REMARK Flexibility Score: inf
ROOT
ATOM      1  C   UNL A   1      31.831  27.810  26.818  1.00  0.00     0.023 C 
ENDROOT
BRANCH   1   2
ATOM      2  C   UNL A   1      31.503  26.600  25.943  1.00  0.00     0.116 C 
BRANCH   2   3
ATOM      3  N   UNL A   1      31.368  25.381  26.712  1.00  0.00    -0.356 N 
ATOM      4  C   UNL A   1      31.950  24.162  26.703  1.00  0.00     0.226 C 
ATOM      5  O   UNL A   1      31.546  23.418  27.614  1.00  0.00    -0.274 OA
ATOM      6  H   UNL A   1      30.683  25.459  27.414  1.00  0.00     0.163 HD
BRANCH   4   7
ATOM      7  C   UNL A   1      33.093  23.652  25.774  1.00  0.00     0.052 C 
ATOM      8  C   UNL A   1      35.128  24.583  24.682  1.00  0.00    -0.010 C 
ATOM      9  C   UNL A   1      34.190  24.103  23.577  1.00  0.00     0.005 C 
ATOM     10  C   UNL A   1      34.207  24.734  25.899  1.00  0.00     0.020 C 
ATOM     11  C   UNL A   1      32.897  23.632  24.253  1.00  0.00     0.017 C 
BRANCH   8  12
ATOM     12  C   UNL A   1      36.335  23.636  24.805  1.00  0.00     0.000 C 
ATOM     13  C   UNL A   1      37.091  23.739  26.119  1.00  0.00     0.004 C 
ENDBRANCH   8  12
BRANCH   7  14
ATOM     14  C   UNL A   1      33.638  22.317  26.411  1.00  0.00     0.051 C 
BRANCH  14  15
ATOM     15  C   UNL A   1      33.282  20.947  25.793  1.00  0.00     0.060 C 
ATOM     16  C   UNL A   1      31.972  20.995  24.994  1.00  0.00     0.042 C 
ATOM     17  C   UNL A   1      34.400  20.512  24.831  1.00  0.00     0.042 C 
BRANCH  15  18
ATOM     18  O   UNL A   1      33.170  19.969  26.818  1.00  0.00    -0.390 OA
ATOM     19  H   UNL A   1      32.865  20.392  27.635  1.00  0.00     0.211 HD
ENDBRANCH  15  18
ENDBRANCH  14  15
ENDBRANCH   7  14
ENDBRANCH   4   7
ENDBRANCH   2   3
ENDBRANCH   1   2
BRANCH   1  20
ATOM     20  C   UNL A   1      33.332  28.063  26.999  1.00  0.00     0.023 C 
BRANCH  20  21
ATOM     21  C   UNL A   1      33.881  29.239  26.198  1.00  0.00     0.116 C 
BRANCH  21  22
ATOM     22  N   UNL A   1      33.734  30.523  26.870  1.00  0.00    -0.352 N 
ATOM     23  C   UNL A   1      34.560  31.062  27.829  1.00  0.00     0.251 C 
ATOM     24  H   UNL A   1      32.956  31.067  26.609  1.00  0.00     0.163 HD
ATOM     25  O   UNL A   1      34.272  32.115  28.388  1.00  0.00    -0.269 OA
BRANCH  23  26
ATOM     26  C   UNL A   1      35.776  30.316  28.214  1.00  0.00     0.039 A 
ATOM     27  C   UNL A   1      36.904  30.398  27.395  1.00  0.00     0.014 A 
ATOM     28  C   UNL A   1      35.818  29.607  29.417  1.00  0.00     0.014 A 
ATOM     29  C   UNL A   1      38.105  29.827  27.822  1.00  0.00     0.010 A 
ATOM     30  C   UNL A   1      37.031  29.097  29.869  1.00  0.00     0.010 A 
ATOM     31  C   UNL A   1      38.185  29.204  29.079  1.00  0.00    -0.014 A 
BRANCH  31  32
ATOM     32  C   UNL A   1      39.474  28.684  29.598  1.00  0.00     0.031 A 
ATOM     33  C   UNL A   1      40.190  29.403  30.708  1.00  0.00     0.074 A 
ATOM     34  C   UNL A   1      40.054  27.626  28.997  1.00  0.00     0.049 A 
ATOM     35  N   UNL A   1      41.346  29.132  31.254  1.00  0.00    -0.248 NA
ATOM     36  C   UNL A   1      39.535  30.605  31.252  1.00  0.00     0.031 C 
ATOM     37  C   UNL A   1      39.511  26.910  27.840  1.00  0.00     0.029 A 
ATOM     38  N   UNL A   1      41.244  26.992  29.250  1.00  0.00    -0.354 N 
ATOM     39  C   UNL A   1      41.576  30.145  32.176  1.00  0.00     0.074 A 
ATOM     40  C   UNL A   1      40.457  31.057  32.091  1.00  0.00     0.031 C 
ATOM     41  C   UNL A   1      40.367  25.940  27.482  1.00  0.00     0.029 A 
ATOM     42  C   UNL A   1      41.527  25.975  28.369  1.00  0.00     0.049 A 
ATOM     43  H   UNL A   1      41.840  27.242  29.994  1.00  0.00     0.167 HD
ATOM     44  C   UNL A   1      42.608  30.286  33.041  1.00  0.00     0.034 A 
ATOM     45  C   UNL A   1      42.599  25.163  28.283  1.00  0.00     0.034 A 
ATOM     46  C   UNL A   1      43.691  29.348  33.161  1.00  0.00     0.049 A 
ATOM     47  C   UNL A   1      43.694  25.289  29.306  1.00  0.00     0.074 A 
ATOM     48  C   UNL A   1      44.724  29.337  34.081  1.00  0.00     0.029 A 
ATOM     49  N   UNL A   1      43.884  28.254  32.330  1.00  0.00    -0.354 N 
ATOM     50  N   UNL A   1      43.798  26.138  30.300  1.00  0.00    -0.248 NA
ATOM     51  C   UNL A   1      44.796  24.320  29.226  1.00  0.00     0.031 C 
ATOM     52  C   UNL A   1      45.548  28.242  33.800  1.00  0.00     0.029 A 
ATOM     53  C   UNL A   1      45.021  27.564  32.711  1.00  0.00     0.049 A 
ATOM     54  H   UNL A   1      43.297  28.005  31.579  1.00  0.00     0.167 HD
ATOM     55  C   UNL A   1      44.961  25.791  30.978  1.00  0.00     0.074 A 
ATOM     56  C   UNL A   1      45.513  24.638  30.298  1.00  0.00     0.031 C 
ATOM     57  C   UNL A   1      45.530  26.385  32.056  1.00  0.00     0.034 A 
BRANCH  44  58
ATOM     58  C   UNL A   1      42.575  31.467  33.975  1.00  0.00     0.023 A 
ATOM     59  C   UNL A   1      41.998  31.320  35.253  1.00  0.00     0.012 A 
ATOM     60  C   UNL A   1      43.142  32.704  33.611  1.00  0.00     0.148 A 
ATOM     61  C   UNL A   1      41.949  32.395  36.140  1.00  0.00     0.002 A 
ATOM     62  C   UNL A   1      43.126  33.759  34.517  1.00  0.00     0.091 A 
ATOM     63  F   UNL A   1      43.663  32.835  32.383  1.00  0.00    -0.205 F 
ATOM     64  C   UNL A   1      42.521  33.609  35.776  1.00  0.00     0.022 A 
BRANCH  62  65
ATOM     65  S   UNL A   1      43.905  35.339  34.166  1.00  0.00     0.127 S 
ATOM     66  O   UNL A   1      43.702  36.055  35.425  1.00  0.00    -0.237 OA
ATOM     67  O   UNL A   1      45.292  34.952  33.903  1.00  0.00    -0.237 OA
ATOM     68  O   UNL A   1      43.201  35.881  33.012  1.00  0.00    -0.744 OA
ENDBRANCH  62  65
ENDBRANCH  44  58
BRANCH  45  69
ATOM     69  C   UNL A   1      42.641  24.107  27.233  1.00  0.00     0.023 A 
ATOM     70  C   UNL A   1      43.368  24.338  26.049  1.00  0.00     0.012 A 
ATOM     71  C   UNL A   1      42.013  22.860  27.419  1.00  0.00     0.148 A 
ATOM     72  C   UNL A   1      43.449  23.358  25.060  1.00  0.00     0.002 A 
ATOM     73  C   UNL A   1      42.141  21.868  26.453  1.00  0.00     0.091 A 
ATOM     74  F   UNL A   1      41.314  22.663  28.547  1.00  0.00    -0.205 F 
ATOM     75  C   UNL A   1      42.846  22.120  25.266  1.00  0.00     0.022 A 
BRANCH  73  76
ATOM     76  S   UNL A   1      41.514  20.202  26.697  1.00  0.00     0.127 S 
ATOM     77  O   UNL A   1      40.105  20.451  26.983  1.00  0.00    -0.237 OA
ATOM     78  O   UNL A   1      41.779  19.585  25.397  1.00  0.00    -0.237 OA
ATOM     79  O   UNL A   1      42.298  19.647  27.792  1.00  0.00    -0.744 OA
ENDBRANCH  73  76
ENDBRANCH  45  69
BRANCH  57  80
ATOM     80  C   UNL A   1      46.808  25.794  32.588  1.00  0.00     0.023 A 
ATOM     81  C   UNL A   1      48.045  26.290  32.132  1.00  0.00     0.012 A 
ATOM     82  C   UNL A   1      46.786  24.809  33.595  1.00  0.00     0.148 A 
ATOM     83  C   UNL A   1      49.241  25.800  32.653  1.00  0.00     0.002 A 
ATOM     84  C   UNL A   1      47.981  24.355  34.140  1.00  0.00     0.091 A 
ATOM     85  F   UNL A   1      45.599  24.332  33.999  1.00  0.00    -0.205 F 
ATOM     86  C   UNL A   1      49.210  24.842  33.664  1.00  0.00     0.022 A 
BRANCH  84  87
ATOM     87  S   UNL A   1      48.030  23.193  35.510  1.00  0.00     0.127 S 
ATOM     88  O   UNL A   1      48.426  21.957  34.838  1.00  0.00    -0.237 OA
ATOM     89  O   UNL A   1      49.057  23.773  36.377  1.00  0.00    -0.237 OA
ATOM     90  O   UNL A   1      46.690  23.196  36.081  1.00  0.00    -0.744 OA
ENDBRANCH  84  87
ENDBRANCH  57  80
ENDBRANCH  31  32
ENDBRANCH  23  26
ENDBRANCH  21  22
ENDBRANCH  20  21
ENDBRANCH   1  20
TORSDOF 18
ENDMDL
