MODEL 1
REMARK VINA RESULT:     -12.3      0.000      0.000
REMARK SMILES O=C(NCCCCNC(=O)[C@@H]1CCn2c(C(=O)c3ccccc3)ccc21)c1ccc(-c2c3nc(c(-c4cccc(S(=O)(=O)[O-])c4F)c4ccc([nH]4)c(-c4cccc(S(=O)(=O)[O-])c4F)c4nc(c(-c5cccc(S(=O)(=O)[O-])c5F)c5ccc2[nH]5)C=C4)C=C3)cc1
REMARK SMILES IDX 5 1 4 2 3 3 1 4 2 5 27 7 28 8 89 9 29 10 88 11 30 12 31 13
REMARK SMILES IDX 32 14 82 15 33 16 87 17 81 18 83 19 34 20 86 21 80 22 79 23
REMARK SMILES IDX 35 25 67 26 47 27 66 28 48 29 51 30 65 31 84 32 49 33 50 34
REMARK SMILES IDX 64 36 85 37 52 38 36 39 37 40 45 41 38 42 40 43 46 44 39 45
REMARK SMILES IDX 41 46 42 47 43 48 44 49 68 50 69 51 77 52 70 53 72 54 78 55
REMARK SMILES IDX 71 56 73 57 74 58 75 59 76 60 53 61 54 62 62 63 55 64 57 65
REMARK SMILES IDX 63 66 56 67 58 68 59 69 60 70 61 71 6 72 7 73 8 74 9 75
REMARK SMILES IDX 10 77 11 78 12 79 26 80 13 81 14 82 25 83 15 84 24 85 16 86
REMARK SMILES IDX 17 87 18 88 19 89 23 90 20 91 22 92 21 93
REMARK H PARENT 3 6 83 24 51 35 8 76
REMARK Flexibility Score: inf
ROOT
ATOM      1  C   UNL A   1      34.747  22.172  26.819  1.00  0.00     0.023 C 
ENDROOT
BRANCH   1   2
ATOM      2  C   UNL A   1      35.997  22.595  26.066  1.00  0.00     0.116 C 
BRANCH   2   3
ATOM      3  N   UNL A   1      36.895  21.494  25.749  1.00  0.00    -0.352 N 
ATOM      4  O   UNL A   1      38.914  20.503  25.497  1.00  0.00    -0.269 OA
ATOM      5  C   UNL A   1      38.266  21.461  25.894  1.00  0.00     0.251 C 
ATOM      6  H   UNL A   1      36.475  20.679  25.390  1.00  0.00     0.163 HD
BRANCH   5   7
ATOM      7  C   UNL A   1      38.934  22.637  26.495  1.00  0.00     0.039 A 
ATOM      8  C   UNL A   1      38.511  23.923  26.162  1.00  0.00     0.014 A 
ATOM      9  C   UNL A   1      40.038  22.449  27.330  1.00  0.00     0.014 A 
ATOM     10  C   UNL A   1      39.292  25.013  26.518  1.00  0.00     0.010 A 
ATOM     11  C   UNL A   1      40.767  23.558  27.771  1.00  0.00     0.010 A 
ATOM     12  C   UNL A   1      40.424  24.847  27.334  1.00  0.00    -0.014 A 
BRANCH  12  13
ATOM     13  C   UNL A   1      41.171  26.056  27.762  1.00  0.00     0.031 A 
ATOM     14  C   UNL A   1      42.583  26.315  27.316  1.00  0.00     0.074 A 
ATOM     15  C   UNL A   1      40.525  26.956  28.530  1.00  0.00     0.049 A 
ATOM     16  N   UNL A   1      43.330  27.367  27.537  1.00  0.00    -0.248 NA
ATOM     17  C   UNL A   1      43.251  25.265  26.530  1.00  0.00     0.031 C 
ATOM     18  C   UNL A   1      39.173  26.781  29.067  1.00  0.00     0.029 A 
ATOM     19  N   UNL A   1      40.899  28.198  28.973  1.00  0.00    -0.354 N 
ATOM     20  C   UNL A   1      44.561  27.095  26.954  1.00  0.00     0.074 A 
ATOM     21  C   UNL A   1      44.467  25.774  26.371  1.00  0.00     0.031 C 
ATOM     22  C   UNL A   1      38.810  27.892  29.720  1.00  0.00     0.029 A 
ATOM     23  C   UNL A   1      39.920  28.838  29.694  1.00  0.00     0.049 A 
ATOM     24  H   UNL A   1      41.782  28.593  28.790  1.00  0.00     0.167 HD
ATOM     25  C   UNL A   1      45.661  27.884  26.896  1.00  0.00     0.034 A 
ATOM     26  C   UNL A   1      39.911  30.053  30.275  1.00  0.00     0.034 A 
ATOM     27  C   UNL A   1      45.734  29.215  27.442  1.00  0.00     0.049 A 
ATOM     28  C   UNL A   1      41.119  30.929  30.131  1.00  0.00     0.074 A 
ATOM     29  C   UNL A   1      46.793  30.105  27.406  1.00  0.00     0.029 A 
ATOM     30  N   UNL A   1      44.703  29.851  28.119  1.00  0.00    -0.354 N 
ATOM     31  N   UNL A   1      42.233  30.693  29.481  1.00  0.00    -0.248 NA
ATOM     32  C   UNL A   1      41.062  32.247  30.775  1.00  0.00     0.031 C 
ATOM     33  C   UNL A   1      46.404  31.279  28.061  1.00  0.00     0.029 A 
ATOM     34  C   UNL A   1      45.099  31.122  28.500  1.00  0.00     0.049 A 
ATOM     35  H   UNL A   1      43.820  29.456  28.301  1.00  0.00     0.167 HD
ATOM     36  C   UNL A   1      43.012  31.830  29.639  1.00  0.00     0.074 A 
ATOM     37  C   UNL A   1      42.220  32.775  30.403  1.00  0.00     0.031 C 
ATOM     38  C   UNL A   1      44.282  32.060  29.225  1.00  0.00     0.034 A 
BRANCH  25  39
ATOM     39  C   UNL A   1      46.870  27.359  26.163  1.00  0.00     0.023 A 
ATOM     40  C   UNL A   1      46.998  27.609  24.782  1.00  0.00     0.012 A 
ATOM     41  C   UNL A   1      47.914  26.706  26.847  1.00  0.00     0.148 A 
ATOM     42  C   UNL A   1      48.138  27.203  24.088  1.00  0.00     0.002 A 
ATOM     43  C   UNL A   1      49.063  26.333  26.155  1.00  0.00     0.091 A 
ATOM     44  F   UNL A   1      47.765  26.458  28.155  1.00  0.00    -0.205 F 
ATOM     45  C   UNL A   1      49.173  26.576  24.777  1.00  0.00     0.022 A 
BRANCH  43  46
ATOM     46  S   UNL A   1      50.482  25.582  26.963  1.00  0.00     0.127 S 
ATOM     47  O   UNL A   1      51.399  25.401  25.838  1.00  0.00    -0.237 OA
ATOM     48  O   UNL A   1      50.883  26.619  27.914  1.00  0.00    -0.237 OA
ATOM     49  O   UNL A   1      49.991  24.355  27.575  1.00  0.00    -0.744 OA
ENDBRANCH  43  46
ENDBRANCH  25  39
BRANCH  26  50
ATOM     50  C   UNL A   1      38.690  30.512  30.993  1.00  0.00     0.023 A 
ATOM     51  C   UNL A   1      38.619  30.390  32.393  1.00  0.00     0.012 A 
ATOM     52  C   UNL A   1      37.635  31.140  30.305  1.00  0.00     0.148 A 
ATOM     53  C   UNL A   1      37.509  30.870  33.092  1.00  0.00     0.002 A 
ATOM     54  C   UNL A   1      36.565  31.674  31.013  1.00  0.00     0.091 A 
ATOM     55  F   UNL A   1      37.703  31.228  28.968  1.00  0.00    -0.205 F 
ATOM     56  C   UNL A   1      36.491  31.526  32.405  1.00  0.00     0.022 A 
BRANCH  54  57
ATOM     57  S   UNL A   1      35.323  32.680  30.192  1.00  0.00     0.127 S 
ATOM     58  O   UNL A   1      36.118  33.797  29.693  1.00  0.00    -0.237 OA
ATOM     59  O   UNL A   1      34.815  31.775  29.159  1.00  0.00    -0.237 OA
ATOM     60  O   UNL A   1      34.351  32.988  31.234  1.00  0.00    -0.744 OA
ENDBRANCH  54  57
ENDBRANCH  26  50
BRANCH  38  61
ATOM     61  C   UNL A   1      44.893  33.381  29.607  1.00  0.00     0.023 A 
ATOM     62  C   UNL A   1      45.611  33.480  30.815  1.00  0.00     0.012 A 
ATOM     63  C   UNL A   1      44.789  34.505  28.766  1.00  0.00     0.148 A 
ATOM     64  C   UNL A   1      46.189  34.690  31.198  1.00  0.00     0.002 A 
ATOM     65  C   UNL A   1      45.399  35.698  29.137  1.00  0.00     0.091 A 
ATOM     66  F   UNL A   1      44.078  34.398  27.634  1.00  0.00    -0.205 F 
ATOM     67  C   UNL A   1      46.090  35.795  30.356  1.00  0.00     0.022 A 
BRANCH  65  68
ATOM     68  S   UNL A   1      45.380  37.142  28.069  1.00  0.00     0.127 S 
ATOM     69  O   UNL A   1      43.954  37.456  28.015  1.00  0.00    -0.237 OA
ATOM     70  O   UNL A   1      46.189  38.104  28.820  1.00  0.00    -0.237 OA
ATOM     71  O   UNL A   1      45.981  36.706  26.816  1.00  0.00    -0.744 OA
ENDBRANCH  65  68
ENDBRANCH  38  61
ENDBRANCH  12  13
ENDBRANCH   5   7
ENDBRANCH   2   3
ENDBRANCH   1   2
BRANCH   1  72
ATOM     72  C   UNL A   1      33.650  23.234  26.868  1.00  0.00     0.023 C 
BRANCH  72  73
ATOM     73  C   UNL A   1      32.236  22.716  26.593  1.00  0.00     0.116 C 
BRANCH  73  74
ATOM     74  N   UNL A   1      32.276  21.337  26.144  1.00  0.00    -0.356 N 
ATOM     75  C   UNL A   1      32.182  20.801  24.898  1.00  0.00     0.229 C 
ATOM     76  H   UNL A   1      32.392  20.678  26.864  1.00  0.00     0.163 HD
ATOM     77  O   UNL A   1      32.051  19.569  24.849  1.00  0.00    -0.274 OA
BRANCH  75  78
ATOM     78  C   UNL A   1      32.402  21.559  23.593  1.00  0.00     0.127 C 
ATOM     79  C   UNL A   1      33.926  21.764  23.387  1.00  0.00     0.042 C 
ATOM     80  C   UNL A   1      31.859  22.934  23.446  1.00  0.00     0.031 A 
ATOM     81  C   UNL A   1      34.129  23.199  22.888  1.00  0.00     0.124 C 
ATOM     82  N   UNL A   1      32.835  23.822  23.087  1.00  0.00    -0.341 N 
ATOM     83  C   UNL A   1      30.673  23.618  23.485  1.00  0.00     0.025 A 
ATOM     84  C   UNL A   1      32.375  25.103  23.081  1.00  0.00     0.090 A 
ATOM     85  C   UNL A   1      31.011  24.994  23.344  1.00  0.00     0.032 A 
BRANCH  84  86
ATOM     86  C   UNL A   1      33.129  26.330  22.893  1.00  0.00     0.209 C 
ATOM     87  O   UNL A   1      33.681  26.622  21.835  1.00  0.00    -0.287 OA
BRANCH  86  88
ATOM     88  C   UNL A   1      33.274  27.283  24.019  1.00  0.00     0.024 A 
ATOM     89  C   UNL A   1      32.932  28.624  23.825  1.00  0.00     0.012 A 
ATOM     90  C   UNL A   1      33.782  26.856  25.253  1.00  0.00     0.012 A 
ATOM     91  C   UNL A   1      33.056  29.530  24.878  1.00  0.00     0.001 A 
ATOM     92  C   UNL A   1      33.901  27.766  26.303  1.00  0.00     0.001 A 
ATOM     93  C   UNL A   1      33.533  29.099  26.117  1.00  0.00     0.000 A 
ENDBRANCH  86  88
ENDBRANCH  84  86
ENDBRANCH  75  78
ENDBRANCH  73  74
ENDBRANCH  72  73
ENDBRANCH   1  72
TORSDOF 16
ENDMDL
MODEL 2
REMARK VINA RESULT:     -12.2      2.424      3.318
REMARK SMILES O=C(NCCCCNC(=O)[C@@H]1CCn2c(C(=O)c3ccccc3)ccc21)c1ccc(-c2c3nc(c(-c4cccc(S(=O)(=O)[O-])c4F)c4ccc([nH]4)c(-c4cccc(S(=O)(=O)[O-])c4F)c4nc(c(-c5cccc(S(=O)(=O)[O-])c5F)c5ccc2[nH]5)C=C4)C=C3)cc1
REMARK SMILES IDX 5 1 4 2 3 3 1 4 2 5 27 7 28 8 89 9 29 10 88 11 30 12 31 13
REMARK SMILES IDX 32 14 82 15 33 16 87 17 81 18 83 19 34 20 86 21 80 22 79 23
REMARK SMILES IDX 35 25 67 26 47 27 66 28 48 29 51 30 65 31 84 32 49 33 50 34
REMARK SMILES IDX 64 36 85 37 52 38 36 39 37 40 45 41 38 42 40 43 46 44 39 45
REMARK SMILES IDX 41 46 42 47 43 48 44 49 68 50 69 51 77 52 70 53 72 54 78 55
REMARK SMILES IDX 71 56 73 57 74 58 75 59 76 60 53 61 54 62 62 63 55 64 57 65
REMARK SMILES IDX 63 66 56 67 58 68 59 69 60 70 61 71 6 72 7 73 8 74 9 75
REMARK SMILES IDX 10 77 11 78 12 79 26 80 13 81 14 82 25 83 15 84 24 85 16 86
REMARK SMILES IDX 17 87 18 88 19 89 23 90 20 91 22 92 21 93
REMARK H PARENT 3 6 83 24 51 35 8 76
REMARK Flexibility Score: inf
ROOT
ATOM      1  C   UNL A   1      34.855  22.436  25.061  1.00  0.00     0.023 C 
ENDROOT
BRANCH   1   2
ATOM      2  C   UNL A   1      36.130  22.470  25.885  1.00  0.00     0.116 C 
BRANCH   2   3
ATOM      3  N   UNL A   1      37.050  21.380  25.593  1.00  0.00    -0.352 N 
ATOM      4  O   UNL A   1      39.088  20.417  25.385  1.00  0.00    -0.269 OA
ATOM      5  C   UNL A   1      38.418  21.368  25.763  1.00  0.00     0.251 C 
ATOM      6  H   UNL A   1      36.648  20.556  25.231  1.00  0.00     0.163 HD
BRANCH   5   7
ATOM      7  C   UNL A   1      39.058  22.558  26.368  1.00  0.00     0.039 A 
ATOM      8  C   UNL A   1      38.630  23.836  26.009  1.00  0.00     0.014 A 
ATOM      9  C   UNL A   1      40.142  22.391  27.233  1.00  0.00     0.014 A 
ATOM     10  C   UNL A   1      39.389  24.938  26.373  1.00  0.00     0.010 A 
ATOM     11  C   UNL A   1      40.846  23.513  27.680  1.00  0.00     0.010 A 
ATOM     12  C   UNL A   1      40.501  24.793  27.221  1.00  0.00    -0.014 A 
BRANCH  12  13
ATOM     13  C   UNL A   1      41.224  26.015  27.655  1.00  0.00     0.031 A 
ATOM     14  C   UNL A   1      42.636  26.297  27.222  1.00  0.00     0.074 A 
ATOM     15  C   UNL A   1      40.556  26.905  28.415  1.00  0.00     0.049 A 
ATOM     16  N   UNL A   1      43.363  27.361  27.449  1.00  0.00    -0.248 NA
ATOM     17  C   UNL A   1      43.329  25.257  26.444  1.00  0.00     0.031 C 
ATOM     18  C   UNL A   1      39.201  26.708  28.939  1.00  0.00     0.029 A 
ATOM     19  N   UNL A   1      40.905  28.153  28.860  1.00  0.00    -0.354 N 
ATOM     20  C   UNL A   1      44.604  27.109  26.878  1.00  0.00     0.074 A 
ATOM     21  C   UNL A   1      44.538  25.786  26.296  1.00  0.00     0.031 C 
ATOM     22  C   UNL A   1      38.814  27.814  29.587  1.00  0.00     0.029 A 
ATOM     23  C   UNL A   1      39.908  28.778  29.571  1.00  0.00     0.049 A 
ATOM     24  H   UNL A   1      41.783  28.563  28.685  1.00  0.00     0.167 HD
ATOM     25  C   UNL A   1      45.692  27.917  26.829  1.00  0.00     0.034 A 
ATOM     26  C   UNL A   1      39.873  29.993  30.150  1.00  0.00     0.034 A 
ATOM     27  C   UNL A   1      45.736  29.249  27.375  1.00  0.00     0.049 A 
ATOM     28  C   UNL A   1      41.068  30.889  30.016  1.00  0.00     0.074 A 
ATOM     29  C   UNL A   1      46.781  30.156  27.347  1.00  0.00     0.029 A 
ATOM     30  N   UNL A   1      44.689  29.869  28.041  1.00  0.00    -0.354 N 
ATOM     31  N   UNL A   1      42.192  30.671  29.378  1.00  0.00    -0.248 NA
ATOM     32  C   UNL A   1      40.983  32.207  30.658  1.00  0.00     0.031 C 
ATOM     33  C   UNL A   1      46.366  31.325  27.997  1.00  0.00     0.029 A 
ATOM     34  C   UNL A   1      45.060  31.147  28.424  1.00  0.00     0.049 A 
ATOM     35  H   UNL A   1      43.811  29.460  28.215  1.00  0.00     0.167 HD
ATOM     36  C   UNL A   1      42.951  31.821  29.542  1.00  0.00     0.074 A 
ATOM     37  C   UNL A   1      42.135  32.754  30.296  1.00  0.00     0.031 C 
ATOM     38  C   UNL A   1      44.221  32.072  29.139  1.00  0.00     0.034 A 
BRANCH  25  39
ATOM     39  C   UNL A   1      46.916  27.412  26.109  1.00  0.00     0.023 A 
ATOM     40  C   UNL A   1      47.783  26.520  26.771  1.00  0.00     0.012 A 
ATOM     41  C   UNL A   1      47.161  27.741  24.762  1.00  0.00     0.148 A 
ATOM     42  C   UNL A   1      48.884  25.975  26.110  1.00  0.00     0.002 A 
ATOM     43  C   UNL A   1      48.241  27.167  24.098  1.00  0.00     0.091 A 
ATOM     44  F   UNL A   1      46.338  28.607  24.155  1.00  0.00    -0.205 F 
ATOM     45  C   UNL A   1      49.106  26.290  24.772  1.00  0.00     0.022 A 
BRANCH  43  46
ATOM     46  S   UNL A   1      48.575  27.454  22.355  1.00  0.00     0.127 S 
ATOM     47  O   UNL A   1      49.861  28.148  22.412  1.00  0.00    -0.237 OA
ATOM     48  O   UNL A   1      48.641  26.093  21.824  1.00  0.00    -0.237 OA
ATOM     49  O   UNL A   1      47.457  28.245  21.859  1.00  0.00    -0.744 OA
ENDBRANCH  43  46
ENDBRANCH  25  39
BRANCH  26  50
ATOM     50  C   UNL A   1      38.638  30.433  30.855  1.00  0.00     0.023 A 
ATOM     51  C   UNL A   1      38.528  30.248  32.246  1.00  0.00     0.012 A 
ATOM     52  C   UNL A   1      37.608  31.102  30.168  1.00  0.00     0.148 A 
ATOM     53  C   UNL A   1      37.404  30.708  32.936  1.00  0.00     0.002 A 
ATOM     54  C   UNL A   1      36.524  31.616  30.872  1.00  0.00     0.091 A 
ATOM     55  F   UNL A   1      37.713  31.251  28.839  1.00  0.00    -0.205 F 
ATOM     56  C   UNL A   1      36.412  31.406  32.253  1.00  0.00     0.022 A 
BRANCH  54  57
ATOM     57  S   UNL A   1      35.315  32.671  30.065  1.00  0.00     0.127 S 
ATOM     58  O   UNL A   1      34.358  32.913  31.139  1.00  0.00    -0.237 OA
ATOM     59  O   UNL A   1      36.116  33.835  29.680  1.00  0.00    -0.237 OA
ATOM     60  O   UNL A   1      34.837  31.885  28.933  1.00  0.00    -0.744 OA
ENDBRANCH  54  57
ENDBRANCH  26  50
BRANCH  38  61
ATOM     61  C   UNL A   1      44.805  33.403  29.526  1.00  0.00     0.023 A 
ATOM     62  C   UNL A   1      45.553  33.504  30.716  1.00  0.00     0.012 A 
ATOM     63  C   UNL A   1      44.648  34.536  28.706  1.00  0.00     0.148 A 
ATOM     64  C   UNL A   1      46.108  34.723  31.103  1.00  0.00     0.002 A 
ATOM     65  C   UNL A   1      45.237  35.740  29.078  1.00  0.00     0.091 A 
ATOM     66  F   UNL A   1      43.911  34.427  27.591  1.00  0.00    -0.205 F 
ATOM     67  C   UNL A   1      45.957  35.838  30.281  1.00  0.00     0.022 A 
BRANCH  65  68
ATOM     68  S   UNL A   1      45.150  37.198  28.034  1.00  0.00     0.127 S 
ATOM     69  O   UNL A   1      43.714  37.469  28.016  1.00  0.00    -0.237 OA
ATOM     70  O   UNL A   1      45.945  38.173  28.782  1.00  0.00    -0.237 OA
ATOM     71  O   UNL A   1      45.737  36.800  26.762  1.00  0.00    -0.744 OA
ENDBRANCH  65  68
ENDBRANCH  38  61
ENDBRANCH  12  13
ENDBRANCH   5   7
ENDBRANCH   2   3
ENDBRANCH   1   2
BRANCH   1  72
ATOM     72  C   UNL A   1      33.908  23.608  25.312  1.00  0.00     0.023 C 
BRANCH  72  73
ATOM     73  C   UNL A   1      33.918  24.692  24.230  1.00  0.00     0.116 C 
BRANCH  73  74
ATOM     74  N   UNL A   1      33.819  26.010  24.827  1.00  0.00    -0.356 N 
ATOM     75  C   UNL A   1      33.300  27.171  24.346  1.00  0.00     0.229 C 
ATOM     76  H   UNL A   1      34.189  26.074  25.736  1.00  0.00     0.163 HD
ATOM     77  O   UNL A   1      33.539  28.187  25.016  1.00  0.00    -0.274 OA
BRANCH  75  78
ATOM     78  C   UNL A   1      32.324  27.284  23.179  1.00  0.00     0.127 C 
ATOM     79  C   UNL A   1      32.327  28.750  22.668  1.00  0.00     0.042 C 
ATOM     80  C   UNL A   1      30.881  27.014  23.405  1.00  0.00     0.031 A 
ATOM     81  C   UNL A   1      30.870  29.139  22.395  1.00  0.00     0.124 C 
ATOM     82  N   UNL A   1      30.105  28.062  22.993  1.00  0.00    -0.341 N 
ATOM     83  C   UNL A   1      30.040  26.022  23.835  1.00  0.00     0.025 A 
ATOM     84  C   UNL A   1      28.796  27.880  23.318  1.00  0.00     0.090 A 
ATOM     85  C   UNL A   1      28.738  26.599  23.864  1.00  0.00     0.032 A 
BRANCH  84  86
ATOM     86  C   UNL A   1      27.695  28.817  23.180  1.00  0.00     0.209 C 
ATOM     87  O   UNL A   1      26.533  28.532  23.465  1.00  0.00    -0.287 OA
BRANCH  86  88
ATOM     88  C   UNL A   1      27.951  30.179  22.655  1.00  0.00     0.024 A 
ATOM     89  C   UNL A   1      28.152  31.229  23.556  1.00  0.00     0.012 A 
ATOM     90  C   UNL A   1      27.954  30.422  21.277  1.00  0.00     0.012 A 
ATOM     91  C   UNL A   1      28.402  32.515  23.076  1.00  0.00     0.001 A 
ATOM     92  C   UNL A   1      28.207  31.709  20.802  1.00  0.00     0.001 A 
ATOM     93  C   UNL A   1      28.435  32.751  21.700  1.00  0.00     0.000 A 
ENDBRANCH  86  88
ENDBRANCH  84  86
ENDBRANCH  75  78
ENDBRANCH  73  74
ENDBRANCH  72  73
ENDBRANCH   1  72
TORSDOF 16
ENDMDL
MODEL 3
REMARK VINA RESULT:     -12.2      5.029      9.942
REMARK SMILES O=C(NCCCCNC(=O)[C@@H]1CCn2c(C(=O)c3ccccc3)ccc21)c1ccc(-c2c3nc(c(-c4cccc(S(=O)(=O)[O-])c4F)c4ccc([nH]4)c(-c4cccc(S(=O)(=O)[O-])c4F)c4nc(c(-c5cccc(S(=O)(=O)[O-])c5F)c5ccc2[nH]5)C=C4)C=C3)cc1
REMARK SMILES IDX 5 1 4 2 3 3 1 4 2 5 27 7 28 8 89 9 29 10 88 11 30 12 31 13
REMARK SMILES IDX 32 14 82 15 33 16 87 17 81 18 83 19 34 20 86 21 80 22 79 23
REMARK SMILES IDX 35 25 67 26 47 27 66 28 48 29 51 30 65 31 84 32 49 33 50 34
REMARK SMILES IDX 64 36 85 37 52 38 36 39 37 40 45 41 38 42 40 43 46 44 39 45
REMARK SMILES IDX 41 46 42 47 43 48 44 49 68 50 69 51 77 52 70 53 72 54 78 55
REMARK SMILES IDX 71 56 73 57 74 58 75 59 76 60 53 61 54 62 62 63 55 64 57 65
REMARK SMILES IDX 63 66 56 67 58 68 59 69 60 70 61 71 6 72 7 73 8 74 9 75
REMARK SMILES IDX 10 77 11 78 12 79 26 80 13 81 14 82 25 83 15 84 24 85 16 86
REMARK SMILES IDX 17 87 18 88 19 89 23 90 20 91 22 92 21 93
REMARK H PARENT 3 6 83 24 51 35 8 76
REMARK Flexibility Score: inf
ROOT
ATOM      1  C   UNL A   1      32.442  29.335  25.349  1.00  0.00     0.023 C 
ENDROOT
BRANCH   1   2
ATOM      2  C   UNL A   1      33.112  29.849  26.611  1.00  0.00     0.116 C 
BRANCH   2   3
ATOM      3  N   UNL A   1      32.862  31.258  26.880  1.00  0.00    -0.352 N 
ATOM      4  O   UNL A   1      33.296  33.278  27.804  1.00  0.00    -0.269 OA
ATOM      5  C   UNL A   1      33.672  32.139  27.563  1.00  0.00     0.251 C 
ATOM      6  H   UNL A   1      32.015  31.623  26.534  1.00  0.00     0.163 HD
BRANCH   5   7
ATOM      7  C   UNL A   1      34.986  31.654  28.042  1.00  0.00     0.039 A 
ATOM      8  C   UNL A   1      35.109  30.358  28.543  1.00  0.00     0.014 A 
ATOM      9  C   UNL A   1      36.076  32.527  28.063  1.00  0.00     0.014 A 
ATOM     10  C   UNL A   1      36.263  29.995  29.221  1.00  0.00     0.010 A 
ATOM     11  C   UNL A   1      37.274  32.122  28.659  1.00  0.00     0.010 A 
ATOM     12  C   UNL A   1      37.364  30.867  29.280  1.00  0.00    -0.014 A 
BRANCH  12  13
ATOM     13  C   UNL A   1      38.607  30.392  29.938  1.00  0.00     0.031 A 
ATOM     14  C   UNL A   1      38.971  30.804  31.337  1.00  0.00     0.074 A 
ATOM     15  C   UNL A   1      39.388  29.528  29.259  1.00  0.00     0.049 A 
ATOM     16  N   UNL A   1      39.977  30.402  32.071  1.00  0.00    -0.248 NA
ATOM     17  C   UNL A   1      38.108  31.796  32.000  1.00  0.00     0.031 C 
ATOM     18  C   UNL A   1      39.161  29.104  27.875  1.00  0.00     0.029 A 
ATOM     19  N   UNL A   1      40.509  28.837  29.637  1.00  0.00    -0.354 N 
ATOM     20  C   UNL A   1      39.893  31.113  33.263  1.00  0.00     0.074 A 
ATOM     21  C   UNL A   1      38.738  31.978  33.154  1.00  0.00     0.031 C 
ATOM     22  C   UNL A   1      40.077  28.188  27.538  1.00  0.00     0.029 A 
ATOM     23  C   UNL A   1      40.988  27.997  28.661  1.00  0.00     0.049 A 
ATOM     24  H   UNL A   1      40.929  28.931  30.523  1.00  0.00     0.167 HD
ATOM     25  C   UNL A   1      40.695  31.034  34.352  1.00  0.00     0.034 A 
ATOM     26  C   UNL A   1      42.045  27.162  28.662  1.00  0.00     0.034 A 
ATOM     27  C   UNL A   1      41.818  30.140  34.468  1.00  0.00     0.049 A 
ATOM     28  C   UNL A   1      42.870  27.047  29.909  1.00  0.00     0.074 A 
ATOM     29  C   UNL A   1      42.672  29.965  35.544  1.00  0.00     0.029 A 
ATOM     30  N   UNL A   1      42.240  29.265  33.478  1.00  0.00    -0.354 N 
ATOM     31  N   UNL A   1      42.706  27.650  31.062  1.00  0.00    -0.248 NA
ATOM     32  C   UNL A   1      44.008  26.121  29.867  1.00  0.00     0.031 C 
ATOM     33  C   UNL A   1      43.611  28.984  35.204  1.00  0.00     0.029 A 
ATOM     34  C   UNL A   1      43.338  28.543  33.918  1.00  0.00     0.049 A 
ATOM     35  H   UNL A   1      41.821  29.170  32.593  1.00  0.00     0.167 HD
ATOM     36  C   UNL A   1      43.721  27.179  31.883  1.00  0.00     0.074 A 
ATOM     37  C   UNL A   1      44.462  26.201  31.110  1.00  0.00     0.031 C 
ATOM     38  C   UNL A   1      44.036  27.548  33.148  1.00  0.00     0.034 A 
BRANCH  25  39
ATOM     39  C   UNL A   1      40.359  31.898  35.541  1.00  0.00     0.023 A 
ATOM     40  C   UNL A   1      41.113  33.065  35.777  1.00  0.00     0.012 A 
ATOM     41  C   UNL A   1      39.253  31.612  36.365  1.00  0.00     0.148 A 
ATOM     42  C   UNL A   1      40.783  33.926  36.824  1.00  0.00     0.002 A 
ATOM     43  C   UNL A   1      38.910  32.492  37.387  1.00  0.00     0.091 A 
ATOM     44  F   UNL A   1      38.561  30.487  36.139  1.00  0.00    -0.205 F 
ATOM     45  C   UNL A   1      39.676  33.645  37.620  1.00  0.00     0.022 A 
BRANCH  43  46
ATOM     46  S   UNL A   1      37.461  32.257  38.425  1.00  0.00     0.127 S 
ATOM     47  O   UNL A   1      36.450  33.022  37.697  1.00  0.00    -0.237 OA
ATOM     48  O   UNL A   1      37.278  30.807  38.378  1.00  0.00    -0.237 OA
ATOM     49  O   UNL A   1      37.819  32.781  39.736  1.00  0.00    -0.744 OA
ENDBRANCH  43  46
ENDBRANCH  25  39
BRANCH  26  50
ATOM     50  C   UNL A   1      42.331  26.341  27.454  1.00  0.00     0.023 A 
ATOM     51  C   UNL A   1      43.098  26.886  26.408  1.00  0.00     0.012 A 
ATOM     52  C   UNL A   1      41.914  24.999  27.371  1.00  0.00     0.148 A 
ATOM     53  C   UNL A   1      43.430  26.114  25.293  1.00  0.00     0.002 A 
ATOM     54  C   UNL A   1      42.303  24.217  26.290  1.00  0.00     0.091 A 
ATOM     55  F   UNL A   1      41.162  24.498  28.363  1.00  0.00    -0.205 F 
ATOM     56  C   UNL A   1      43.047  24.775  25.242  1.00  0.00     0.022 A 
BRANCH  54  57
ATOM     57  S   UNL A   1      41.986  22.449  26.267  1.00  0.00     0.127 S 
ATOM     58  O   UNL A   1      42.741  22.019  25.095  1.00  0.00    -0.237 OA
ATOM     59  O   UNL A   1      42.539  22.010  27.550  1.00  0.00    -0.237 OA
ATOM     60  O   UNL A   1      40.534  22.336  26.182  1.00  0.00    -0.744 OA
ENDBRANCH  54  57
ENDBRANCH  26  50
BRANCH  38  61
ATOM     61  C   UNL A   1      45.246  26.900  33.763  1.00  0.00     0.023 A 
ATOM     62  C   UNL A   1      46.489  27.559  33.690  1.00  0.00     0.012 A 
ATOM     63  C   UNL A   1      45.153  25.668  34.438  1.00  0.00     0.148 A 
ATOM     64  C   UNL A   1      47.630  26.986  34.249  1.00  0.00     0.002 A 
ATOM     65  C   UNL A   1      46.287  25.120  35.026  1.00  0.00     0.091 A 
ATOM     66  F   UNL A   1      43.967  25.043  34.474  1.00  0.00    -0.205 F 
ATOM     67  C   UNL A   1      47.527  25.772  34.924  1.00  0.00     0.022 A 
BRANCH  65  68
ATOM     68  S   UNL A   1      46.218  23.598  35.976  1.00  0.00     0.127 S 
ATOM     69  O   UNL A   1      47.425  23.697  36.792  1.00  0.00    -0.237 OA
ATOM     70  O   UNL A   1      44.965  23.743  36.720  1.00  0.00    -0.237 OA
ATOM     71  O   UNL A   1      46.205  22.525  34.989  1.00  0.00    -0.744 OA
ENDBRANCH  65  68
ENDBRANCH  38  61
ENDBRANCH  12  13
ENDBRANCH   5   7
ENDBRANCH   2   3
ENDBRANCH   1   2
BRANCH   1  72
ATOM     72  C   UNL A   1      33.328  28.443  24.482  1.00  0.00     0.023 C 
BRANCH  72  73
ATOM     73  C   UNL A   1      33.304  28.766  22.985  1.00  0.00     0.116 C 
BRANCH  73  74
ATOM     74  N   UNL A   1      32.060  29.420  22.625  1.00  0.00    -0.356 N 
ATOM     75  C   UNL A   1      30.881  28.912  22.178  1.00  0.00     0.229 C 
ATOM     76  H   UNL A   1      32.072  30.398  22.722  1.00  0.00     0.163 HD
ATOM     77  O   UNL A   1      30.058  29.742  21.763  1.00  0.00    -0.274 OA
BRANCH  75  78
ATOM     78  C   UNL A   1      30.439  27.458  22.314  1.00  0.00     0.127 C 
ATOM     79  C   UNL A   1      30.002  27.206  23.782  1.00  0.00     0.042 C 
ATOM     80  C   UNL A   1      31.420  26.370  22.068  1.00  0.00     0.031 A 
ATOM     81  C   UNL A   1      30.570  25.845  24.198  1.00  0.00     0.124 C 
ATOM     82  N   UNL A   1      31.495  25.514  23.132  1.00  0.00    -0.341 N 
ATOM     83  C   UNL A   1      32.245  25.885  21.089  1.00  0.00     0.025 A 
ATOM     84  C   UNL A   1      32.485  24.594  22.970  1.00  0.00     0.090 A 
ATOM     85  C   UNL A   1      32.980  24.823  21.688  1.00  0.00     0.032 A 
BRANCH  84  86
ATOM     86  C   UNL A   1      32.969  23.614  23.927  1.00  0.00     0.209 C 
ATOM     87  O   UNL A   1      32.226  22.837  24.524  1.00  0.00    -0.287 OA
BRANCH  86  88
ATOM     88  C   UNL A   1      34.417  23.539  24.233  1.00  0.00     0.024 A 
ATOM     89  C   UNL A   1      35.273  22.911  23.324  1.00  0.00     0.012 A 
ATOM     90  C   UNL A   1      34.919  24.056  25.434  1.00  0.00     0.012 A 
ATOM     91  C   UNL A   1      36.640  22.840  23.596  1.00  0.00     0.001 A 
ATOM     92  C   UNL A   1      36.287  23.984  25.699  1.00  0.00     0.001 A 
ATOM     93  C   UNL A   1      37.145  23.382  24.779  1.00  0.00     0.000 A 
ENDBRANCH  86  88
ENDBRANCH  84  86
ENDBRANCH  75  78
ENDBRANCH  73  74
ENDBRANCH  72  73
ENDBRANCH   1  72
TORSDOF 16
ENDMDL
