MODEL 1
REMARK VINA RESULT:     -12.0      0.000      0.000
REMARK SMILES O=C1NC[C@@H](CSc2ccnc(C(=O)NCCCCNC(=O)c3ccc(-c4c5nc(c(-c6cccc(S(=O)(=O)[O-])c6F)c6ccc([nH]6)c(-c6cccc(S(=O)(=O)[O-])c6F)c6nc(c(-c7cccc(S(=O)(=O)[O-])c7F)c7ccc4[nH]7)C=C6)C=C5)cc3)c2)O1
REMARK SMILES IDX 17 1 16 2 15 3 13 4 14 5 12 7 8 8 9 9 86 10 10 11 11 12 7 13
REMARK SMILES IDX 6 14 5 15 1 16 2 17 3 18 87 19 4 20 18 22 19 23 20 24 21 25
REMARK SMILES IDX 22 27 23 28 24 29 85 30 25 31 84 32 26 33 27 34 28 35 78 36
REMARK SMILES IDX 29 37 83 38 77 39 79 40 30 41 82 42 76 43 75 44 31 46 63 47
REMARK SMILES IDX 43 48 62 49 44 50 47 51 61 52 80 53 45 54 46 55 60 57 81 58
REMARK SMILES IDX 48 59 32 60 33 61 41 62 34 63 36 64 42 65 35 66 37 67 38 68
REMARK SMILES IDX 39 69 40 70 64 71 65 72 73 73 66 74 68 75 74 76 67 77 69 78
REMARK SMILES IDX 70 79 71 80 72 81 49 82 50 83 58 84 51 85 53 86 59 87 52 88
REMARK SMILES IDX 54 89 55 90 56 91 57 92
REMARK H PARENT 15 6 3 21 20 26 79 45 47 56
REMARK Flexibility Score: inf
ROOT
ATOM      1  C   UNL A   1      31.651  27.269  24.989  1.00  0.00     0.023 C 
ENDROOT
BRANCH   1   2
ATOM      2  C   UNL A   1      32.482  26.612  26.093  1.00  0.00     0.116 C 
BRANCH   2   3
ATOM      3  N   UNL A   1      31.664  25.644  26.795  1.00  0.00    -0.351 N 
ATOM      4  C   UNL A   1      31.297  24.351  26.500  1.00  0.00     0.269 C 
ATOM      5  O   UNL A   1      30.485  23.813  27.254  1.00  0.00    -0.268 OA
ATOM      6  H   UNL A   1      31.301  25.975  27.648  1.00  0.00     0.163 HD
BRANCH   4   7
ATOM      7  C   UNL A   1      31.904  23.562  25.372  1.00  0.00     0.129 A 
ATOM      8  C   UNL A   1      33.125  21.721  24.467  1.00  0.00     0.011 A 
ATOM      9  C   UNL A   1      32.480  21.932  23.254  1.00  0.00     0.035 A 
ATOM     10  C   UNL A   1      32.867  22.578  25.536  1.00  0.00     0.049 A 
ATOM     11  C   UNL A   1      31.657  23.031  23.130  1.00  0.00     0.113 A 
ATOM     12  N   UNL A   1      31.353  23.837  24.159  1.00  0.00    -0.251 NA
BRANCH   8  13
ATOM     13  S   UNL A   1      34.108  20.255  24.700  1.00  0.00    -0.122 SA
BRANCH  13  14
ATOM     14  C   UNL A   1      32.976  19.172  25.649  1.00  0.00     0.122 C 
BRANCH  14  15
ATOM     15  C   UNL A   1      32.368  17.972  24.909  1.00  0.00     0.208 C 
ATOM     16  O   UNL A   1      34.383  16.305  22.653  1.00  0.00    -0.225 OA
ATOM     17  C   UNL A   1      33.662  16.663  23.571  1.00  0.00     0.407 C 
ATOM     18  N   UNL A   1      33.461  15.962  24.721  1.00  0.00    -0.318 N 
ATOM     19  O   UNL A   1      32.934  17.816  23.594  1.00  0.00    -0.443 OA
ATOM     20  C   UNL A   1      32.547  16.625  25.581  1.00  0.00     0.165 C 
ATOM     21  H   UNL A   1      33.895  15.103  24.931  1.00  0.00     0.167 HD
ENDBRANCH  14  15
ENDBRANCH  13  14
ENDBRANCH   8  13
ENDBRANCH   4   7
ENDBRANCH   2   3
ENDBRANCH   1   2
BRANCH   1  22
ATOM     22  C   UNL A   1      31.798  28.794  24.948  1.00  0.00     0.023 C 
BRANCH  22  23
ATOM     23  C   UNL A   1      32.711  29.370  26.024  1.00  0.00     0.116 C 
BRANCH  23  24
ATOM     24  N   UNL A   1      32.436  30.771  26.313  1.00  0.00    -0.352 N 
ATOM     25  C   UNL A   1      33.155  31.631  27.105  1.00  0.00     0.251 C 
ATOM     26  H   UNL A   1      31.633  31.148  25.887  1.00  0.00     0.163 HD
ATOM     27  O   UNL A   1      32.720  32.747  27.364  1.00  0.00    -0.269 OA
BRANCH  25  28
ATOM     28  C   UNL A   1      34.440  31.172  27.665  1.00  0.00     0.039 A 
ATOM     29  C   UNL A   1      35.441  32.112  27.911  1.00  0.00     0.014 A 
ATOM     30  C   UNL A   1      34.625  29.827  27.997  1.00  0.00     0.014 A 
ATOM     31  C   UNL A   1      36.613  31.707  28.547  1.00  0.00     0.010 A 
ATOM     32  C   UNL A   1      35.757  29.446  28.708  1.00  0.00     0.010 A 
ATOM     33  C   UNL A   1      36.767  30.379  28.982  1.00  0.00    -0.014 A 
BRANCH  33  34
ATOM     34  C   UNL A   1      37.978  29.961  29.730  1.00  0.00     0.031 A 
ATOM     35  C   UNL A   1      38.230  30.480  31.119  1.00  0.00     0.074 A 
ATOM     36  C   UNL A   1      38.880  29.157  29.132  1.00  0.00     0.049 A 
ATOM     37  N   UNL A   1      39.224  30.215  31.927  1.00  0.00    -0.248 NA
ATOM     38  C   UNL A   1      37.255  31.440  31.665  1.00  0.00     0.031 C 
ATOM     39  C   UNL A   1      38.792  28.662  27.756  1.00  0.00     0.029 A 
ATOM     40  N   UNL A   1      40.055  28.627  29.599  1.00  0.00    -0.354 N 
ATOM     41  C   UNL A   1      39.011  30.993  33.058  1.00  0.00     0.074 A 
ATOM     42  C   UNL A   1      37.819  31.775  32.816  1.00  0.00     0.031 C 
ATOM     43  C   UNL A   1      39.854  27.884  27.499  1.00  0.00     0.029 A 
ATOM     44  C   UNL A   1      40.715  27.851  28.676  1.00  0.00     0.049 A 
ATOM     45  H   UNL A   1      40.394  28.786  30.511  1.00  0.00     0.167 HD
ATOM     46  C   UNL A   1      39.724  31.032  34.208  1.00  0.00     0.034 A 
ATOM     47  C   UNL A   1      41.886  27.188  28.766  1.00  0.00     0.034 A 
ATOM     48  C   UNL A   1      40.894  30.232  34.454  1.00  0.00     0.049 A 
ATOM     49  C   UNL A   1      42.641  27.222  30.067  1.00  0.00     0.074 A 
ATOM     50  C   UNL A   1      41.639  30.133  35.614  1.00  0.00     0.029 A 
ATOM     51  N   UNL A   1      41.498  29.405  33.519  1.00  0.00    -0.354 N 
ATOM     52  N   UNL A   1      42.334  27.835  31.185  1.00  0.00    -0.248 NA
ATOM     53  C   UNL A   1      43.884  26.440  30.132  1.00  0.00     0.031 C 
ATOM     54  C   UNL A   1      42.717  29.277  35.369  1.00  0.00     0.029 A 
ATOM     55  C   UNL A   1      42.616  28.805  34.070  1.00  0.00     0.049 A 
ATOM     56  H   UNL A   1      41.178  29.266  32.598  1.00  0.00     0.167 HD
ATOM     57  C   UNL A   1      43.325  27.485  32.095  1.00  0.00     0.074 A 
ATOM     58  C   UNL A   1      44.225  26.585  31.405  1.00  0.00     0.031 C 
ATOM     59  C   UNL A   1      43.481  27.880  33.383  1.00  0.00     0.034 A 
BRANCH  46  60
ATOM     60  C   UNL A   1      39.237  31.943  35.305  1.00  0.00     0.023 A 
ATOM     61  C   UNL A   1      38.296  31.469  36.243  1.00  0.00     0.012 A 
ATOM     62  C   UNL A   1      39.749  33.248  35.442  1.00  0.00     0.148 A 
ATOM     63  C   UNL A   1      37.844  32.290  37.275  1.00  0.00     0.002 A 
ATOM     64  C   UNL A   1      39.333  34.043  36.503  1.00  0.00     0.091 A 
ATOM     65  F   UNL A   1      40.627  33.689  34.530  1.00  0.00    -0.205 F 
ATOM     66  C   UNL A   1      38.371  33.572  37.412  1.00  0.00     0.022 A 
BRANCH  64  67
ATOM     67  S   UNL A   1      40.013  35.675  36.817  1.00  0.00     0.127 S 
ATOM     68  O   UNL A   1      39.343  36.037  38.066  1.00  0.00    -0.237 OA
ATOM     69  O   UNL A   1      41.442  35.390  36.952  1.00  0.00    -0.237 OA
ATOM     70  O   UNL A   1      39.659  36.488  35.663  1.00  0.00    -0.744 OA
ENDBRANCH  64  67
ENDBRANCH  46  60
BRANCH  47  71
ATOM     71  C   UNL A   1      42.387  26.393  27.610  1.00  0.00     0.023 A 
ATOM     72  C   UNL A   1      43.231  27.000  26.660  1.00  0.00     0.012 A 
ATOM     73  C   UNL A   1      42.046  25.035  27.459  1.00  0.00     0.148 A 
ATOM     74  C   UNL A   1      43.692  26.279  25.557  1.00  0.00     0.002 A 
ATOM     75  C   UNL A   1      42.556  24.308  26.390  1.00  0.00     0.091 A 
ATOM     76  F   UNL A   1      41.236  24.479  28.371  1.00  0.00    -0.205 F 
ATOM     77  C   UNL A   1      43.363  24.933  25.426  1.00  0.00     0.022 A 
BRANCH  75  78
ATOM     78  S   UNL A   1      42.295  22.540  26.215  1.00  0.00     0.127 S 
ATOM     79  O   UNL A   1      40.838  22.457  26.169  1.00  0.00    -0.237 OA
ATOM     80  O   UNL A   1      42.970  22.262  24.947  1.00  0.00    -0.237 OA
ATOM     81  O   UNL A   1      42.927  21.931  27.378  1.00  0.00    -0.744 OA
ENDBRANCH  75  78
ENDBRANCH  47  71
BRANCH  59  82
ATOM     82  C   UNL A   1      44.647  27.310  34.149  1.00  0.00     0.023 A 
ATOM     83  C   UNL A   1      45.876  27.998  34.185  1.00  0.00     0.012 A 
ATOM     84  C   UNL A   1      44.503  26.115  34.882  1.00  0.00     0.148 A 
ATOM     85  C   UNL A   1      46.956  27.483  34.900  1.00  0.00     0.002 A 
ATOM     86  C   UNL A   1      45.566  25.637  35.637  1.00  0.00     0.091 A 
ATOM     87  F   UNL A   1      43.332  25.465  34.823  1.00  0.00    -0.205 F 
ATOM     88  C   UNL A   1      46.798  26.310  35.635  1.00  0.00     0.022 A 
BRANCH  86  89
ATOM     89  S   UNL A   1      45.424  24.191  36.694  1.00  0.00     0.127 S 
ATOM     90  O   UNL A   1      44.825  23.216  35.785  1.00  0.00    -0.237 OA
ATOM     91  O   UNL A   1      46.820  23.924  37.042  1.00  0.00    -0.237 OA
ATOM     92  O   UNL A   1      44.587  24.594  37.817  1.00  0.00    -0.744 OA
ENDBRANCH  86  89
ENDBRANCH  59  82
ENDBRANCH  33  34
ENDBRANCH  25  28
ENDBRANCH  23  24
ENDBRANCH  22  23
ENDBRANCH   1  22
TORSDOF 17
ENDMDL
MODEL 2
REMARK VINA RESULT:     -11.8      4.937     10.141
REMARK SMILES O=C1NC[C@@H](CSc2ccnc(C(=O)NCCCCNC(=O)c3ccc(-c4c5nc(c(-c6cccc(S(=O)(=O)[O-])c6F)c6ccc([nH]6)c(-c6cccc(S(=O)(=O)[O-])c6F)c6nc(c(-c7cccc(S(=O)(=O)[O-])c7F)c7ccc4[nH]7)C=C6)C=C5)cc3)c2)O1
REMARK SMILES IDX 17 1 16 2 15 3 13 4 14 5 12 7 8 8 9 9 86 10 10 11 11 12 7 13
REMARK SMILES IDX 6 14 5 15 1 16 2 17 3 18 87 19 4 20 18 22 19 23 20 24 21 25
REMARK SMILES IDX 22 27 23 28 24 29 85 30 25 31 84 32 26 33 27 34 28 35 78 36
REMARK SMILES IDX 29 37 83 38 77 39 79 40 30 41 82 42 76 43 75 44 31 46 63 47
REMARK SMILES IDX 43 48 62 49 44 50 47 51 61 52 80 53 45 54 46 55 60 57 81 58
REMARK SMILES IDX 48 59 32 60 33 61 41 62 34 63 36 64 42 65 35 66 37 67 38 68
REMARK SMILES IDX 39 69 40 70 64 71 65 72 73 73 66 74 68 75 74 76 67 77 69 78
REMARK SMILES IDX 70 79 71 80 72 81 49 82 50 83 58 84 51 85 53 86 59 87 52 88
REMARK SMILES IDX 54 89 55 90 56 91 57 92
REMARK H PARENT 15 6 3 21 20 26 79 45 47 56
REMARK Flexibility Score: inf
ROOT
ATOM      1  C   UNL A   1      34.550  21.155  24.624  1.00  0.00     0.023 C 
ENDROOT
BRANCH   1   2
ATOM      2  C   UNL A   1      33.111  21.604  24.886  1.00  0.00     0.116 C 
BRANCH   2   3
ATOM      3  N   UNL A   1      32.882  21.667  26.315  1.00  0.00    -0.351 N 
ATOM      4  C   UNL A   1      32.584  22.710  27.162  1.00  0.00     0.269 C 
ATOM      5  O   UNL A   1      32.558  22.462  28.369  1.00  0.00    -0.268 OA
ATOM      6  H   UNL A   1      32.953  20.796  26.768  1.00  0.00     0.163 HD
BRANCH   4   7
ATOM      7  C   UNL A   1      32.209  24.083  26.675  1.00  0.00     0.129 A 
ATOM      8  C   UNL A   1      32.625  26.123  25.506  1.00  0.00     0.011 A 
ATOM      9  C   UNL A   1      31.251  26.295  25.384  1.00  0.00     0.035 A 
ATOM     10  C   UNL A   1      33.116  25.019  26.202  1.00  0.00     0.049 A 
ATOM     11  C   UNL A   1      30.418  25.400  26.022  1.00  0.00     0.113 A 
ATOM     12  N   UNL A   1      30.867  24.304  26.652  1.00  0.00    -0.251 NA
BRANCH   8  13
ATOM     13  S   UNL A   1      33.730  27.191  24.608  1.00  0.00    -0.122 SA
BRANCH  13  14
ATOM     14  C   UNL A   1      32.694  27.727  23.196  1.00  0.00     0.122 C 
BRANCH  14  15
ATOM     15  C   UNL A   1      32.710  26.844  21.939  1.00  0.00     0.208 C 
ATOM     16  O   UNL A   1      34.075  23.685  22.230  1.00  0.00    -0.225 OA
ATOM     17  C   UNL A   1      33.377  24.672  22.062  1.00  0.00     0.407 C 
ATOM     18  N   UNL A   1      32.018  24.655  21.966  1.00  0.00    -0.318 N 
ATOM     19  O   UNL A   1      33.837  25.949  21.933  1.00  0.00    -0.443 OA
ATOM     20  C   UNL A   1      31.497  25.957  21.743  1.00  0.00     0.165 C 
ATOM     21  H   UNL A   1      31.466  23.844  22.043  1.00  0.00     0.167 HD
ENDBRANCH  14  15
ENDBRANCH  13  14
ENDBRANCH   8  13
ENDBRANCH   4   7
ENDBRANCH   2   3
ENDBRANCH   1   2
BRANCH   1  22
ATOM     22  C   UNL A   1      35.521  21.557  25.739  1.00  0.00     0.023 C 
BRANCH  22  23
ATOM     23  C   UNL A   1      36.934  21.873  25.263  1.00  0.00     0.116 C 
BRANCH  23  24
ATOM     24  N   UNL A   1      37.873  20.787  25.509  1.00  0.00    -0.352 N 
ATOM     25  C   UNL A   1      39.138  20.862  26.036  1.00  0.00     0.251 C 
ATOM     26  H   UNL A   1      37.562  19.885  25.266  1.00  0.00     0.163 HD
ATOM     27  O   UNL A   1      39.863  19.874  26.054  1.00  0.00    -0.269 OA
BRANCH  25  28
ATOM     28  C   UNL A   1      39.618  22.161  26.546  1.00  0.00     0.039 A 
ATOM     29  C   UNL A   1      40.674  22.178  27.456  1.00  0.00     0.014 A 
ATOM     30  C   UNL A   1      39.060  23.353  26.075  1.00  0.00     0.014 A 
ATOM     31  C   UNL A   1      41.210  23.402  27.854  1.00  0.00     0.010 A 
ATOM     32  C   UNL A   1      39.654  24.565  26.406  1.00  0.00     0.010 A 
ATOM     33  C   UNL A   1      40.728  24.603  27.306  1.00  0.00    -0.014 A 
BRANCH  33  34
ATOM     34  C   UNL A   1      41.348  25.903  27.664  1.00  0.00     0.031 A 
ATOM     35  C   UNL A   1      42.767  26.204  27.265  1.00  0.00     0.074 A 
ATOM     36  C   UNL A   1      40.647  26.789  28.400  1.00  0.00     0.049 A 
ATOM     37  N   UNL A   1      43.468  27.287  27.480  1.00  0.00    -0.248 NA
ATOM     38  C   UNL A   1      43.505  25.144  26.558  1.00  0.00     0.031 C 
ATOM     39  C   UNL A   1      39.296  26.574  28.923  1.00  0.00     0.029 A 
ATOM     40  N   UNL A   1      40.980  28.042  28.847  1.00  0.00    -0.354 N 
ATOM     41  C   UNL A   1      44.731  27.030  26.961  1.00  0.00     0.074 A 
ATOM     42  C   UNL A   1      44.716  25.672  26.463  1.00  0.00     0.031 C 
ATOM     43  C   UNL A   1      38.908  27.665  29.600  1.00  0.00     0.029 A 
ATOM     44  C   UNL A   1      39.990  28.643  29.590  1.00  0.00     0.049 A 
ATOM     45  H   UNL A   1      41.845  28.472  28.654  1.00  0.00     0.167 HD
ATOM     46  C   UNL A   1      45.799  27.857  26.879  1.00  0.00     0.034 A 
ATOM     47  C   UNL A   1      39.960  29.846  30.197  1.00  0.00     0.034 A 
ATOM     48  C   UNL A   1      45.799  29.216  27.351  1.00  0.00     0.049 A 
ATOM     49  C   UNL A   1      41.148  30.759  30.061  1.00  0.00     0.074 A 
ATOM     50  C   UNL A   1      46.799  30.165  27.239  1.00  0.00     0.029 A 
ATOM     51  N   UNL A   1      44.756  29.815  28.040  1.00  0.00    -0.354 N 
ATOM     52  N   UNL A   1      42.275  30.558  29.422  1.00  0.00    -0.248 NA
ATOM     53  C   UNL A   1      41.044  32.080  30.695  1.00  0.00     0.031 C 
ATOM     54  C   UNL A   1      46.375  31.324  27.895  1.00  0.00     0.029 A 
ATOM     55  C   UNL A   1      45.092  31.114  28.374  1.00  0.00     0.049 A 
ATOM     56  H   UNL A   1      43.900  29.379  28.259  1.00  0.00     0.167 HD
ATOM     57  C   UNL A   1      42.999  31.738  29.546  1.00  0.00     0.074 A 
ATOM     58  C   UNL A   1      42.171  32.657  30.299  1.00  0.00     0.031 C 
ATOM     59  C   UNL A   1      44.242  32.031  29.088  1.00  0.00     0.034 A 
BRANCH  46  60
ATOM     60  C   UNL A   1      47.046  27.329  26.218  1.00  0.00     0.023 A 
ATOM     61  C   UNL A   1      47.286  27.602  24.854  1.00  0.00     0.012 A 
ATOM     62  C   UNL A   1      48.006  26.611  26.956  1.00  0.00     0.148 A 
ATOM     63  C   UNL A   1      48.441  27.137  24.228  1.00  0.00     0.002 A 
ATOM     64  C   UNL A   1      49.179  26.195  26.338  1.00  0.00     0.091 A 
ATOM     65  F   UNL A   1      47.753  26.343  28.245  1.00  0.00    -0.205 F 
ATOM     66  C   UNL A   1      49.392  26.444  24.972  1.00  0.00     0.022 A 
BRANCH  64  67
ATOM     67  S   UNL A   1      50.504  25.370  27.226  1.00  0.00     0.127 S 
ATOM     68  O   UNL A   1      50.964  26.431  28.121  1.00  0.00    -0.237 OA
ATOM     69  O   UNL A   1      49.792  24.278  27.891  1.00  0.00    -0.237 OA
ATOM     70  O   UNL A   1      51.464  24.947  26.218  1.00  0.00    -0.744 OA
ENDBRANCH  64  67
ENDBRANCH  46  60
BRANCH  47  71
ATOM     71  C   UNL A   1      38.743  30.278  30.941  1.00  0.00     0.023 A 
ATOM     72  C   UNL A   1      38.610  29.957  32.306  1.00  0.00     0.012 A 
ATOM     73  C   UNL A   1      37.728  31.019  30.307  1.00  0.00     0.148 A 
ATOM     74  C   UNL A   1      37.468  30.332  33.016  1.00  0.00     0.002 A 
ATOM     75  C   UNL A   1      36.621  31.440  31.034  1.00  0.00     0.091 A 
ATOM     76  F   UNL A   1      37.871  31.308  29.006  1.00  0.00    -0.205 F 
ATOM     77  C   UNL A   1      36.479  31.080  32.384  1.00  0.00     0.022 A 
BRANCH  75  78
ATOM     78  S   UNL A   1      35.365  32.519  30.340  1.00  0.00     0.127 S 
ATOM     79  O   UNL A   1      34.910  31.744  29.188  1.00  0.00    -0.237 OA
ATOM     80  O   UNL A   1      34.405  32.609  31.441  1.00  0.00    -0.237 OA
ATOM     81  O   UNL A   1      36.045  33.770  30.032  1.00  0.00    -0.744 OA
ENDBRANCH  75  78
ENDBRANCH  47  71
BRANCH  59  82
ATOM     82  C   UNL A   1      44.770  33.418  29.350  1.00  0.00     0.023 A 
ATOM     83  C   UNL A   1      45.451  33.703  30.551  1.00  0.00     0.012 A 
ATOM     84  C   UNL A   1      44.637  34.427  28.375  1.00  0.00     0.148 A 
ATOM     85  C   UNL A   1      45.952  34.980  30.795  1.00  0.00     0.002 A 
ATOM     86  C   UNL A   1      45.188  35.682  28.603  1.00  0.00     0.091 A 
ATOM     87  F   UNL A   1      43.971  34.143  27.247  1.00  0.00    -0.205 F 
ATOM     88  C   UNL A   1      45.831  35.965  29.818  1.00  0.00     0.022 A 
BRANCH  86  89
ATOM     89  S   UNL A   1      45.169  36.981  27.362  1.00  0.00     0.127 S 
ATOM     90  O   UNL A   1      43.741  37.097  27.073  1.00  0.00    -0.237 OA
ATOM     91  O   UNL A   1      45.738  38.114  28.093  1.00  0.00    -0.237 OA
ATOM     92  O   UNL A   1      45.992  36.498  26.260  1.00  0.00    -0.744 OA
ENDBRANCH  86  89
ENDBRANCH  59  82
ENDBRANCH  33  34
ENDBRANCH  25  28
ENDBRANCH  23  24
ENDBRANCH  22  23
ENDBRANCH   1  22
TORSDOF 17
ENDMDL
MODEL 3
REMARK VINA RESULT:     -11.8      5.238     10.531
REMARK SMILES O=C1NC[C@@H](CSc2ccnc(C(=O)NCCCCNC(=O)c3ccc(-c4c5nc(c(-c6cccc(S(=O)(=O)[O-])c6F)c6ccc([nH]6)c(-c6cccc(S(=O)(=O)[O-])c6F)c6nc(c(-c7cccc(S(=O)(=O)[O-])c7F)c7ccc4[nH]7)C=C6)C=C5)cc3)c2)O1
REMARK SMILES IDX 17 1 16 2 15 3 13 4 14 5 12 7 8 8 9 9 86 10 10 11 11 12 7 13
REMARK SMILES IDX 6 14 5 15 1 16 2 17 3 18 87 19 4 20 18 22 19 23 20 24 21 25
REMARK SMILES IDX 22 27 23 28 24 29 85 30 25 31 84 32 26 33 27 34 28 35 78 36
REMARK SMILES IDX 29 37 83 38 77 39 79 40 30 41 82 42 76 43 75 44 31 46 63 47
REMARK SMILES IDX 43 48 62 49 44 50 47 51 61 52 80 53 45 54 46 55 60 57 81 58
REMARK SMILES IDX 48 59 32 60 33 61 41 62 34 63 36 64 42 65 35 66 37 67 38 68
REMARK SMILES IDX 39 69 40 70 64 71 65 72 73 73 66 74 68 75 74 76 67 77 69 78
REMARK SMILES IDX 70 79 71 80 72 81 49 82 50 83 58 84 51 85 53 86 59 87 52 88
REMARK SMILES IDX 54 89 55 90 56 91 57 92
REMARK H PARENT 15 6 3 21 20 26 79 45 47 56
REMARK Flexibility Score: inf
ROOT
ATOM      1  C   UNL A   1      35.133  20.679  25.314  1.00  0.00     0.023 C 
ENDROOT
BRANCH   1   2
ATOM      2  C   UNL A   1      33.610  20.818  25.280  1.00  0.00     0.116 C 
BRANCH   2   3
ATOM      3  N   UNL A   1      33.138  21.238  26.584  1.00  0.00    -0.351 N 
ATOM      4  C   UNL A   1      32.868  22.477  27.119  1.00  0.00     0.269 C 
ATOM      5  O   UNL A   1      32.582  22.520  28.316  1.00  0.00    -0.268 OA
ATOM      6  H   UNL A   1      32.980  20.493  27.208  1.00  0.00     0.163 HD
BRANCH   4   7
ATOM      7  C   UNL A   1      32.821  23.735  26.295  1.00  0.00     0.129 A 
ATOM      8  C   UNL A   1      31.708  25.596  25.298  1.00  0.00     0.011 A 
ATOM      9  C   UNL A   1      32.925  26.268  25.272  1.00  0.00     0.035 A 
ATOM     10  C   UNL A   1      31.660  24.288  25.777  1.00  0.00     0.049 A 
ATOM     11  C   UNL A   1      34.059  25.587  25.656  1.00  0.00     0.113 A 
ATOM     12  N   UNL A   1      34.030  24.348  26.170  1.00  0.00    -0.251 NA
BRANCH   8  13
ATOM     13  S   UNL A   1      30.208  26.474  24.913  1.00  0.00    -0.122 SA
BRANCH  13  14
ATOM     14  C   UNL A   1      30.465  26.939  23.160  1.00  0.00     0.122 C 
BRANCH  14  15
ATOM     15  C   UNL A   1      30.988  28.356  22.879  1.00  0.00     0.208 C 
ATOM     16  O   UNL A   1      28.770  30.635  21.532  1.00  0.00    -0.225 OA
ATOM     17  C   UNL A   1      29.567  30.000  22.204  1.00  0.00     0.407 C 
ATOM     18  N   UNL A   1      29.840  30.239  23.518  1.00  0.00    -0.318 N 
ATOM     19  O   UNL A   1      30.320  28.956  21.754  1.00  0.00    -0.443 OA
ATOM     20  C   UNL A   1      30.832  29.351  24.012  1.00  0.00     0.165 C 
ATOM     21  H   UNL A   1      29.405  30.938  24.057  1.00  0.00     0.167 HD
ENDBRANCH  14  15
ENDBRANCH  13  14
ENDBRANCH   8  13
ENDBRANCH   4   7
ENDBRANCH   2   3
ENDBRANCH   1   2
BRANCH   1  22
ATOM     22  C   UNL A   1      35.860  21.805  24.571  1.00  0.00     0.023 C 
BRANCH  22  23
ATOM     23  C   UNL A   1      37.128  22.299  25.257  1.00  0.00     0.116 C 
BRANCH  23  24
ATOM     24  N   UNL A   1      38.065  21.226  25.561  1.00  0.00    -0.352 N 
ATOM     25  C   UNL A   1      39.298  21.320  26.156  1.00  0.00     0.251 C 
ATOM     26  H   UNL A   1      37.778  20.319  25.307  1.00  0.00     0.163 HD
ATOM     27  O   UNL A   1      40.033  20.341  26.220  1.00  0.00    -0.269 OA
BRANCH  25  28
ATOM     28  C   UNL A   1      39.734  22.627  26.683  1.00  0.00     0.039 A 
ATOM     29  C   UNL A   1      40.731  22.662  27.657  1.00  0.00     0.014 A 
ATOM     30  C   UNL A   1      39.197  23.810  26.168  1.00  0.00     0.014 A 
ATOM     31  C   UNL A   1      41.231  23.894  28.076  1.00  0.00     0.010 A 
ATOM     32  C   UNL A   1      39.757  25.030  26.524  1.00  0.00     0.010 A 
ATOM     33  C   UNL A   1      40.773  25.086  27.489  1.00  0.00    -0.014 A 
BRANCH  33  34
ATOM     34  C   UNL A   1      41.358  26.394  27.873  1.00  0.00     0.031 A 
ATOM     35  C   UNL A   1      42.792  26.710  27.548  1.00  0.00     0.074 A 
ATOM     36  C   UNL A   1      40.610  27.275  28.567  1.00  0.00     0.049 A 
ATOM     37  N   UNL A   1      43.469  27.803  27.794  1.00  0.00    -0.248 NA
ATOM     38  C   UNL A   1      43.580  25.656  26.886  1.00  0.00     0.031 C 
ATOM     39  C   UNL A   1      39.236  27.046  29.019  1.00  0.00     0.029 A 
ATOM     40  N   UNL A   1      40.903  28.534  29.025  1.00  0.00    -0.354 N 
ATOM     41  C   UNL A   1      44.761  27.559  27.345  1.00  0.00     0.074 A 
ATOM     42  C   UNL A   1      44.788  26.199  26.853  1.00  0.00     0.031 C 
ATOM     43  C   UNL A   1      38.799  28.136  29.670  1.00  0.00     0.029 A 
ATOM     44  C   UNL A   1      39.869  29.126  29.712  1.00  0.00     0.049 A 
ATOM     45  H   UNL A   1      41.773  28.973  28.876  1.00  0.00     0.167 HD
ATOM     46  C   UNL A   1      45.821  28.398  27.315  1.00  0.00     0.034 A 
ATOM     47  C   UNL A   1      39.793  30.331  30.311  1.00  0.00     0.034 A 
ATOM     48  C   UNL A   1      45.781  29.759  27.780  1.00  0.00     0.049 A 
ATOM     49  C   UNL A   1      40.975  31.257  30.233  1.00  0.00     0.074 A 
ATOM     50  C   UNL A   1      46.774  30.718  27.716  1.00  0.00     0.029 A 
ATOM     51  N   UNL A   1      44.696  30.348  28.410  1.00  0.00    -0.354 N 
ATOM     52  N   UNL A   1      42.138  31.067  29.656  1.00  0.00    -0.248 NA
ATOM     53  C   UNL A   1      40.823  32.580  30.855  1.00  0.00     0.031 C 
ATOM     54  C   UNL A   1      46.303  31.876  28.344  1.00  0.00     0.029 A 
ATOM     55  C   UNL A   1      44.999  31.653  28.755  1.00  0.00     0.049 A 
ATOM     56  H   UNL A   1      43.835  29.903  28.586  1.00  0.00     0.167 HD
ATOM     57  C   UNL A   1      42.840  32.256  29.813  1.00  0.00     0.074 A 
ATOM     58  C   UNL A   1      41.963  33.168  30.516  1.00  0.00     0.031 C 
ATOM     59  C   UNL A   1      44.102  32.562  29.420  1.00  0.00     0.034 A 
BRANCH  46  60
ATOM     60  C   UNL A   1      47.108  27.882  26.723  1.00  0.00     0.023 A 
ATOM     61  C   UNL A   1      48.094  27.326  27.565  1.00  0.00     0.012 A 
ATOM     62  C   UNL A   1      47.320  27.897  25.330  1.00  0.00     0.148 A 
ATOM     63  C   UNL A   1      49.284  26.829  27.036  1.00  0.00     0.002 A 
ATOM     64  C   UNL A   1      48.485  27.353  24.806  1.00  0.00     0.091 A 
ATOM     65  F   UNL A   1      46.382  28.448  24.547  1.00  0.00    -0.205 F 
ATOM     66  C   UNL A   1      49.474  26.831  25.657  1.00  0.00     0.022 A 
BRANCH  64  67
ATOM     67  S   UNL A   1      48.791  27.231  23.040  1.00  0.00     0.127 S 
ATOM     68  O   UNL A   1      50.250  27.325  22.987  1.00  0.00    -0.237 OA
ATOM     69  O   UNL A   1      48.253  25.906  22.728  1.00  0.00    -0.237 OA
ATOM     70  O   UNL A   1      48.073  28.340  22.429  1.00  0.00    -0.744 OA
ENDBRANCH  64  67
ENDBRANCH  46  60
BRANCH  47  71
ATOM     71  C   UNL A   1      38.534  30.752  30.987  1.00  0.00     0.023 A 
ATOM     72  C   UNL A   1      38.369  30.511  32.365  1.00  0.00     0.012 A 
ATOM     73  C   UNL A   1      37.509  31.404  30.277  1.00  0.00     0.148 A 
ATOM     74  C   UNL A   1      37.188  30.875  33.014  1.00  0.00     0.002 A 
ATOM     75  C   UNL A   1      36.360  31.818  30.941  1.00  0.00     0.091 A 
ATOM     76  F   UNL A   1      37.683  31.618  28.964  1.00  0.00    -0.205 F 
ATOM     77  C   UNL A   1      36.189  31.536  32.305  1.00  0.00     0.022 A 
BRANCH  75  78
ATOM     78  S   UNL A   1      35.081  32.791  30.140  1.00  0.00     0.127 S 
ATOM     79  O   UNL A   1      34.148  33.021  31.239  1.00  0.00    -0.237 OA
ATOM     80  O   UNL A   1      35.830  33.972  29.709  1.00  0.00    -0.237 OA
ATOM     81  O   UNL A   1      34.582  31.964  29.048  1.00  0.00    -0.744 OA
ENDBRANCH  75  78
ENDBRANCH  47  71
BRANCH  59  82
ATOM     82  C   UNL A   1      44.599  33.956  29.702  1.00  0.00     0.023 A 
ATOM     83  C   UNL A   1      45.237  34.247  30.925  1.00  0.00     0.012 A 
ATOM     84  C   UNL A   1      44.482  34.967  28.727  1.00  0.00     0.148 A 
ATOM     85  C   UNL A   1      45.709  35.532  31.190  1.00  0.00     0.002 A 
ATOM     86  C   UNL A   1      45.005  36.229  28.976  1.00  0.00     0.091 A 
ATOM     87  F   UNL A   1      43.857  34.676  27.577  1.00  0.00    -0.205 F 
ATOM     88  C   UNL A   1      45.604  36.518  30.212  1.00  0.00     0.022 A 
BRANCH  86  89
ATOM     89  S   UNL A   1      45.005  37.532  27.740  1.00  0.00     0.127 S 
ATOM     90  O   UNL A   1      45.748  36.907  26.647  1.00  0.00    -0.237 OA
ATOM     91  O   UNL A   1      43.576  37.713  27.481  1.00  0.00    -0.237 OA
ATOM     92  O   UNL A   1      45.657  38.678  28.361  1.00  0.00    -0.744 OA
ENDBRANCH  86  89
ENDBRANCH  59  82
ENDBRANCH  33  34
ENDBRANCH  25  28
ENDBRANCH  23  24
ENDBRANCH  22  23
ENDBRANCH   1  22
TORSDOF 17
ENDMDL
