MODEL 1
REMARK VINA RESULT:     -13.4      0.000      0.000
REMARK SMILES O=C(NCCCCNC(=O)c1ccc2nc(-c3c[nH]nc3-c3ccc(F)cc3F)[nH]c2c1)c1ccc(-c2c3nc(c(-c4cccc(S(=O)(=O)[O-])c4F)c4ccc([nH]4)c(-c4cccc(S(=O)(=O)[O-])c4F)c4nc(c(-c5cccc(S(=O)(=O)[O-])c5F)c5ccc2[nH]5)C=C4)C=C3)cc1
REMARK SMILES IDX 5 1 4 2 3 3 1 4 2 5 33 7 34 8 95 9 35 10 94 11 36 12 37 13
REMARK SMILES IDX 38 14 88 15 39 16 93 17 87 18 89 19 40 20 92 21 86 22 85 23
REMARK SMILES IDX 41 25 73 26 53 27 72 28 54 29 57 30 71 31 90 32 55 33 56 34
REMARK SMILES IDX 70 36 91 37 58 38 42 39 43 40 51 41 44 42 46 43 52 44 45 45
REMARK SMILES IDX 47 46 48 47 49 48 50 49 74 50 75 51 83 52 76 53 78 54 84 55
REMARK SMILES IDX 77 56 79 57 80 58 81 59 82 60 59 61 60 62 68 63 61 64 63 65
REMARK SMILES IDX 69 66 62 67 64 68 65 69 66 70 67 71 6 72 7 73 8 74 9 75
REMARK SMILES IDX 10 77 11 78 12 79 32 80 13 81 31 82 14 83 30 84 15 85 16 86
REMARK SMILES IDX 17 88 18 89 21 90 19 91 20 92 22 94 23 95 28 96 24 97 27 98
REMARK SMILES IDX 29 99 25 100 26 101
REMARK H PARENT 3 6 89 24 57 35 8 76 30 87 19 93
REMARK Flexibility Score: inf
ROOT
ATOM      1  C   UNL A   1      35.745  21.904  24.838  1.00  0.00     0.023 C 
ENDROOT
BRANCH   1   2
ATOM      2  C   UNL A   1      37.238  21.991  24.544  1.00  0.00     0.116 C 
BRANCH   2   3
ATOM      3  N   UNL A   1      37.993  20.866  25.073  1.00  0.00    -0.352 N 
ATOM      4  O   UNL A   1      39.663  19.811  26.154  1.00  0.00    -0.269 OA
ATOM      5  C   UNL A   1      39.084  20.866  25.912  1.00  0.00     0.251 C 
ATOM      6  H   UNL A   1      37.679  19.977  24.791  1.00  0.00     0.163 HD
BRANCH   5   7
ATOM      7  C   UNL A   1      39.577  22.140  26.483  1.00  0.00     0.039 A 
ATOM      8  C   UNL A   1      39.038  23.362  26.077  1.00  0.00     0.014 A 
ATOM      9  C   UNL A   1      40.619  22.109  27.414  1.00  0.00     0.014 A 
ATOM     10  C   UNL A   1      39.655  24.549  26.461  1.00  0.00     0.010 A 
ATOM     11  C   UNL A   1      41.180  23.306  27.868  1.00  0.00     0.010 A 
ATOM     12  C   UNL A   1      40.740  24.535  27.353  1.00  0.00    -0.014 A 
BRANCH  12  13
ATOM     13  C   UNL A   1      41.381  25.820  27.741  1.00  0.00     0.031 A 
ATOM     14  C   UNL A   1      42.780  26.161  27.294  1.00  0.00     0.074 A 
ATOM     15  C   UNL A   1      40.683  26.700  28.487  1.00  0.00     0.049 A 
ATOM     16  N   UNL A   1      43.458  27.264  27.488  1.00  0.00    -0.248 NA
ATOM     17  C   UNL A   1      43.518  25.133  26.543  1.00  0.00     0.031 C 
ATOM     18  C   UNL A   1      39.340  26.467  29.021  1.00  0.00     0.029 A 
ATOM     19  N   UNL A   1      40.999  27.962  28.918  1.00  0.00    -0.354 N 
ATOM     20  C   UNL A   1      44.712  27.048  26.929  1.00  0.00     0.074 A 
ATOM     21  C   UNL A   1      44.705  25.704  26.390  1.00  0.00     0.031 C 
ATOM     22  C   UNL A   1      38.930  27.566  29.671  1.00  0.00     0.029 A 
ATOM     23  C   UNL A   1      39.993  28.563  29.638  1.00  0.00     0.049 A 
ATOM     24  H   UNL A   1      41.861  28.397  28.729  1.00  0.00     0.167 HD
ATOM     25  C   UNL A   1      45.766  27.895  26.852  1.00  0.00     0.034 A 
ATOM     26  C   UNL A   1      39.929  29.783  30.206  1.00  0.00     0.034 A 
ATOM     27  C   UNL A   1      45.752  29.250  27.334  1.00  0.00     0.049 A 
ATOM     28  C   UNL A   1      41.092  30.721  30.055  1.00  0.00     0.074 A 
ATOM     29  C   UNL A   1      46.744  30.211  27.232  1.00  0.00     0.029 A 
ATOM     30  N   UNL A   1      44.695  29.840  28.008  1.00  0.00    -0.354 N 
ATOM     31  N   UNL A   1      42.214  30.545  29.400  1.00  0.00    -0.248 NA
ATOM     32  C   UNL A   1      40.968  32.039  30.694  1.00  0.00     0.031 C 
ATOM     33  C   UNL A   1      46.289  31.379  27.855  1.00  0.00     0.029 A 
ATOM     34  C   UNL A   1      45.010  31.149  28.334  1.00  0.00     0.049 A 
ATOM     35  H   UNL A   1      43.845  29.394  28.226  1.00  0.00     0.167 HD
ATOM     36  C   UNL A   1      42.915  31.738  29.520  1.00  0.00     0.074 A 
ATOM     37  C   UNL A   1      42.082  32.637  30.292  1.00  0.00     0.031 C 
ATOM     38  C   UNL A   1      44.147  32.054  29.049  1.00  0.00     0.034 A 
BRANCH  25  39
ATOM     39  C   UNL A   1      47.020  27.399  26.178  1.00  0.00     0.023 A 
ATOM     40  C   UNL A   1      47.243  27.698  24.819  1.00  0.00     0.012 A 
ATOM     41  C   UNL A   1      48.005  26.698  26.901  1.00  0.00     0.148 A 
ATOM     42  C   UNL A   1      48.413  27.285  24.182  1.00  0.00     0.002 A 
ATOM     43  C   UNL A   1      49.187  26.322  26.270  1.00  0.00     0.091 A 
ATOM     44  F   UNL A   1      47.767  26.400  28.186  1.00  0.00    -0.205 F 
ATOM     45  C   UNL A   1      49.388  26.606  24.910  1.00  0.00     0.022 A 
BRANCH  43  46
ATOM     46  S   UNL A   1      50.527  25.510  27.148  1.00  0.00     0.127 S 
ATOM     47  O   UNL A   1      50.884  26.519  28.143  1.00  0.00    -0.237 OA
ATOM     48  O   UNL A   1      49.869  24.322  27.696  1.00  0.00    -0.237 OA
ATOM     49  O   UNL A   1      51.542  25.225  26.144  1.00  0.00    -0.744 OA
ENDBRANCH  43  46
ENDBRANCH  25  39
BRANCH  26  50
ATOM     50  C   UNL A   1      38.679  30.208  30.895  1.00  0.00     0.023 A 
ATOM     51  C   UNL A   1      38.496  29.878  32.252  1.00  0.00     0.012 A 
ATOM     52  C   UNL A   1      37.704  30.982  30.238  1.00  0.00     0.148 A 
ATOM     53  C   UNL A   1      37.354  30.295  32.937  1.00  0.00     0.002 A 
ATOM     54  C   UNL A   1      36.598  31.443  30.942  1.00  0.00     0.091 A 
ATOM     55  F   UNL A   1      37.889  31.271  28.941  1.00  0.00    -0.205 F 
ATOM     56  C   UNL A   1      36.413  31.088  32.286  1.00  0.00     0.022 A 
BRANCH  54  57
ATOM     57  S   UNL A   1      35.415  32.586  30.219  1.00  0.00     0.127 S 
ATOM     58  O   UNL A   1      34.399  32.666  31.264  1.00  0.00    -0.237 OA
ATOM     59  O   UNL A   1      36.222  33.795  30.049  1.00  0.00    -0.237 OA
ATOM     60  O   UNL A   1      34.995  31.969  28.968  1.00  0.00    -0.744 OA
ENDBRANCH  54  57
ENDBRANCH  26  50
BRANCH  38  61
ATOM     61  C   UNL A   1      44.661  33.440  29.326  1.00  0.00     0.023 A 
ATOM     62  C   UNL A   1      45.288  33.718  30.556  1.00  0.00     0.012 A 
ATOM     63  C   UNL A   1      44.581  34.450  28.347  1.00  0.00     0.148 A 
ATOM     64  C   UNL A   1      45.800  34.988  30.820  1.00  0.00     0.002 A 
ATOM     65  C   UNL A   1      45.131  35.701  28.601  1.00  0.00     0.091 A 
ATOM     66  F   UNL A   1      43.958  34.176  27.192  1.00  0.00    -0.205 F 
ATOM     67  C   UNL A   1      45.732  35.975  29.839  1.00  0.00     0.022 A 
BRANCH  65  68
ATOM     68  S   UNL A   1      45.162  36.993  27.353  1.00  0.00     0.127 S 
ATOM     69  O   UNL A   1      45.853  38.072  28.056  1.00  0.00    -0.237 OA
ATOM     70  O   UNL A   1      45.935  36.375  26.275  1.00  0.00    -0.237 OA
ATOM     71  O   UNL A   1      43.767  37.247  27.018  1.00  0.00    -0.744 OA
ENDBRANCH  65  68
ENDBRANCH  38  61
ENDBRANCH  12  13
ENDBRANCH   5   7
ENDBRANCH   2   3
ENDBRANCH   1   2
BRANCH   1  72
ATOM     72  C   UNL A   1      35.317  22.393  26.221  1.00  0.00     0.023 C 
BRANCH  72  73
ATOM     73  C   UNL A   1      34.313  21.498  26.945  1.00  0.00     0.116 C 
BRANCH  73  74
ATOM     74  N   UNL A   1      33.666  20.563  26.040  1.00  0.00    -0.352 N 
ATOM     75  C   UNL A   1      32.454  20.673  25.415  1.00  0.00     0.251 C 
ATOM     76  H   UNL A   1      34.170  19.738  25.852  1.00  0.00     0.163 HD
ATOM     77  O   UNL A   1      31.965  19.726  24.809  1.00  0.00    -0.269 OA
BRANCH  75  78
ATOM     78  C   UNL A   1      31.721  21.950  25.473  1.00  0.00     0.042 A 
ATOM     79  C   UNL A   1      30.898  22.231  26.571  1.00  0.00     0.016 A 
ATOM     80  C   UNL A   1      31.923  22.869  24.434  1.00  0.00     0.042 A 
ATOM     81  C   UNL A   1      30.251  23.468  26.668  1.00  0.00     0.031 A 
ATOM     82  C   UNL A   1      31.246  24.082  24.553  1.00  0.00     0.067 A 
ATOM     83  C   UNL A   1      30.458  24.412  25.651  1.00  0.00     0.089 A 
ATOM     84  N   UNL A   1      31.166  25.185  23.740  1.00  0.00    -0.338 N 
ATOM     85  N   UNL A   1      30.015  25.703  25.560  1.00  0.00    -0.228 NA
ATOM     86  C   UNL A   1      30.462  26.154  24.407  1.00  0.00     0.142 A 
ATOM     87  H   UNL A   1      31.548  25.266  22.836  1.00  0.00     0.168 HD
BRANCH  86  88
ATOM     88  C   UNL A   1      30.263  27.540  23.932  1.00  0.00     0.063 A 
ATOM     89  C   UNL A   1      29.424  27.942  22.920  1.00  0.00     0.117 A 
ATOM     90  C   UNL A   1      30.906  28.723  24.397  1.00  0.00     0.106 A 
ATOM     91  N   UNL A   1      29.527  29.302  22.888  1.00  0.00    -0.284 N 
ATOM     92  N   UNL A   1      30.445  29.797  23.732  1.00  0.00    -0.175 NA
ATOM     93  H   UNL A   1      28.976  29.868  22.300  1.00  0.00     0.189 HD
BRANCH  90  94
ATOM     94  C   UNL A   1      32.030  28.828  25.321  1.00  0.00     0.039 A 
ATOM     95  C   UNL A   1      31.852  29.478  26.556  1.00  0.00     0.016 A 
ATOM     96  C   UNL A   1      33.281  28.279  25.024  1.00  0.00     0.135 A 
ATOM     97  C   UNL A   1      32.909  29.580  27.463  1.00  0.00     0.040 A 
ATOM     98  C   UNL A   1      34.337  28.373  25.929  1.00  0.00     0.079 A 
ATOM     99  F   UNL A   1      33.504  27.659  23.855  1.00  0.00    -0.206 F 
ATOM    100  C   UNL A   1      34.140  29.023  27.139  1.00  0.00     0.126 A 
ATOM    101  F   UNL A   1      35.150  29.114  28.014  1.00  0.00    -0.207 F 
ENDBRANCH  90  94
ENDBRANCH  86  88
ENDBRANCH  75  78
ENDBRANCH  73  74
ENDBRANCH  72  73
ENDBRANCH   1  72
TORSDOF 16
ENDMDL
MODEL 2
REMARK VINA RESULT:     -13.4      4.988     10.240
REMARK SMILES O=C(NCCCCNC(=O)c1ccc2nc(-c3c[nH]nc3-c3ccc(F)cc3F)[nH]c2c1)c1ccc(-c2c3nc(c(-c4cccc(S(=O)(=O)[O-])c4F)c4ccc([nH]4)c(-c4cccc(S(=O)(=O)[O-])c4F)c4nc(c(-c5cccc(S(=O)(=O)[O-])c5F)c5ccc2[nH]5)C=C4)C=C3)cc1
REMARK SMILES IDX 5 1 4 2 3 3 1 4 2 5 33 7 34 8 95 9 35 10 94 11 36 12 37 13
REMARK SMILES IDX 38 14 88 15 39 16 93 17 87 18 89 19 40 20 92 21 86 22 85 23
REMARK SMILES IDX 41 25 73 26 53 27 72 28 54 29 57 30 71 31 90 32 55 33 56 34
REMARK SMILES IDX 70 36 91 37 58 38 42 39 43 40 51 41 44 42 46 43 52 44 45 45
REMARK SMILES IDX 47 46 48 47 49 48 50 49 74 50 75 51 83 52 76 53 78 54 84 55
REMARK SMILES IDX 77 56 79 57 80 58 81 59 82 60 59 61 60 62 68 63 61 64 63 65
REMARK SMILES IDX 69 66 62 67 64 68 65 69 66 70 67 71 6 72 7 73 8 74 9 75
REMARK SMILES IDX 10 77 11 78 12 79 32 80 13 81 31 82 14 83 30 84 15 85 16 86
REMARK SMILES IDX 17 88 18 89 21 90 19 91 20 92 22 94 23 95 28 96 24 97 27 98
REMARK SMILES IDX 29 99 25 100 26 101
REMARK H PARENT 3 6 89 24 57 35 8 76 30 87 19 93
REMARK Flexibility Score: inf
ROOT
ATOM      1  C   UNL A   1      32.028  29.591  25.602  1.00  0.00     0.023 C 
ENDROOT
BRANCH   1   2
ATOM      2  C   UNL A   1      32.289  30.174  26.986  1.00  0.00     0.116 C 
BRANCH   2   3
ATOM      3  N   UNL A   1      32.298  31.629  27.002  1.00  0.00    -0.352 N 
ATOM      4  O   UNL A   1      33.039  33.696  27.502  1.00  0.00    -0.269 OA
ATOM      5  C   UNL A   1      33.267  32.490  27.462  1.00  0.00     0.251 C 
ATOM      6  H   UNL A   1      31.495  32.059  26.630  1.00  0.00     0.163 HD
BRANCH   5   7
ATOM      7  C   UNL A   1      34.560  31.955  27.947  1.00  0.00     0.039 A 
ATOM      8  C   UNL A   1      34.706  30.600  28.248  1.00  0.00     0.014 A 
ATOM      9  C   UNL A   1      35.632  32.833  28.132  1.00  0.00     0.014 A 
ATOM     10  C   UNL A   1      35.854  30.159  28.899  1.00  0.00     0.010 A 
ATOM     11  C   UNL A   1      36.819  32.368  28.705  1.00  0.00     0.010 A 
ATOM     12  C   UNL A   1      36.921  31.040  29.145  1.00  0.00    -0.014 A 
BRANCH  12  13
ATOM     13  C   UNL A   1      38.133  30.539  29.848  1.00  0.00     0.031 A 
ATOM     14  C   UNL A   1      38.409  30.903  31.284  1.00  0.00     0.074 A 
ATOM     15  C   UNL A   1      38.983  29.728  29.187  1.00  0.00     0.049 A 
ATOM     16  N   UNL A   1      39.381  30.499  32.061  1.00  0.00    -0.248 NA
ATOM     17  C   UNL A   1      37.485  31.849  31.930  1.00  0.00     0.031 C 
ATOM     18  C   UNL A   1      38.851  29.339  27.781  1.00  0.00     0.029 A 
ATOM     19  N   UNL A   1      40.114  29.078  29.607  1.00  0.00    -0.354 N 
ATOM     20  C   UNL A   1      39.217  31.172  33.266  1.00  0.00     0.074 A 
ATOM     21  C   UNL A   1      38.051  32.018  33.118  1.00  0.00     0.031 C 
ATOM     22  C   UNL A   1      39.837  28.488  27.467  1.00  0.00     0.029 A 
ATOM     23  C   UNL A   1      40.694  28.301  28.631  1.00  0.00     0.049 A 
ATOM     24  H   UNL A   1      40.477  29.160  30.518  1.00  0.00     0.167 HD
ATOM     25  C   UNL A   1      39.954  31.081  34.399  1.00  0.00     0.034 A 
ATOM     26  C   UNL A   1      41.791  27.520  28.668  1.00  0.00     0.034 A 
ATOM     27  C   UNL A   1      41.075  30.195  34.566  1.00  0.00     0.049 A 
ATOM     28  C   UNL A   1      42.556  27.395  29.956  1.00  0.00     0.074 A 
ATOM     29  C   UNL A   1      41.837  29.975  35.701  1.00  0.00     0.029 A 
ATOM     30  N   UNL A   1      41.598  29.383  33.572  1.00  0.00    -0.354 N 
ATOM     31  N   UNL A   1      42.298  27.933  31.123  1.00  0.00    -0.248 NA
ATOM     32  C   UNL A   1      43.744  26.530  29.940  1.00  0.00     0.031 C 
ATOM     33  C   UNL A   1      42.827  29.036  35.389  1.00  0.00     0.029 A 
ATOM     34  C   UNL A   1      42.674  28.663  34.063  1.00  0.00     0.049 A 
ATOM     35  H   UNL A   1      41.255  29.327  32.651  1.00  0.00     0.167 HD
ATOM     36  C   UNL A   1      43.270  27.448  31.988  1.00  0.00     0.074 A 
ATOM     37  C   UNL A   1      44.110  26.555  31.215  1.00  0.00     0.031 C 
ATOM     38  C   UNL A   1      43.463  27.730  33.300  1.00  0.00     0.034 A 
BRANCH  25  39
ATOM     39  C   UNL A   1      39.545  31.930  35.575  1.00  0.00     0.023 A 
ATOM     40  C   UNL A   1      39.966  33.274  35.643  1.00  0.00     0.012 A 
ATOM     41  C   UNL A   1      38.693  31.423  36.576  1.00  0.00     0.148 A 
ATOM     42  C   UNL A   1      39.569  34.091  36.701  1.00  0.00     0.002 A 
ATOM     43  C   UNL A   1      38.270  32.255  37.608  1.00  0.00     0.091 A 
ATOM     44  F   UNL A   1      38.321  30.137  36.510  1.00  0.00    -0.205 F 
ATOM     45  C   UNL A   1      38.714  33.585  37.677  1.00  0.00     0.022 A 
BRANCH  43  46
ATOM     46  S   UNL A   1      37.111  31.708  38.866  1.00  0.00     0.127 S 
ATOM     47  O   UNL A   1      37.911  31.834  40.083  1.00  0.00    -0.237 OA
ATOM     48  O   UNL A   1      36.030  32.687  38.745  1.00  0.00    -0.237 OA
ATOM     49  O   UNL A   1      36.736  30.350  38.494  1.00  0.00    -0.744 OA
ENDBRANCH  43  46
ENDBRANCH  25  39
BRANCH  26  50
ATOM     50  C   UNL A   1      42.174  26.733  27.465  1.00  0.00     0.023 A 
ATOM     51  C   UNL A   1      42.840  27.378  26.404  1.00  0.00     0.012 A 
ATOM     52  C   UNL A   1      41.939  25.347  27.387  1.00  0.00     0.148 A 
ATOM     53  C   UNL A   1      43.246  26.659  25.279  1.00  0.00     0.002 A 
ATOM     54  C   UNL A   1      42.398  24.628  26.290  1.00  0.00     0.091 A 
ATOM     55  F   UNL A   1      41.288  24.755  28.399  1.00  0.00    -0.205 F 
ATOM     56  C   UNL A   1      43.038  25.284  25.228  1.00  0.00     0.022 A 
BRANCH  54  57
ATOM     57  S   UNL A   1      42.297  22.836  26.213  1.00  0.00     0.127 S 
ATOM     58  O   UNL A   1      42.801  22.565  24.869  1.00  0.00    -0.237 OA
ATOM     59  O   UNL A   1      43.191  22.431  27.299  1.00  0.00    -0.237 OA
ATOM     60  O   UNL A   1      40.895  22.516  26.444  1.00  0.00    -0.744 OA
ENDBRANCH  54  57
ENDBRANCH  26  50
BRANCH  38  61
ATOM     61  C   UNL A   1      44.607  27.046  33.997  1.00  0.00     0.023 A 
ATOM     62  C   UNL A   1      45.864  27.679  34.062  1.00  0.00     0.012 A 
ATOM     63  C   UNL A   1      44.422  25.807  34.641  1.00  0.00     0.148 A 
ATOM     64  C   UNL A   1      46.927  27.076  34.731  1.00  0.00     0.002 A 
ATOM     65  C   UNL A   1      45.476  25.232  35.342  1.00  0.00     0.091 A 
ATOM     66  F   UNL A   1      43.227  25.206  34.548  1.00  0.00    -0.205 F 
ATOM     67  C   UNL A   1      46.732  25.859  35.381  1.00  0.00     0.022 A 
BRANCH  65  68
ATOM     68  S   UNL A   1      45.273  23.712  36.279  1.00  0.00     0.127 S 
ATOM     69  O   UNL A   1      46.633  23.176  36.279  1.00  0.00    -0.237 OA
ATOM     70  O   UNL A   1      44.810  24.199  37.579  1.00  0.00    -0.237 OA
ATOM     71  O   UNL A   1      44.284  22.931  35.548  1.00  0.00    -0.744 OA
ENDBRANCH  65  68
ENDBRANCH  38  61
ENDBRANCH  12  13
ENDBRANCH   5   7
ENDBRANCH   2   3
ENDBRANCH   1   2
BRANCH   1  72
ATOM     72  C   UNL A   1      33.273  29.211  24.802  1.00  0.00     0.023 C 
BRANCH  72  73
ATOM     73  C   UNL A   1      33.054  29.045  23.299  1.00  0.00     0.116 C 
BRANCH  73  74
ATOM     74  N   UNL A   1      31.644  29.062  22.950  1.00  0.00    -0.352 N 
ATOM     75  C   UNL A   1      30.884  28.065  22.402  1.00  0.00     0.251 C 
ATOM     76  H   UNL A   1      31.172  29.906  23.133  1.00  0.00     0.163 HD
ATOM     77  O   UNL A   1      29.743  28.282  22.007  1.00  0.00    -0.269 OA
BRANCH  75  78
ATOM     78  C   UNL A   1      31.445  26.708  22.279  1.00  0.00     0.042 A 
ATOM     79  C   UNL A   1      32.190  26.363  21.144  1.00  0.00     0.016 A 
ATOM     80  C   UNL A   1      31.252  25.820  23.347  1.00  0.00     0.042 A 
ATOM     81  C   UNL A   1      32.785  25.100  21.049  1.00  0.00     0.031 A 
ATOM     82  C   UNL A   1      31.840  24.563  23.208  1.00  0.00     0.067 A 
ATOM     83  C   UNL A   1      32.624  24.204  22.117  1.00  0.00     0.089 A 
ATOM     84  N   UNL A   1      31.839  23.445  24.003  1.00  0.00    -0.338 N 
ATOM     85  N   UNL A   1      33.169  22.963  22.299  1.00  0.00    -0.228 NA
ATOM     86  C   UNL A   1      32.692  22.528  23.446  1.00  0.00     0.142 A 
ATOM     87  H   UNL A   1      31.317  23.323  24.829  1.00  0.00     0.168 HD
BRANCH  86  88
ATOM     88  C   UNL A   1      33.075  21.238  24.062  1.00  0.00     0.063 A 
ATOM     89  C   UNL A   1      32.292  20.112  24.148  1.00  0.00     0.117 A 
ATOM     90  C   UNL A   1      34.303  20.909  24.704  1.00  0.00     0.106 A 
ATOM     91  N   UNL A   1      33.085  19.168  24.730  1.00  0.00    -0.284 N 
ATOM     92  N   UNL A   1      34.284  19.630  25.119  1.00  0.00    -0.175 NA
ATOM     93  H   UNL A   1      32.804  18.232  24.854  1.00  0.00     0.189 HD
BRANCH  90  94
ATOM     94  C   UNL A   1      35.397  21.805  25.061  1.00  0.00     0.039 A 
ATOM     95  C   UNL A   1      36.683  21.568  24.542  1.00  0.00     0.016 A 
ATOM     96  C   UNL A   1      35.200  22.913  25.890  1.00  0.00     0.135 A 
ATOM     97  C   UNL A   1      37.744  22.419  24.857  1.00  0.00     0.040 A 
ATOM     98  C   UNL A   1      36.255  23.769  26.203  1.00  0.00     0.079 A 
ATOM     99  F   UNL A   1      33.995  23.176  26.419  1.00  0.00    -0.206 F 
ATOM    100  C   UNL A   1      37.517  23.513  25.684  1.00  0.00     0.126 A 
ATOM    101  F   UNL A   1      38.533  24.334  25.979  1.00  0.00    -0.207 F 
ENDBRANCH  90  94
ENDBRANCH  86  88
ENDBRANCH  75  78
ENDBRANCH  73  74
ENDBRANCH  72  73
ENDBRANCH   1  72
TORSDOF 16
ENDMDL
MODEL 3
REMARK VINA RESULT:     -13.1      5.080     10.284
REMARK SMILES O=C(NCCCCNC(=O)c1ccc2nc(-c3c[nH]nc3-c3ccc(F)cc3F)[nH]c2c1)c1ccc(-c2c3nc(c(-c4cccc(S(=O)(=O)[O-])c4F)c4ccc([nH]4)c(-c4cccc(S(=O)(=O)[O-])c4F)c4nc(c(-c5cccc(S(=O)(=O)[O-])c5F)c5ccc2[nH]5)C=C4)C=C3)cc1
REMARK SMILES IDX 5 1 4 2 3 3 1 4 2 5 33 7 34 8 95 9 35 10 94 11 36 12 37 13
REMARK SMILES IDX 38 14 88 15 39 16 93 17 87 18 89 19 40 20 92 21 86 22 85 23
REMARK SMILES IDX 41 25 73 26 53 27 72 28 54 29 57 30 71 31 90 32 55 33 56 34
REMARK SMILES IDX 70 36 91 37 58 38 42 39 43 40 51 41 44 42 46 43 52 44 45 45
REMARK SMILES IDX 47 46 48 47 49 48 50 49 74 50 75 51 83 52 76 53 78 54 84 55
REMARK SMILES IDX 77 56 79 57 80 58 81 59 82 60 59 61 60 62 68 63 61 64 63 65
REMARK SMILES IDX 69 66 62 67 64 68 65 69 66 70 67 71 6 72 7 73 8 74 9 75
REMARK SMILES IDX 10 77 11 78 12 79 32 80 13 81 31 82 14 83 30 84 15 85 16 86
REMARK SMILES IDX 17 88 18 89 21 90 19 91 20 92 22 94 23 95 28 96 24 97 27 98
REMARK SMILES IDX 29 99 25 100 26 101
REMARK H PARENT 3 6 89 24 57 35 8 76 30 87 19 93
REMARK Flexibility Score: inf
ROOT
ATOM      1  C   UNL A   1      32.403  29.519  24.997  1.00  0.00     0.023 C 
ENDROOT
BRANCH   1   2
ATOM      2  C   UNL A   1      32.570  29.863  26.473  1.00  0.00     0.116 C 
BRANCH   2   3
ATOM      3  N   UNL A   1      32.452  31.287  26.746  1.00  0.00    -0.352 N 
ATOM      4  O   UNL A   1      32.980  33.277  27.657  1.00  0.00    -0.269 OA
ATOM      5  C   UNL A   1      33.314  32.119  27.421  1.00  0.00     0.251 C 
ATOM      6  H   UNL A   1      31.637  31.716  26.399  1.00  0.00     0.163 HD
BRANCH   5   7
ATOM      7  C   UNL A   1      34.618  31.604  27.896  1.00  0.00     0.039 A 
ATOM      8  C   UNL A   1      34.757  30.277  28.307  1.00  0.00     0.014 A 
ATOM      9  C   UNL A   1      35.710  32.474  27.961  1.00  0.00     0.014 A 
ATOM     10  C   UNL A   1      35.925  29.872  28.945  1.00  0.00     0.010 A 
ATOM     11  C   UNL A   1      36.914  32.038  28.522  1.00  0.00     0.010 A 
ATOM     12  C   UNL A   1      37.014  30.750  29.070  1.00  0.00    -0.014 A 
BRANCH  12  13
ATOM     13  C   UNL A   1      38.247  30.289  29.762  1.00  0.00     0.031 A 
ATOM     14  C   UNL A   1      38.554  30.711  31.176  1.00  0.00     0.074 A 
ATOM     15  C   UNL A   1      39.090  29.460  29.113  1.00  0.00     0.049 A 
ATOM     16  N   UNL A   1      39.548  30.346  31.946  1.00  0.00    -0.248 NA
ATOM     17  C   UNL A   1      37.635  31.672  31.808  1.00  0.00     0.031 C 
ATOM     18  C   UNL A   1      38.929  29.016  27.727  1.00  0.00     0.029 A 
ATOM     19  N   UNL A   1      40.238  28.838  29.531  1.00  0.00    -0.354 N 
ATOM     20  C   UNL A   1      39.405  31.064  33.127  1.00  0.00     0.074 A 
ATOM     21  C   UNL A   1      38.228  31.893  32.974  1.00  0.00     0.031 C 
ATOM     22  C   UNL A   1      39.916  28.162  27.422  1.00  0.00     0.029 A 
ATOM     23  C   UNL A   1      40.803  28.029  28.572  1.00  0.00     0.049 A 
ATOM     24  H   UNL A   1      40.621  28.958  30.429  1.00  0.00     0.167 HD
ATOM     25  C   UNL A   1      40.169  31.024  34.244  1.00  0.00     0.034 A 
ATOM     26  C   UNL A   1      41.908  27.261  28.614  1.00  0.00     0.034 A 
ATOM     27  C   UNL A   1      41.304  30.156  34.418  1.00  0.00     0.049 A 
ATOM     28  C   UNL A   1      42.704  27.193  29.886  1.00  0.00     0.074 A 
ATOM     29  C   UNL A   1      42.094  29.987  35.543  1.00  0.00     0.029 A 
ATOM     30  N   UNL A   1      41.811  29.311  33.445  1.00  0.00    -0.354 N 
ATOM     31  N   UNL A   1      42.468  27.773  31.038  1.00  0.00    -0.248 NA
ATOM     32  C   UNL A   1      43.900  26.339  29.875  1.00  0.00     0.031 C 
ATOM     33  C   UNL A   1      43.086  29.046  35.244  1.00  0.00     0.029 A 
ATOM     34  C   UNL A   1      42.906  28.620  33.938  1.00  0.00     0.049 A 
ATOM     35  H   UNL A   1      41.447  29.216  32.535  1.00  0.00     0.167 HD
ATOM     36  C   UNL A   1      43.465  27.331  31.897  1.00  0.00     0.074 A 
ATOM     37  C   UNL A   1      44.296  26.417  31.139  1.00  0.00     0.031 C 
ATOM     38  C   UNL A   1      43.686  27.667  33.193  1.00  0.00     0.034 A 
BRANCH  25  39
ATOM     39  C   UNL A   1      39.779  31.914  35.396  1.00  0.00     0.023 A 
ATOM     40  C   UNL A   1      40.272  33.234  35.453  1.00  0.00     0.012 A 
ATOM     41  C   UNL A   1      38.877  31.472  36.383  1.00  0.00     0.148 A 
ATOM     42  C   UNL A   1      39.895  34.090  36.488  1.00  0.00     0.002 A 
ATOM     43  C   UNL A   1      38.475  32.344  37.391  1.00  0.00     0.091 A 
ATOM     44  F   UNL A   1      38.436  30.207  36.329  1.00  0.00    -0.205 F 
ATOM     45  C   UNL A   1      38.990  33.648  37.450  1.00  0.00     0.022 A 
BRANCH  43  46
ATOM     46  S   UNL A   1      37.257  31.882  38.628  1.00  0.00     0.127 S 
ATOM     47  O   UNL A   1      37.030  30.474  38.310  1.00  0.00    -0.237 OA
ATOM     48  O   UNL A   1      37.978  32.114  39.881  1.00  0.00    -0.237 OA
ATOM     49  O   UNL A   1      36.123  32.771  38.416  1.00  0.00    -0.744 OA
ENDBRANCH  43  46
ENDBRANCH  25  39
BRANCH  26  50
ATOM     50  C   UNL A   1      42.271  26.430  27.432  1.00  0.00     0.023 A 
ATOM     51  C   UNL A   1      43.036  27.003  26.398  1.00  0.00     0.012 A 
ATOM     52  C   UNL A   1      41.916  25.070  27.353  1.00  0.00     0.148 A 
ATOM     53  C   UNL A   1      43.425  26.241  25.296  1.00  0.00     0.002 A 
ATOM     54  C   UNL A   1      42.356  24.303  26.281  1.00  0.00     0.091 A 
ATOM     55  F   UNL A   1      41.172  24.548  28.339  1.00  0.00    -0.205 F 
ATOM     56  C   UNL A   1      43.097  24.889  25.244  1.00  0.00     0.022 A 
BRANCH  54  57
ATOM     57  S   UNL A   1      42.099  22.526  26.210  1.00  0.00     0.127 S 
ATOM     58  O   UNL A   1      40.642  22.434  26.189  1.00  0.00    -0.237 OA
ATOM     59  O   UNL A   1      42.758  22.171  24.952  1.00  0.00    -0.237 OA
ATOM     60  O   UNL A   1      42.754  21.992  27.397  1.00  0.00    -0.744 OA
ENDBRANCH  54  57
ENDBRANCH  26  50
BRANCH  38  61
ATOM     61  C   UNL A   1      44.853  27.020  33.888  1.00  0.00     0.023 A 
ATOM     62  C   UNL A   1      46.131  27.605  33.795  1.00  0.00     0.012 A 
ATOM     63  C   UNL A   1      44.674  25.872  34.683  1.00  0.00     0.148 A 
ATOM     64  C   UNL A   1      47.219  27.040  34.459  1.00  0.00     0.002 A 
ATOM     65  C   UNL A   1      45.755  25.339  35.376  1.00  0.00     0.091 A 
ATOM     66  F   UNL A   1      43.456  25.314  34.740  1.00  0.00    -0.205 F 
ATOM     67  C   UNL A   1      47.030  25.914  35.258  1.00  0.00     0.022 A 
BRANCH  65  68
ATOM     68  S   UNL A   1      45.568  23.946  36.496  1.00  0.00     0.127 S 
ATOM     69  O   UNL A   1      45.056  22.909  35.601  1.00  0.00    -0.237 OA
ATOM     70  O   UNL A   1      46.938  23.726  36.961  1.00  0.00    -0.237 OA
ATOM     71  O   UNL A   1      44.650  24.398  37.533  1.00  0.00    -0.744 OA
ENDBRANCH  65  68
ENDBRANCH  38  61
ENDBRANCH  12  13
ENDBRANCH   5   7
ENDBRANCH   2   3
ENDBRANCH   1   2
BRANCH   1  72
ATOM     72  C   UNL A   1      30.992  29.694  24.435  1.00  0.00     0.023 C 
BRANCH  72  73
ATOM     73  C   UNL A   1      30.691  28.886  23.174  1.00  0.00     0.116 C 
BRANCH  73  74
ATOM     74  N   UNL A   1      29.530  28.030  23.341  1.00  0.00    -0.352 N 
ATOM     75  C   UNL A   1      29.462  26.766  23.862  1.00  0.00     0.251 C 
ATOM     76  H   UNL A   1      28.674  28.412  23.038  1.00  0.00     0.163 HD
ATOM     77  O   UNL A   1      28.434  26.102  23.784  1.00  0.00    -0.269 OA
BRANCH  75  78
ATOM     78  C   UNL A   1      30.646  26.190  24.523  1.00  0.00     0.042 A 
ATOM     79  C   UNL A   1      30.697  26.117  25.921  1.00  0.00     0.016 A 
ATOM     80  C   UNL A   1      31.667  25.680  23.709  1.00  0.00     0.042 A 
ATOM     81  C   UNL A   1      31.786  25.510  26.556  1.00  0.00     0.031 A 
ATOM     82  C   UNL A   1      32.747  25.102  24.377  1.00  0.00     0.067 A 
ATOM     83  C   UNL A   1      32.808  24.972  25.759  1.00  0.00     0.089 A 
ATOM     84  N   UNL A   1      33.921  24.546  23.935  1.00  0.00    -0.338 N 
ATOM     85  N   UNL A   1      33.917  24.263  26.132  1.00  0.00    -0.228 NA
ATOM     86  C   UNL A   1      34.568  24.006  25.016  1.00  0.00     0.142 A 
ATOM     87  H   UNL A   1      34.242  24.535  23.004  1.00  0.00     0.168 HD
BRANCH  86  88
ATOM     88  C   UNL A   1      35.807  23.201  24.952  1.00  0.00     0.063 A 
ATOM     89  C   UNL A   1      37.092  23.684  24.920  1.00  0.00     0.117 A 
ATOM     90  C   UNL A   1      35.922  21.783  24.886  1.00  0.00     0.106 A 
ATOM     91  N   UNL A   1      37.891  22.578  24.930  1.00  0.00    -0.284 N 
ATOM     92  N   UNL A   1      37.217  21.420  24.862  1.00  0.00    -0.175 NA
ATOM     93  H   UNL A   1      38.873  22.626  24.983  1.00  0.00     0.189 HD
BRANCH  90  94
ATOM     94  C   UNL A   1      34.857  20.805  24.690  1.00  0.00     0.039 A 
ATOM     95  C   UNL A   1      33.546  21.250  24.443  1.00  0.00     0.016 A 
ATOM     96  C   UNL A   1      35.106  19.429  24.718  1.00  0.00     0.135 A 
ATOM     97  C   UNL A   1      32.512  20.335  24.239  1.00  0.00     0.040 A 
ATOM     98  C   UNL A   1      34.078  18.512  24.508  1.00  0.00     0.079 A 
ATOM     99  F   UNL A   1      36.337  18.955  24.961  1.00  0.00    -0.206 F 
ATOM    100  C   UNL A   1      32.791  18.974  24.272  1.00  0.00     0.126 A 
ATOM    101  F   UNL A   1      31.800  18.097  24.067  1.00  0.00    -0.207 F 
ENDBRANCH  90  94
ENDBRANCH  86  88
ENDBRANCH  75  78
ENDBRANCH  73  74
ENDBRANCH  72  73
ENDBRANCH   1  72
TORSDOF 16
ENDMDL
