MODEL 1
REMARK VINA RESULT:     -11.0      0.000      0.000
REMARK SMILES C=CC[N@@H+](CC(=O)NCCCCNC(=O)c1ccc(-c2c3nc(c(-c4cccc(S(=O)(=O)[O-])c4F)c4ccc([nH]4)c(-c4cccc(S(=O)(=O)[O-])c4F)c4nc(c(-c5cccc(S(=O)(=O)[O-])c5F)c5ccc2[nH]5)C=C4)C=C3)cc1)Cc1ccc([N+](=O)[O-])o1
REMARK SMILES IDX 10 1 9 2 8 3 6 4 7 5 5 7 4 8 3 10 2 11 1 12 79 13 80 14
REMARK SMILES IDX 81 15 87 16 82 17 83 18 84 19 85 20 86 21 11 22 12 23 13 24
REMARK SMILES IDX 14 25 15 27 16 28 17 29 78 30 18 31 77 32 19 33 20 34 21 35
REMARK SMILES IDX 71 36 22 37 76 38 70 39 72 40 23 41 75 42 69 43 68 44 24 46
REMARK SMILES IDX 56 47 36 48 55 49 37 50 40 51 54 52 73 53 38 54 39 55 53 57
REMARK SMILES IDX 74 58 41 59 25 60 26 61 34 62 27 63 29 64 35 65 28 66 30 67
REMARK SMILES IDX 31 68 32 69 33 70 57 71 58 72 66 73 59 74 61 75 67 76 60 77
REMARK SMILES IDX 62 78 63 79 64 80 65 81 42 82 43 83 51 84 44 85 46 86 52 87
REMARK SMILES IDX 45 88 47 89 48 90 49 91 50 92
REMARK H PARENT 8 6 4 9 13 26 72 45 40 56
REMARK Flexibility Score: inf
ROOT
ATOM      1  C   UNL A   1      32.284  26.983  26.388  1.00  0.00     0.023 C 
ENDROOT
BRANCH   1   2
ATOM      2  C   UNL A   1      30.989  26.459  25.753  1.00  0.00     0.116 C 
BRANCH   2   3
ATOM      3  N   UNL A   1      30.442  25.295  26.420  1.00  0.00    -0.351 N 
ATOM      4  C   UNL A   1      30.967  24.061  26.672  1.00  0.00     0.275 C 
ATOM      5  O   UNL A   1      30.333  23.342  27.451  1.00  0.00    -0.269 OA
ATOM      6  H   UNL A   1      29.523  25.416  26.754  1.00  0.00     0.163 HD
BRANCH   4   7
ATOM      7  C   UNL A   1      32.296  23.574  26.072  1.00  0.00     0.364 C 
BRANCH   7   8
ATOM      8  N   UNL A   1      32.229  22.697  24.871  1.00  0.00    -0.318 N 
ATOM      9  H   UNL A   1      33.193  22.546  24.574  1.00  0.00     0.349 HD
BRANCH   8  10
ATOM     10  C   UNL A   1      31.592  23.362  23.756  1.00  0.00     0.291 C 
BRANCH  10  11
ATOM     11  C   UNL A   1      32.443  24.031  22.722  1.00  0.00     0.025 C 
ATOM     12  C   UNL A   1      32.062  25.139  22.064  1.00  0.00     0.010 C 
ENDBRANCH  10  11
ENDBRANCH   8  10
BRANCH   8  13
ATOM     13  C   UNL A   1      31.807  21.308  25.128  1.00  0.00     0.339 C 
BRANCH  13  14
ATOM     14  C   UNL A   1      32.813  20.211  24.964  1.00  0.00     0.165 A 
ATOM     15  C   UNL A   1      34.181  20.144  24.754  1.00  0.00     0.059 A 
ATOM     16  O   UNL A   1      32.309  18.938  25.053  1.00  0.00    -0.400 OA
ATOM     17  C   UNL A   1      34.517  18.772  24.604  1.00  0.00     0.134 A 
ATOM     18  C   UNL A   1      33.343  18.091  24.809  1.00  0.00     0.433 A 
BRANCH  18  19
ATOM     19  N   UNL A   1      33.040  16.695  24.814  1.00  0.00     0.102 N 
ATOM     20  O   UNL A   1      33.598  16.012  23.945  1.00  0.00    -0.256 OA
ATOM     21  O   UNL A   1      32.282  16.269  25.696  1.00  0.00    -0.256 OA
ENDBRANCH  18  19
ENDBRANCH  13  14
ENDBRANCH   8  13
ENDBRANCH   7   8
ENDBRANCH   4   7
ENDBRANCH   2   3
ENDBRANCH   1   2
BRANCH   1  22
ATOM     22  C   UNL A   1      32.242  28.407  26.903  1.00  0.00     0.023 C 
BRANCH  22  23
ATOM     23  C   UNL A   1      33.370  29.252  26.371  1.00  0.00     0.116 C 
BRANCH  23  24
ATOM     24  N   UNL A   1      33.119  30.676  26.561  1.00  0.00    -0.352 N 
ATOM     25  C   UNL A   1      33.752  31.557  27.400  1.00  0.00     0.251 C 
ATOM     26  H   UNL A   1      32.396  31.057  26.013  1.00  0.00     0.163 HD
ATOM     27  O   UNL A   1      33.278  32.666  27.599  1.00  0.00    -0.269 OA
BRANCH  25  28
ATOM     28  C   UNL A   1      35.005  31.134  28.049  1.00  0.00     0.039 A 
ATOM     29  C   UNL A   1      36.121  31.967  27.998  1.00  0.00     0.014 A 
ATOM     30  C   UNL A   1      35.057  29.912  28.726  1.00  0.00     0.014 A 
ATOM     31  C   UNL A   1      37.289  31.569  28.640  1.00  0.00     0.010 A 
ATOM     32  C   UNL A   1      36.160  29.598  29.493  1.00  0.00     0.010 A 
ATOM     33  C   UNL A   1      37.311  30.385  29.396  1.00  0.00    -0.014 A 
BRANCH  33  34
ATOM     34  C   UNL A   1      38.556  29.883  30.009  1.00  0.00     0.031 A 
ATOM     35  C   UNL A   1      38.960  30.391  31.368  1.00  0.00     0.074 A 
ATOM     36  C   UNL A   1      39.335  29.026  29.325  1.00  0.00     0.049 A 
ATOM     37  N   UNL A   1      40.021  30.101  32.073  1.00  0.00    -0.248 NA
ATOM     38  C   UNL A   1      38.083  31.392  32.005  1.00  0.00     0.031 C 
ATOM     39  C   UNL A   1      39.079  28.546  27.965  1.00  0.00     0.029 A 
ATOM     40  N   UNL A   1      40.509  28.417  29.679  1.00  0.00    -0.354 N 
ATOM     41  C   UNL A   1      39.955  30.908  33.203  1.00  0.00     0.074 A 
ATOM     42  C   UNL A   1      38.791  31.748  33.063  1.00  0.00     0.031 C 
ATOM     43  C   UNL A   1      40.054  27.692  27.611  1.00  0.00     0.029 A 
ATOM     44  C   UNL A   1      41.014  27.591  28.704  1.00  0.00     0.049 A 
ATOM     45  H   UNL A   1      40.948  28.556  30.549  1.00  0.00     0.167 HD
ATOM     46  C   UNL A   1      40.766  30.917  34.285  1.00  0.00     0.034 A 
ATOM     47  C   UNL A   1      42.127  26.835  28.705  1.00  0.00     0.034 A 
ATOM     48  C   UNL A   1      41.886  30.034  34.434  1.00  0.00     0.049 A 
ATOM     49  C   UNL A   1      42.977  26.813  29.946  1.00  0.00     0.074 A 
ATOM     50  C   UNL A   1      42.731  29.890  35.518  1.00  0.00     0.029 A 
ATOM     51  N   UNL A   1      42.316  29.142  33.463  1.00  0.00    -0.354 N 
ATOM     52  N   UNL A   1      42.819  27.476  31.067  1.00  0.00    -0.248 NA
ATOM     53  C   UNL A   1      44.130  25.904  29.941  1.00  0.00     0.031 C 
ATOM     54  C   UNL A   1      43.693  28.929  35.190  1.00  0.00     0.029 A 
ATOM     55  C   UNL A   1      43.417  28.443  33.920  1.00  0.00     0.049 A 
ATOM     56  H   UNL A   1      41.899  29.025  32.579  1.00  0.00     0.167 HD
ATOM     57  C   UNL A   1      43.822  27.029  31.918  1.00  0.00     0.074 A 
ATOM     58  C   UNL A   1      44.570  26.027  31.185  1.00  0.00     0.031 C 
ATOM     59  C   UNL A   1      44.107  27.413  33.187  1.00  0.00     0.034 A 
BRANCH  46  60
ATOM     60  C   UNL A   1      40.436  31.875  35.400  1.00  0.00     0.023 A 
ATOM     61  C   UNL A   1      41.232  33.023  35.601  1.00  0.00     0.012 A 
ATOM     62  C   UNL A   1      39.321  31.657  36.231  1.00  0.00     0.148 A 
ATOM     63  C   UNL A   1      40.949  33.914  36.635  1.00  0.00     0.002 A 
ATOM     64  C   UNL A   1      39.013  32.579  37.224  1.00  0.00     0.091 A 
ATOM     65  F   UNL A   1      38.591  30.548  36.044  1.00  0.00    -0.205 F 
ATOM     66  C   UNL A   1      39.833  33.698  37.439  1.00  0.00     0.022 A 
BRANCH  64  67
ATOM     67  S   UNL A   1      37.550  32.437  38.258  1.00  0.00     0.127 S 
ATOM     68  O   UNL A   1      37.960  33.174  39.452  1.00  0.00    -0.237 OA
ATOM     69  O   UNL A   1      36.537  33.109  37.444  1.00  0.00    -0.237 OA
ATOM     70  O   UNL A   1      37.330  31.011  38.451  1.00  0.00    -0.744 OA
ENDBRANCH  64  67
ENDBRANCH  46  60
BRANCH  47  71
ATOM     71  C   UNL A   1      42.451  25.982  27.528  1.00  0.00     0.023 A 
ATOM     72  C   UNL A   1      43.201  26.520  26.463  1.00  0.00     0.012 A 
ATOM     73  C   UNL A   1      42.043  24.636  27.470  1.00  0.00     0.148 A 
ATOM     74  C   UNL A   1      43.501  25.746  25.342  1.00  0.00     0.002 A 
ATOM     75  C   UNL A   1      42.394  23.855  26.376  1.00  0.00     0.091 A 
ATOM     76  F   UNL A   1      41.330  24.145  28.492  1.00  0.00    -0.205 F 
ATOM     77  C   UNL A   1      43.105  24.412  25.301  1.00  0.00     0.022 A 
BRANCH  75  78
ATOM     78  S   UNL A   1      42.042  22.095  26.298  1.00  0.00     0.127 S 
ATOM     79  O   UNL A   1      42.461  21.649  27.624  1.00  0.00    -0.237 OA
ATOM     80  O   UNL A   1      40.597  22.088  26.073  1.00  0.00    -0.237 OA
ATOM     81  O   UNL A   1      42.826  21.586  25.182  1.00  0.00    -0.744 OA
ENDBRANCH  75  78
ENDBRANCH  47  71
BRANCH  59  82
ATOM     82  C   UNL A   1      45.230  26.701  33.891  1.00  0.00     0.023 A 
ATOM     83  C   UNL A   1      46.553  27.169  33.772  1.00  0.00     0.012 A 
ATOM     84  C   UNL A   1      44.955  25.601  34.726  1.00  0.00     0.148 A 
ATOM     85  C   UNL A   1      47.592  26.521  34.435  1.00  0.00     0.002 A 
ATOM     86  C   UNL A   1      45.987  24.997  35.430  1.00  0.00     0.091 A 
ATOM     87  F   UNL A   1      43.690  25.162  34.812  1.00  0.00    -0.205 F 
ATOM     88  C   UNL A   1      47.309  25.444  35.273  1.00  0.00     0.022 A 
BRANCH  86  89
ATOM     89  S   UNL A   1      45.694  23.678  36.612  1.00  0.00     0.127 S 
ATOM     90  O   UNL A   1      45.113  22.641  35.762  1.00  0.00    -0.237 OA
ATOM     91  O   UNL A   1      47.045  23.388  37.093  1.00  0.00    -0.237 OA
ATOM     92  O   UNL A   1      44.803  24.234  37.621  1.00  0.00    -0.744 OA
ENDBRANCH  86  89
ENDBRANCH  59  82
ENDBRANCH  33  34
ENDBRANCH  25  28
ENDBRANCH  23  24
ENDBRANCH  22  23
ENDBRANCH   1  22
TORSDOF 20
ENDMDL
MODEL 2
REMARK VINA RESULT:     -10.9      2.670      3.285
REMARK SMILES C=CC[N@@H+](CC(=O)NCCCCNC(=O)c1ccc(-c2c3nc(c(-c4cccc(S(=O)(=O)[O-])c4F)c4ccc([nH]4)c(-c4cccc(S(=O)(=O)[O-])c4F)c4nc(c(-c5cccc(S(=O)(=O)[O-])c5F)c5ccc2[nH]5)C=C4)C=C3)cc1)Cc1ccc([N+](=O)[O-])o1
REMARK SMILES IDX 10 1 9 2 8 3 6 4 7 5 5 7 4 8 3 10 2 11 1 12 79 13 80 14
REMARK SMILES IDX 81 15 87 16 82 17 83 18 84 19 85 20 86 21 11 22 12 23 13 24
REMARK SMILES IDX 14 25 15 27 16 28 17 29 78 30 18 31 77 32 19 33 20 34 21 35
REMARK SMILES IDX 71 36 22 37 76 38 70 39 72 40 23 41 75 42 69 43 68 44 24 46
REMARK SMILES IDX 56 47 36 48 55 49 37 50 40 51 54 52 73 53 38 54 39 55 53 57
REMARK SMILES IDX 74 58 41 59 25 60 26 61 34 62 27 63 29 64 35 65 28 66 30 67
REMARK SMILES IDX 31 68 32 69 33 70 57 71 58 72 66 73 59 74 61 75 67 76 60 77
REMARK SMILES IDX 62 78 63 79 64 80 65 81 42 82 43 83 51 84 44 85 46 86 52 87
REMARK SMILES IDX 45 88 47 89 48 90 49 91 50 92
REMARK H PARENT 8 6 4 9 13 26 72 45 40 56
REMARK Flexibility Score: inf
ROOT
ATOM      1  C   UNL A   1      33.553  28.292  24.134  1.00  0.00     0.023 C 
ENDROOT
BRANCH   1   2
ATOM      2  C   UNL A   1      32.558  28.312  22.966  1.00  0.00     0.116 C 
BRANCH   2   3
ATOM      3  N   UNL A   1      32.953  27.478  21.849  1.00  0.00    -0.351 N 
ATOM      4  C   UNL A   1      33.020  26.122  21.706  1.00  0.00     0.275 C 
ATOM      5  O   UNL A   1      33.195  25.698  20.559  1.00  0.00    -0.269 OA
ATOM      6  H   UNL A   1      33.222  27.980  21.046  1.00  0.00     0.163 HD
BRANCH   4   7
ATOM      7  C   UNL A   1      32.847  25.143  22.878  1.00  0.00     0.364 C 
BRANCH   7   8
ATOM      8  N   UNL A   1      31.794  24.097  22.752  1.00  0.00    -0.318 N 
ATOM      9  H   UNL A   1      31.249  24.339  21.925  1.00  0.00     0.349 HD
BRANCH   8  10
ATOM     10  C   UNL A   1      30.853  24.149  23.849  1.00  0.00     0.291 C 
BRANCH  10  11
ATOM     11  C   UNL A   1      30.518  25.472  24.463  1.00  0.00     0.025 C 
ATOM     12  C   UNL A   1      29.525  26.257  24.014  1.00  0.00     0.010 C 
ENDBRANCH  10  11
ENDBRANCH   8  10
BRANCH   8  13
ATOM     13  C   UNL A   1      32.280  22.758  22.373  1.00  0.00     0.339 C 
BRANCH  13  14
ATOM     14  C   UNL A   1      32.878  21.886  23.434  1.00  0.00     0.165 A 
ATOM     15  C   UNL A   1      32.452  20.802  24.183  1.00  0.00     0.059 A 
ATOM     16  O   UNL A   1      34.175  22.182  23.770  1.00  0.00    -0.400 OA
ATOM     17  C   UNL A   1      33.494  20.482  25.093  1.00  0.00     0.134 A 
ATOM     18  C   UNL A   1      34.517  21.345  24.784  1.00  0.00     0.433 A 
BRANCH  18  19
ATOM     19  N   UNL A   1      35.829  21.501  25.326  1.00  0.00     0.102 N 
ATOM     20  O   UNL A   1      36.108  22.623  25.768  1.00  0.00    -0.256 OA
ATOM     21  O   UNL A   1      36.568  20.508  25.350  1.00  0.00    -0.256 OA
ENDBRANCH  18  19
ENDBRANCH  13  14
ENDBRANCH   8  13
ENDBRANCH   7   8
ENDBRANCH   4   7
ENDBRANCH   2   3
ENDBRANCH   1   2
BRANCH   1  22
ATOM     22  C   UNL A   1      32.959  28.476  25.516  1.00  0.00     0.023 C 
BRANCH  22  23
ATOM     23  C   UNL A   1      33.985  28.884  26.541  1.00  0.00     0.116 C 
BRANCH  23  24
ATOM     24  N   UNL A   1      33.990  30.325  26.763  1.00  0.00    -0.352 N 
ATOM     25  C   UNL A   1      34.819  31.070  27.561  1.00  0.00     0.251 C 
ATOM     26  H   UNL A   1      33.303  30.832  26.274  1.00  0.00     0.163 HD
ATOM     27  O   UNL A   1      34.553  32.238  27.806  1.00  0.00    -0.269 OA
BRANCH  25  28
ATOM     28  C   UNL A   1      36.027  30.431  28.112  1.00  0.00     0.039 A 
ATOM     29  C   UNL A   1      35.944  29.724  29.310  1.00  0.00     0.014 A 
ATOM     30  C   UNL A   1      37.237  30.521  27.419  1.00  0.00     0.014 A 
ATOM     31  C   UNL A   1      37.086  29.100  29.805  1.00  0.00     0.010 A 
ATOM     32  C   UNL A   1      38.321  29.772  27.828  1.00  0.00     0.010 A 
ATOM     33  C   UNL A   1      38.277  29.116  29.061  1.00  0.00    -0.014 A 
BRANCH  33  34
ATOM     34  C   UNL A   1      39.530  28.550  29.598  1.00  0.00     0.031 A 
ATOM     35  C   UNL A   1      40.134  29.155  30.838  1.00  0.00     0.074 A 
ATOM     36  C   UNL A   1      40.139  27.544  28.945  1.00  0.00     0.049 A 
ATOM     37  N   UNL A   1      41.235  28.828  31.461  1.00  0.00    -0.248 NA
ATOM     38  C   UNL A   1      39.437  30.309  31.437  1.00  0.00     0.031 C 
ATOM     39  C   UNL A   1      39.683  26.950  27.686  1.00  0.00     0.029 A 
ATOM     40  N   UNL A   1      41.280  26.851  29.248  1.00  0.00    -0.354 N 
ATOM     41  C   UNL A   1      41.378  29.755  32.486  1.00  0.00     0.074 A 
ATOM     42  C   UNL A   1      40.292  30.698  32.367  1.00  0.00     0.031 C 
ATOM     43  C   UNL A   1      40.523  25.961  27.339  1.00  0.00     0.029 A 
ATOM     44  C   UNL A   1      41.588  25.874  28.332  1.00  0.00     0.049 A 
ATOM     45  H   UNL A   1      41.827  27.035  30.045  1.00  0.00     0.167 HD
ATOM     46  C   UNL A   1      42.304  29.792  33.471  1.00  0.00     0.034 A 
ATOM     47  C   UNL A   1      42.615  25.006  28.309  1.00  0.00     0.034 A 
ATOM     48  C   UNL A   1      43.343  28.812  33.609  1.00  0.00     0.049 A 
ATOM     49  C   UNL A   1      43.595  25.024  29.450  1.00  0.00     0.074 A 
ATOM     50  C   UNL A   1      44.288  28.695  34.610  1.00  0.00     0.029 A 
ATOM     51  N   UNL A   1      43.570  27.779  32.713  1.00  0.00    -0.354 N 
ATOM     52  N   UNL A   1      43.631  25.818  30.495  1.00  0.00    -0.248 NA
ATOM     53  C   UNL A   1      44.645  23.999  29.436  1.00  0.00     0.031 C 
ATOM     54  C   UNL A   1      45.108  27.605  34.302  1.00  0.00     0.029 A 
ATOM     55  C   UNL A   1      44.642  27.017  33.135  1.00  0.00     0.049 A 
ATOM     56  H   UNL A   1      43.046  27.613  31.897  1.00  0.00     0.167 HD
ATOM     57  C   UNL A   1      44.676  25.358  31.285  1.00  0.00     0.074 A 
ATOM     58  C   UNL A   1      45.235  24.207  30.605  1.00  0.00     0.031 C 
ATOM     59  C   UNL A   1      45.140  25.844  32.463  1.00  0.00     0.034 A 
BRANCH  46  60
ATOM     60  C   UNL A   1      42.199  30.895  34.492  1.00  0.00     0.023 A 
ATOM     61  C   UNL A   1      41.458  30.692  35.675  1.00  0.00     0.012 A 
ATOM     62  C   UNL A   1      42.858  32.123  34.295  1.00  0.00     0.148 A 
ATOM     63  C   UNL A   1      41.339  31.705  36.625  1.00  0.00     0.002 A 
ATOM     64  C   UNL A   1      42.780  33.109  35.272  1.00  0.00     0.091 A 
ATOM     65  F   UNL A   1      43.535  32.310  33.153  1.00  0.00    -0.205 F 
ATOM     66  C   UNL A   1      42.010  32.908  36.429  1.00  0.00     0.022 A 
BRANCH  64  67
ATOM     67  S   UNL A   1      43.676  34.662  35.155  1.00  0.00     0.127 S 
ATOM     68  O   UNL A   1      45.063  34.200  35.132  1.00  0.00    -0.237 OA
ATOM     69  O   UNL A   1      43.190  35.198  33.884  1.00  0.00    -0.237 OA
ATOM     70  O   UNL A   1      43.297  35.435  36.329  1.00  0.00    -0.744 OA
ENDBRANCH  64  67
ENDBRANCH  46  60
BRANCH  47  71
ATOM     71  C   UNL A   1      42.717  24.000  27.216  1.00  0.00     0.023 A 
ATOM     72  C   UNL A   1      43.454  24.306  26.055  1.00  0.00     0.012 A 
ATOM     73  C   UNL A   1      42.112  22.734  27.331  1.00  0.00     0.148 A 
ATOM     74  C   UNL A   1      43.549  23.388  25.009  1.00  0.00     0.002 A 
ATOM     75  C   UNL A   1      42.258  21.803  26.310  1.00  0.00     0.091 A 
ATOM     76  F   UNL A   1      41.415  22.464  28.443  1.00  0.00    -0.205 F 
ATOM     77  C   UNL A   1      42.958  22.133  25.140  1.00  0.00     0.022 A 
BRANCH  75  78
ATOM     78  S   UNL A   1      41.645  20.120  26.448  1.00  0.00     0.127 S 
ATOM     79  O   UNL A   1      40.204  20.316  26.313  1.00  0.00    -0.237 OA
ATOM     80  O   UNL A   1      42.289  19.471  25.307  1.00  0.00    -0.237 OA
ATOM     81  O   UNL A   1      42.099  19.641  27.746  1.00  0.00    -0.744 OA
ENDBRANCH  75  78
ENDBRANCH  47  71
BRANCH  59  82
ATOM     82  C   UNL A   1      46.262  25.094  33.129  1.00  0.00     0.023 A 
ATOM     83  C   UNL A   1      47.596  25.517  32.964  1.00  0.00     0.012 A 
ATOM     84  C   UNL A   1      45.979  24.003  33.972  1.00  0.00     0.148 A 
ATOM     85  C   UNL A   1      48.634  24.833  33.592  1.00  0.00     0.002 A 
ATOM     86  C   UNL A   1      47.013  23.364  34.641  1.00  0.00     0.091 A 
ATOM     87  F   UNL A   1      44.703  23.606  34.102  1.00  0.00    -0.205 F 
ATOM     88  C   UNL A   1      48.343  23.765  34.439  1.00  0.00     0.022 A 
BRANCH  86  89
ATOM     89  S   UNL A   1      46.715  22.054  35.832  1.00  0.00     0.127 S 
ATOM     90  O   UNL A   1      46.155  21.003  34.985  1.00  0.00    -0.237 OA
ATOM     91  O   UNL A   1      48.063  21.780  36.334  1.00  0.00    -0.237 OA
ATOM     92  O   UNL A   1      45.807  22.612  36.824  1.00  0.00    -0.744 OA
ENDBRANCH  86  89
ENDBRANCH  59  82
ENDBRANCH  33  34
ENDBRANCH  25  28
ENDBRANCH  23  24
ENDBRANCH  22  23
ENDBRANCH   1  22
TORSDOF 20
ENDMDL
MODEL 3
REMARK VINA RESULT:     -10.7      5.398     10.313
REMARK SMILES C=CC[N@@H+](CC(=O)NCCCCNC(=O)c1ccc(-c2c3nc(c(-c4cccc(S(=O)(=O)[O-])c4F)c4ccc([nH]4)c(-c4cccc(S(=O)(=O)[O-])c4F)c4nc(c(-c5cccc(S(=O)(=O)[O-])c5F)c5ccc2[nH]5)C=C4)C=C3)cc1)Cc1ccc([N+](=O)[O-])o1
REMARK SMILES IDX 10 1 9 2 8 3 6 4 7 5 5 7 4 8 3 10 2 11 1 12 79 13 80 14
REMARK SMILES IDX 81 15 87 16 82 17 83 18 84 19 85 20 86 21 11 22 12 23 13 24
REMARK SMILES IDX 14 25 15 27 16 28 17 29 78 30 18 31 77 32 19 33 20 34 21 35
REMARK SMILES IDX 71 36 22 37 76 38 70 39 72 40 23 41 75 42 69 43 68 44 24 46
REMARK SMILES IDX 56 47 36 48 55 49 37 50 40 51 54 52 73 53 38 54 39 55 53 57
REMARK SMILES IDX 74 58 41 59 25 60 26 61 34 62 27 63 29 64 35 65 28 66 30 67
REMARK SMILES IDX 31 68 32 69 33 70 57 71 58 72 66 73 59 74 61 75 67 76 60 77
REMARK SMILES IDX 62 78 63 79 64 80 65 81 42 82 43 83 51 84 44 85 46 86 52 87
REMARK SMILES IDX 45 88 47 89 48 90 49 91 50 92
REMARK H PARENT 8 6 4 9 13 26 72 45 40 56
REMARK Flexibility Score: inf
ROOT
ATOM      1  C   UNL A   1      36.037  22.566  23.816  1.00  0.00     0.023 C 
ENDROOT
BRANCH   1   2
ATOM      2  C   UNL A   1      34.520  22.612  23.593  1.00  0.00     0.116 C 
BRANCH   2   3
ATOM      3  N   UNL A   1      34.115  23.495  22.518  1.00  0.00    -0.351 N 
ATOM      4  C   UNL A   1      33.166  24.472  22.453  1.00  0.00     0.275 C 
ATOM      5  O   UNL A   1      33.195  25.203  21.457  1.00  0.00    -0.269 OA
ATOM      6  H   UNL A   1      34.618  23.368  21.680  1.00  0.00     0.163 HD
BRANCH   4   7
ATOM      7  C   UNL A   1      32.126  24.711  23.561  1.00  0.00     0.364 C 
BRANCH   7   8
ATOM      8  N   UNL A   1      32.236  25.969  24.349  1.00  0.00    -0.318 N 
ATOM      9  H   UNL A   1      32.539  26.690  23.694  1.00  0.00     0.349 HD
BRANCH   8  10
ATOM     10  C   UNL A   1      33.290  25.894  25.337  1.00  0.00     0.291 C 
BRANCH  10  11
ATOM     11  C   UNL A   1      33.504  27.046  26.267  1.00  0.00     0.025 C 
ATOM     12  C   UNL A   1      33.971  28.239  25.861  1.00  0.00     0.010 C 
ENDBRANCH  10  11
ENDBRANCH   8  10
BRANCH   8  13
ATOM     13  C   UNL A   1      30.956  26.540  24.805  1.00  0.00     0.339 C 
BRANCH  13  14
ATOM     14  C   UNL A   1      30.523  27.863  24.250  1.00  0.00     0.165 A 
ATOM     15  C   UNL A   1      31.020  29.155  24.267  1.00  0.00     0.059 A 
ATOM     16  O   UNL A   1      29.361  27.837  23.520  1.00  0.00    -0.400 OA
ATOM     17  C   UNL A   1      30.071  29.980  23.607  1.00  0.00     0.134 A 
ATOM     18  C   UNL A   1      29.095  29.122  23.165  1.00  0.00     0.433 A 
BRANCH  18  19
ATOM     19  N   UNL A   1      27.896  29.343  22.421  1.00  0.00     0.102 N 
ATOM     20  O   UNL A   1      28.038  29.813  21.284  1.00  0.00    -0.256 OA
ATOM     21  O   UNL A   1      26.821  29.018  22.942  1.00  0.00    -0.256 OA
ENDBRANCH  18  19
ENDBRANCH  13  14
ENDBRANCH   8  13
ENDBRANCH   7   8
ENDBRANCH   4   7
ENDBRANCH   2   3
ENDBRANCH   1   2
BRANCH   1  22
ATOM     22  C   UNL A   1      36.624  23.701  24.631  1.00  0.00     0.023 C 
BRANCH  22  23
ATOM     23  C   UNL A   1      36.855  23.325  26.071  1.00  0.00     0.116 C 
BRANCH  23  24
ATOM     24  N   UNL A   1      37.962  22.386  26.218  1.00  0.00    -0.352 N 
ATOM     25  C   UNL A   1      39.283  22.648  26.478  1.00  0.00     0.251 C 
ATOM     26  H   UNL A   1      37.729  21.436  26.115  1.00  0.00     0.163 HD
ATOM     27  O   UNL A   1      40.120  21.766  26.354  1.00  0.00    -0.269 OA
BRANCH  25  28
ATOM     28  C   UNL A   1      39.661  24.006  26.904  1.00  0.00     0.039 A 
ATOM     29  C   UNL A   1      40.078  24.934  25.952  1.00  0.00     0.014 A 
ATOM     30  C   UNL A   1      39.579  24.357  28.255  1.00  0.00     0.014 A 
ATOM     31  C   UNL A   1      40.404  26.222  26.364  1.00  0.00     0.010 A 
ATOM     32  C   UNL A   1      39.748  25.673  28.634  1.00  0.00     0.010 A 
ATOM     33  C   UNL A   1      40.233  26.599  27.707  1.00  0.00    -0.014 A 
BRANCH  33  34
ATOM     34  C   UNL A   1      40.660  27.924  28.197  1.00  0.00     0.031 A 
ATOM     35  C   UNL A   1      42.127  28.268  28.195  1.00  0.00     0.074 A 
ATOM     36  C   UNL A   1      39.744  28.778  28.687  1.00  0.00     0.049 A 
ATOM     37  N   UNL A   1      42.716  29.361  28.602  1.00  0.00    -0.248 NA
ATOM     38  C   UNL A   1      43.064  27.234  27.715  1.00  0.00     0.031 C 
ATOM     39  C   UNL A   1      38.311  28.503  28.818  1.00  0.00     0.029 A 
ATOM     40  N   UNL A   1      39.887  30.049  29.176  1.00  0.00    -0.354 N 
ATOM     41  C   UNL A   1      44.079  29.126  28.465  1.00  0.00     0.074 A 
ATOM     42  C   UNL A   1      44.238  27.769  28.003  1.00  0.00     0.031 C 
ATOM     43  C   UNL A   1      37.702  29.587  29.327  1.00  0.00     0.029 A 
ATOM     44  C   UNL A   1      38.704  30.615  29.585  1.00  0.00     0.049 A 
ATOM     45  H   UNL A   1      40.754  30.512  29.229  1.00  0.00     0.167 HD
ATOM     46  C   UNL A   1      45.108  29.981  28.662  1.00  0.00     0.034 A 
ATOM     47  C   UNL A   1      38.464  31.833  30.103  1.00  0.00     0.034 A 
ATOM     48  C   UNL A   1      44.929  31.346  29.065  1.00  0.00     0.049 A 
ATOM     49  C   UNL A   1      39.617  32.789  30.250  1.00  0.00     0.074 A 
ATOM     50  C   UNL A   1      45.886  32.332  29.216  1.00  0.00     0.029 A 
ATOM     51  N   UNL A   1      43.706  31.916  29.383  1.00  0.00    -0.354 N 
ATOM     52  N   UNL A   1      40.886  32.599  29.977  1.00  0.00    -0.248 NA
ATOM     53  C   UNL A   1      39.299  34.139  30.730  1.00  0.00     0.031 C 
ATOM     54  C   UNL A   1      45.242  33.493  29.655  1.00  0.00     0.029 A 
ATOM     55  C   UNL A   1      43.880  33.241  29.731  1.00  0.00     0.049 A 
ATOM     56  H   UNL A   1      42.842  31.445  29.363  1.00  0.00     0.167 HD
ATOM     57  C   UNL A   1      41.510  33.819  30.206  1.00  0.00     0.074 A 
ATOM     58  C   UNL A   1      40.474  34.743  30.623  1.00  0.00     0.031 C 
ATOM     59  C   UNL A   1      42.820  34.149  30.090  1.00  0.00     0.034 A 
BRANCH  46  60
ATOM     60  C   UNL A   1      46.502  29.474  28.395  1.00  0.00     0.023 A 
ATOM     61  C   UNL A   1      47.070  29.617  27.111  1.00  0.00     0.012 A 
ATOM     62  C   UNL A   1      47.262  28.884  29.421  1.00  0.00     0.148 A 
ATOM     63  C   UNL A   1      48.353  29.143  26.842  1.00  0.00     0.002 A 
ATOM     64  C   UNL A   1      48.561  28.463  29.160  1.00  0.00     0.091 A 
ATOM     65  F   UNL A   1      46.698  28.731  30.628  1.00  0.00    -0.205 F 
ATOM     66  C   UNL A   1      49.102  28.577  27.870  1.00  0.00     0.022 A 
BRANCH  64  67
ATOM     67  S   UNL A   1      49.640  27.800  30.434  1.00  0.00     0.127 S 
ATOM     68  O   UNL A   1      50.171  26.606  29.779  1.00  0.00    -0.237 OA
ATOM     69  O   UNL A   1      50.607  28.883  30.608  1.00  0.00    -0.237 OA
ATOM     70  O   UNL A   1      48.790  27.549  31.591  1.00  0.00    -0.744 OA
ENDBRANCH  64  67
ENDBRANCH  46  60
BRANCH  47  71
ATOM     71  C   UNL A   1      37.072  32.241  30.439  1.00  0.00     0.023 A 
ATOM     72  C   UNL A   1      36.576  32.017  31.739  1.00  0.00     0.012 A 
ATOM     73  C   UNL A   1      36.248  32.871  29.488  1.00  0.00     0.148 A 
ATOM     74  C   UNL A   1      35.269  32.373  32.072  1.00  0.00     0.002 A 
ATOM     75  C   UNL A   1      34.966  33.274  29.844  1.00  0.00     0.091 A 
ATOM     76  F   UNL A   1      36.739  33.074  28.258  1.00  0.00    -0.205 F 
ATOM     77  C   UNL A   1      34.467  33.009  31.128  1.00  0.00     0.022 A 
BRANCH  75  78
ATOM     78  S   UNL A   1      33.912  34.217  28.736  1.00  0.00     0.127 S 
ATOM     79  O   UNL A   1      33.538  33.206  27.750  1.00  0.00    -0.237 OA
ATOM     80  O   UNL A   1      32.834  34.635  29.631  1.00  0.00    -0.237 OA
ATOM     81  O   UNL A   1      34.739  35.308  28.240  1.00  0.00    -0.744 OA
ENDBRANCH  75  78
ENDBRANCH  47  71
BRANCH  59  82
ATOM     82  C   UNL A   1      43.200  35.582  30.348  1.00  0.00     0.023 A 
ATOM     83  C   UNL A   1      43.680  35.972  31.614  1.00  0.00     0.012 A 
ATOM     84  C   UNL A   1      43.139  36.528  29.307  1.00  0.00     0.148 A 
ATOM     85  C   UNL A   1      44.046  37.295  31.851  1.00  0.00     0.002 A 
ATOM     86  C   UNL A   1      43.562  37.830  29.534  1.00  0.00     0.091 A 
ATOM     87  F   UNL A   1      42.663  36.138  28.114  1.00  0.00    -0.205 F 
ATOM     88  C   UNL A   1      43.999  38.220  30.810  1.00  0.00     0.022 A 
BRANCH  86  89
ATOM     89  S   UNL A   1      43.637  39.053  28.222  1.00  0.00     0.127 S 
ATOM     90  O   UNL A   1      43.988  38.229  27.067  1.00  0.00    -0.237 OA
ATOM     91  O   UNL A   1      42.269  39.574  28.207  1.00  0.00    -0.237 OA
ATOM     92  O   UNL A   1      44.645  40.021  28.633  1.00  0.00    -0.744 OA
ENDBRANCH  86  89
ENDBRANCH  59  82
ENDBRANCH  33  34
ENDBRANCH  25  28
ENDBRANCH  23  24
ENDBRANCH  22  23
ENDBRANCH   1  22
TORSDOF 20
ENDMDL
