MODEL 1
REMARK VINA RESULT:     -11.7      0.000      0.000
REMARK SMILES O=C(NCCCCNC(=O)[C@H](c1cnn(Cc2ccccc2)c1)[NH+]1CCOCC1)c1ccc(-c2c3nc(c(-c4cccc(S(=O)(=O)[O-])c4F)c4ccc([nH]4)c(-c4cccc(S(=O)(=O)[O-])c4F)c4nc(c(-c5cccc(S(=O)(=O)[O-])c5F)c5ccc2[nH]5)C=C4)C=C3)cc1
REMARK SMILES IDX 5 1 4 2 3 3 1 4 2 5 30 7 31 8 92 9 32 10 91 11 33 12 34 13
REMARK SMILES IDX 35 14 85 15 36 16 90 17 84 18 86 19 37 20 89 21 83 22 82 23
REMARK SMILES IDX 38 25 70 26 50 27 69 28 51 29 54 30 68 31 87 32 52 33 53 34
REMARK SMILES IDX 67 36 88 37 55 38 39 39 40 40 48 41 41 42 43 43 49 44 42 45
REMARK SMILES IDX 44 46 45 47 46 48 47 49 71 50 72 51 80 52 73 53 75 54 81 55
REMARK SMILES IDX 74 56 76 57 77 58 78 59 79 60 56 61 57 62 65 63 58 64 60 65
REMARK SMILES IDX 66 66 59 67 61 68 62 69 63 70 64 71 6 72 7 73 8 74 9 75
REMARK SMILES IDX 10 77 11 78 24 79 25 80 29 81 26 83 28 84 27 85 12 86 13 87
REMARK SMILES IDX 23 88 14 89 15 90 16 91 17 92 18 93 22 94 19 95 21 96 20 97
REMARK H PARENT 3 6 86 24 54 35 8 76 24 82
REMARK Flexibility Score: inf
ROOT
ATOM      1  C   UNL A   1      38.893  20.516  25.178  1.00  0.00     0.023 C 
ENDROOT
BRANCH   1   2
ATOM      2  C   UNL A   1      39.330  19.238  25.891  1.00  0.00     0.116 C 
BRANCH   2   3
ATOM      3  N   UNL A   1      40.700  18.857  25.628  1.00  0.00    -0.352 N 
ATOM      4  O   UNL A   1      42.903  18.757  25.558  1.00  0.00    -0.269 OA
ATOM      5  C   UNL A   1      41.918  19.415  25.903  1.00  0.00     0.251 C 
ATOM      6  H   UNL A   1      40.772  18.005  25.140  1.00  0.00     0.163 HD
BRANCH   5   7
ATOM      7  C   UNL A   1      42.118  20.753  26.520  1.00  0.00     0.039 A 
ATOM      8  C   UNL A   1      42.550  21.896  25.846  1.00  0.00     0.014 A 
ATOM      9  C   UNL A   1      41.820  20.851  27.892  1.00  0.00     0.014 A 
ATOM     10  C   UNL A   1      42.762  23.084  26.535  1.00  0.00     0.010 A 
ATOM     11  C   UNL A   1      42.005  22.043  28.582  1.00  0.00     0.010 A 
ATOM     12  C   UNL A   1      42.502  23.153  27.905  1.00  0.00    -0.014 A 
BRANCH  12  13
ATOM     13  C   UNL A   1      42.578  24.465  28.542  1.00  0.00     0.031 A 
ATOM     14  C   UNL A   1      41.434  25.372  28.227  1.00  0.00     0.074 A 
ATOM     15  C   UNL A   1      43.509  24.796  29.459  1.00  0.00     0.049 A 
ATOM     16  N   UNL A   1      41.464  26.537  27.664  1.00  0.00    -0.248 NA
ATOM     17  C   UNL A   1      40.076  24.857  28.467  1.00  0.00     0.031 C 
ATOM     18  C   UNL A   1      44.497  23.915  30.086  1.00  0.00     0.029 A 
ATOM     19  N   UNL A   1      43.672  25.974  30.129  1.00  0.00    -0.354 N 
ATOM     20  C   UNL A   1      40.145  26.992  27.672  1.00  0.00     0.074 A 
ATOM     21  C   UNL A   1      39.324  25.866  28.027  1.00  0.00     0.031 C 
ATOM     22  C   UNL A   1      44.973  24.510  31.203  1.00  0.00     0.029 A 
ATOM     23  C   UNL A   1      44.427  25.853  31.292  1.00  0.00     0.049 A 
ATOM     24  H   UNL A   1      43.293  26.828  29.819  1.00  0.00     0.167 HD
ATOM     25  C   UNL A   1      39.834  28.315  27.599  1.00  0.00     0.034 A 
ATOM     26  C   UNL A   1      44.523  26.761  32.296  1.00  0.00     0.034 A 
ATOM     27  C   UNL A   1      40.929  29.100  27.101  1.00  0.00     0.049 A 
ATOM     28  C   UNL A   1      44.094  28.071  31.760  1.00  0.00     0.074 A 
ATOM     29  C   UNL A   1      41.663  29.125  25.932  1.00  0.00     0.029 A 
ATOM     30  N   UNL A   1      41.653  29.820  28.016  1.00  0.00    -0.354 N 
ATOM     31  N   UNL A   1      44.762  28.740  30.863  1.00  0.00    -0.248 NA
ATOM     32  C   UNL A   1      42.707  28.464  31.933  1.00  0.00     0.031 C 
ATOM     33  C   UNL A   1      42.993  29.430  26.344  1.00  0.00     0.029 A 
ATOM     34  C   UNL A   1      42.977  29.623  27.726  1.00  0.00     0.049 A 
ATOM     35  H   UNL A   1      41.291  30.374  28.743  1.00  0.00     0.167 HD
ATOM     36  C   UNL A   1      43.783  29.302  30.057  1.00  0.00     0.074 A 
ATOM     37  C   UNL A   1      42.549  29.200  30.830  1.00  0.00     0.031 C 
ATOM     38  C   UNL A   1      44.014  29.533  28.730  1.00  0.00     0.034 A 
BRANCH  25  39
ATOM     39  C   UNL A   1      38.652  28.955  28.290  1.00  0.00     0.023 A 
ATOM     40  C   UNL A   1      37.738  29.685  27.496  1.00  0.00     0.012 A 
ATOM     41  C   UNL A   1      38.542  29.103  29.692  1.00  0.00     0.148 A 
ATOM     42  C   UNL A   1      36.791  30.544  28.068  1.00  0.00     0.002 A 
ATOM     43  C   UNL A   1      37.545  29.891  30.257  1.00  0.00     0.091 A 
ATOM     44  F   UNL A   1      39.482  28.593  30.492  1.00  0.00    -0.205 F 
ATOM     45  C   UNL A   1      36.686  30.638  29.450  1.00  0.00     0.022 A 
BRANCH  43  46
ATOM     46  S   UNL A   1      37.331  29.994  32.039  1.00  0.00     0.127 S 
ATOM     47  O   UNL A   1      38.547  30.705  32.437  1.00  0.00    -0.237 OA
ATOM     48  O   UNL A   1      36.097  30.779  32.145  1.00  0.00    -0.237 OA
ATOM     49  O   UNL A   1      37.207  28.623  32.497  1.00  0.00    -0.744 OA
ENDBRANCH  43  46
ENDBRANCH  25  39
BRANCH  26  50
ATOM     50  C   UNL A   1      44.701  26.546  33.750  1.00  0.00     0.023 A 
ATOM     51  C   UNL A   1      45.941  26.837  34.354  1.00  0.00     0.012 A 
ATOM     52  C   UNL A   1      43.585  26.333  34.589  1.00  0.00     0.148 A 
ATOM     53  C   UNL A   1      46.058  26.944  35.745  1.00  0.00     0.002 A 
ATOM     54  C   UNL A   1      43.707  26.433  35.971  1.00  0.00     0.091 A 
ATOM     55  F   UNL A   1      42.386  26.129  34.027  1.00  0.00    -0.205 F 
ATOM     56  C   UNL A   1      44.940  26.750  36.553  1.00  0.00     0.022 A 
BRANCH  54  57
ATOM     57  S   UNL A   1      42.303  26.223  37.073  1.00  0.00     0.127 S 
ATOM     58  O   UNL A   1      42.906  26.472  38.383  1.00  0.00    -0.237 OA
ATOM     59  O   UNL A   1      41.396  27.270  36.608  1.00  0.00    -0.237 OA
ATOM     60  O   UNL A   1      41.843  24.854  36.877  1.00  0.00    -0.744 OA
ENDBRANCH  54  57
ENDBRANCH  26  50
BRANCH  38  61
ATOM     61  C   UNL A   1      45.428  29.408  28.222  1.00  0.00     0.023 A 
ATOM     62  C   UNL A   1      46.348  30.478  28.275  1.00  0.00     0.012 A 
ATOM     63  C   UNL A   1      45.890  28.137  27.842  1.00  0.00     0.148 A 
ATOM     64  C   UNL A   1      47.689  30.289  27.932  1.00  0.00     0.002 A 
ATOM     65  C   UNL A   1      47.235  27.942  27.550  1.00  0.00     0.091 A 
ATOM     66  F   UNL A   1      45.007  27.127  27.802  1.00  0.00    -0.205 F 
ATOM     67  C   UNL A   1      48.135  29.018  27.582  1.00  0.00     0.022 A 
BRANCH  65  68
ATOM     68  S   UNL A   1      47.895  26.306  27.225  1.00  0.00     0.127 S 
ATOM     69  O   UNL A   1      47.467  25.563  28.409  1.00  0.00    -0.237 OA
ATOM     70  O   UNL A   1      47.210  25.930  25.987  1.00  0.00    -0.237 OA
ATOM     71  O   UNL A   1      49.335  26.477  27.077  1.00  0.00    -0.744 OA
ENDBRANCH  65  68
ENDBRANCH  38  61
ENDBRANCH  12  13
ENDBRANCH   5   7
ENDBRANCH   2   3
ENDBRANCH   1   2
BRANCH   1  72
ATOM     72  C   UNL A   1      38.796  21.756  26.079  1.00  0.00     0.023 C 
BRANCH  72  73
ATOM     73  C   UNL A   1      37.703  22.759  25.698  1.00  0.00     0.116 C 
BRANCH  73  74
ATOM     74  N   UNL A   1      37.447  22.776  24.271  1.00  0.00    -0.351 N 
ATOM     75  C   UNL A   1      36.306  22.700  23.529  1.00  0.00     0.283 C 
ATOM     76  H   UNL A   1      38.263  22.861  23.727  1.00  0.00     0.163 HD
ATOM     77  O   UNL A   1      36.507  22.910  22.328  1.00  0.00    -0.268 OA
BRANCH  75  78
ATOM     78  C   UNL A   1      34.889  22.487  24.181  1.00  0.00     0.308 C 
BRANCH  78  79
ATOM     79  N   UNL A   1      34.756  21.448  25.258  1.00  0.00    -0.317 N 
ATOM     80  C   UNL A   1      35.093  20.041  24.957  1.00  0.00     0.292 C 
ATOM     81  C   UNL A   1      33.527  21.448  26.076  1.00  0.00     0.292 C 
ATOM     82  H   UNL A   1      35.524  21.837  25.805  1.00  0.00     0.349 HD
ATOM     83  C   UNL A   1      33.926  19.214  24.386  1.00  0.00     0.221 C 
ATOM     84  C   UNL A   1      32.379  20.637  25.436  1.00  0.00     0.221 C 
ATOM     85  O   UNL A   1      32.781  19.270  25.250  1.00  0.00    -0.370 OA
ENDBRANCH  78  79
BRANCH  78  86
ATOM     86  C   UNL A   1      34.236  23.791  24.554  1.00  0.00     0.057 A 
ATOM     87  C   UNL A   1      34.810  24.890  25.237  1.00  0.00     0.145 A 
ATOM     88  C   UNL A   1      32.955  24.227  24.252  1.00  0.00     0.119 A 
ATOM     89  N   UNL A   1      33.978  25.925  25.342  1.00  0.00    -0.181 NA
ATOM     90  N   UNL A   1      32.857  25.508  24.721  1.00  0.00    -0.268 N 
BRANCH  90  91
ATOM     91  C   UNL A   1      31.769  26.450  24.475  1.00  0.00     0.179 C 
BRANCH  91  92
ATOM     92  C   UNL A   1      31.830  27.660  25.375  1.00  0.00    -0.027 A 
ATOM     93  C   UNL A   1      31.574  27.541  26.749  1.00  0.00     0.005 A 
ATOM     94  C   UNL A   1      32.083  28.934  24.844  1.00  0.00     0.005 A 
ATOM     95  C   UNL A   1      31.585  28.669  27.572  1.00  0.00     0.000 A 
ATOM     96  C   UNL A   1      32.097  30.059  25.668  1.00  0.00     0.000 A 
ATOM     97  C   UNL A   1      31.848  29.927  27.032  1.00  0.00     0.000 A 
ENDBRANCH  91  92
ENDBRANCH  90  91
ENDBRANCH  78  86
ENDBRANCH  75  78
ENDBRANCH  73  74
ENDBRANCH  72  73
ENDBRANCH   1  72
TORSDOF 18
ENDMDL
MODEL 2
REMARK VINA RESULT:     -11.5      1.405      3.810
REMARK SMILES O=C(NCCCCNC(=O)[C@H](c1cnn(Cc2ccccc2)c1)[NH+]1CCOCC1)c1ccc(-c2c3nc(c(-c4cccc(S(=O)(=O)[O-])c4F)c4ccc([nH]4)c(-c4cccc(S(=O)(=O)[O-])c4F)c4nc(c(-c5cccc(S(=O)(=O)[O-])c5F)c5ccc2[nH]5)C=C4)C=C3)cc1
REMARK SMILES IDX 5 1 4 2 3 3 1 4 2 5 30 7 31 8 92 9 32 10 91 11 33 12 34 13
REMARK SMILES IDX 35 14 85 15 36 16 90 17 84 18 86 19 37 20 89 21 83 22 82 23
REMARK SMILES IDX 38 25 70 26 50 27 69 28 51 29 54 30 68 31 87 32 52 33 53 34
REMARK SMILES IDX 67 36 88 37 55 38 39 39 40 40 48 41 41 42 43 43 49 44 42 45
REMARK SMILES IDX 44 46 45 47 46 48 47 49 71 50 72 51 80 52 73 53 75 54 81 55
REMARK SMILES IDX 74 56 76 57 77 58 78 59 79 60 56 61 57 62 65 63 58 64 60 65
REMARK SMILES IDX 66 66 59 67 61 68 62 69 63 70 64 71 6 72 7 73 8 74 9 75
REMARK SMILES IDX 10 77 11 78 24 79 25 80 29 81 26 83 28 84 27 85 12 86 13 87
REMARK SMILES IDX 23 88 14 89 15 90 16 91 17 92 18 93 22 94 19 95 21 96 20 97
REMARK H PARENT 3 6 86 24 54 35 8 76 24 82
REMARK Flexibility Score: inf
ROOT
ATOM      1  C   UNL A   1      38.009  19.915  24.610  1.00  0.00     0.023 C 
ENDROOT
BRANCH   1   2
ATOM      2  C   UNL A   1      38.710  19.360  25.847  1.00  0.00     0.116 C 
BRANCH   2   3
ATOM      3  N   UNL A   1      40.048  18.872  25.596  1.00  0.00    -0.352 N 
ATOM      4  O   UNL A   1      42.237  18.598  25.547  1.00  0.00    -0.269 OA
ATOM      5  C   UNL A   1      41.304  19.332  25.884  1.00  0.00     0.251 C 
ATOM      6  H   UNL A   1      40.058  18.017  25.108  1.00  0.00     0.163 HD
BRANCH   5   7
ATOM      7  C   UNL A   1      41.603  20.649  26.505  1.00  0.00     0.039 A 
ATOM      8  C   UNL A   1      42.219  21.723  25.862  1.00  0.00     0.014 A 
ATOM      9  C   UNL A   1      41.203  20.805  27.845  1.00  0.00     0.014 A 
ATOM     10  C   UNL A   1      42.507  22.892  26.557  1.00  0.00     0.010 A 
ATOM     11  C   UNL A   1      41.464  21.981  28.539  1.00  0.00     0.010 A 
ATOM     12  C   UNL A   1      42.141  23.014  27.899  1.00  0.00    -0.014 A 
BRANCH  12  13
ATOM     13  C   UNL A   1      42.313  24.320  28.530  1.00  0.00     0.031 A 
ATOM     14  C   UNL A   1      41.205  25.285  28.262  1.00  0.00     0.074 A 
ATOM     15  C   UNL A   1      43.299  24.602  29.405  1.00  0.00     0.049 A 
ATOM     16  N   UNL A   1      41.272  26.448  27.697  1.00  0.00    -0.248 NA
ATOM     17  C   UNL A   1      39.834  24.842  28.561  1.00  0.00     0.031 C 
ATOM     18  C   UNL A   1      44.266  23.670  29.991  1.00  0.00     0.029 A 
ATOM     19  N   UNL A   1      43.552  25.769  30.066  1.00  0.00    -0.354 N 
ATOM     20  C   UNL A   1      39.980  26.971  27.761  1.00  0.00     0.074 A 
ATOM     21  C   UNL A   1      39.117  25.889  28.152  1.00  0.00     0.031 C 
ATOM     22  C   UNL A   1      44.819  24.239  31.085  1.00  0.00     0.029 A 
ATOM     23  C   UNL A   1      44.348  25.609  31.195  1.00  0.00     0.049 A 
ATOM     24  H   UNL A   1      43.204  26.642  29.771  1.00  0.00     0.167 HD
ATOM     25  C   UNL A   1      39.735  28.309  27.699  1.00  0.00     0.034 A 
ATOM     26  C   UNL A   1      44.534  26.510  32.192  1.00  0.00     0.034 A 
ATOM     27  C   UNL A   1      40.847  29.035  27.152  1.00  0.00     0.049 A 
ATOM     28  C   UNL A   1      44.152  27.841  31.673  1.00  0.00     0.074 A 
ATOM     29  C   UNL A   1      41.531  29.023  25.953  1.00  0.00     0.029 A 
ATOM     30  N   UNL A   1      41.647  29.717  28.034  1.00  0.00    -0.354 N 
ATOM     31  N   UNL A   1      44.815  28.474  30.747  1.00  0.00    -0.248 NA
ATOM     32  C   UNL A   1      42.796  28.305  31.905  1.00  0.00     0.031 C 
ATOM     33  C   UNL A   1      42.891  29.257  26.307  1.00  0.00     0.029 A 
ATOM     34  C   UNL A   1      42.945  29.451  27.688  1.00  0.00     0.049 A 
ATOM     35  H   UNL A   1      41.345  30.288  28.776  1.00  0.00     0.167 HD
ATOM     36  C   UNL A   1      43.833  29.087  29.983  1.00  0.00     0.074 A 
ATOM     37  C   UNL A   1      42.629  29.049  30.809  1.00  0.00     0.031 C 
ATOM     38  C   UNL A   1      44.018  29.307  28.647  1.00  0.00     0.034 A 
BRANCH  25  39
ATOM     39  C   UNL A   1      38.620  29.009  28.439  1.00  0.00     0.023 A 
ATOM     40  C   UNL A   1      37.781  29.877  27.702  1.00  0.00     0.012 A 
ATOM     41  C   UNL A   1      38.522  29.069  29.849  1.00  0.00     0.148 A 
ATOM     42  C   UNL A   1      36.920  30.781  28.337  1.00  0.00     0.002 A 
ATOM     43  C   UNL A   1      37.604  29.908  30.472  1.00  0.00     0.091 A 
ATOM     44  F   UNL A   1      39.408  28.417  30.606  1.00  0.00    -0.205 F 
ATOM     45  C   UNL A   1      36.822  30.788  29.723  1.00  0.00     0.022 A 
BRANCH  43  46
ATOM     46  S   UNL A   1      37.399  29.906  32.257  1.00  0.00     0.127 S 
ATOM     47  O   UNL A   1      38.648  30.531  32.695  1.00  0.00    -0.237 OA
ATOM     48  O   UNL A   1      36.204  30.740  32.420  1.00  0.00    -0.237 OA
ATOM     49  O   UNL A   1      37.210  28.516  32.627  1.00  0.00    -0.744 OA
ENDBRANCH  43  46
ENDBRANCH  25  39
BRANCH  26  50
ATOM     50  C   UNL A   1      44.763  26.285  33.638  1.00  0.00     0.023 A 
ATOM     51  C   UNL A   1      46.061  26.428  34.172  1.00  0.00     0.012 A 
ATOM     52  C   UNL A   1      43.677  26.215  34.537  1.00  0.00     0.148 A 
ATOM     53  C   UNL A   1      46.264  26.529  35.553  1.00  0.00     0.002 A 
ATOM     54  C   UNL A   1      43.884  26.309  35.910  1.00  0.00     0.091 A 
ATOM     55  F   UNL A   1      42.434  26.154  34.042  1.00  0.00    -0.205 F 
ATOM     56  C   UNL A   1      45.177  26.479  36.422  1.00  0.00     0.022 A 
BRANCH  54  57
ATOM     57  S   UNL A   1      42.527  26.280  37.087  1.00  0.00     0.127 S 
ATOM     58  O   UNL A   1      43.230  26.419  38.363  1.00  0.00    -0.237 OA
ATOM     59  O   UNL A   1      41.753  27.451  36.684  1.00  0.00    -0.237 OA
ATOM     60  O   UNL A   1      41.869  24.992  36.904  1.00  0.00    -0.744 OA
ENDBRANCH  54  57
ENDBRANCH  26  50
BRANCH  38  61
ATOM     61  C   UNL A   1      45.401  29.107  28.079  1.00  0.00     0.023 A 
ATOM     62  C   UNL A   1      46.378  30.126  28.096  1.00  0.00     0.012 A 
ATOM     63  C   UNL A   1      45.777  27.816  27.676  1.00  0.00     0.148 A 
ATOM     64  C   UNL A   1      47.691  29.867  27.695  1.00  0.00     0.002 A 
ATOM     65  C   UNL A   1      47.095  27.550  27.326  1.00  0.00     0.091 A 
ATOM     66  F   UNL A   1      44.840  26.855  27.670  1.00  0.00    -0.205 F 
ATOM     67  C   UNL A   1      48.053  28.575  27.323  1.00  0.00     0.022 A 
BRANCH  65  68
ATOM     68  S   UNL A   1      47.651  25.882  26.969  1.00  0.00     0.127 S 
ATOM     69  O   UNL A   1      47.015  25.617  25.680  1.00  0.00    -0.237 OA
ATOM     70  O   UNL A   1      49.106  26.040  26.912  1.00  0.00    -0.237 OA
ATOM     71  O   UNL A   1      47.188  25.059  28.080  1.00  0.00    -0.744 OA
ENDBRANCH  65  68
ENDBRANCH  38  61
ENDBRANCH  12  13
ENDBRANCH   5   7
ENDBRANCH   2   3
ENDBRANCH   1   2
BRANCH   1  72
ATOM     72  C   UNL A   1      36.781  20.790  24.904  1.00  0.00     0.023 C 
BRANCH  72  73
ATOM     73  C   UNL A   1      37.066  22.287  25.061  1.00  0.00     0.116 C 
BRANCH  73  74
ATOM     74  N   UNL A   1      36.425  23.079  24.029  1.00  0.00    -0.351 N 
ATOM     75  C   UNL A   1      35.121  23.373  23.755  1.00  0.00     0.283 C 
ATOM     76  H   UNL A   1      37.059  23.488  23.398  1.00  0.00     0.163 HD
ATOM     77  O   UNL A   1      35.004  24.221  22.865  1.00  0.00    -0.268 OA
BRANCH  75  78
ATOM     78  C   UNL A   1      33.929  22.768  24.586  1.00  0.00     0.308 C 
BRANCH  78  79
ATOM     79  N   UNL A   1      33.034  23.716  25.332  1.00  0.00    -0.317 N 
ATOM     80  C   UNL A   1      31.897  24.348  24.630  1.00  0.00     0.292 C 
ATOM     81  C   UNL A   1      33.665  24.749  26.179  1.00  0.00     0.292 C 
ATOM     82  H   UNL A   1      32.656  22.979  25.926  1.00  0.00     0.349 HD
ATOM     83  C   UNL A   1      32.244  25.663  23.909  1.00  0.00     0.221 C 
ATOM     84  C   UNL A   1      34.027  26.030  25.395  1.00  0.00     0.221 C 
ATOM     85  O   UNL A   1      32.846  26.604  24.810  1.00  0.00    -0.370 OA
ENDBRANCH  78  79
BRANCH  78  86
ATOM     86  C   UNL A   1      33.155  21.743  23.800  1.00  0.00     0.057 A 
ATOM     87  C   UNL A   1      32.396  21.938  22.621  1.00  0.00     0.145 A 
ATOM     88  C   UNL A   1      33.072  20.377  24.020  1.00  0.00     0.119 A 
ATOM     89  N   UNL A   1      31.896  20.803  22.134  1.00  0.00    -0.181 NA
ATOM     90  N   UNL A   1      32.332  19.859  22.992  1.00  0.00    -0.268 N 
BRANCH  90  91
ATOM     91  C   UNL A   1      32.130  18.447  22.683  1.00  0.00     0.179 C 
BRANCH  91  92
ATOM     92  C   UNL A   1      32.854  17.531  23.639  1.00  0.00    -0.027 A 
ATOM     93  C   UNL A   1      32.272  17.177  24.866  1.00  0.00     0.005 A 
ATOM     94  C   UNL A   1      34.145  17.066  23.347  1.00  0.00     0.005 A 
ATOM     95  C   UNL A   1      32.963  16.369  25.771  1.00  0.00     0.000 A 
ATOM     96  C   UNL A   1      34.832  16.255  24.249  1.00  0.00     0.000 A 
ATOM     97  C   UNL A   1      34.241  15.906  25.461  1.00  0.00     0.000 A 
ENDBRANCH  91  92
ENDBRANCH  90  91
ENDBRANCH  78  86
ENDBRANCH  75  78
ENDBRANCH  73  74
ENDBRANCH  72  73
ENDBRANCH   1  72
TORSDOF 18
ENDMDL
MODEL 3
REMARK VINA RESULT:     -11.4      3.225      8.329
REMARK SMILES O=C(NCCCCNC(=O)[C@H](c1cnn(Cc2ccccc2)c1)[NH+]1CCOCC1)c1ccc(-c2c3nc(c(-c4cccc(S(=O)(=O)[O-])c4F)c4ccc([nH]4)c(-c4cccc(S(=O)(=O)[O-])c4F)c4nc(c(-c5cccc(S(=O)(=O)[O-])c5F)c5ccc2[nH]5)C=C4)C=C3)cc1
REMARK SMILES IDX 5 1 4 2 3 3 1 4 2 5 30 7 31 8 92 9 32 10 91 11 33 12 34 13
REMARK SMILES IDX 35 14 85 15 36 16 90 17 84 18 86 19 37 20 89 21 83 22 82 23
REMARK SMILES IDX 38 25 70 26 50 27 69 28 51 29 54 30 68 31 87 32 52 33 53 34
REMARK SMILES IDX 67 36 88 37 55 38 39 39 40 40 48 41 41 42 43 43 49 44 42 45
REMARK SMILES IDX 44 46 45 47 46 48 47 49 71 50 72 51 80 52 73 53 75 54 81 55
REMARK SMILES IDX 74 56 76 57 77 58 78 59 79 60 56 61 57 62 65 63 58 64 60 65
REMARK SMILES IDX 66 66 59 67 61 68 62 69 63 70 64 71 6 72 7 73 8 74 9 75
REMARK SMILES IDX 10 77 11 78 24 79 25 80 29 81 26 83 28 84 27 85 12 86 13 87
REMARK SMILES IDX 23 88 14 89 15 90 16 91 17 92 18 93 22 94 19 95 21 96 20 97
REMARK H PARENT 3 6 86 24 54 35 8 76 24 82
REMARK Flexibility Score: inf
ROOT
ATOM      1  C   UNL A   1      33.767  29.741  27.435  1.00  0.00     0.023 C 
ENDROOT
BRANCH   1   2
ATOM      2  C   UNL A   1      34.282  31.177  27.475  1.00  0.00     0.116 C 
BRANCH   2   3
ATOM      3  N   UNL A   1      34.277  31.769  28.794  1.00  0.00    -0.352 N 
ATOM      4  O   UNL A   1      34.827  32.465  30.814  1.00  0.00    -0.269 OA
ATOM      5  C   UNL A   1      35.166  31.798  29.833  1.00  0.00     0.251 C 
ATOM      6  H   UNL A   1      33.446  32.261  28.989  1.00  0.00     0.163 HD
BRANCH   5   7
ATOM      7  C   UNL A   1      36.448  31.046  29.873  1.00  0.00     0.039 A 
ATOM      8  C   UNL A   1      36.568  29.661  29.995  1.00  0.00     0.014 A 
ATOM      9  C   UNL A   1      37.619  31.817  29.757  1.00  0.00     0.014 A 
ATOM     10  C   UNL A   1      37.821  29.066  30.083  1.00  0.00     0.010 A 
ATOM     11  C   UNL A   1      38.876  31.226  29.819  1.00  0.00     0.010 A 
ATOM     12  C   UNL A   1      38.974  29.851  30.010  1.00  0.00    -0.014 A 
BRANCH  12  13
ATOM     13  C   UNL A   1      40.258  29.160  29.937  1.00  0.00     0.031 A 
ATOM     14  C   UNL A   1      40.914  28.935  31.261  1.00  0.00     0.074 A 
ATOM     15  C   UNL A   1      40.756  28.628  28.804  1.00  0.00     0.049 A 
ATOM     16  N   UNL A   1      42.072  29.349  31.664  1.00  0.00    -0.248 NA
ATOM     17  C   UNL A   1      40.122  28.260  32.302  1.00  0.00     0.031 C 
ATOM     18  C   UNL A   1      40.087  28.504  27.507  1.00  0.00     0.029 A 
ATOM     19  N   UNL A   1      41.927  27.952  28.615  1.00  0.00    -0.354 N 
ATOM     20  C   UNL A   1      42.242  28.805  32.938  1.00  0.00     0.074 A 
ATOM     21  C   UNL A   1      40.962  28.285  33.337  1.00  0.00     0.031 C 
ATOM     22  C   UNL A   1      40.743  27.591  26.757  1.00  0.00     0.029 A 
ATOM     23  C   UNL A   1      41.940  27.171  27.463  1.00  0.00     0.049 A 
ATOM     24  H   UNL A   1      42.690  28.011  29.235  1.00  0.00     0.167 HD
ATOM     25  C   UNL A   1      43.473  28.624  33.491  1.00  0.00     0.034 A 
ATOM     26  C   UNL A   1      42.826  26.190  27.157  1.00  0.00     0.034 A 
ATOM     27  C   UNL A   1      44.479  29.413  32.836  1.00  0.00     0.049 A 
ATOM     28  C   UNL A   1      44.029  26.394  27.992  1.00  0.00     0.074 A 
ATOM     29  C   UNL A   1      44.682  30.762  32.626  1.00  0.00     0.029 A 
ATOM     30  N   UNL A   1      45.314  28.766  31.962  1.00  0.00    -0.354 N 
ATOM     31  N   UNL A   1      44.842  27.403  27.856  1.00  0.00    -0.248 NA
ATOM     32  C   UNL A   1      44.121  25.679  29.252  1.00  0.00     0.031 C 
ATOM     33  C   UNL A   1      45.248  30.846  31.321  1.00  0.00     0.029 A 
ATOM     34  C   UNL A   1      45.403  29.546  30.839  1.00  0.00     0.049 A 
ATOM     35  H   UNL A   1      45.764  27.904  32.112  1.00  0.00     0.167 HD
ATOM     36  C   UNL A   1      45.206  27.727  29.155  1.00  0.00     0.074 A 
ATOM     37  C   UNL A   1      44.832  26.564  29.955  1.00  0.00     0.031 C 
ATOM     38  C   UNL A   1      45.509  29.014  29.499  1.00  0.00     0.034 A 
BRANCH  25  39
ATOM     39  C   UNL A   1      43.837  27.483  34.411  1.00  0.00     0.023 A 
ATOM     40  C   UNL A   1      44.469  27.798  35.636  1.00  0.00     0.012 A 
ATOM     41  C   UNL A   1      43.838  26.123  34.023  1.00  0.00     0.148 A 
ATOM     42  C   UNL A   1      45.100  26.817  36.412  1.00  0.00     0.002 A 
ATOM     43  C   UNL A   1      44.390  25.141  34.838  1.00  0.00     0.091 A 
ATOM     44  F   UNL A   1      43.425  25.780  32.800  1.00  0.00    -0.205 F 
ATOM     45  C   UNL A   1      45.050  25.486  36.019  1.00  0.00     0.022 A 
BRANCH  43  46
ATOM     46  S   UNL A   1      44.294  23.401  34.401  1.00  0.00     0.127 S 
ATOM     47  O   UNL A   1      45.194  23.340  33.249  1.00  0.00    -0.237 OA
ATOM     48  O   UNL A   1      44.807  22.760  35.617  1.00  0.00    -0.237 OA
ATOM     49  O   UNL A   1      42.892  23.141  34.138  1.00  0.00    -0.744 OA
ENDBRANCH  43  46
ENDBRANCH  25  39
BRANCH  26  50
ATOM     50  C   UNL A   1      42.620  24.936  26.398  1.00  0.00     0.023 A 
ATOM     51  C   UNL A   1      43.552  24.554  25.411  1.00  0.00     0.012 A 
ATOM     52  C   UNL A   1      41.679  23.976  26.831  1.00  0.00     0.148 A 
ATOM     53  C   UNL A   1      43.566  23.252  24.898  1.00  0.00     0.002 A 
ATOM     54  C   UNL A   1      41.692  22.685  26.314  1.00  0.00     0.091 A 
ATOM     55  F   UNL A   1      40.837  24.302  27.820  1.00  0.00    -0.205 F 
ATOM     56  C   UNL A   1      42.642  22.315  25.354  1.00  0.00     0.022 A 
BRANCH  54  57
ATOM     57  S   UNL A   1      40.549  21.417  26.876  1.00  0.00     0.127 S 
ATOM     58  O   UNL A   1      40.821  21.381  28.314  1.00  0.00    -0.237 OA
ATOM     59  O   UNL A   1      39.257  21.993  26.512  1.00  0.00    -0.237 OA
ATOM     60  O   UNL A   1      40.923  20.201  26.166  1.00  0.00    -0.744 OA
ENDBRANCH  54  57
ENDBRANCH  26  50
BRANCH  38  61
ATOM     61  C   UNL A   1      45.692  30.021  28.391  1.00  0.00     0.023 A 
ATOM     62  C   UNL A   1      44.600  30.652  27.757  1.00  0.00     0.012 A 
ATOM     63  C   UNL A   1      46.992  30.468  28.103  1.00  0.00     0.148 A 
ATOM     64  C   UNL A   1      44.803  31.684  26.837  1.00  0.00     0.002 A 
ATOM     65  C   UNL A   1      47.187  31.528  27.227  1.00  0.00     0.091 A 
ATOM     66  F   UNL A   1      48.021  29.864  28.718  1.00  0.00    -0.205 F 
ATOM     67  C   UNL A   1      46.097  32.132  26.583  1.00  0.00     0.022 A 
BRANCH  65  68
ATOM     68  S   UNL A   1      48.814  32.237  26.962  1.00  0.00     0.127 S 
ATOM     69  O   UNL A   1      49.578  31.082  26.494  1.00  0.00    -0.237 OA
ATOM     70  O   UNL A   1      48.553  33.253  25.941  1.00  0.00    -0.237 OA
ATOM     71  O   UNL A   1      49.227  32.783  28.250  1.00  0.00    -0.744 OA
ENDBRANCH  65  68
ENDBRANCH  38  61
ENDBRANCH  12  13
ENDBRANCH   5   7
ENDBRANCH   2   3
ENDBRANCH   1   2
BRANCH   1  72
ATOM     72  C   UNL A   1      32.266  29.602  27.136  1.00  0.00     0.023 C 
BRANCH  72  73
ATOM     73  C   UNL A   1      31.774  30.351  25.895  1.00  0.00     0.116 C 
BRANCH  73  74
ATOM     74  N   UNL A   1      32.388  29.859  24.677  1.00  0.00    -0.351 N 
ATOM     75  C   UNL A   1      31.944  29.052  23.671  1.00  0.00     0.283 C 
ATOM     76  H   UNL A   1      33.313  30.170  24.550  1.00  0.00     0.163 HD
ATOM     77  O   UNL A   1      32.735  28.999  22.723  1.00  0.00    -0.268 OA
BRANCH  75  78
ATOM     78  C   UNL A   1      30.523  28.376  23.697  1.00  0.00     0.308 C 
BRANCH  78  79
ATOM     79  N   UNL A   1      29.580  28.669  22.566  1.00  0.00    -0.317 N 
ATOM     80  C   UNL A   1      29.599  30.003  21.929  1.00  0.00     0.292 C 
ATOM     81  C   UNL A   1      28.167  28.267  22.716  1.00  0.00     0.292 C 
ATOM     82  H   UNL A   1      30.048  28.020  21.934  1.00  0.00     0.349 HD
ATOM     83  C   UNL A   1      28.690  31.045  22.605  1.00  0.00     0.221 C 
ATOM     84  C   UNL A   1      27.312  29.334  23.435  1.00  0.00     0.221 C 
ATOM     85  O   UNL A   1      27.340  30.570  22.702  1.00  0.00    -0.370 OA
ENDBRANCH  78  79
BRANCH  78  86
ATOM     86  C   UNL A   1      30.602  26.906  24.016  1.00  0.00     0.057 A 
ATOM     87  C   UNL A   1      30.182  26.245  25.195  1.00  0.00     0.145 A 
ATOM     88  C   UNL A   1      31.040  25.874  23.201  1.00  0.00     0.119 A 
ATOM     89  N   UNL A   1      30.325  24.922  25.125  1.00  0.00    -0.181 NA
ATOM     90  N   UNL A   1      30.835  24.713  23.895  1.00  0.00    -0.268 N 
BRANCH  90  91
ATOM     91  C   UNL A   1      30.962  23.352  23.383  1.00  0.00     0.179 C 
BRANCH  91  92
ATOM     92  C   UNL A   1      32.276  22.710  23.755  1.00  0.00    -0.027 A 
ATOM     93  C   UNL A   1      32.340  21.343  24.063  1.00  0.00     0.005 A 
ATOM     94  C   UNL A   1      33.444  23.480  23.860  1.00  0.00     0.005 A 
ATOM     95  C   UNL A   1      33.548  20.760  24.454  1.00  0.00     0.000 A 
ATOM     96  C   UNL A   1      34.651  22.895  24.246  1.00  0.00     0.000 A 
ATOM     97  C   UNL A   1      34.703  21.535  24.543  1.00  0.00     0.000 A 
ENDBRANCH  91  92
ENDBRANCH  90  91
ENDBRANCH  78  86
ENDBRANCH  75  78
ENDBRANCH  73  74
ENDBRANCH  72  73
ENDBRANCH   1  72
TORSDOF 18
ENDMDL
