MODEL 1
REMARK VINA RESULT:     -12.7      0.000      0.000
REMARK SMILES O=C(NCCCCNC(=O)[C@H]1C[C@H]2CCCC[C@@H]2[N@@H+]1C1CCS(=O)(=O)CC1)c1ccc(-c2c3nc(c(-c4cccc(S(=O)(=O)[O-])c4F)c4ccc([nH]4)c(-c4cccc(S(=O)(=O)[O-])c4F)c4nc(c(-c5cccc(S(=O)(=O)[O-])c5F)c5ccc2[nH]5)C=C4)C=C3)cc1
REMARK SMILES IDX 4 1 3 2 1 3 2 4 28 6 29 7 90 8 30 9 89 10 31 11 32 12 33 13
REMARK SMILES IDX 83 14 34 15 88 16 82 17 84 18 35 19 87 20 81 21 80 22 36 24
REMARK SMILES IDX 68 25 48 26 67 27 49 28 52 29 66 30 85 31 50 32 51 33 65 35
REMARK SMILES IDX 86 36 53 37 37 38 38 39 46 40 39 41 41 42 47 43 40 44 42 45
REMARK SMILES IDX 43 46 44 47 45 48 69 49 70 50 78 51 71 52 73 53 79 54 72 55
REMARK SMILES IDX 74 56 75 57 76 58 77 59 54 60 55 61 63 62 56 63 58 64 64 65
REMARK SMILES IDX 57 66 59 67 60 68 61 69 62 70 5 71 6 72 7 73 8 74 9 75 10 77
REMARK SMILES IDX 11 78 12 79 19 80 13 81 18 82 14 84 17 85 15 86 16 87 20 88
REMARK SMILES IDX 21 89 27 90 22 91 26 92 23 93 24 94 25 95
REMARK H PARENT 3 5 84 23 52 34 8 76 19 83
REMARK Flexibility Score: inf
ROOT
ATOM      1  C   UNL A   1      32.850  32.481  26.922  1.00  0.00     0.116 C 
ENDROOT
BRANCH   1   2
ATOM      2  N   UNL A   1      32.612  33.808  27.481  1.00  0.00    -0.352 N 
ATOM      3  O   UNL A   1      32.804  35.507  28.958  1.00  0.00    -0.269 OA
ATOM      4  C   UNL A   1      33.231  34.436  28.538  1.00  0.00     0.251 C 
ATOM      5  H   UNL A   1      31.905  34.330  27.036  1.00  0.00     0.163 HD
BRANCH   4   6
ATOM      6  C   UNL A   1      34.390  33.780  29.172  1.00  0.00     0.039 A 
ATOM      7  C   UNL A   1      35.676  34.227  28.866  1.00  0.00     0.014 A 
ATOM      8  C   UNL A   1      34.201  32.684  30.014  1.00  0.00     0.014 A 
ATOM      9  C   UNL A   1      36.769  33.458  29.226  1.00  0.00     0.010 A 
ATOM     10  C   UNL A   1      35.316  31.989  30.493  1.00  0.00     0.010 A 
ATOM     11  C   UNL A   1      36.606  32.354  30.078  1.00  0.00    -0.014 A 
BRANCH  11  12
ATOM     12  C   UNL A   1      37.817  31.706  30.635  1.00  0.00     0.031 A 
ATOM     13  C   UNL A   1      38.588  30.668  29.871  1.00  0.00     0.074 A 
ATOM     14  C   UNL A   1      38.197  32.069  31.878  1.00  0.00     0.049 A 
ATOM     15  N   UNL A   1      39.642  29.993  30.252  1.00  0.00    -0.248 NA
ATOM     16  C   UNL A   1      38.122  30.335  28.515  1.00  0.00     0.031 C 
ATOM     17  C   UNL A   1      37.492  33.042  32.721  1.00  0.00     0.029 A 
ATOM     18  N   UNL A   1      39.248  31.663  32.656  1.00  0.00    -0.354 N 
ATOM     19  C   UNL A   1      39.934  29.118  29.214  1.00  0.00     0.074 A 
ATOM     20  C   UNL A   1      38.957  29.360  28.173  1.00  0.00     0.031 C 
ATOM     21  C   UNL A   1      38.132  33.167  33.888  1.00  0.00     0.029 A 
ATOM     22  C   UNL A   1      39.236  32.219  33.915  1.00  0.00     0.049 A 
ATOM     23  H   UNL A   1      39.941  31.036  32.348  1.00  0.00     0.167 HD
ATOM     24  C   UNL A   1      40.923  28.197  29.148  1.00  0.00     0.034 A 
ATOM     25  C   UNL A   1      39.987  31.955  34.999  1.00  0.00     0.034 A 
ATOM     26  C   UNL A   1      41.905  27.993  30.183  1.00  0.00     0.049 A 
ATOM     27  C   UNL A   1      41.068  30.925  34.886  1.00  0.00     0.074 A 
ATOM     28  C   UNL A   1      43.008  27.158  30.165  1.00  0.00     0.029 A 
ATOM     29  N   UNL A   1      41.886  28.602  31.428  1.00  0.00    -0.354 N 
ATOM     30  N   UNL A   1      41.429  30.225  33.839  1.00  0.00    -0.248 NA
ATOM     31  C   UNL A   1      41.858  30.658  36.094  1.00  0.00     0.031 C 
ATOM     32  C   UNL A   1      43.624  27.221  31.418  1.00  0.00     0.029 A 
ATOM     33  C   UNL A   1      42.932  28.128  32.202  1.00  0.00     0.049 A 
ATOM     34  H   UNL A   1      41.225  29.272  31.720  1.00  0.00     0.167 HD
ATOM     35  C   UNL A   1      42.497  29.443  34.257  1.00  0.00     0.074 A 
ATOM     36  C   UNL A   1      42.749  29.788  35.642  1.00  0.00     0.031 C 
ATOM     37  C   UNL A   1      43.191  28.509  33.566  1.00  0.00     0.034 A 
BRANCH  24  38
ATOM     38  C   UNL A   1      41.022  27.324  27.924  1.00  0.00     0.023 A 
ATOM     39  C   UNL A   1      41.693  27.788  26.777  1.00  0.00     0.012 A 
ATOM     40  C   UNL A   1      40.562  25.991  27.966  1.00  0.00     0.148 A 
ATOM     41  C   UNL A   1      41.895  26.943  25.685  1.00  0.00     0.002 A 
ATOM     42  C   UNL A   1      40.805  25.144  26.893  1.00  0.00     0.091 A 
ATOM     43  F   UNL A   1      39.912  25.576  29.063  1.00  0.00    -0.205 F 
ATOM     44  C   UNL A   1      41.465  25.619  25.748  1.00  0.00     0.022 A 
BRANCH  42  45
ATOM     45  S   UNL A   1      40.364  23.402  26.909  1.00  0.00     0.127 S 
ATOM     46  O   UNL A   1      38.930  23.459  26.626  1.00  0.00    -0.237 OA
ATOM     47  O   UNL A   1      41.180  22.870  25.819  1.00  0.00    -0.237 OA
ATOM     48  O   UNL A   1      40.713  22.909  28.234  1.00  0.00    -0.744 OA
ENDBRANCH  42  45
ENDBRANCH  24  38
BRANCH  25  49
ATOM     49  C   UNL A   1      39.711  32.656  36.283  1.00  0.00     0.023 A 
ATOM     50  C   UNL A   1      40.421  33.826  36.609  1.00  0.00     0.012 A 
ATOM     51  C   UNL A   1      38.729  32.175  37.172  1.00  0.00     0.148 A 
ATOM     52  C   UNL A   1      40.187  34.481  37.817  1.00  0.00     0.002 A 
ATOM     53  C   UNL A   1      38.454  32.870  38.342  1.00  0.00     0.091 A 
ATOM     54  F   UNL A   1      38.071  31.052  36.850  1.00  0.00    -0.205 F 
ATOM     55  C   UNL A   1      39.197  34.011  38.678  1.00  0.00     0.022 A 
BRANCH  53  56
ATOM     56  S   UNL A   1      37.097  32.416  39.426  1.00  0.00     0.127 S 
ATOM     57  O   UNL A   1      37.436  31.038  39.768  1.00  0.00    -0.237 OA
ATOM     58  O   UNL A   1      37.245  33.378  40.519  1.00  0.00    -0.237 OA
ATOM     59  O   UNL A   1      35.888  32.597  38.632  1.00  0.00    -0.744 OA
ENDBRANCH  53  56
ENDBRANCH  25  49
BRANCH  37  60
ATOM     60  C   UNL A   1      44.304  27.802  34.290  1.00  0.00     0.023 A 
ATOM     61  C   UNL A   1      45.597  28.361  34.300  1.00  0.00     0.012 A 
ATOM     62  C   UNL A   1      44.051  26.621  35.014  1.00  0.00     0.148 A 
ATOM     63  C   UNL A   1      46.630  27.740  34.998  1.00  0.00     0.002 A 
ATOM     64  C   UNL A   1      45.073  26.037  35.751  1.00  0.00     0.091 A 
ATOM     65  F   UNL A   1      42.817  26.099  34.975  1.00  0.00    -0.205 F 
ATOM     66  C   UNL A   1      46.365  26.586  35.733  1.00  0.00     0.022 A 
BRANCH  64  67
ATOM     67  S   UNL A   1      44.809  24.606  36.803  1.00  0.00     0.127 S 
ATOM     68  O   UNL A   1      46.144  24.395  37.361  1.00  0.00    -0.237 OA
ATOM     69  O   UNL A   1      43.818  25.105  37.757  1.00  0.00    -0.237 OA
ATOM     70  O   UNL A   1      44.330  23.543  35.929  1.00  0.00    -0.744 OA
ENDBRANCH  64  67
ENDBRANCH  37  60
ENDBRANCH  11  12
ENDBRANCH   4   6
ENDBRANCH   1   2
BRANCH   1  71
ATOM     71  C   UNL A   1      31.615  31.589  26.923  1.00  0.00     0.023 C 
BRANCH  71  72
ATOM     72  C   UNL A   1      31.818  30.189  26.366  1.00  0.00     0.023 C 
BRANCH  72  73
ATOM     73  C   UNL A   1      32.184  29.118  27.376  1.00  0.00     0.116 C 
BRANCH  73  74
ATOM     74  N   UNL A   1      31.412  27.893  27.371  1.00  0.00    -0.351 N 
ATOM     75  C   UNL A   1      31.624  26.752  26.630  1.00  0.00     0.278 C 
ATOM     76  H   UNL A   1      30.635  27.873  27.976  1.00  0.00     0.163 HD
ATOM     77  O   UNL A   1      30.909  25.778  26.894  1.00  0.00    -0.268 OA
BRANCH  75  78
ATOM     78  C   UNL A   1      32.598  26.746  25.402  1.00  0.00     0.275 C 
ATOM     79  C   UNL A   1      34.035  26.295  25.689  1.00  0.00     0.085 C 
ATOM     80  N   UNL A   1      32.121  25.811  24.338  1.00  0.00    -0.320 N 
ATOM     81  C   UNL A   1      34.378  25.271  24.646  1.00  0.00     0.054 C 
ATOM     82  C   UNL A   1      33.021  24.645  24.379  1.00  0.00     0.188 C 
ATOM     83  H   UNL A   1      31.162  25.554  24.571  1.00  0.00     0.349 HD
ATOM     84  C   UNL A   1      35.393  24.239  25.116  1.00  0.00     0.010 C 
ATOM     85  C   UNL A   1      33.159  23.630  23.243  1.00  0.00     0.065 C 
ATOM     86  C   UNL A   1      35.546  23.146  24.066  1.00  0.00     0.001 C 
ATOM     87  C   UNL A   1      34.196  22.558  23.633  1.00  0.00     0.006 C 
BRANCH  80  88
ATOM     88  C   UNL A   1      31.694  26.306  23.025  1.00  0.00     0.186 C 
ATOM     89  C   UNL A   1      30.157  26.394  22.862  1.00  0.00     0.081 C 
ATOM     90  C   UNL A   1      32.380  27.569  22.463  1.00  0.00     0.081 C 
ATOM     91  C   UNL A   1      29.476  27.609  23.465  1.00  0.00     0.143 C 
ATOM     92  C   UNL A   1      31.937  28.891  23.058  1.00  0.00     0.143 C 
ATOM     93  S   UNL A   1      30.184  29.140  22.894  1.00  0.00     0.150 S 
ATOM     94  O   UNL A   1      29.803  30.185  23.818  1.00  0.00    -0.229 OA
ATOM     95  O   UNL A   1      29.896  29.266  21.473  1.00  0.00    -0.229 OA
ENDBRANCH  80  88
ENDBRANCH  75  78
ENDBRANCH  73  74
ENDBRANCH  72  73
ENDBRANCH  71  72
ENDBRANCH   1  71
TORSDOF 15
ENDMDL
MODEL 2
REMARK VINA RESULT:     -12.5      1.367      1.785
REMARK SMILES O=C(NCCCCNC(=O)[C@H]1C[C@H]2CCCC[C@@H]2[N@@H+]1C1CCS(=O)(=O)CC1)c1ccc(-c2c3nc(c(-c4cccc(S(=O)(=O)[O-])c4F)c4ccc([nH]4)c(-c4cccc(S(=O)(=O)[O-])c4F)c4nc(c(-c5cccc(S(=O)(=O)[O-])c5F)c5ccc2[nH]5)C=C4)C=C3)cc1
REMARK SMILES IDX 4 1 3 2 1 3 2 4 28 6 29 7 90 8 30 9 89 10 31 11 32 12 33 13
REMARK SMILES IDX 83 14 34 15 88 16 82 17 84 18 35 19 87 20 81 21 80 22 36 24
REMARK SMILES IDX 68 25 48 26 67 27 49 28 52 29 66 30 85 31 50 32 51 33 65 35
REMARK SMILES IDX 86 36 53 37 37 38 38 39 46 40 39 41 41 42 47 43 40 44 42 45
REMARK SMILES IDX 43 46 44 47 45 48 69 49 70 50 78 51 71 52 73 53 79 54 72 55
REMARK SMILES IDX 74 56 75 57 76 58 77 59 54 60 55 61 63 62 56 63 58 64 64 65
REMARK SMILES IDX 57 66 59 67 60 68 61 69 62 70 5 71 6 72 7 73 8 74 9 75 10 77
REMARK SMILES IDX 11 78 12 79 19 80 13 81 18 82 14 84 17 85 15 86 16 87 20 88
REMARK SMILES IDX 21 89 27 90 22 91 26 92 23 93 24 94 25 95
REMARK H PARENT 3 5 84 23 52 34 8 76 19 83
REMARK Flexibility Score: inf
ROOT
ATOM      1  C   UNL A   1      32.574  30.492  26.253  1.00  0.00     0.116 C 
ENDROOT
BRANCH   1   2
ATOM      2  N   UNL A   1      32.336  31.894  26.584  1.00  0.00    -0.352 N 
ATOM      3  O   UNL A   1      32.628  33.849  27.678  1.00  0.00    -0.269 OA
ATOM      4  C   UNL A   1      33.055  32.732  27.407  1.00  0.00     0.251 C 
ATOM      5  H   UNL A   1      31.547  32.299  26.157  1.00  0.00     0.163 HD
BRANCH   4   6
ATOM      6  C   UNL A   1      34.327  32.246  27.977  1.00  0.00     0.039 A 
ATOM      7  C   UNL A   1      34.373  30.979  28.557  1.00  0.00     0.014 A 
ATOM      8  C   UNL A   1      35.450  33.074  27.992  1.00  0.00     0.014 A 
ATOM      9  C   UNL A   1      35.462  30.622  29.333  1.00  0.00     0.010 A 
ATOM     10  C   UNL A   1      36.603  32.651  28.659  1.00  0.00     0.010 A 
ATOM     11  C   UNL A   1      36.606  31.435  29.359  1.00  0.00    -0.014 A 
BRANCH  11  12
ATOM     12  C   UNL A   1      37.834  30.906  29.999  1.00  0.00     0.031 A 
ATOM     13  C   UNL A   1      38.729  29.918  29.308  1.00  0.00     0.074 A 
ATOM     14  C   UNL A   1      38.114  31.332  31.248  1.00  0.00     0.049 A 
ATOM     15  N   UNL A   1      39.813  29.344  29.764  1.00  0.00    -0.248 NA
ATOM     16  C   UNL A   1      38.369  29.512  27.940  1.00  0.00     0.031 C 
ATOM     17  C   UNL A   1      37.284  32.263  32.022  1.00  0.00     0.029 A 
ATOM     18  N   UNL A   1      39.150  31.036  32.092  1.00  0.00    -0.354 N 
ATOM     19  C   UNL A   1      40.233  28.470  28.770  1.00  0.00     0.074 A 
ATOM     20  C   UNL A   1      39.299  28.602  27.672  1.00  0.00     0.031 C 
ATOM     21  C   UNL A   1      37.847  32.471  33.218  1.00  0.00     0.029 A 
ATOM     22  C   UNL A   1      39.023  31.621  33.332  1.00  0.00     0.049 A 
ATOM     23  H   UNL A   1      39.909  30.462  31.840  1.00  0.00     0.167 HD
ATOM     24  C   UNL A   1      41.298  27.635  28.784  1.00  0.00     0.034 A 
ATOM     25  C   UNL A   1      39.732  31.450  34.461  1.00  0.00     0.034 A 
ATOM     26  C   UNL A   1      42.235  27.542  29.875  1.00  0.00     0.049 A 
ATOM     27  C   UNL A   1      40.900  30.512  34.436  1.00  0.00     0.074 A 
ATOM     28  C   UNL A   1      43.403  26.803  29.940  1.00  0.00     0.029 A 
ATOM     29  N   UNL A   1      42.097  28.179  31.098  1.00  0.00    -0.354 N 
ATOM     30  N   UNL A   1      41.374  29.818  33.431  1.00  0.00    -0.248 NA
ATOM     31  C   UNL A   1      41.642  30.344  35.692  1.00  0.00     0.031 C 
ATOM     32  C   UNL A   1      43.942  26.950  31.221  1.00  0.00     0.029 A 
ATOM     33  C   UNL A   1      43.134  27.815  31.940  1.00  0.00     0.049 A 
ATOM     34  H   UNL A   1      41.368  28.797  31.334  1.00  0.00     0.167 HD
ATOM     35  C   UNL A   1      42.479  29.141  33.929  1.00  0.00     0.074 A 
ATOM     36  C   UNL A   1      42.625  29.541  35.314  1.00  0.00     0.031 C 
ATOM     37  C   UNL A   1      43.286  28.251  33.304  1.00  0.00     0.034 A 
BRANCH  24  38
ATOM     38  C   UNL A   1      41.536  26.742  27.594  1.00  0.00     0.023 A 
ATOM     39  C   UNL A   1      42.199  27.242  26.456  1.00  0.00     0.012 A 
ATOM     40  C   UNL A   1      41.219  25.369  27.664  1.00  0.00     0.148 A 
ATOM     41  C   UNL A   1      42.531  26.392  25.401  1.00  0.00     0.002 A 
ATOM     42  C   UNL A   1      41.592  24.522  26.628  1.00  0.00     0.091 A 
ATOM     43  F   UNL A   1      40.575  24.920  28.750  1.00  0.00    -0.205 F 
ATOM     44  C   UNL A   1      42.242  25.032  25.493  1.00  0.00     0.022 A 
BRANCH  42  45
ATOM     45  S   UNL A   1      41.338  22.744  26.687  1.00  0.00     0.127 S 
ATOM     46  O   UNL A   1      39.878  22.657  26.713  1.00  0.00    -0.237 OA
ATOM     47  O   UNL A   1      41.952  22.306  25.434  1.00  0.00    -0.237 OA
ATOM     48  O   UNL A   1      42.007  22.279  27.894  1.00  0.00    -0.744 OA
ENDBRANCH  42  45
ENDBRANCH  24  38
BRANCH  25  49
ATOM     49  C   UNL A   1      39.329  32.158  35.707  1.00  0.00     0.023 A 
ATOM     50  C   UNL A   1      39.721  33.492  35.913  1.00  0.00     0.012 A 
ATOM     51  C   UNL A   1      38.537  31.515  36.679  1.00  0.00     0.148 A 
ATOM     52  C   UNL A   1      39.368  34.161  37.084  1.00  0.00     0.002 A 
ATOM     53  C   UNL A   1      38.132  32.208  37.812  1.00  0.00     0.091 A 
ATOM     54  F   UNL A   1      38.182  30.238  36.472  1.00  0.00    -0.205 F 
ATOM     55  C   UNL A   1      38.565  33.523  38.028  1.00  0.00     0.022 A 
BRANCH  53  56
ATOM     56  S   UNL A   1      36.978  31.509  38.997  1.00  0.00     0.127 S 
ATOM     57  O   UNL A   1      37.747  31.573  40.236  1.00  0.00    -0.237 OA
ATOM     58  O   UNL A   1      35.856  32.446  38.918  1.00  0.00    -0.237 OA
ATOM     59  O   UNL A   1      36.674  30.172  38.502  1.00  0.00    -0.744 OA
ENDBRANCH  53  56
ENDBRANCH  25  49
BRANCH  37  60
ATOM     60  C   UNL A   1      44.412  27.659  34.106  1.00  0.00     0.023 A 
ATOM     61  C   UNL A   1      45.628  28.361  34.226  1.00  0.00     0.012 A 
ATOM     62  C   UNL A   1      44.240  26.444  34.795  1.00  0.00     0.148 A 
ATOM     63  C   UNL A   1      46.668  27.846  34.997  1.00  0.00     0.002 A 
ATOM     64  C   UNL A   1      45.261  25.964  35.605  1.00  0.00     0.091 A 
ATOM     65  F   UNL A   1      43.080  25.787  34.652  1.00  0.00    -0.205 F 
ATOM     66  C   UNL A   1      46.479  26.655  35.696  1.00  0.00     0.022 A 
BRANCH  64  67
ATOM     67  S   UNL A   1      45.080  24.491  36.617  1.00  0.00     0.127 S 
ATOM     68  O   UNL A   1      46.409  24.375  37.214  1.00  0.00    -0.237 OA
ATOM     69  O   UNL A   1      44.023  24.887  37.548  1.00  0.00    -0.237 OA
ATOM     70  O   UNL A   1      44.716  23.415  35.705  1.00  0.00    -0.744 OA
ENDBRANCH  64  67
ENDBRANCH  37  60
ENDBRANCH  11  12
ENDBRANCH   4   6
ENDBRANCH   1   2
BRANCH   1  71
ATOM     71  C   UNL A   1      31.557  29.540  26.868  1.00  0.00     0.023 C 
BRANCH  71  72
ATOM     72  C   UNL A   1      32.109  28.202  27.333  1.00  0.00     0.023 C 
BRANCH  72  73
ATOM     73  C   UNL A   1      31.907  27.035  26.386  1.00  0.00     0.116 C 
BRANCH  73  74
ATOM     74  N   UNL A   1      31.423  25.789  26.944  1.00  0.00    -0.351 N 
ATOM     75  C   UNL A   1      31.901  24.515  26.732  1.00  0.00     0.278 C 
ATOM     76  H   UNL A   1      30.654  25.862  27.554  1.00  0.00     0.163 HD
ATOM     77  O   UNL A   1      31.411  23.616  27.425  1.00  0.00    -0.268 OA
BRANCH  75  78
ATOM     78  C   UNL A   1      32.885  24.198  25.553  1.00  0.00     0.275 C 
ATOM     79  C   UNL A   1      34.276  23.697  25.959  1.00  0.00     0.085 C 
ATOM     80  N   UNL A   1      32.344  23.119  24.672  1.00  0.00    -0.320 N 
ATOM     81  C   UNL A   1      34.544  22.470  25.137  1.00  0.00     0.054 C 
ATOM     82  C   UNL A   1      33.144  21.914  24.956  1.00  0.00     0.188 C 
ATOM     83  H   UNL A   1      31.365  22.988  24.924  1.00  0.00     0.349 HD
ATOM     84  C   UNL A   1      35.465  21.468  25.821  1.00  0.00     0.010 C 
ATOM     85  C   UNL A   1      33.210  20.694  24.036  1.00  0.00     0.065 C 
ATOM     86  C   UNL A   1      35.538  20.187  25.000  1.00  0.00     0.001 C 
ATOM     87  C   UNL A   1      34.149  19.637  24.649  1.00  0.00     0.006 C 
BRANCH  80  88
ATOM     88  C   UNL A   1      31.974  23.388  23.279  1.00  0.00     0.186 C 
ATOM     89  C   UNL A   1      30.619  24.119  23.123  1.00  0.00     0.081 C 
ATOM     90  C   UNL A   1      33.041  24.000  22.346  1.00  0.00     0.081 C 
ATOM     91  C   UNL A   1      30.628  25.622  23.338  1.00  0.00     0.143 C 
ATOM     92  C   UNL A   1      33.306  25.483  22.517  1.00  0.00     0.143 C 
ATOM     93  S   UNL A   1      31.827  26.450  22.315  1.00  0.00     0.150 S 
ATOM     94  O   UNL A   1      32.079  27.756  22.883  1.00  0.00    -0.229 OA
ATOM     95  O   UNL A   1      31.407  26.313  20.929  1.00  0.00    -0.229 OA
ENDBRANCH  80  88
ENDBRANCH  75  78
ENDBRANCH  73  74
ENDBRANCH  72  73
ENDBRANCH  71  72
ENDBRANCH   1  71
TORSDOF 15
ENDMDL
MODEL 3
REMARK VINA RESULT:     -12.5      5.888     11.175
REMARK SMILES O=C(NCCCCNC(=O)[C@H]1C[C@H]2CCCC[C@@H]2[N@@H+]1C1CCS(=O)(=O)CC1)c1ccc(-c2c3nc(c(-c4cccc(S(=O)(=O)[O-])c4F)c4ccc([nH]4)c(-c4cccc(S(=O)(=O)[O-])c4F)c4nc(c(-c5cccc(S(=O)(=O)[O-])c5F)c5ccc2[nH]5)C=C4)C=C3)cc1
REMARK SMILES IDX 4 1 3 2 1 3 2 4 28 6 29 7 90 8 30 9 89 10 31 11 32 12 33 13
REMARK SMILES IDX 83 14 34 15 88 16 82 17 84 18 35 19 87 20 81 21 80 22 36 24
REMARK SMILES IDX 68 25 48 26 67 27 49 28 52 29 66 30 85 31 50 32 51 33 65 35
REMARK SMILES IDX 86 36 53 37 37 38 38 39 46 40 39 41 41 42 47 43 40 44 42 45
REMARK SMILES IDX 43 46 44 47 45 48 69 49 70 50 78 51 71 52 73 53 79 54 72 55
REMARK SMILES IDX 74 56 75 57 76 58 77 59 54 60 55 61 63 62 56 63 58 64 64 65
REMARK SMILES IDX 57 66 59 67 60 68 61 69 62 70 5 71 6 72 7 73 8 74 9 75 10 77
REMARK SMILES IDX 11 78 12 79 19 80 13 81 18 82 14 84 17 85 15 86 16 87 20 88
REMARK SMILES IDX 21 89 27 90 22 91 26 92 23 93 24 94 25 95
REMARK H PARENT 3 5 84 23 52 34 8 76 19 83
REMARK Flexibility Score: inf
ROOT
ATOM      1  C   UNL A   1      39.225  20.116  26.086  1.00  0.00     0.116 C 
ENDROOT
BRANCH   1   2
ATOM      2  N   UNL A   1      40.377  19.224  25.993  1.00  0.00    -0.352 N 
ATOM      3  O   UNL A   1      42.556  18.656  25.816  1.00  0.00    -0.269 OA
ATOM      4  C   UNL A   1      41.720  19.521  26.053  1.00  0.00     0.251 C 
ATOM      5  H   UNL A   1      40.161  18.271  25.869  1.00  0.00     0.163 HD
BRANCH   4   6
ATOM      6  C   UNL A   1      42.127  20.903  26.373  1.00  0.00     0.039 A 
ATOM      7  C   UNL A   1      42.323  21.263  27.706  1.00  0.00     0.014 A 
ATOM      8  C   UNL A   1      42.248  21.851  25.356  1.00  0.00     0.014 A 
ATOM      9  C   UNL A   1      42.429  22.602  28.043  1.00  0.00     0.010 A 
ATOM     10  C   UNL A   1      42.496  23.185  25.692  1.00  0.00     0.010 A 
ATOM     11  C   UNL A   1      42.560  23.574  27.039  1.00  0.00    -0.014 A 
BRANCH  11  12
ATOM     12  C   UNL A   1      42.915  24.957  27.436  1.00  0.00     0.031 A 
ATOM     13  C   UNL A   1      41.921  25.881  28.079  1.00  0.00     0.074 A 
ATOM     14  C   UNL A   1      44.173  25.371  27.177  1.00  0.00     0.049 A 
ATOM     15  N   UNL A   1      42.086  27.127  28.442  1.00  0.00    -0.248 NA
ATOM     16  C   UNL A   1      40.573  25.353  28.345  1.00  0.00     0.031 C 
ATOM     17  C   UNL A   1      45.204  24.561  26.518  1.00  0.00     0.029 A 
ATOM     18  N   UNL A   1      44.797  26.566  27.415  1.00  0.00    -0.354 N 
ATOM     19  C   UNL A   1      40.854  27.552  28.925  1.00  0.00     0.074 A 
ATOM     20  C   UNL A   1      39.953  26.424  28.829  1.00  0.00     0.031 C 
ATOM     21  C   UNL A   1      46.331  25.273  26.416  1.00  0.00     0.029 A 
ATOM     22  C   UNL A   1      46.079  26.617  26.915  1.00  0.00     0.049 A 
ATOM     23  H   UNL A   1      44.373  27.314  27.894  1.00  0.00     0.167 HD
ATOM     24  C   UNL A   1      40.517  28.775  29.397  1.00  0.00     0.034 A 
ATOM     25  C   UNL A   1      46.939  27.643  26.808  1.00  0.00     0.034 A 
ATOM     26  C   UNL A   1      41.438  29.877  29.513  1.00  0.00     0.049 A 
ATOM     27  C   UNL A   1      46.525  28.982  27.337  1.00  0.00     0.074 A 
ATOM     28  C   UNL A   1      41.218  31.122  30.075  1.00  0.00     0.029 A 
ATOM     29  N   UNL A   1      42.739  29.879  29.034  1.00  0.00    -0.354 N 
ATOM     30  N   UNL A   1      45.411  29.318  27.938  1.00  0.00    -0.248 NA
ATOM     31  C   UNL A   1      47.489  30.080  27.191  1.00  0.00     0.031 C 
ATOM     32  C   UNL A   1      42.367  31.895  29.887  1.00  0.00     0.029 A 
ATOM     33  C   UNL A   1      43.318  31.119  29.247  1.00  0.00     0.049 A 
ATOM     34  H   UNL A   1      43.184  29.114  28.603  1.00  0.00     0.167 HD
ATOM     35  C   UNL A   1      45.543  30.663  28.255  1.00  0.00     0.074 A 
ATOM     36  C   UNL A   1      46.863  31.067  27.815  1.00  0.00     0.031 C 
ATOM     37  C   UNL A   1      44.646  31.494  28.836  1.00  0.00     0.034 A 
BRANCH  24  38
ATOM     38  C   UNL A   1      39.096  29.017  29.834  1.00  0.00     0.023 A 
ATOM     39  C   UNL A   1      38.692  28.688  31.142  1.00  0.00     0.012 A 
ATOM     40  C   UNL A   1      38.199  29.697  28.982  1.00  0.00     0.148 A 
ATOM     41  C   UNL A   1      37.414  29.021  31.593  1.00  0.00     0.002 A 
ATOM     42  C   UNL A   1      36.944  30.062  29.453  1.00  0.00     0.091 A 
ATOM     43  F   UNL A   1      38.600  29.985  27.736  1.00  0.00    -0.205 F 
ATOM     44  C   UNL A   1      36.547  29.719  30.755  1.00  0.00     0.022 A 
BRANCH  42  45
ATOM     45  S   UNL A   1      35.786  31.033  28.481  1.00  0.00     0.127 S 
ATOM     46  O   UNL A   1      35.252  30.025  27.566  1.00  0.00    -0.237 OA
ATOM     47  O   UNL A   1      34.843  31.493  29.500  1.00  0.00    -0.237 OA
ATOM     48  O   UNL A   1      36.570  32.087  27.852  1.00  0.00    -0.744 OA
ENDBRANCH  42  45
ENDBRANCH  24  38
BRANCH  25  49
ATOM     49  C   UNL A   1      48.256  27.444  26.144  1.00  0.00     0.023 A 
ATOM     50  C   UNL A   1      49.382  27.093  26.910  1.00  0.00     0.012 A 
ATOM     51  C   UNL A   1      48.389  27.579  24.747  1.00  0.00     0.148 A 
ATOM     52  C   UNL A   1      50.626  26.922  26.303  1.00  0.00     0.002 A 
ATOM     53  C   UNL A   1      49.615  27.342  24.141  1.00  0.00     0.091 A 
ATOM     54  F   UNL A   1      47.308  27.925  24.034  1.00  0.00    -0.205 F 
ATOM     55  C   UNL A   1      50.741  27.035  24.919  1.00  0.00     0.022 A 
BRANCH  53  56
ATOM     56  S   UNL A   1      49.810  27.319  22.356  1.00  0.00     0.127 S 
ATOM     57  O   UNL A   1      51.216  26.953  22.214  1.00  0.00    -0.237 OA
ATOM     58  O   UNL A   1      48.858  26.281  21.959  1.00  0.00    -0.237 OA
ATOM     59  O   UNL A   1      49.451  28.659  21.909  1.00  0.00    -0.744 OA
ENDBRANCH  53  56
ENDBRANCH  25  49
BRANCH  37  60
ATOM     60  C   UNL A   1      45.066  32.922  29.047  1.00  0.00     0.023 A 
ATOM     61  C   UNL A   1      45.724  33.289  30.238  1.00  0.00     0.012 A 
ATOM     62  C   UNL A   1      44.869  33.884  28.037  1.00  0.00     0.148 A 
ATOM     63  C   UNL A   1      46.154  34.600  30.433  1.00  0.00     0.002 A 
ATOM     64  C   UNL A   1      45.349  35.175  28.217  1.00  0.00     0.091 A 
ATOM     65  F   UNL A   1      44.226  33.515  26.920  1.00  0.00    -0.205 F 
ATOM     66  C   UNL A   1      45.978  35.538  29.418  1.00  0.00     0.022 A 
BRANCH  64  67
ATOM     67  S   UNL A   1      45.255  36.428  26.934  1.00  0.00     0.127 S 
ATOM     68  O   UNL A   1      46.022  35.808  25.855  1.00  0.00    -0.237 OA
ATOM     69  O   UNL A   1      43.814  36.510  26.691  1.00  0.00    -0.237 OA
ATOM     70  O   UNL A   1      45.846  37.633  27.500  1.00  0.00    -0.744 OA
ENDBRANCH  64  67
ENDBRANCH  37  60
ENDBRANCH  11  12
ENDBRANCH   4   6
ENDBRANCH   1   2
BRANCH   1  71
ATOM     71  C   UNL A   1      38.213  19.924  24.964  1.00  0.00     0.023 C 
BRANCH  71  72
ATOM     72  C   UNL A   1      37.017  20.862  24.993  1.00  0.00     0.023 C 
BRANCH  72  73
ATOM     73  C   UNL A   1      37.254  22.259  24.451  1.00  0.00     0.116 C 
BRANCH  73  74
ATOM     74  N   UNL A   1      36.408  22.716  23.368  1.00  0.00    -0.351 N 
ATOM     75  C   UNL A   1      35.230  23.425  23.446  1.00  0.00     0.278 C 
ATOM     76  H   UNL A   1      36.714  22.491  22.460  1.00  0.00     0.163 HD
ATOM     77  O   UNL A   1      34.750  23.822  22.378  1.00  0.00    -0.268 OA
BRANCH  75  78
ATOM     78  C   UNL A   1      34.449  23.566  24.799  1.00  0.00     0.275 C 
ATOM     79  C   UNL A   1      34.751  24.827  25.617  1.00  0.00     0.085 C 
ATOM     80  N   UNL A   1      32.974  23.616  24.569  1.00  0.00    -0.320 N 
ATOM     81  C   UNL A   1      33.424  25.422  25.987  1.00  0.00     0.054 C 
ATOM     82  C   UNL A   1      32.566  25.012  24.804  1.00  0.00     0.188 C 
ATOM     83  H   UNL A   1      32.810  23.335  23.602  1.00  0.00     0.349 HD
ATOM     84  C   UNL A   1      33.462  26.935  26.160  1.00  0.00     0.010 C 
ATOM     85  C   UNL A   1      31.124  25.451  25.062  1.00  0.00     0.065 C 
ATOM     86  C   UNL A   1      32.049  27.469  26.358  1.00  0.00     0.001 C 
ATOM     87  C   UNL A   1      31.080  26.977  25.275  1.00  0.00     0.006 C 
BRANCH  80  88
ATOM     88  C   UNL A   1      32.092  22.549  25.054  1.00  0.00     0.186 C 
ATOM     89  C   UNL A   1      31.615  21.582  23.944  1.00  0.00     0.081 C 
ATOM     90  C   UNL A   1      32.513  21.772  26.318  1.00  0.00     0.081 C 
ATOM     91  C   UNL A   1      32.587  20.493  23.525  1.00  0.00     0.143 C 
ATOM     92  C   UNL A   1      33.599  20.730  26.130  1.00  0.00     0.143 C 
ATOM     93  S   UNL A   1      33.154  19.520  24.904  1.00  0.00     0.150 S 
ATOM     94  O   UNL A   1      34.365  18.837  24.507  1.00  0.00    -0.229 OA
ATOM     95  O   UNL A   1      32.019  18.773  25.426  1.00  0.00    -0.229 OA
ENDBRANCH  80  88
ENDBRANCH  75  78
ENDBRANCH  73  74
ENDBRANCH  72  73
ENDBRANCH  71  72
ENDBRANCH   1  71
TORSDOF 15
ENDMDL
