MODEL 1
REMARK VINA RESULT:     -12.5      0.000      0.000
REMARK SMILES CCC1(C(=O)NCCCCNC(=O)c2ccc(-c3c4nc(c(-c5cccc(S(=O)(=O)[O-])c5F)c5ccc([nH]5)c(-c5cccc(S(=O)(=O)[O-])c5F)c5nc(c(-c6cccc(S(=O)(=O)[O-])c6F)c6ccc3[nH]6)C=C5)C=C4)cc2)CCN(c2ncnc3c2CCCC3)CC1
REMARK SMILES IDX 9 1 8 2 7 3 6 4 4 5 5 6 3 8 77 9 91 10 78 11 90 12 79 13
REMARK SMILES IDX 2 14 1 15 80 16 81 17 85 18 82 19 84 20 86 21 83 22 89 23
REMARK SMILES IDX 87 24 88 25 10 26 11 27 12 28 13 30 14 31 15 32 76 33 16 34
REMARK SMILES IDX 75 35 17 36 18 37 19 38 69 39 20 40 74 41 68 42 70 43 21 44
REMARK SMILES IDX 73 45 67 46 66 47 22 49 54 50 34 51 53 52 35 53 38 54 52 55
REMARK SMILES IDX 71 56 36 57 37 58 51 60 72 61 39 62 23 63 24 64 32 65 25 66
REMARK SMILES IDX 27 67 33 68 26 69 28 70 29 71 30 72 31 73 55 74 56 75 64 76
REMARK SMILES IDX 57 77 59 78 65 79 58 80 60 81 61 82 62 83 63 84 40 85 41 86
REMARK SMILES IDX 49 87 42 88 44 89 50 90 43 91 45 92 46 93 47 94 48 95
REMARK H PARENT 6 7 11 29 70 48 38 59
REMARK Flexibility Score: inf
ROOT
ATOM      1  C   UNL A   1      37.839  19.622  24.940  1.00  0.00     0.023 C 
ENDROOT
BRANCH   1   2
ATOM      2  C   UNL A   1      36.413  20.154  24.921  1.00  0.00     0.023 C 
BRANCH   2   3
ATOM      3  C   UNL A   1      36.226  21.591  25.413  1.00  0.00     0.116 C 
BRANCH   3   4
ATOM      4  N   UNL A   1      35.304  21.714  26.526  1.00  0.00    -0.356 N 
ATOM      5  C   UNL A   1      33.996  22.112  26.586  1.00  0.00     0.226 C 
ATOM      6  O   UNL A   1      33.434  21.949  27.673  1.00  0.00    -0.274 OA
ATOM      7  H   UNL A   1      35.689  21.465  27.397  1.00  0.00     0.163 HD
BRANCH   5   8
ATOM      8  C   UNL A   1      33.220  22.683  25.359  1.00  0.00     0.052 C 
ATOM      9  C   UNL A   1      31.777  23.098  25.795  1.00  0.00     0.038 C 
ATOM     10  C   UNL A   1      34.054  23.860  24.771  1.00  0.00     0.038 C 
ATOM     11  C   UNL A   1      31.118  24.144  24.893  1.00  0.00     0.119 C 
ATOM     12  C   UNL A   1      33.245  24.807  23.889  1.00  0.00     0.119 C 
ATOM     13  N   UNL A   1      32.082  25.208  24.659  1.00  0.00    -0.356 N 
BRANCH   8  14
ATOM     14  C   UNL A   1      33.010  21.531  24.305  1.00  0.00     0.013 C 
ATOM     15  C   UNL A   1      32.388  20.230  24.797  1.00  0.00     0.005 C 
ENDBRANCH   8  14
BRANCH  13  16
ATOM     16  C   UNL A   1      31.567  26.473  24.403  1.00  0.00     0.135 A 
ATOM     17  N   UNL A   1      30.769  26.644  23.339  1.00  0.00    -0.219 NA
ATOM     18  C   UNL A   1      31.926  27.534  25.237  1.00  0.00     0.016 A 
ATOM     19  C   UNL A   1      30.314  27.889  23.136  1.00  0.00     0.224 A 
ATOM     20  C   UNL A   1      31.385  28.775  24.941  1.00  0.00     0.049 A 
ATOM     21  C   UNL A   1      32.850  27.333  26.403  1.00  0.00     0.041 C 
ATOM     22  N   UNL A   1      30.576  28.972  23.882  1.00  0.00    -0.241 NA
ATOM     23  C   UNL A   1      31.742  29.993  25.757  1.00  0.00     0.057 C 
ATOM     24  C   UNL A   1      33.333  28.610  27.085  1.00  0.00     0.005 C 
ATOM     25  C   UNL A   1      32.223  29.643  27.164  1.00  0.00     0.007 C 
ENDBRANCH  13  16
ENDBRANCH   5   8
ENDBRANCH   3   4
ENDBRANCH   2   3
ENDBRANCH   1   2
BRANCH   1  26
ATOM     26  C   UNL A   1      38.863  20.486  25.666  1.00  0.00     0.116 C 
BRANCH  26  27
ATOM     27  N   UNL A   1      40.054  19.765  26.107  1.00  0.00    -0.352 N 
ATOM     28  C   UNL A   1      41.161  20.260  26.763  1.00  0.00     0.251 C 
ATOM     29  H   UNL A   1      40.068  18.801  25.910  1.00  0.00     0.163 HD
ATOM     30  O   UNL A   1      42.127  19.538  26.995  1.00  0.00    -0.269 OA
BRANCH  28  31
ATOM     31  C   UNL A   1      41.174  21.685  27.149  1.00  0.00     0.039 A 
ATOM     32  C   UNL A   1      41.753  22.066  28.362  1.00  0.00     0.014 A 
ATOM     33  C   UNL A   1      40.716  22.645  26.245  1.00  0.00     0.014 A 
ATOM     34  C   UNL A   1      41.975  23.423  28.618  1.00  0.00     0.010 A 
ATOM     35  C   UNL A   1      41.020  23.980  26.462  1.00  0.00     0.010 A 
ATOM     36  C   UNL A   1      41.664  24.384  27.643  1.00  0.00    -0.014 A 
BRANCH  36  37
ATOM     37  C   UNL A   1      42.018  25.819  27.793  1.00  0.00     0.031 A 
ATOM     38  C   UNL A   1      43.397  26.282  27.410  1.00  0.00     0.074 A 
ATOM     39  C   UNL A   1      41.170  26.657  28.422  1.00  0.00     0.049 A 
ATOM     40  N   UNL A   1      43.978  27.428  27.649  1.00  0.00    -0.248 NA
ATOM     41  C   UNL A   1      44.252  25.309  26.710  1.00  0.00     0.031 C 
ATOM     42  C   UNL A   1      39.837  26.304  28.919  1.00  0.00     0.029 A 
ATOM     43  N   UNL A   1      41.322  27.971  28.794  1.00  0.00    -0.354 N 
ATOM     44  C   UNL A   1      45.280  27.293  27.185  1.00  0.00     0.074 A 
ATOM     45  C   UNL A   1      45.413  25.946  26.676  1.00  0.00     0.031 C 
ATOM     46  C   UNL A   1      39.298  27.370  29.534  1.00  0.00     0.029 A 
ATOM     47  C   UNL A   1      40.256  28.470  29.509  1.00  0.00     0.049 A 
ATOM     48  H   UNL A   1      42.118  28.505  28.571  1.00  0.00     0.167 HD
ATOM     49  C   UNL A   1      46.270  28.216  27.156  1.00  0.00     0.034 A 
ATOM     50  C   UNL A   1      40.078  29.673  30.092  1.00  0.00     0.034 A 
ATOM     51  C   UNL A   1      46.108  29.575  27.590  1.00  0.00     0.049 A 
ATOM     52  C   UNL A   1      41.166  30.707  29.977  1.00  0.00     0.074 A 
ATOM     53  C   UNL A   1      47.011  30.620  27.502  1.00  0.00     0.029 A 
ATOM     54  N   UNL A   1      44.964  30.082  28.187  1.00  0.00    -0.354 N 
ATOM     55  N   UNL A   1      42.337  30.609  29.396  1.00  0.00    -0.248 NA
ATOM     56  C   UNL A   1      40.898  32.027  30.567  1.00  0.00     0.031 C 
ATOM     57  C   UNL A   1      46.413  31.759  28.050  1.00  0.00     0.029 A 
ATOM     58  C   UNL A   1      45.134  31.425  28.470  1.00  0.00     0.049 A 
ATOM     59  H   UNL A   1      44.150  29.563  28.381  1.00  0.00     0.167 HD
ATOM     60  C   UNL A   1      42.928  31.861  29.515  1.00  0.00     0.074 A 
ATOM     61  C   UNL A   1      41.982  32.706  30.214  1.00  0.00     0.031 C 
ATOM     62  C   UNL A   1      44.152  32.269  29.099  1.00  0.00     0.034 A 
BRANCH  49  63
ATOM     63  C   UNL A   1      47.595  27.806  26.571  1.00  0.00     0.023 A 
ATOM     64  C   UNL A   1      48.646  27.434  27.433  1.00  0.00     0.012 A 
ATOM     65  C   UNL A   1      47.786  27.739  25.178  1.00  0.00     0.148 A 
ATOM     66  C   UNL A   1      49.879  27.038  26.920  1.00  0.00     0.002 A 
ATOM     67  C   UNL A   1      49.005  27.300  24.673  1.00  0.00     0.091 A 
ATOM     68  F   UNL A   1      46.784  28.119  24.373  1.00  0.00    -0.205 F 
ATOM     69  C   UNL A   1      50.055  26.960  25.542  1.00  0.00     0.022 A 
BRANCH  67  70
ATOM     70  S   UNL A   1      49.304  27.092  22.914  1.00  0.00     0.127 S 
ATOM     71  O   UNL A   1      48.902  28.398  22.391  1.00  0.00    -0.237 OA
ATOM     72  O   UNL A   1      50.743  26.835  22.871  1.00  0.00    -0.237 OA
ATOM     73  O   UNL A   1      48.476  25.968  22.499  1.00  0.00    -0.744 OA
ENDBRANCH  67  70
ENDBRANCH  49  63
BRANCH  50  74
ATOM     74  C   UNL A   1      38.786  29.989  30.766  1.00  0.00     0.023 A 
ATOM     75  C   UNL A   1      38.562  29.510  32.072  1.00  0.00     0.012 A 
ATOM     76  C   UNL A   1      37.801  30.784  30.149  1.00  0.00     0.148 A 
ATOM     77  C   UNL A   1      37.371  29.793  32.741  1.00  0.00     0.002 A 
ATOM     78  C   UNL A   1      36.638  31.105  30.840  1.00  0.00     0.091 A 
ATOM     79  F   UNL A   1      38.025  31.219  28.901  1.00  0.00    -0.205 F 
ATOM     80  C   UNL A   1      36.414  30.599  32.130  1.00  0.00     0.022 A 
BRANCH  78  81
ATOM     81  S   UNL A   1      35.413  32.244  30.182  1.00  0.00     0.127 S 
ATOM     82  O   UNL A   1      34.915  31.512  29.021  1.00  0.00    -0.237 OA
ATOM     83  O   UNL A   1      34.468  32.351  31.295  1.00  0.00    -0.237 OA
ATOM     84  O   UNL A   1      36.141  33.474  29.897  1.00  0.00    -0.744 OA
ENDBRANCH  78  81
ENDBRANCH  50  74
BRANCH  62  85
ATOM     85  C   UNL A   1      44.536  33.705  29.336  1.00  0.00     0.023 A 
ATOM     86  C   UNL A   1      45.146  34.070  30.551  1.00  0.00     0.012 A 
ATOM     87  C   UNL A   1      44.397  34.661  28.311  1.00  0.00     0.148 A 
ATOM     88  C   UNL A   1      45.600  35.373  30.748  1.00  0.00     0.002 A 
ATOM     89  C   UNL A   1      44.890  35.945  28.498  1.00  0.00     0.091 A 
ATOM     90  F   UNL A   1      43.796  34.291  27.170  1.00  0.00    -0.205 F 
ATOM     91  C   UNL A   1      45.486  36.305  29.718  1.00  0.00     0.022 A 
BRANCH  89  92
ATOM     92  S   UNL A   1      44.874  37.183  27.196  1.00  0.00     0.127 S 
ATOM     93  O   UNL A   1      45.375  38.362  27.901  1.00  0.00    -0.237 OA
ATOM     94  O   UNL A   1      45.803  36.617  26.217  1.00  0.00    -0.237 OA
ATOM     95  O   UNL A   1      43.493  37.268  26.740  1.00  0.00    -0.744 OA
ENDBRANCH  89  92
ENDBRANCH  62  85
ENDBRANCH  36  37
ENDBRANCH  28  31
ENDBRANCH  26  27
ENDBRANCH   1  26
TORSDOF 16
ENDMDL
MODEL 2
REMARK VINA RESULT:     -12.4      1.132      7.660
REMARK SMILES CCC1(C(=O)NCCCCNC(=O)c2ccc(-c3c4nc(c(-c5cccc(S(=O)(=O)[O-])c5F)c5ccc([nH]5)c(-c5cccc(S(=O)(=O)[O-])c5F)c5nc(c(-c6cccc(S(=O)(=O)[O-])c6F)c6ccc3[nH]6)C=C5)C=C4)cc2)CCN(c2ncnc3c2CCCC3)CC1
REMARK SMILES IDX 9 1 8 2 7 3 6 4 4 5 5 6 3 8 77 9 91 10 78 11 90 12 79 13
REMARK SMILES IDX 2 14 1 15 80 16 81 17 85 18 82 19 84 20 86 21 83 22 89 23
REMARK SMILES IDX 87 24 88 25 10 26 11 27 12 28 13 30 14 31 15 32 76 33 16 34
REMARK SMILES IDX 75 35 17 36 18 37 19 38 69 39 20 40 74 41 68 42 70 43 21 44
REMARK SMILES IDX 73 45 67 46 66 47 22 49 54 50 34 51 53 52 35 53 38 54 52 55
REMARK SMILES IDX 71 56 36 57 37 58 51 60 72 61 39 62 23 63 24 64 32 65 25 66
REMARK SMILES IDX 27 67 33 68 26 69 28 70 29 71 30 72 31 73 55 74 56 75 64 76
REMARK SMILES IDX 57 77 59 78 65 79 58 80 60 81 61 82 62 83 63 84 40 85 41 86
REMARK SMILES IDX 49 87 42 88 44 89 50 90 43 91 45 92 46 93 47 94 48 95
REMARK H PARENT 6 7 11 29 70 48 38 59
REMARK Flexibility Score: inf
ROOT
ATOM      1  C   UNL A   1      36.482  21.415  24.446  1.00  0.00     0.023 C 
ENDROOT
BRANCH   1   2
ATOM      2  C   UNL A   1      36.579  22.605  23.500  1.00  0.00     0.023 C 
BRANCH   2   3
ATOM      3  C   UNL A   1      35.257  23.289  23.145  1.00  0.00     0.116 C 
BRANCH   3   4
ATOM      4  N   UNL A   1      34.083  22.542  23.554  1.00  0.00    -0.356 N 
ATOM      5  C   UNL A   1      33.160  22.765  24.540  1.00  0.00     0.226 C 
ATOM      6  O   UNL A   1      32.173  22.022  24.530  1.00  0.00    -0.274 OA
ATOM      7  H   UNL A   1      33.920  21.727  23.027  1.00  0.00     0.163 HD
BRANCH   5   8
ATOM      8  C   UNL A   1      33.289  23.912  25.588  1.00  0.00     0.052 C 
ATOM      9  C   UNL A   1      34.215  25.040  25.026  1.00  0.00     0.038 C 
ATOM     10  C   UNL A   1      31.853  24.404  25.937  1.00  0.00     0.038 C 
ATOM     11  C   UNL A   1      33.997  26.415  25.660  1.00  0.00     0.119 C 
ATOM     12  C   UNL A   1      31.815  25.793  26.568  1.00  0.00     0.119 C 
ATOM     13  N   UNL A   1      32.566  26.674  25.692  1.00  0.00    -0.356 N 
BRANCH   8  14
ATOM     14  C   UNL A   1      34.044  23.362  26.858  1.00  0.00     0.013 C 
ATOM     15  C   UNL A   1      33.937  21.872  27.151  1.00  0.00     0.005 C 
ENDBRANCH   8  14
BRANCH  13  16
ATOM     16  C   UNL A   1      32.170  28.005  25.653  1.00  0.00     0.135 A 
ATOM     17  N   UNL A   1      32.665  28.855  26.566  1.00  0.00    -0.219 NA
ATOM     18  C   UNL A   1      31.243  28.411  24.691  1.00  0.00     0.016 A 
ATOM     19  C   UNL A   1      32.236  30.122  26.487  1.00  0.00     0.224 A 
ATOM     20  C   UNL A   1      30.882  29.749  24.693  1.00  0.00     0.049 A 
ATOM     21  C   UNL A   1      30.671  27.439  23.699  1.00  0.00     0.041 C 
ATOM     22  N   UNL A   1      31.369  30.623  25.595  1.00  0.00    -0.241 NA
ATOM     23  C   UNL A   1      29.858  30.278  23.719  1.00  0.00     0.057 C 
ATOM     24  C   UNL A   1      29.509  27.966  22.862  1.00  0.00     0.005 C 
ATOM     25  C   UNL A   1      29.730  29.415  22.467  1.00  0.00     0.007 C 
ENDBRANCH  13  16
ENDBRANCH   5   8
ENDBRANCH   3   4
ENDBRANCH   2   3
ENDBRANCH   1   2
BRANCH   1  26
ATOM     26  C   UNL A   1      37.366  21.476  25.685  1.00  0.00     0.116 C 
BRANCH  26  27
ATOM     27  N   UNL A   1      38.457  20.506  25.694  1.00  0.00    -0.352 N 
ATOM     28  C   UNL A   1      39.743  20.666  26.163  1.00  0.00     0.251 C 
ATOM     29  H   UNL A   1      38.246  19.622  25.315  1.00  0.00     0.163 HD
ATOM     30  O   UNL A   1      40.577  19.776  26.024  1.00  0.00    -0.269 OA
BRANCH  28  31
ATOM     31  C   UNL A   1      40.105  21.945  26.807  1.00  0.00     0.039 A 
ATOM     32  C   UNL A   1      41.002  21.950  27.877  1.00  0.00     0.014 A 
ATOM     33  C   UNL A   1      39.640  23.143  26.260  1.00  0.00     0.014 A 
ATOM     34  C   UNL A   1      41.522  23.167  28.329  1.00  0.00     0.010 A 
ATOM     35  C   UNL A   1      40.225  24.338  26.650  1.00  0.00     0.010 A 
ATOM     36  C   UNL A   1      41.182  24.364  27.678  1.00  0.00    -0.014 A 
BRANCH  36  37
ATOM     37  C   UNL A   1      41.819  25.664  28.011  1.00  0.00     0.031 A 
ATOM     38  C   UNL A   1      41.010  26.725  28.707  1.00  0.00     0.074 A 
ATOM     39  C   UNL A   1      43.051  25.947  27.544  1.00  0.00     0.049 A 
ATOM     40  N   UNL A   1      41.296  27.984  28.903  1.00  0.00    -0.248 NA
ATOM     41  C   UNL A   1      39.682  26.326  29.203  1.00  0.00     0.031 C 
ATOM     42  C   UNL A   1      43.902  25.030  26.780  1.00  0.00     0.029 A 
ATOM     43  N   UNL A   1      43.786  27.106  27.602  1.00  0.00    -0.354 N 
ATOM     44  C   UNL A   1      40.166  28.541  29.488  1.00  0.00     0.074 A 
ATOM     45  C   UNL A   1      39.178  27.489  29.589  1.00  0.00     0.031 C 
ATOM     46  C   UNL A   1      45.036  25.663  26.437  1.00  0.00     0.029 A 
ATOM     47  C   UNL A   1      44.981  27.038  26.922  1.00  0.00     0.049 A 
ATOM     48  H   UNL A   1      43.485  27.910  28.084  1.00  0.00     0.167 HD
ATOM     49  C   UNL A   1      39.975  29.806  29.929  1.00  0.00     0.034 A 
ATOM     50  C   UNL A   1      45.919  27.981  26.701  1.00  0.00     0.034 A 
ATOM     51  C   UNL A   1      40.987  30.824  29.897  1.00  0.00     0.049 A 
ATOM     52  C   UNL A   1      45.715  29.360  27.272  1.00  0.00     0.074 A 
ATOM     53  C   UNL A   1      40.935  32.105  30.419  1.00  0.00     0.029 A 
ATOM     54  N   UNL A   1      42.238  30.676  29.320  1.00  0.00    -0.354 N 
ATOM     55  N   UNL A   1      44.700  29.824  27.959  1.00  0.00    -0.248 NA
ATOM     56  C   UNL A   1      46.797  30.335  27.065  1.00  0.00     0.031 C 
ATOM     57  C   UNL A   1      42.155  32.732  30.152  1.00  0.00     0.029 A 
ATOM     58  C   UNL A   1      42.970  31.839  29.474  1.00  0.00     0.049 A 
ATOM     59  H   UNL A   1      42.559  29.863  28.867  1.00  0.00     0.167 HD
ATOM     60  C   UNL A   1      45.036  31.129  28.300  1.00  0.00     0.074 A 
ATOM     61  C   UNL A   1      46.354  31.379  27.755  1.00  0.00     0.031 C 
ATOM     62  C   UNL A   1      44.310  32.043  28.989  1.00  0.00     0.034 A 
BRANCH  49  63
ATOM     63  C   UNL A   1      38.645  30.139  30.550  1.00  0.00     0.023 A 
ATOM     64  C   UNL A   1      38.373  29.720  31.869  1.00  0.00     0.012 A 
ATOM     65  C   UNL A   1      37.687  30.902  29.856  1.00  0.00     0.148 A 
ATOM     66  C   UNL A   1      37.156  30.024  32.474  1.00  0.00     0.002 A 
ATOM     67  C   UNL A   1      36.492  31.239  30.483  1.00  0.00     0.091 A 
ATOM     68  F   UNL A   1      37.951  31.270  28.594  1.00  0.00    -0.205 F 
ATOM     69  C   UNL A   1      36.221  30.792  31.786  1.00  0.00     0.022 A 
BRANCH  67  70
ATOM     70  S   UNL A   1      35.258  32.289  29.708  1.00  0.00     0.127 S 
ATOM     71  O   UNL A   1      34.760  31.421  28.641  1.00  0.00    -0.237 OA
ATOM     72  O   UNL A   1      34.312  32.515  30.800  1.00  0.00    -0.237 OA
ATOM     73  O   UNL A   1      35.968  33.482  29.267  1.00  0.00    -0.744 OA
ENDBRANCH  67  70
ENDBRANCH  49  63
BRANCH  50  74
ATOM     74  C   UNL A   1      47.172  27.629  25.974  1.00  0.00     0.023 A 
ATOM     75  C   UNL A   1      48.237  27.045  26.689  1.00  0.00     0.012 A 
ATOM     76  C   UNL A   1      47.306  27.829  24.586  1.00  0.00     0.148 A 
ATOM     77  C   UNL A   1      49.421  26.692  26.042  1.00  0.00     0.002 A 
ATOM     78  C   UNL A   1      48.470  27.427  23.939  1.00  0.00     0.091 A 
ATOM     79  F   UNL A   1      46.289  28.399  23.925  1.00  0.00    -0.205 F 
ATOM     80  C   UNL A   1      49.534  26.873  24.666  1.00  0.00     0.022 A 
BRANCH  78  81
ATOM     81  S   UNL A   1      48.649  27.500  22.151  1.00  0.00     0.127 S 
ATOM     82  O   UNL A   1      49.916  28.212  22.006  1.00  0.00    -0.237 OA
ATOM     83  O   UNL A   1      48.693  26.082  21.791  1.00  0.00    -0.237 OA
ATOM     84  O   UNL A   1      47.465  28.201  21.672  1.00  0.00    -0.744 OA
ENDBRANCH  78  81
ENDBRANCH  50  74
BRANCH  62  85
ATOM     85  C   UNL A   1      44.931  33.390  29.244  1.00  0.00     0.023 A 
ATOM     86  C   UNL A   1      45.679  33.601  30.417  1.00  0.00     0.012 A 
ATOM     87  C   UNL A   1      44.869  34.403  28.266  1.00  0.00     0.148 A 
ATOM     88  C   UNL A   1      46.346  34.808  30.622  1.00  0.00     0.002 A 
ATOM     89  C   UNL A   1      45.571  35.586  28.456  1.00  0.00     0.091 A 
ATOM     90  F   UNL A   1      44.135  34.183  27.165  1.00  0.00    -0.205 F 
ATOM     91  C   UNL A   1      46.304  35.793  29.637  1.00  0.00     0.022 A 
BRANCH  89  92
ATOM     92  S   UNL A   1      45.653  36.870  27.203  1.00  0.00     0.127 S 
ATOM     93  O   UNL A   1      44.241  37.206  27.027  1.00  0.00    -0.237 OA
ATOM     94  O   UNL A   1      46.448  37.903  27.868  1.00  0.00    -0.237 OA
ATOM     95  O   UNL A   1      46.299  36.262  26.047  1.00  0.00    -0.744 OA
ENDBRANCH  89  92
ENDBRANCH  62  85
ENDBRANCH  36  37
ENDBRANCH  28  31
ENDBRANCH  26  27
ENDBRANCH   1  26
TORSDOF 16
ENDMDL
MODEL 3
REMARK VINA RESULT:     -12.4      5.101     10.982
REMARK SMILES CCC1(C(=O)NCCCCNC(=O)c2ccc(-c3c4nc(c(-c5cccc(S(=O)(=O)[O-])c5F)c5ccc([nH]5)c(-c5cccc(S(=O)(=O)[O-])c5F)c5nc(c(-c6cccc(S(=O)(=O)[O-])c6F)c6ccc3[nH]6)C=C5)C=C4)cc2)CCN(c2ncnc3c2CCCC3)CC1
REMARK SMILES IDX 9 1 8 2 7 3 6 4 4 5 5 6 3 8 77 9 91 10 78 11 90 12 79 13
REMARK SMILES IDX 2 14 1 15 80 16 81 17 85 18 82 19 84 20 86 21 83 22 89 23
REMARK SMILES IDX 87 24 88 25 10 26 11 27 12 28 13 30 14 31 15 32 76 33 16 34
REMARK SMILES IDX 75 35 17 36 18 37 19 38 69 39 20 40 74 41 68 42 70 43 21 44
REMARK SMILES IDX 73 45 67 46 66 47 22 49 54 50 34 51 53 52 35 53 38 54 52 55
REMARK SMILES IDX 71 56 36 57 37 58 51 60 72 61 39 62 23 63 24 64 32 65 25 66
REMARK SMILES IDX 27 67 33 68 26 69 28 70 29 71 30 72 31 73 55 74 56 75 64 76
REMARK SMILES IDX 57 77 59 78 65 79 58 80 60 81 61 82 62 83 63 84 40 85 41 86
REMARK SMILES IDX 49 87 42 88 44 89 50 90 43 91 45 92 46 93 47 94 48 95
REMARK H PARENT 6 7 11 29 70 48 38 59
REMARK Flexibility Score: inf
ROOT
ATOM      1  C   UNL A   1      31.594  31.995  27.128  1.00  0.00     0.023 C 
ENDROOT
BRANCH   1   2
ATOM      2  C   UNL A   1      31.956  30.544  26.840  1.00  0.00     0.023 C 
BRANCH   2   3
ATOM      3  C   UNL A   1      31.658  30.046  25.424  1.00  0.00     0.116 C 
BRANCH   3   4
ATOM      4  N   UNL A   1      32.844  29.680  24.672  1.00  0.00    -0.356 N 
ATOM      5  C   UNL A   1      33.179  28.536  24.001  1.00  0.00     0.226 C 
ATOM      6  O   UNL A   1      34.205  28.595  23.315  1.00  0.00    -0.274 OA
ATOM      7  H   UNL A   1      33.532  30.382  24.639  1.00  0.00     0.163 HD
BRANCH   5   8
ATOM      8  C   UNL A   1      32.310  27.241  24.031  1.00  0.00     0.052 C 
ATOM      9  C   UNL A   1      32.687  26.323  22.823  1.00  0.00     0.038 C 
ATOM     10  C   UNL A   1      32.514  26.560  25.417  1.00  0.00     0.038 C 
ATOM     11  C   UNL A   1      32.349  24.844  23.020  1.00  0.00     0.119 C 
ATOM     12  C   UNL A   1      32.122  25.085  25.441  1.00  0.00     0.119 C 
ATOM     13  N   UNL A   1      32.818  24.447  24.339  1.00  0.00    -0.356 N 
BRANCH   8  14
ATOM     14  C   UNL A   1      30.802  27.631  23.788  1.00  0.00     0.013 C 
ATOM     15  C   UNL A   1      30.440  28.244  22.442  1.00  0.00     0.005 C 
ENDBRANCH   8  14
BRANCH  13  16
ATOM     16  C   UNL A   1      33.162  23.111  24.504  1.00  0.00     0.135 A 
ATOM     17  N   UNL A   1      32.186  22.191  24.545  1.00  0.00    -0.219 NA
ATOM     18  C   UNL A   1      34.507  22.770  24.661  1.00  0.00     0.016 A 
ATOM     19  C   UNL A   1      32.578  20.921  24.721  1.00  0.00     0.224 A 
ATOM     20  C   UNL A   1      34.797  21.424  24.821  1.00  0.00     0.049 A 
ATOM     21  C   UNL A   1      35.584  23.815  24.650  1.00  0.00     0.041 C 
ATOM     22  N   UNL A   1      33.837  20.481  24.860  1.00  0.00    -0.241 NA
ATOM     23  C   UNL A   1      36.216  20.957  25.038  1.00  0.00     0.057 C 
ATOM     24  C   UNL A   1      36.972  23.330  25.057  1.00  0.00     0.005 C 
ATOM     25  C   UNL A   1      37.253  21.943  24.506  1.00  0.00     0.007 C 
ENDBRANCH  13  16
ENDBRANCH   5   8
ENDBRANCH   3   4
ENDBRANCH   2   3
ENDBRANCH   1   2
BRANCH   1  26
ATOM     26  C   UNL A   1      32.682  33.022  26.840  1.00  0.00     0.116 C 
BRANCH  26  27
ATOM     27  N   UNL A   1      32.667  34.179  27.730  1.00  0.00    -0.352 N 
ATOM     28  C   UNL A   1      33.523  34.471  28.771  1.00  0.00     0.251 C 
ATOM     29  H   UNL A   1      31.953  34.837  27.565  1.00  0.00     0.163 HD
ATOM     30  O   UNL A   1      33.329  35.450  29.486  1.00  0.00    -0.269 OA
BRANCH  28  31
ATOM     31  C   UNL A   1      34.657  33.562  29.028  1.00  0.00     0.039 A 
ATOM     32  C   UNL A   1      35.964  34.023  28.858  1.00  0.00     0.014 A 
ATOM     33  C   UNL A   1      34.412  32.292  29.555  1.00  0.00     0.014 A 
ATOM     34  C   UNL A   1      37.030  33.247  29.322  1.00  0.00     0.010 A 
ATOM     35  C   UNL A   1      35.463  31.568  30.095  1.00  0.00     0.010 A 
ATOM     36  C   UNL A   1      36.782  32.041  29.998  1.00  0.00    -0.014 A 
BRANCH  36  37
ATOM     37  C   UNL A   1      37.860  31.252  30.649  1.00  0.00     0.031 A 
ATOM     38  C   UNL A   1      38.235  31.552  32.075  1.00  0.00     0.074 A 
ATOM     39  C   UNL A   1      38.602  30.398  29.916  1.00  0.00     0.049 A 
ATOM     40  N   UNL A   1      39.266  31.136  32.761  1.00  0.00    -0.248 NA
ATOM     41  C   UNL A   1      37.359  32.480  32.809  1.00  0.00     0.031 C 
ATOM     42  C   UNL A   1      38.392  30.088  28.499  1.00  0.00     0.029 A 
ATOM     43  N   UNL A   1      39.717  29.668  30.251  1.00  0.00    -0.354 N 
ATOM     44  C   UNL A   1      39.197  31.798  33.981  1.00  0.00     0.074 A 
ATOM     45  C   UNL A   1      38.039  32.662  33.930  1.00  0.00     0.031 C 
ATOM     46  C   UNL A   1      39.347  29.239  28.086  1.00  0.00     0.029 A 
ATOM     47  C   UNL A   1      40.258  28.971  29.194  1.00  0.00     0.049 A 
ATOM     48  H   UNL A   1      40.093  29.646  31.160  1.00  0.00     0.167 HD
ATOM     49  C   UNL A   1      40.007  31.676  35.058  1.00  0.00     0.034 A 
ATOM     50  C   UNL A   1      41.372  28.214  29.122  1.00  0.00     0.034 A 
ATOM     51  C   UNL A   1      41.109  30.757  35.129  1.00  0.00     0.049 A 
ATOM     52  C   UNL A   1      42.212  28.033  30.359  1.00  0.00     0.074 A 
ATOM     53  C   UNL A   1      41.924  30.474  36.211  1.00  0.00     0.029 A 
ATOM     54  N   UNL A   1      41.546  29.965  34.079  1.00  0.00    -0.354 N 
ATOM     55  N   UNL A   1      42.041  28.549  31.552  1.00  0.00    -0.248 NA
ATOM     56  C   UNL A   1      43.378  27.143  30.250  1.00  0.00     0.031 C 
ATOM     57  C   UNL A   1      42.857  29.512  35.812  1.00  0.00     0.029 A 
ATOM     58  C   UNL A   1      42.616  29.189  34.486  1.00  0.00     0.049 A 
ATOM     59  H   UNL A   1      41.152  29.955  33.177  1.00  0.00     0.167 HD
ATOM     60  C   UNL A   1      43.052  28.016  32.345  1.00  0.00     0.074 A 
ATOM     61  C   UNL A   1      43.823  27.128  31.500  1.00  0.00     0.031 C 
ATOM     62  C   UNL A   1      43.325  28.255  33.650  1.00  0.00     0.034 A 
BRANCH  49  63
ATOM     63  C   UNL A   1      39.688  32.505  36.273  1.00  0.00     0.023 A 
ATOM     64  C   UNL A   1      40.335  33.744  36.454  1.00  0.00     0.012 A 
ATOM     65  C   UNL A   1      38.718  32.087  37.205  1.00  0.00     0.148 A 
ATOM     66  C   UNL A   1      40.050  34.538  37.563  1.00  0.00     0.002 A 
ATOM     67  C   UNL A   1      38.408  32.906  38.285  1.00  0.00     0.091 A 
ATOM     68  F   UNL A   1      38.131  30.895  37.030  1.00  0.00    -0.205 F 
ATOM     69  C   UNL A   1      39.080  34.125  38.471  1.00  0.00     0.022 A 
BRANCH  67  70
ATOM     70  S   UNL A   1      37.118  32.498  39.467  1.00  0.00     0.127 S 
ATOM     71  O   UNL A   1      37.555  31.185  39.938  1.00  0.00    -0.237 OA
ATOM     72  O   UNL A   1      37.247  33.573  40.451  1.00  0.00    -0.237 OA
ATOM     73  O   UNL A   1      35.870  32.513  38.716  1.00  0.00    -0.744 OA
ENDBRANCH  67  70
ENDBRANCH  49  63
BRANCH  50  74
ATOM     74  C   UNL A   1      41.710  27.506  27.854  1.00  0.00     0.023 A 
ATOM     75  C   UNL A   1      42.197  28.253  26.763  1.00  0.00     0.012 A 
ATOM     76  C   UNL A   1      41.592  26.108  27.729  1.00  0.00     0.148 A 
ATOM     77  C   UNL A   1      42.534  27.627  25.563  1.00  0.00     0.002 A 
ATOM     78  C   UNL A   1      41.979  25.484  26.548  1.00  0.00     0.091 A 
ATOM     79  F   UNL A   1      41.114  25.415  28.772  1.00  0.00    -0.205 F 
ATOM     80  C   UNL A   1      42.436  26.242  25.459  1.00  0.00     0.022 A 
BRANCH  78  81
ATOM     81  S   UNL A   1      42.011  23.695  26.372  1.00  0.00     0.127 S 
ATOM     82  O   UNL A   1      42.664  23.533  25.077  1.00  0.00    -0.237 OA
ATOM     83  O   UNL A   1      42.817  23.290  27.525  1.00  0.00    -0.237 OA
ATOM     84  O   UNL A   1      40.617  23.275  26.441  1.00  0.00    -0.744 OA
ENDBRANCH  78  81
ENDBRANCH  50  74
BRANCH  62  85
ATOM     85  C   UNL A   1      44.477  27.516  34.277  1.00  0.00     0.023 A 
ATOM     86  C   UNL A   1      45.774  28.055  34.199  1.00  0.00     0.012 A 
ATOM     87  C   UNL A   1      44.250  26.353  35.039  1.00  0.00     0.148 A 
ATOM     88  C   UNL A   1      46.836  27.437  34.859  1.00  0.00     0.002 A 
ATOM     89  C   UNL A   1      45.303  25.768  35.729  1.00  0.00     0.091 A 
ATOM     90  F   UNL A   1      43.007  25.850  35.083  1.00  0.00    -0.205 F 
ATOM     91  C   UNL A   1      46.598  26.305  35.635  1.00  0.00     0.022 A 
BRANCH  89  92
ATOM     92  S   UNL A   1      45.074  24.365  36.828  1.00  0.00     0.127 S 
ATOM     93  O   UNL A   1      44.564  23.348  35.911  1.00  0.00    -0.237 OA
ATOM     94  O   UNL A   1      46.435  24.125  37.312  1.00  0.00    -0.237 OA
ATOM     95  O   UNL A   1      44.138  24.807  37.854  1.00  0.00    -0.744 OA
ENDBRANCH  89  92
ENDBRANCH  62  85
ENDBRANCH  36  37
ENDBRANCH  28  31
ENDBRANCH  26  27
ENDBRANCH   1  26
TORSDOF 16
ENDMDL
