MODEL 1
REMARK VINA RESULT:     -11.9      0.000      0.000
REMARK SMILES CCOc1cc(NC(=O)c2c(C(=O)NCCCCNC(=O)c3ccc(-c4c5nc(c(-c6cccc(S(=O)(=O)[O-])c6F)c6ccc([nH]6)c(-c6cccc(S(=O)(=O)[O-])c6F)c6nc(c(-c7cccc(S(=O)(=O)[O-])c7F)c7ccc4[nH]7)C=C6)C=C5)cc3)cnn2C)ccc1OC(F)F
REMARK SMILES IDX 16 1 15 2 14 3 12 4 13 5 11 7 10 8 87 9 85 10 86 11 88 12
REMARK SMILES IDX 8 13 7 14 9 16 6 17 4 18 5 19 91 20 90 21 89 22 3 23 2 24
REMARK SMILES IDX 1 25 92 26 93 27 94 28 95 29 17 30 18 31 19 32 20 33 21 35
REMARK SMILES IDX 22 36 23 37 84 38 24 39 83 40 25 41 26 42 27 43 77 44 28 45
REMARK SMILES IDX 82 46 76 47 78 48 29 49 81 50 75 51 74 52 30 54 62 55 42 56
REMARK SMILES IDX 61 57 43 58 46 59 60 60 79 61 44 62 45 63 59 65 80 66 47 67
REMARK SMILES IDX 31 68 32 69 40 70 33 71 35 72 41 73 34 74 36 75 37 76 38 77
REMARK SMILES IDX 39 78 63 79 64 80 72 81 65 82 67 83 73 84 66 85 68 86 69 87
REMARK SMILES IDX 70 88 71 89 48 90 49 91 57 92 50 93 52 94 58 95 51 96 53 97
REMARK SMILES IDX 54 98 55 99 56 100
REMARK H PARENT 14 6 7 15 19 34 78 53 46 64
REMARK Flexibility Score: inf
ROOT
ATOM      1  C   UNL A   1      31.675  30.848  26.068  1.00  0.00     0.023 C 
ENDROOT
BRANCH   1   2
ATOM      2  C   UNL A   1      32.749  29.897  26.589  1.00  0.00     0.116 C 
BRANCH   2   3
ATOM      3  N   UNL A   1      33.658  29.397  25.589  1.00  0.00    -0.352 N 
ATOM      4  C   UNL A   1      33.480  28.524  24.548  1.00  0.00     0.255 C 
ATOM      5  O   UNL A   1      34.490  28.254  23.892  1.00  0.00    -0.269 OA
ATOM      6  H   UNL A   1      34.575  29.747  25.667  1.00  0.00     0.163 HD
BRANCH   4   7
ATOM      7  C   UNL A   1      32.217  27.872  24.218  1.00  0.00     0.090 A 
ATOM      8  C   UNL A   1      31.310  27.075  24.916  1.00  0.00     0.138 A 
ATOM      9  N   UNL A   1      30.226  26.923  24.081  1.00  0.00    -0.262 N 
ATOM     10  C   UNL A   1      31.590  28.041  22.951  1.00  0.00     0.149 A 
ATOM     11  N   UNL A   1      30.420  27.415  22.846  1.00  0.00    -0.180 NA
ATOM     12  C   UNL A   1      28.965  26.278  24.367  1.00  0.00     0.174 C 
BRANCH   8  13
ATOM     13  C   UNL A   1      31.302  26.609  26.266  1.00  0.00     0.274 C 
ATOM     14  N   UNL A   1      31.933  25.435  26.619  1.00  0.00    -0.321 N 
ATOM     15  H   UNL A   1      31.801  25.207  27.568  1.00  0.00     0.170 HD
ATOM     16  O   UNL A   1      30.729  27.229  27.163  1.00  0.00    -0.267 OA
BRANCH  14  17
ATOM     17  C   UNL A   1      32.722  24.482  25.940  1.00  0.00     0.045 A 
ATOM     18  C   UNL A   1      33.137  22.499  24.569  1.00  0.00     0.163 A 
ATOM     19  C   UNL A   1      32.253  23.418  25.169  1.00  0.00     0.076 A 
ATOM     20  C   UNL A   1      34.516  22.703  24.652  1.00  0.00     0.168 A 
ATOM     21  C   UNL A   1      34.989  23.796  25.380  1.00  0.00     0.053 A 
ATOM     22  C   UNL A   1      34.107  24.655  26.042  1.00  0.00     0.030 A 
BRANCH  18  23
ATOM     23  O   UNL A   1      32.659  21.450  23.831  1.00  0.00    -0.490 OA
BRANCH  23  24
ATOM     24  C   UNL A   1      32.567  20.213  24.549  1.00  0.00     0.226 C 
ATOM     25  C   UNL A   1      32.326  19.093  23.551  1.00  0.00     0.049 C 
ENDBRANCH  23  24
ENDBRANCH  18  23
BRANCH  20  26
ATOM     26  O   UNL A   1      35.497  21.982  24.036  1.00  0.00    -0.431 OA
BRANCH  26  27
ATOM     27  C   UNL A   1      36.809  22.532  23.987  1.00  0.00     0.542 C 
ATOM     28  F   UNL A   1      37.751  21.578  24.187  1.00  0.00    -0.167 F 
ATOM     29  F   UNL A   1      37.026  23.140  22.800  1.00  0.00    -0.167 F 
ENDBRANCH  26  27
ENDBRANCH  20  26
ENDBRANCH  14  17
ENDBRANCH   8  13
ENDBRANCH   4   7
ENDBRANCH   2   3
ENDBRANCH   1   2
BRANCH   1  30
ATOM     30  C   UNL A   1      31.456  32.145  26.846  1.00  0.00     0.023 C 
BRANCH  30  31
ATOM     31  C   UNL A   1      32.708  32.871  27.332  1.00  0.00     0.116 C 
BRANCH  31  32
ATOM     32  N   UNL A   1      32.461  34.243  27.754  1.00  0.00    -0.352 N 
ATOM     33  C   UNL A   1      33.043  34.998  28.747  1.00  0.00     0.251 C 
ATOM     34  H   UNL A   1      31.760  34.709  27.244  1.00  0.00     0.163 HD
ATOM     35  O   UNL A   1      32.593  36.117  28.990  1.00  0.00    -0.269 OA
BRANCH  33  36
ATOM     36  C   UNL A   1      34.173  34.473  29.549  1.00  0.00     0.039 A 
ATOM     37  C   UNL A   1      33.903  33.882  30.788  1.00  0.00     0.014 A 
ATOM     38  C   UNL A   1      35.492  34.559  29.099  1.00  0.00     0.014 A 
ATOM     39  C   UNL A   1      34.935  33.285  31.521  1.00  0.00     0.010 A 
ATOM     40  C   UNL A   1      36.507  33.901  29.792  1.00  0.00     0.010 A 
ATOM     41  C   UNL A   1      36.238  33.242  31.001  1.00  0.00    -0.014 A 
BRANCH  41  42
ATOM     42  C   UNL A   1      37.329  32.480  31.668  1.00  0.00     0.031 A 
ATOM     43  C   UNL A   1      37.863  32.928  33.002  1.00  0.00     0.074 A 
ATOM     44  C   UNL A   1      37.933  31.470  31.009  1.00  0.00     0.049 A 
ATOM     45  N   UNL A   1      38.912  32.499  33.656  1.00  0.00    -0.248 NA
ATOM     46  C   UNL A   1      37.144  34.022  33.675  1.00  0.00     0.031 C 
ATOM     47  C   UNL A   1      37.565  30.989  29.675  1.00  0.00     0.029 A 
ATOM     48  N   UNL A   1      39.011  30.692  31.353  1.00  0.00    -0.354 N 
ATOM     49  C   UNL A   1      39.014  33.306  34.782  1.00  0.00     0.074 A 
ATOM     50  C   UNL A   1      37.923  34.256  34.721  1.00  0.00     0.031 C 
ATOM     51  C   UNL A   1      38.404  30.005  29.313  1.00  0.00     0.029 A 
ATOM     52  C   UNL A   1      39.388  29.803  30.371  1.00  0.00     0.049 A 
ATOM     53  H   UNL A   1      39.472  30.763  32.220  1.00  0.00     0.167 HD
ATOM     54  C   UNL A   1      39.918  33.248  35.789  1.00  0.00     0.034 A 
ATOM     55  C   UNL A   1      40.415  28.931  30.322  1.00  0.00     0.034 A 
ATOM     56  C   UNL A   1      40.950  32.253  35.893  1.00  0.00     0.049 A 
ATOM     57  C   UNL A   1      41.345  28.825  31.499  1.00  0.00     0.074 A 
ATOM     58  C   UNL A   1      41.856  32.059  36.921  1.00  0.00     0.029 A 
ATOM     59  N   UNL A   1      41.206  31.276  34.945  1.00  0.00    -0.354 N 
ATOM     60  N   UNL A   1      41.334  29.503  32.620  1.00  0.00    -0.248 NA
ATOM     61  C   UNL A   1      42.408  27.811  31.421  1.00  0.00     0.031 C 
ATOM     62  C   UNL A   1      42.651  30.954  36.600  1.00  0.00     0.029 A 
ATOM     63  C   UNL A   1      42.244  30.467  35.369  1.00  0.00     0.049 A 
ATOM     64  H   UNL A   1      40.719  31.173  34.095  1.00  0.00     0.167 HD
ATOM     65  C   UNL A   1      42.360  28.975  33.394  1.00  0.00     0.074 A 
ATOM     66  C   UNL A   1      42.964  27.910  32.622  1.00  0.00     0.031 C 
ATOM     67  C   UNL A   1      42.779  29.355  34.626  1.00  0.00     0.034 A 
BRANCH  54  68
ATOM     68  C   UNL A   1      39.786  34.247  36.906  1.00  0.00     0.023 A 
ATOM     69  C   UNL A   1      40.134  35.591  36.667  1.00  0.00     0.012 A 
ATOM     70  C   UNL A   1      39.258  33.879  38.157  1.00  0.00     0.148 A 
ATOM     71  C   UNL A   1      39.981  36.551  37.667  1.00  0.00     0.002 A 
ATOM     72  C   UNL A   1      39.077  34.848  39.139  1.00  0.00     0.091 A 
ATOM     73  F   UNL A   1      38.956  32.590  38.373  1.00  0.00    -0.205 F 
ATOM     74  C   UNL A   1      39.443  36.182  38.897  1.00  0.00     0.022 A 
BRANCH  72  75
ATOM     75  S   UNL A   1      38.329  34.477  40.729  1.00  0.00     0.127 S 
ATOM     76  O   UNL A   1      37.193  33.647  40.335  1.00  0.00    -0.237 OA
ATOM     77  O   UNL A   1      39.400  33.756  41.420  1.00  0.00    -0.237 OA
ATOM     78  O   UNL A   1      37.996  35.766  41.319  1.00  0.00    -0.744 OA
ENDBRANCH  72  75
ENDBRANCH  54  68
BRANCH  55  79
ATOM     79  C   UNL A   1      40.561  28.025  29.148  1.00  0.00     0.023 A 
ATOM     80  C   UNL A   1      39.729  26.892  29.055  1.00  0.00     0.012 A 
ATOM     81  C   UNL A   1      41.477  28.291  28.113  1.00  0.00     0.148 A 
ATOM     82  C   UNL A   1      39.823  26.027  27.965  1.00  0.00     0.002 A 
ATOM     83  C   UNL A   1      41.531  27.450  27.005  1.00  0.00     0.091 A 
ATOM     84  F   UNL A   1      42.276  29.361  28.223  1.00  0.00    -0.205 F 
ATOM     85  C   UNL A   1      40.715  26.311  26.935  1.00  0.00     0.022 A 
BRANCH  83  86
ATOM     86  S   UNL A   1      42.562  27.839  25.585  1.00  0.00     0.127 S 
ATOM     87  O   UNL A   1      42.400  26.647  24.757  1.00  0.00    -0.237 OA
ATOM     88  O   UNL A   1      41.927  29.047  25.054  1.00  0.00    -0.237 OA
ATOM     89  O   UNL A   1      43.889  28.067  26.142  1.00  0.00    -0.744 OA
ENDBRANCH  83  86
ENDBRANCH  55  79
BRANCH  67  90
ATOM     90  C   UNL A   1      43.918  28.596  35.247  1.00  0.00     0.023 A 
ATOM     91  C   UNL A   1      45.242  28.980  34.960  1.00  0.00     0.012 A 
ATOM     92  C   UNL A   1      43.679  27.573  36.184  1.00  0.00     0.148 A 
ATOM     93  C   UNL A   1      46.313  28.347  35.589  1.00  0.00     0.002 A 
ATOM     94  C   UNL A   1      44.750  26.971  36.834  1.00  0.00     0.091 A 
ATOM     95  F   UNL A   1      42.411  27.205  36.423  1.00  0.00    -0.205 F 
ATOM     96  C   UNL A   1      46.068  27.353  36.534  1.00  0.00     0.022 A 
BRANCH  94  97
ATOM     97  S   UNL A   1      44.510  25.742  38.123  1.00  0.00     0.127 S 
ATOM     98  O   UNL A   1      43.624  24.785  37.463  1.00  0.00    -0.237 OA
ATOM     99  O   UNL A   1      45.869  25.253  38.354  1.00  0.00    -0.237 OA
ATOM    100  O   UNL A   1      43.934  26.464  39.250  1.00  0.00    -0.744 OA
ENDBRANCH  94  97
ENDBRANCH  67  90
ENDBRANCH  41  42
ENDBRANCH  33  36
ENDBRANCH  31  32
ENDBRANCH  30  31
ENDBRANCH   1  30
TORSDOF 20
ENDMDL
MODEL 2
REMARK VINA RESULT:     -11.5      5.745     10.843
REMARK SMILES CCOc1cc(NC(=O)c2c(C(=O)NCCCCNC(=O)c3ccc(-c4c5nc(c(-c6cccc(S(=O)(=O)[O-])c6F)c6ccc([nH]6)c(-c6cccc(S(=O)(=O)[O-])c6F)c6nc(c(-c7cccc(S(=O)(=O)[O-])c7F)c7ccc4[nH]7)C=C6)C=C5)cc3)cnn2C)ccc1OC(F)F
REMARK SMILES IDX 16 1 15 2 14 3 12 4 13 5 11 7 10 8 87 9 85 10 86 11 88 12
REMARK SMILES IDX 8 13 7 14 9 16 6 17 4 18 5 19 91 20 90 21 89 22 3 23 2 24
REMARK SMILES IDX 1 25 92 26 93 27 94 28 95 29 17 30 18 31 19 32 20 33 21 35
REMARK SMILES IDX 22 36 23 37 84 38 24 39 83 40 25 41 26 42 27 43 77 44 28 45
REMARK SMILES IDX 82 46 76 47 78 48 29 49 81 50 75 51 74 52 30 54 62 55 42 56
REMARK SMILES IDX 61 57 43 58 46 59 60 60 79 61 44 62 45 63 59 65 80 66 47 67
REMARK SMILES IDX 31 68 32 69 40 70 33 71 35 72 41 73 34 74 36 75 37 76 38 77
REMARK SMILES IDX 39 78 63 79 64 80 72 81 65 82 67 83 73 84 66 85 68 86 69 87
REMARK SMILES IDX 70 88 71 89 48 90 49 91 57 92 50 93 52 94 58 95 51 96 53 97
REMARK SMILES IDX 54 98 55 99 56 100
REMARK H PARENT 14 6 7 15 19 34 78 53 46 64
REMARK Flexibility Score: inf
ROOT
ATOM      1  C   UNL A   1      34.956  20.390  24.970  1.00  0.00     0.023 C 
ENDROOT
BRANCH   1   2
ATOM      2  C   UNL A   1      33.513  20.883  25.045  1.00  0.00     0.116 C 
BRANCH   2   3
ATOM      3  N   UNL A   1      33.304  22.031  25.891  1.00  0.00    -0.352 N 
ATOM      4  C   UNL A   1      33.184  23.365  25.605  1.00  0.00     0.255 C 
ATOM      5  O   UNL A   1      33.062  24.115  26.578  1.00  0.00    -0.269 OA
ATOM      6  H   UNL A   1      33.235  21.816  26.849  1.00  0.00     0.163 HD
BRANCH   4   7
ATOM      7  C   UNL A   1      33.249  23.937  24.264  1.00  0.00     0.090 A 
ATOM      8  C   UNL A   1      32.304  24.342  23.321  1.00  0.00     0.138 A 
ATOM      9  N   UNL A   1      33.019  24.958  22.319  1.00  0.00    -0.262 N 
ATOM     10  C   UNL A   1      34.487  24.286  23.653  1.00  0.00     0.149 A 
ATOM     11  N   UNL A   1      34.350  24.842  22.451  1.00  0.00    -0.180 NA
ATOM     12  C   UNL A   1      32.508  25.653  21.158  1.00  0.00     0.174 C 
BRANCH   8  13
ATOM     13  C   UNL A   1      30.876  24.347  23.352  1.00  0.00     0.274 C 
ATOM     14  N   UNL A   1      30.174  25.477  23.713  1.00  0.00    -0.321 N 
ATOM     15  H   UNL A   1      29.202  25.323  23.743  1.00  0.00     0.170 HD
ATOM     16  O   UNL A   1      30.218  23.346  23.066  1.00  0.00    -0.267 OA
BRANCH  14  17
ATOM     17  C   UNL A   1      30.521  26.803  24.050  1.00  0.00     0.045 A 
ATOM     18  C   UNL A   1      30.297  29.239  24.039  1.00  0.00     0.163 A 
ATOM     19  C   UNL A   1      29.831  27.958  23.680  1.00  0.00     0.076 A 
ATOM     20  C   UNL A   1      31.412  29.367  24.870  1.00  0.00     0.168 A 
ATOM     21  C   UNL A   1      32.076  28.212  25.284  1.00  0.00     0.053 A 
ATOM     22  C   UNL A   1      31.657  26.949  24.854  1.00  0.00     0.030 A 
BRANCH  18  23
ATOM     23  O   UNL A   1      29.617  30.363  23.653  1.00  0.00    -0.490 OA
BRANCH  23  24
ATOM     24  C   UNL A   1      28.526  30.118  22.757  1.00  0.00     0.226 C 
ATOM     25  C   UNL A   1      28.940  30.553  21.362  1.00  0.00     0.049 C 
ENDBRANCH  23  24
ENDBRANCH  18  23
BRANCH  20  26
ATOM     26  O   UNL A   1      31.919  30.517  25.402  1.00  0.00    -0.431 OA
BRANCH  26  27
ATOM     27  C   UNL A   1      31.621  30.821  26.760  1.00  0.00     0.542 C 
ATOM     28  F   UNL A   1      32.612  30.408  27.587  1.00  0.00    -0.167 F 
ATOM     29  F   UNL A   1      31.424  32.149  26.920  1.00  0.00    -0.167 F 
ENDBRANCH  26  27
ENDBRANCH  20  26
ENDBRANCH  14  17
ENDBRANCH   8  13
ENDBRANCH   4   7
ENDBRANCH   2   3
ENDBRANCH   1   2
BRANCH   1  30
ATOM     30  C   UNL A   1      36.034  21.300  25.559  1.00  0.00     0.023 C 
BRANCH  30  31
ATOM     31  C   UNL A   1      37.381  21.318  24.843  1.00  0.00     0.116 C 
BRANCH  31  32
ATOM     32  N   UNL A   1      38.352  20.387  25.401  1.00  0.00    -0.352 N 
ATOM     33  C   UNL A   1      39.486  20.609  26.149  1.00  0.00     0.251 C 
ATOM     34  H   UNL A   1      38.168  19.439  25.210  1.00  0.00     0.163 HD
ATOM     35  O   UNL A   1      40.218  19.659  26.425  1.00  0.00    -0.269 OA
BRANCH  33  36
ATOM     36  C   UNL A   1      39.856  21.973  26.595  1.00  0.00     0.039 A 
ATOM     37  C   UNL A   1      40.879  22.119  27.539  1.00  0.00     0.014 A 
ATOM     38  C   UNL A   1      39.208  23.105  26.101  1.00  0.00     0.014 A 
ATOM     39  C   UNL A   1      41.321  23.396  27.903  1.00  0.00     0.010 A 
ATOM     40  C   UNL A   1      39.695  24.375  26.406  1.00  0.00     0.010 A 
ATOM     41  C   UNL A   1      40.768  24.535  27.297  1.00  0.00    -0.014 A 
BRANCH  41  42
ATOM     42  C   UNL A   1      41.315  25.899  27.533  1.00  0.00     0.031 A 
ATOM     43  C   UNL A   1      42.720  26.237  27.114  1.00  0.00     0.074 A 
ATOM     44  C   UNL A   1      40.596  26.789  28.247  1.00  0.00     0.049 A 
ATOM     45  N   UNL A   1      43.425  27.306  27.381  1.00  0.00    -0.248 NA
ATOM     46  C   UNL A   1      43.440  25.228  26.320  1.00  0.00     0.031 C 
ATOM     47  C   UNL A   1      39.251  26.559  28.781  1.00  0.00     0.029 A 
ATOM     48  N   UNL A   1      40.911  28.052  28.684  1.00  0.00    -0.354 N 
ATOM     49  C   UNL A   1      44.686  27.075  26.842  1.00  0.00     0.074 A 
ATOM     50  C   UNL A   1      44.651  25.760  26.237  1.00  0.00     0.031 C 
ATOM     51  C   UNL A   1      38.861  27.639  29.476  1.00  0.00     0.029 A 
ATOM     52  C   UNL A   1      39.934  28.628  29.464  1.00  0.00     0.049 A 
ATOM     53  H   UNL A   1      41.756  28.505  28.459  1.00  0.00     0.167 HD
ATOM     54  C   UNL A   1      45.766  27.891  26.830  1.00  0.00     0.034 A 
ATOM     55  C   UNL A   1      39.907  29.812  30.109  1.00  0.00     0.034 A 
ATOM     56  C   UNL A   1      45.775  29.229  27.355  1.00  0.00     0.049 A 
ATOM     57  C   UNL A   1      41.087  30.737  29.995  1.00  0.00     0.074 A 
ATOM     58  C   UNL A   1      46.795  30.164  27.308  1.00  0.00     0.029 A 
ATOM     59  N   UNL A   1      44.713  29.828  28.012  1.00  0.00    -0.354 N 
ATOM     60  N   UNL A   1      42.217  30.555  29.355  1.00  0.00    -0.248 NA
ATOM     61  C   UNL A   1      40.979  32.044  30.661  1.00  0.00     0.031 C 
ATOM     62  C   UNL A   1      46.342  31.335  27.924  1.00  0.00     0.029 A 
ATOM     63  C   UNL A   1      45.044  31.125  28.361  1.00  0.00     0.049 A 
ATOM     64  H   UNL A   1      43.849  29.395  28.200  1.00  0.00     0.167 HD
ATOM     65  C   UNL A   1      42.936  31.734  29.510  1.00  0.00     0.074 A 
ATOM     66  C   UNL A   1      42.110  32.631  30.291  1.00  0.00     0.031 C 
ATOM     67  C   UNL A   1      44.179  32.036  29.064  1.00  0.00     0.034 A 
BRANCH  54  68
ATOM     68  C   UNL A   1      47.014  27.389  26.156  1.00  0.00     0.023 A 
ATOM     69  C   UNL A   1      47.218  27.677  24.791  1.00  0.00     0.012 A 
ATOM     70  C   UNL A   1      48.008  26.702  26.875  1.00  0.00     0.148 A 
ATOM     71  C   UNL A   1      48.383  27.266  24.147  1.00  0.00     0.002 A 
ATOM     72  C   UNL A   1      49.183  26.323  26.234  1.00  0.00     0.091 A 
ATOM     73  F   UNL A   1      47.784  26.415  28.166  1.00  0.00    -0.205 F 
ATOM     74  C   UNL A   1      49.369  26.599  24.869  1.00  0.00     0.022 A 
BRANCH  72  75
ATOM     75  S   UNL A   1      50.536  25.520  27.101  1.00  0.00     0.127 S 
ATOM     76  O   UNL A   1      49.886  24.314  27.610  1.00  0.00    -0.237 OA
ATOM     77  O   UNL A   1      51.503  25.285  26.028  1.00  0.00    -0.237 OA
ATOM     78  O   UNL A   1      50.979  26.474  28.110  1.00  0.00    -0.744 OA
ENDBRANCH  72  75
ENDBRANCH  54  68
BRANCH  55  79
ATOM     79  C   UNL A   1      38.679  30.226  30.844  1.00  0.00     0.023 A 
ATOM     80  C   UNL A   1      38.550  29.879  32.203  1.00  0.00     0.012 A 
ATOM     81  C   UNL A   1      37.666  30.987  30.232  1.00  0.00     0.148 A 
ATOM     82  C   UNL A   1      37.424  30.261  32.932  1.00  0.00     0.002 A 
ATOM     83  C   UNL A   1      36.569  31.407  30.978  1.00  0.00     0.091 A 
ATOM     84  F   UNL A   1      37.792  31.294  28.933  1.00  0.00    -0.205 F 
ATOM     85  C   UNL A   1      36.439  31.034  32.324  1.00  0.00     0.022 A 
BRANCH  83  86
ATOM     86  S   UNL A   1      35.337  32.517  30.286  1.00  0.00     0.127 S 
ATOM     87  O   UNL A   1      34.866  31.763  29.128  1.00  0.00    -0.237 OA
ATOM     88  O   UNL A   1      34.368  32.636  31.378  1.00  0.00    -0.237 OA
ATOM     89  O   UNL A   1      36.063  33.750  30.006  1.00  0.00    -0.744 OA
ENDBRANCH  83  86
ENDBRANCH  55  79
BRANCH  67  90
ATOM     90  C   UNL A   1      44.720  33.406  29.365  1.00  0.00     0.023 A 
ATOM     91  C   UNL A   1      45.413  33.625  30.571  1.00  0.00     0.012 A 
ATOM     92  C   UNL A   1      44.628  34.444  28.417  1.00  0.00     0.148 A 
ATOM     93  C   UNL A   1      45.998  34.864  30.834  1.00  0.00     0.002 A 
ATOM     94  C   UNL A   1      45.244  35.664  28.672  1.00  0.00     0.091 A 
ATOM     95  F   UNL A   1      43.941  34.221  27.287  1.00  0.00    -0.205 F 
ATOM     96  C   UNL A   1      45.924  35.877  29.881  1.00  0.00     0.022 A 
BRANCH  94  97
ATOM     97  S   UNL A   1      45.263  36.988  27.458  1.00  0.00     0.127 S 
ATOM     98  O   UNL A   1      43.837  37.209  27.232  1.00  0.00    -0.237 OA
ATOM     99  O   UNL A   1      45.940  38.069  28.176  1.00  0.00    -0.237 OA
ATOM    100  O   UNL A   1      46.011  36.467  26.321  1.00  0.00    -0.744 OA
ENDBRANCH  94  97
ENDBRANCH  67  90
ENDBRANCH  41  42
ENDBRANCH  33  36
ENDBRANCH  31  32
ENDBRANCH  30  31
ENDBRANCH   1  30
TORSDOF 20
ENDMDL
MODEL 3
REMARK VINA RESULT:     -11.5      2.902      4.625
REMARK SMILES CCOc1cc(NC(=O)c2c(C(=O)NCCCCNC(=O)c3ccc(-c4c5nc(c(-c6cccc(S(=O)(=O)[O-])c6F)c6ccc([nH]6)c(-c6cccc(S(=O)(=O)[O-])c6F)c6nc(c(-c7cccc(S(=O)(=O)[O-])c7F)c7ccc4[nH]7)C=C6)C=C5)cc3)cnn2C)ccc1OC(F)F
REMARK SMILES IDX 16 1 15 2 14 3 12 4 13 5 11 7 10 8 87 9 85 10 86 11 88 12
REMARK SMILES IDX 8 13 7 14 9 16 6 17 4 18 5 19 91 20 90 21 89 22 3 23 2 24
REMARK SMILES IDX 1 25 92 26 93 27 94 28 95 29 17 30 18 31 19 32 20 33 21 35
REMARK SMILES IDX 22 36 23 37 84 38 24 39 83 40 25 41 26 42 27 43 77 44 28 45
REMARK SMILES IDX 82 46 76 47 78 48 29 49 81 50 75 51 74 52 30 54 62 55 42 56
REMARK SMILES IDX 61 57 43 58 46 59 60 60 79 61 44 62 45 63 59 65 80 66 47 67
REMARK SMILES IDX 31 68 32 69 40 70 33 71 35 72 41 73 34 74 36 75 37 76 38 77
REMARK SMILES IDX 39 78 63 79 64 80 72 81 65 82 67 83 73 84 66 85 68 86 69 87
REMARK SMILES IDX 70 88 71 89 48 90 49 91 57 92 50 93 52 94 58 95 51 96 53 97
REMARK SMILES IDX 54 98 55 99 56 100
REMARK H PARENT 14 6 7 15 19 34 78 53 46 64
REMARK Flexibility Score: inf
ROOT
ATOM      1  C   UNL A   1      32.841  27.214  26.454  1.00  0.00     0.023 C 
ENDROOT
BRANCH   1   2
ATOM      2  C   UNL A   1      32.086  26.060  25.799  1.00  0.00     0.116 C 
BRANCH   2   3
ATOM      3  N   UNL A   1      31.786  24.954  26.673  1.00  0.00    -0.352 N 
ATOM      4  C   UNL A   1      32.439  23.774  26.909  1.00  0.00     0.255 C 
ATOM      5  O   UNL A   1      31.884  22.998  27.693  1.00  0.00    -0.269 OA
ATOM      6  H   UNL A   1      30.959  25.068  27.196  1.00  0.00     0.163 HD
BRANCH   4   7
ATOM      7  C   UNL A   1      33.684  23.370  26.264  1.00  0.00     0.090 A 
ATOM      8  C   UNL A   1      34.014  22.517  25.211  1.00  0.00     0.138 A 
ATOM      9  N   UNL A   1      35.358  22.708  24.983  1.00  0.00    -0.262 N 
ATOM     10  C   UNL A   1      34.939  23.934  26.629  1.00  0.00     0.149 A 
ATOM     11  N   UNL A   1      35.958  23.485  25.899  1.00  0.00    -0.180 NA
ATOM     12  C   UNL A   1      36.171  22.148  23.927  1.00  0.00     0.174 C 
BRANCH   8  13
ATOM     13  C   UNL A   1      33.202  21.714  24.352  1.00  0.00     0.274 C 
ATOM     14  N   UNL A   1      32.330  22.289  23.453  1.00  0.00    -0.321 N 
ATOM     15  H   UNL A   1      31.796  21.620  22.966  1.00  0.00     0.170 HD
ATOM     16  O   UNL A   1      33.244  20.484  24.384  1.00  0.00    -0.267 OA
BRANCH  14  17
ATOM     17  C   UNL A   1      32.020  23.611  23.067  1.00  0.00     0.045 A 
ATOM     18  C   UNL A   1      32.487  25.845  22.188  1.00  0.00     0.163 A 
ATOM     19  C   UNL A   1      32.897  24.532  22.494  1.00  0.00     0.076 A 
ATOM     20  C   UNL A   1      31.152  26.216  22.359  1.00  0.00     0.168 A 
ATOM     21  C   UNL A   1      30.258  25.281  22.885  1.00  0.00     0.053 A 
ATOM     22  C   UNL A   1      30.692  24.008  23.264  1.00  0.00     0.030 A 
BRANCH  18  23
ATOM     23  O   UNL A   1      33.366  26.743  21.643  1.00  0.00    -0.490 OA
BRANCH  23  24
ATOM     24  C   UNL A   1      34.167  27.445  22.601  1.00  0.00     0.226 C 
ATOM     25  C   UNL A   1      33.752  28.906  22.598  1.00  0.00     0.049 C 
ENDBRANCH  23  24
ENDBRANCH  18  23
BRANCH  20  26
ATOM     26  O   UNL A   1      30.570  27.399  22.006  1.00  0.00    -0.431 OA
BRANCH  26  27
ATOM     27  C   UNL A   1      30.115  28.263  23.041  1.00  0.00     0.542 C 
ATOM     28  F   UNL A   1      30.482  29.546  22.809  1.00  0.00    -0.167 F 
ATOM     29  F   UNL A   1      28.771  28.193  23.165  1.00  0.00    -0.167 F 
ENDBRANCH  26  27
ENDBRANCH  20  26
ENDBRANCH  14  17
ENDBRANCH   8  13
ENDBRANCH   4   7
ENDBRANCH   2   3
ENDBRANCH   1   2
BRANCH   1  30
ATOM     30  C   UNL A   1      32.372  28.630  26.122  1.00  0.00     0.023 C 
BRANCH  30  31
ATOM     31  C   UNL A   1      32.049  29.540  27.304  1.00  0.00     0.116 C 
BRANCH  31  32
ATOM     32  N   UNL A   1      32.249  30.955  27.026  1.00  0.00    -0.352 N 
ATOM     33  C   UNL A   1      33.333  31.773  27.250  1.00  0.00     0.251 C 
ATOM     34  H   UNL A   1      31.479  31.403  26.607  1.00  0.00     0.163 HD
ATOM     35  O   UNL A   1      33.232  32.978  27.023  1.00  0.00    -0.269 OA
BRANCH  33  36
ATOM     36  C   UNL A   1      34.601  31.233  27.794  1.00  0.00     0.039 A 
ATOM     37  C   UNL A   1      35.644  32.121  28.080  1.00  0.00     0.014 A 
ATOM     38  C   UNL A   1      34.778  29.867  28.021  1.00  0.00     0.014 A 
ATOM     39  C   UNL A   1      36.816  31.656  28.688  1.00  0.00     0.010 A 
ATOM     40  C   UNL A   1      35.912  29.415  28.694  1.00  0.00     0.010 A 
ATOM     41  C   UNL A   1      36.936  30.306  29.051  1.00  0.00    -0.014 A 
BRANCH  41  42
ATOM     42  C   UNL A   1      38.090  29.800  29.842  1.00  0.00     0.031 A 
ATOM     43  C   UNL A   1      38.341  30.315  31.234  1.00  0.00     0.074 A 
ATOM     44  C   UNL A   1      38.991  28.984  29.257  1.00  0.00     0.049 A 
ATOM     45  N   UNL A   1      39.377  30.123  32.010  1.00  0.00    -0.248 NA
ATOM     46  C   UNL A   1      37.308  31.185  31.819  1.00  0.00     0.031 C 
ATOM     47  C   UNL A   1      38.908  28.475  27.886  1.00  0.00     0.029 A 
ATOM     48  N   UNL A   1      40.175  28.471  29.727  1.00  0.00    -0.354 N 
ATOM     49  C   UNL A   1      39.151  30.893  33.144  1.00  0.00     0.074 A 
ATOM     50  C   UNL A   1      37.880  31.561  32.954  1.00  0.00     0.031 C 
ATOM     51  C   UNL A   1      39.994  27.730  27.625  1.00  0.00     0.029 A 
ATOM     52  C   UNL A   1      40.866  27.730  28.795  1.00  0.00     0.049 A 
ATOM     53  H   UNL A   1      40.500  28.618  30.645  1.00  0.00     0.167 HD
ATOM     54  C   UNL A   1      39.917  31.016  34.254  1.00  0.00     0.034 A 
ATOM     55  C   UNL A   1      42.069  27.127  28.867  1.00  0.00     0.034 A 
ATOM     56  C   UNL A   1      41.136  30.289  34.479  1.00  0.00     0.049 A 
ATOM     57  C   UNL A   1      42.852  27.202  30.149  1.00  0.00     0.074 A 
ATOM     58  C   UNL A   1      41.935  30.278  35.610  1.00  0.00     0.029 A 
ATOM     59  N   UNL A   1      41.727  29.433  33.564  1.00  0.00    -0.354 N 
ATOM     60  N   UNL A   1      42.548  27.820  31.264  1.00  0.00    -0.248 NA
ATOM     61  C   UNL A   1      44.128  26.471  30.197  1.00  0.00     0.031 C 
ATOM     62  C   UNL A   1      43.003  29.404  35.383  1.00  0.00     0.029 A 
ATOM     63  C   UNL A   1      42.871  28.877  34.108  1.00  0.00     0.049 A 
ATOM     64  H   UNL A   1      41.383  29.247  32.661  1.00  0.00     0.167 HD
ATOM     65  C   UNL A   1      43.572  27.523  32.156  1.00  0.00     0.074 A 
ATOM     66  C   UNL A   1      44.499  26.657  31.458  1.00  0.00     0.031 C 
ATOM     67  C   UNL A   1      43.739  27.948  33.431  1.00  0.00     0.034 A 
BRANCH  54  68
ATOM     68  C   UNL A   1      39.420  31.916  35.352  1.00  0.00     0.023 A 
ATOM     69  C   UNL A   1      38.520  31.399  36.306  1.00  0.00     0.012 A 
ATOM     70  C   UNL A   1      39.887  33.237  35.483  1.00  0.00     0.148 A 
ATOM     71  C   UNL A   1      38.074  32.193  37.361  1.00  0.00     0.002 A 
ATOM     72  C   UNL A   1      39.463  34.012  36.557  1.00  0.00     0.091 A 
ATOM     73  F   UNL A   1      40.722  33.718  34.551  1.00  0.00    -0.205 F 
ATOM     74  C   UNL A   1      38.553  33.494  37.493  1.00  0.00     0.022 A 
BRANCH  72  75
ATOM     75  S   UNL A   1      40.079  35.675  36.844  1.00  0.00     0.127 S 
ATOM     76  O   UNL A   1      39.594  36.379  35.658  1.00  0.00    -0.237 OA
ATOM     77  O   UNL A   1      39.408  36.048  38.091  1.00  0.00    -0.237 OA
ATOM     78  O   UNL A   1      41.525  35.546  36.956  1.00  0.00    -0.744 OA
ENDBRANCH  72  75
ENDBRANCH  54  68
BRANCH  55  79
ATOM     79  C   UNL A   1      42.564  26.321  27.716  1.00  0.00     0.023 A 
ATOM     80  C   UNL A   1      43.471  26.910  26.812  1.00  0.00     0.012 A 
ATOM     81  C   UNL A   1      42.182  24.979  27.529  1.00  0.00     0.148 A 
ATOM     82  C   UNL A   1      43.970  26.184  25.731  1.00  0.00     0.002 A 
ATOM     83  C   UNL A   1      42.723  24.248  26.475  1.00  0.00     0.091 A 
ATOM     84  F   UNL A   1      41.304  24.438  28.383  1.00  0.00    -0.205 F 
ATOM     85  C   UNL A   1      43.605  24.851  25.568  1.00  0.00     0.022 A 
BRANCH  83  86
ATOM     86  S   UNL A   1      42.396  22.489  26.294  1.00  0.00     0.127 S 
ATOM     87  O   UNL A   1      42.903  21.956  27.555  1.00  0.00    -0.237 OA
ATOM     88  O   UNL A   1      40.939  22.451  26.152  1.00  0.00    -0.237 OA
ATOM     89  O   UNL A   1      43.116  22.100  25.089  1.00  0.00    -0.744 OA
ENDBRANCH  83  86
ENDBRANCH  55  79
BRANCH  67  90
ATOM     90  C   UNL A   1      44.945  27.458  34.183  1.00  0.00     0.023 A 
ATOM     91  C   UNL A   1      46.114  28.242  34.199  1.00  0.00     0.012 A 
ATOM     92  C   UNL A   1      44.888  26.279  34.950  1.00  0.00     0.148 A 
ATOM     93  C   UNL A   1      47.216  27.850  34.959  1.00  0.00     0.002 A 
ATOM     94  C   UNL A   1      45.977  25.914  35.732  1.00  0.00     0.091 A 
ATOM     95  F   UNL A   1      43.773  25.534  34.900  1.00  0.00    -0.205 F 
ATOM     96  C   UNL A   1      47.143  26.695  35.734  1.00  0.00     0.022 A 
BRANCH  94  97
ATOM     97  S   UNL A   1      45.927  24.485  36.821  1.00  0.00     0.127 S 
ATOM     98  O   UNL A   1      47.255  24.527  37.431  1.00  0.00    -0.237 OA
ATOM     99  O   UNL A   1      44.830  24.815  37.731  1.00  0.00    -0.237 OA
ATOM    100  O   UNL A   1      45.664  23.343  35.957  1.00  0.00    -0.744 OA
ENDBRANCH  94  97
ENDBRANCH  67  90
ENDBRANCH  41  42
ENDBRANCH  33  36
ENDBRANCH  31  32
ENDBRANCH  30  31
ENDBRANCH   1  30
TORSDOF 20
ENDMDL
