MODEL 1
REMARK VINA RESULT:     -11.2      0.000      0.000
REMARK SMILES CN([C@H]1CCSC1)S(=O)(=O)c1cccc(C(=O)NCCCCNC(=O)c2ccc(-c3c4nc(c(-c5cccc(S(=O)(=O)[O-])c5F)c5ccc([nH]5)c(-c5cccc(S(=O)(=O)[O-])c5F)c5nc(c(-c6cccc(S(=O)(=O)[O-])c6F)c6ccc3[nH]6)C=C5)C=C4)cc2)c1
REMARK SMILES IDX 20 1 19 2 18 3 16 4 17 5 15 7 11 8 12 9 89 10 13 11 14 12
REMARK SMILES IDX 8 13 9 14 10 15 2 16 1 17 3 18 4 19 7 20 5 21 6 22 21 23
REMARK SMILES IDX 22 24 23 25 24 26 25 28 26 29 27 30 88 31 28 32 87 33 29 34
REMARK SMILES IDX 30 35 31 36 81 37 32 38 86 39 80 40 82 41 33 42 85 43 79 44
REMARK SMILES IDX 78 45 34 47 66 48 46 49 65 50 47 51 50 52 64 53 83 54 48 55
REMARK SMILES IDX 49 56 63 58 84 59 51 60 35 61 36 62 44 63 37 64 39 65 45 66
REMARK SMILES IDX 38 67 40 68 41 69 42 70 43 71 67 72 68 73 76 74 69 75 71 76
REMARK SMILES IDX 77 77 70 78 72 79 73 80 74 81 75 82 52 83 53 84 61 85 54 86
REMARK SMILES IDX 56 87 62 88 55 89 57 90 58 91 59 92 60 93
REMARK H PARENT 18 6 23 27 82 46 50 57
REMARK Flexibility Score: inf
ROOT
ATOM      1  C   UNL A   1      37.281  21.322  24.611  1.00  0.00     0.023 C 
ENDROOT
BRANCH   1   2
ATOM      2  C   UNL A   1      35.986  21.395  25.405  1.00  0.00     0.116 C 
BRANCH   2   3
ATOM      3  N   UNL A   1      35.024  20.328  25.147  1.00  0.00    -0.352 N 
ATOM      4  C   UNL A   1      33.644  20.329  25.197  1.00  0.00     0.251 C 
ATOM      5  O   UNL A   1      33.014  19.316  24.905  1.00  0.00    -0.269 OA
ATOM      6  H   UNL A   1      35.427  19.465  24.896  1.00  0.00     0.163 HD
BRANCH   4   7
ATOM      7  C   UNL A   1      32.901  21.521  25.676  1.00  0.00     0.041 A 
ATOM      8  C   UNL A   1      32.020  23.707  25.231  1.00  0.00     0.083 A 
ATOM      9  C   UNL A   1      32.049  24.025  26.590  1.00  0.00     0.022 A 
ATOM     10  C   UNL A   1      32.329  22.422  24.786  1.00  0.00     0.035 A 
ATOM     11  C   UNL A   1      32.423  23.041  27.508  1.00  0.00     0.002 A 
ATOM     12  C   UNL A   1      32.883  21.800  27.049  1.00  0.00     0.014 A 
BRANCH   8  13
ATOM     13  S   UNL A   1      31.893  24.972  23.996  1.00  0.00     0.243 S 
ATOM     14  O   UNL A   1      30.520  25.434  23.960  1.00  0.00    -0.207 OA
ATOM     15  O   UNL A   1      32.521  24.413  22.819  1.00  0.00    -0.207 OA
BRANCH  13  16
ATOM     16  N   UNL A   1      32.847  26.297  24.538  1.00  0.00    -0.197 NA
ATOM     17  C   UNL A   1      33.570  26.888  23.363  1.00  0.00     0.125 C 
BRANCH  16  18
ATOM     18  C   UNL A   1      32.123  27.375  25.317  1.00  0.00     0.083 C 
ATOM     19  C   UNL A   1      32.739  27.678  26.681  1.00  0.00     0.032 C 
ATOM     20  C   UNL A   1      32.187  28.713  24.563  1.00  0.00     0.089 C 
ATOM     21  C   UNL A   1      32.052  28.922  27.219  1.00  0.00     0.071 C 
ATOM     22  S   UNL A   1      31.881  30.014  25.789  1.00  0.00    -0.160 SA
ENDBRANCH  16  18
ENDBRANCH  13  16
ENDBRANCH   8  13
ENDBRANCH   4   7
ENDBRANCH   2   3
ENDBRANCH   1   2
BRANCH   1  23
ATOM     23  C   UNL A   1      38.047  20.009  24.671  1.00  0.00     0.023 C 
BRANCH  23  24
ATOM     24  C   UNL A   1      38.714  19.674  26.002  1.00  0.00     0.116 C 
BRANCH  24  25
ATOM     25  N   UNL A   1      40.048  19.098  25.879  1.00  0.00    -0.352 N 
ATOM     26  C   UNL A   1      41.279  19.656  26.146  1.00  0.00     0.251 C 
ATOM     27  H   UNL A   1      40.074  18.168  25.557  1.00  0.00     0.163 HD
ATOM     28  O   UNL A   1      42.305  19.014  25.940  1.00  0.00    -0.269 OA
BRANCH  26  29
ATOM     29  C   UNL A   1      41.368  21.053  26.626  1.00  0.00     0.039 A 
ATOM     30  C   UNL A   1      41.873  21.289  27.907  1.00  0.00     0.014 A 
ATOM     31  C   UNL A   1      41.024  22.123  25.797  1.00  0.00     0.014 A 
ATOM     32  C   UNL A   1      42.154  22.597  28.308  1.00  0.00     0.010 A 
ATOM     33  C   UNL A   1      41.377  23.417  26.167  1.00  0.00     0.010 A 
ATOM     34  C   UNL A   1      41.972  23.664  27.413  1.00  0.00    -0.014 A 
BRANCH  34  35
ATOM     35  C   UNL A   1      42.485  25.026  27.717  1.00  0.00     0.031 A 
ATOM     36  C   UNL A   1      41.593  26.062  28.341  1.00  0.00     0.074 A 
ATOM     37  C   UNL A   1      43.724  25.366  27.306  1.00  0.00     0.049 A 
ATOM     38  N   UNL A   1      41.843  27.321  28.588  1.00  0.00    -0.248 NA
ATOM     39  C   UNL A   1      40.234  25.635  28.712  1.00  0.00     0.031 C 
ATOM     40  C   UNL A   1      44.655  24.480  26.601  1.00  0.00     0.029 A 
ATOM     41  N   UNL A   1      44.402  26.558  27.385  1.00  0.00    -0.354 N 
ATOM     42  C   UNL A   1      40.668  27.847  29.108  1.00  0.00     0.074 A 
ATOM     43  C   UNL A   1      39.694  26.776  29.117  1.00  0.00     0.031 C 
ATOM     44  C   UNL A   1      45.777  25.156  26.314  1.00  0.00     0.029 A 
ATOM     45  C   UNL A   1      45.638  26.531  26.782  1.00  0.00     0.049 A 
ATOM     46  H   UNL A   1      44.038  27.356  27.831  1.00  0.00     0.167 HD
ATOM     47  C   UNL A   1      40.429  29.100  29.565  1.00  0.00     0.034 A 
ATOM     48  C   UNL A   1      46.555  27.504  26.613  1.00  0.00     0.034 A 
ATOM     49  C   UNL A   1      41.412  30.148  29.602  1.00  0.00     0.049 A 
ATOM     50  C   UNL A   1      46.278  28.875  27.166  1.00  0.00     0.074 A 
ATOM     51  C   UNL A   1      41.299  31.413  30.151  1.00  0.00     0.029 A 
ATOM     52  N   UNL A   1      42.686  30.059  29.064  1.00  0.00    -0.354 N 
ATOM     53  N   UNL A   1      45.226  29.301  27.821  1.00  0.00    -0.248 NA
ATOM     54  C   UNL A   1      47.326  29.890  26.984  1.00  0.00     0.031 C 
ATOM     55  C   UNL A   1      42.501  32.095  29.932  1.00  0.00     0.029 A 
ATOM     56  C   UNL A   1      43.364  31.251  29.253  1.00  0.00     0.049 A 
ATOM     57  H   UNL A   1      43.054  29.265  28.612  1.00  0.00     0.167 HD
ATOM     58  C   UNL A   1      45.492  30.626  28.147  1.00  0.00     0.074 A 
ATOM     59  C   UNL A   1      46.818  30.923  27.644  1.00  0.00     0.031 C 
ATOM     60  C   UNL A   1      44.700  31.521  28.787  1.00  0.00     0.034 A 
BRANCH  47  61
ATOM     61  C   UNL A   1      39.064  29.386  30.131  1.00  0.00     0.023 A 
ATOM     62  C   UNL A   1      38.756  28.950  31.436  1.00  0.00     0.012 A 
ATOM     63  C   UNL A   1      38.114  30.133  29.409  1.00  0.00     0.148 A 
ATOM     64  C   UNL A   1      37.513  29.228  32.003  1.00  0.00     0.002 A 
ATOM     65  C   UNL A   1      36.890  30.438  29.996  1.00  0.00     0.091 A 
ATOM     66  F   UNL A   1      38.415  30.518  28.161  1.00  0.00    -0.205 F 
ATOM     67  C   UNL A   1      36.586  29.980  31.288  1.00  0.00     0.022 A 
BRANCH  65  68
ATOM     68  S   UNL A   1      35.656  31.461  29.182  1.00  0.00     0.127 S 
ATOM     69  O   UNL A   1      34.856  31.914  30.319  1.00  0.00    -0.237 OA
ATOM     70  O   UNL A   1      36.476  32.501  28.561  1.00  0.00    -0.237 OA
ATOM     71  O   UNL A   1      34.972  30.585  28.241  1.00  0.00    -0.744 OA
ENDBRANCH  65  68
ENDBRANCH  47  61
BRANCH  48  72
ATOM     72  C   UNL A   1      47.852  27.195  25.947  1.00  0.00     0.023 A 
ATOM     73  C   UNL A   1      48.880  26.591  26.696  1.00  0.00     0.012 A 
ATOM     74  C   UNL A   1      48.060  27.454  24.578  1.00  0.00     0.148 A 
ATOM     75  C   UNL A   1      50.101  26.271  26.101  1.00  0.00     0.002 A 
ATOM     76  C   UNL A   1      49.259  27.085  23.979  1.00  0.00     0.091 A 
ATOM     77  F   UNL A   1      47.077  28.046  23.886  1.00  0.00    -0.205 F 
ATOM     78  C   UNL A   1      50.286  26.507  24.740  1.00  0.00     0.022 A 
BRANCH  76  79
ATOM     79  S   UNL A   1      49.527  27.229  22.208  1.00  0.00     0.127 S 
ATOM     80  O   UNL A   1      50.976  27.079  22.111  1.00  0.00    -0.237 OA
ATOM     81  O   UNL A   1      48.753  26.101  21.687  1.00  0.00    -0.237 OA
ATOM     82  O   UNL A   1      48.995  28.535  21.843  1.00  0.00    -0.744 OA
ENDBRANCH  76  79
ENDBRANCH  48  72
BRANCH  60  83
ATOM     83  C   UNL A   1      45.243  32.912  28.985  1.00  0.00     0.023 A 
ATOM     84  C   UNL A   1      46.041  33.187  30.114  1.00  0.00     0.012 A 
ATOM     85  C   UNL A   1      45.028  33.921  28.027  1.00  0.00     0.148 A 
ATOM     86  C   UNL A   1      46.595  34.452  30.298  1.00  0.00     0.002 A 
ATOM     87  C   UNL A   1      45.618  35.168  28.197  1.00  0.00     0.091 A 
ATOM     88  F   UNL A   1      44.247  33.646  26.972  1.00  0.00    -0.205 F 
ATOM     89  C   UNL A   1      46.394  35.438  29.336  1.00  0.00     0.022 A 
BRANCH  87  90
ATOM     90  S   UNL A   1      45.484  36.469  26.965  1.00  0.00     0.127 S 
ATOM     91  O   UNL A   1      46.116  35.848  25.803  1.00  0.00    -0.237 OA
ATOM     92  O   UNL A   1      44.035  36.643  26.850  1.00  0.00    -0.237 OA
ATOM     93  O   UNL A   1      46.184  37.619  27.522  1.00  0.00    -0.744 OA
ENDBRANCH  87  90
ENDBRANCH  60  83
ENDBRANCH  34  35
ENDBRANCH  26  29
ENDBRANCH  24  25
ENDBRANCH  23  24
ENDBRANCH   1  23
TORSDOF 17
ENDMDL
MODEL 2
REMARK VINA RESULT:     -11.1      0.786      7.553
REMARK SMILES CN([C@H]1CCSC1)S(=O)(=O)c1cccc(C(=O)NCCCCNC(=O)c2ccc(-c3c4nc(c(-c5cccc(S(=O)(=O)[O-])c5F)c5ccc([nH]5)c(-c5cccc(S(=O)(=O)[O-])c5F)c5nc(c(-c6cccc(S(=O)(=O)[O-])c6F)c6ccc3[nH]6)C=C5)C=C4)cc2)c1
REMARK SMILES IDX 20 1 19 2 18 3 16 4 17 5 15 7 11 8 12 9 89 10 13 11 14 12
REMARK SMILES IDX 8 13 9 14 10 15 2 16 1 17 3 18 4 19 7 20 5 21 6 22 21 23
REMARK SMILES IDX 22 24 23 25 24 26 25 28 26 29 27 30 88 31 28 32 87 33 29 34
REMARK SMILES IDX 30 35 31 36 81 37 32 38 86 39 80 40 82 41 33 42 85 43 79 44
REMARK SMILES IDX 78 45 34 47 66 48 46 49 65 50 47 51 50 52 64 53 83 54 48 55
REMARK SMILES IDX 49 56 63 58 84 59 51 60 35 61 36 62 44 63 37 64 39 65 45 66
REMARK SMILES IDX 38 67 40 68 41 69 42 70 43 71 67 72 68 73 76 74 69 75 71 76
REMARK SMILES IDX 77 77 70 78 72 79 73 80 74 81 75 82 52 83 53 84 61 85 54 86
REMARK SMILES IDX 56 87 62 88 55 89 57 90 58 91 59 92 60 93
REMARK H PARENT 18 6 23 27 82 46 50 57
REMARK Flexibility Score: inf
ROOT
ATOM      1  C   UNL A   1      37.484  21.112  24.589  1.00  0.00     0.023 C 
ENDROOT
BRANCH   1   2
ATOM      2  C   UNL A   1      36.209  21.090  25.418  1.00  0.00     0.116 C 
BRANCH   2   3
ATOM      3  N   UNL A   1      35.260  20.032  25.090  1.00  0.00    -0.352 N 
ATOM      4  C   UNL A   1      33.879  20.035  25.073  1.00  0.00     0.251 C 
ATOM      5  O   UNL A   1      33.262  19.030  24.729  1.00  0.00    -0.269 OA
ATOM      6  H   UNL A   1      35.673  19.173  24.840  1.00  0.00     0.163 HD
BRANCH   4   7
ATOM      7  C   UNL A   1      33.116  21.219  25.542  1.00  0.00     0.041 A 
ATOM      8  C   UNL A   1      32.058  23.311  25.037  1.00  0.00     0.083 A 
ATOM      9  C   UNL A   1      32.206  23.736  26.358  1.00  0.00     0.022 A 
ATOM     10  C   UNL A   1      32.399  22.014  24.655  1.00  0.00     0.035 A 
ATOM     11  C   UNL A   1      32.735  22.849  27.299  1.00  0.00     0.002 A 
ATOM     12  C   UNL A   1      33.221  21.604  26.885  1.00  0.00     0.014 A 
BRANCH   8  13
ATOM     13  S   UNL A   1      31.724  24.466  23.734  1.00  0.00     0.243 S 
ATOM     14  O   UNL A   1      30.304  24.432  23.450  1.00  0.00    -0.207 OA
ATOM     15  O   UNL A   1      32.697  24.165  22.706  1.00  0.00    -0.207 OA
BRANCH  13  16
ATOM     16  N   UNL A   1      32.067  26.034  24.357  1.00  0.00    -0.197 NA
ATOM     17  C   UNL A   1      33.469  26.411  23.976  1.00  0.00     0.125 C 
BRANCH  16  18
ATOM     18  C   UNL A   1      31.096  27.133  23.983  1.00  0.00     0.083 C 
ATOM     19  C   UNL A   1      31.321  28.445  24.734  1.00  0.00     0.032 C 
ATOM     20  C   UNL A   1      31.260  27.510  22.501  1.00  0.00     0.089 C 
ATOM     21  C   UNL A   1      30.437  29.494  24.082  1.00  0.00     0.071 C 
ATOM     22  S   UNL A   1      30.564  29.173  22.308  1.00  0.00    -0.160 SA
ENDBRANCH  16  18
ENDBRANCH  13  16
ENDBRANCH   8  13
ENDBRANCH   4   7
ENDBRANCH   2   3
ENDBRANCH   1   2
BRANCH   1  23
ATOM     23  C   UNL A   1      38.403  19.906  24.712  1.00  0.00     0.023 C 
BRANCH  23  24
ATOM     24  C   UNL A   1      39.017  19.660  26.087  1.00  0.00     0.116 C 
BRANCH  24  25
ATOM     25  N   UNL A   1      40.390  19.172  26.055  1.00  0.00    -0.352 N 
ATOM     26  C   UNL A   1      41.570  19.834  26.316  1.00  0.00     0.251 C 
ATOM     27  H   UNL A   1      40.490  18.223  25.810  1.00  0.00     0.163 HD
ATOM     28  O   UNL A   1      42.644  19.250  26.197  1.00  0.00    -0.269 OA
BRANCH  26  29
ATOM     29  C   UNL A   1      41.546  21.266  26.684  1.00  0.00     0.039 A 
ATOM     30  C   UNL A   1      42.005  21.639  27.951  1.00  0.00     0.014 A 
ATOM     31  C   UNL A   1      41.144  22.239  25.768  1.00  0.00     0.014 A 
ATOM     32  C   UNL A   1      42.181  22.992  28.251  1.00  0.00     0.010 A 
ATOM     33  C   UNL A   1      41.393  23.581  26.039  1.00  0.00     0.010 A 
ATOM     34  C   UNL A   1      41.942  23.969  27.271  1.00  0.00    -0.014 A 
BRANCH  34  35
ATOM     35  C   UNL A   1      42.347  25.385  27.473  1.00  0.00     0.031 A 
ATOM     36  C   UNL A   1      43.717  25.856  27.073  1.00  0.00     0.074 A 
ATOM     37  C   UNL A   1      41.518  26.215  28.139  1.00  0.00     0.049 A 
ATOM     38  N   UNL A   1      44.270  27.026  27.260  1.00  0.00    -0.248 NA
ATOM     39  C   UNL A   1      44.589  24.879  26.401  1.00  0.00     0.031 C 
ATOM     40  C   UNL A   1      40.199  25.851  28.665  1.00  0.00     0.029 A 
ATOM     41  N   UNL A   1      41.675  27.524  28.524  1.00  0.00    -0.354 N 
ATOM     42  C   UNL A   1      45.563  26.918  26.764  1.00  0.00     0.074 A 
ATOM     43  C   UNL A   1      45.722  25.560  26.291  1.00  0.00     0.031 C 
ATOM     44  C   UNL A   1      39.671  26.907  29.301  1.00  0.00     0.029 A 
ATOM     45  C   UNL A   1      40.621  28.014  29.259  1.00  0.00     0.049 A 
ATOM     46  H   UNL A   1      42.468  28.061  28.295  1.00  0.00     0.167 HD
ATOM     47  C   UNL A   1      46.522  27.872  26.681  1.00  0.00     0.034 A 
ATOM     48  C   UNL A   1      40.440  29.214  29.844  1.00  0.00     0.034 A 
ATOM     49  C   UNL A   1      46.345  29.234  27.105  1.00  0.00     0.049 A 
ATOM     50  C   UNL A   1      41.505  30.266  29.702  1.00  0.00     0.074 A 
ATOM     51  C   UNL A   1      47.216  30.300  26.957  1.00  0.00     0.029 A 
ATOM     52  N   UNL A   1      45.228  29.721  27.766  1.00  0.00    -0.354 N 
ATOM     53  N   UNL A   1      42.649  30.198  29.066  1.00  0.00    -0.248 NA
ATOM     54  C   UNL A   1      41.243  31.568  30.331  1.00  0.00     0.031 C 
ATOM     55  C   UNL A   1      46.631  31.428  27.542  1.00  0.00     0.029 A 
ATOM     56  C   UNL A   1      45.393  31.066  28.047  1.00  0.00     0.049 A 
ATOM     57  H   UNL A   1      44.435  29.187  28.001  1.00  0.00     0.167 HD
ATOM     58  C   UNL A   1      43.233  31.452  29.199  1.00  0.00     0.074 A 
ATOM     59  C   UNL A   1      42.303  32.269  29.952  1.00  0.00     0.031 C 
ATOM     60  C   UNL A   1      44.441  31.881  28.757  1.00  0.00     0.034 A 
BRANCH  47  61
ATOM     61  C   UNL A   1      47.830  27.491  26.041  1.00  0.00     0.023 A 
ATOM     62  C   UNL A   1      48.865  26.976  26.848  1.00  0.00     0.012 A 
ATOM     63  C   UNL A   1      48.016  27.578  24.648  1.00  0.00     0.148 A 
ATOM     64  C   UNL A   1      50.077  26.582  26.282  1.00  0.00     0.002 A 
ATOM     65  C   UNL A   1      49.214  27.148  24.087  1.00  0.00     0.091 A 
ATOM     66  F   UNL A   1      47.029  28.093  23.901  1.00  0.00    -0.205 F 
ATOM     67  C   UNL A   1      50.247  26.657  24.902  1.00  0.00     0.022 A 
BRANCH  65  68
ATOM     68  S   UNL A   1      49.502  27.141  22.313  1.00  0.00     0.127 S 
ATOM     69  O   UNL A   1      49.155  28.515  21.954  1.00  0.00    -0.237 OA
ATOM     70  O   UNL A   1      50.930  26.832  22.232  1.00  0.00    -0.237 OA
ATOM     71  O   UNL A   1      48.627  26.110  21.772  1.00  0.00    -0.744 OA
ENDBRANCH  65  68
ENDBRANCH  47  61
BRANCH  48  72
ATOM     72  C   UNL A   1      39.167  29.505  30.561  1.00  0.00     0.023 A 
ATOM     73  C   UNL A   1      38.964  28.966  31.846  1.00  0.00     0.012 A 
ATOM     74  C   UNL A   1      38.179  30.340  30.003  1.00  0.00     0.148 A 
ATOM     75  C   UNL A   1      37.792  29.232  32.554  1.00  0.00     0.002 A 
ATOM     76  C   UNL A   1      37.036  30.644  30.735  1.00  0.00     0.091 A 
ATOM     77  F   UNL A   1      38.380  30.830  28.772  1.00  0.00    -0.205 F 
ATOM     78  C   UNL A   1      36.833  30.080  32.004  1.00  0.00     0.022 A 
BRANCH  76  79
ATOM     79  S   UNL A   1      35.819  31.833  30.157  1.00  0.00     0.127 S 
ATOM     80  O   UNL A   1      35.251  31.143  29.003  1.00  0.00    -0.237 OA
ATOM     81  O   UNL A   1      34.926  31.944  31.311  1.00  0.00    -0.237 OA
ATOM     82  O   UNL A   1      36.572  33.047  29.868  1.00  0.00    -0.744 OA
ENDBRANCH  76  79
ENDBRANCH  48  72
BRANCH  60  83
ATOM     83  C   UNL A   1      44.832  33.301  29.071  1.00  0.00     0.023 A 
ATOM     84  C   UNL A   1      45.451  33.590  30.303  1.00  0.00     0.012 A 
ATOM     85  C   UNL A   1      44.654  34.331  28.127  1.00  0.00     0.148 A 
ATOM     86  C   UNL A   1      45.866  34.887  30.601  1.00  0.00     0.002 A 
ATOM     87  C   UNL A   1      45.108  35.613  28.414  1.00  0.00     0.091 A 
ATOM     88  F   UNL A   1      44.043  34.040  26.969  1.00  0.00    -0.205 F 
ATOM     89  C   UNL A   1      45.705  35.895  29.653  1.00  0.00     0.022 A 
BRANCH  87  90
ATOM     90  S   UNL A   1      45.021  36.952  27.219  1.00  0.00     0.127 S 
ATOM     91  O   UNL A   1      43.602  36.947  26.866  1.00  0.00    -0.237 OA
ATOM     92  O   UNL A   1      45.447  38.107  28.010  1.00  0.00    -0.237 OA
ATOM     93  O   UNL A   1      45.937  36.588  26.145  1.00  0.00    -0.744 OA
ENDBRANCH  87  90
ENDBRANCH  60  83
ENDBRANCH  34  35
ENDBRANCH  26  29
ENDBRANCH  24  25
ENDBRANCH  23  24
ENDBRANCH   1  23
TORSDOF 17
ENDMDL
MODEL 3
REMARK VINA RESULT:     -10.6      1.280      1.940
REMARK SMILES CN([C@H]1CCSC1)S(=O)(=O)c1cccc(C(=O)NCCCCNC(=O)c2ccc(-c3c4nc(c(-c5cccc(S(=O)(=O)[O-])c5F)c5ccc([nH]5)c(-c5cccc(S(=O)(=O)[O-])c5F)c5nc(c(-c6cccc(S(=O)(=O)[O-])c6F)c6ccc3[nH]6)C=C5)C=C4)cc2)c1
REMARK SMILES IDX 20 1 19 2 18 3 16 4 17 5 15 7 11 8 12 9 89 10 13 11 14 12
REMARK SMILES IDX 8 13 9 14 10 15 2 16 1 17 3 18 4 19 7 20 5 21 6 22 21 23
REMARK SMILES IDX 22 24 23 25 24 26 25 28 26 29 27 30 88 31 28 32 87 33 29 34
REMARK SMILES IDX 30 35 31 36 81 37 32 38 86 39 80 40 82 41 33 42 85 43 79 44
REMARK SMILES IDX 78 45 34 47 66 48 46 49 65 50 47 51 50 52 64 53 83 54 48 55
REMARK SMILES IDX 49 56 63 58 84 59 51 60 35 61 36 62 44 63 37 64 39 65 45 66
REMARK SMILES IDX 38 67 40 68 41 69 42 70 43 71 67 72 68 73 76 74 69 75 71 76
REMARK SMILES IDX 77 77 70 78 72 79 73 80 74 81 75 82 52 83 53 84 61 85 54 86
REMARK SMILES IDX 56 87 62 88 55 89 57 90 58 91 59 92 60 93
REMARK H PARENT 18 6 23 27 82 46 50 57
REMARK Flexibility Score: inf
ROOT
ATOM      1  C   UNL A   1      37.710  22.112  25.365  1.00  0.00     0.023 C 
ENDROOT
BRANCH   1   2
ATOM      2  C   UNL A   1      36.448  22.176  24.518  1.00  0.00     0.116 C 
BRANCH   2   3
ATOM      3  N   UNL A   1      35.191  22.004  25.240  1.00  0.00    -0.352 N 
ATOM      4  C   UNL A   1      33.989  22.672  25.125  1.00  0.00     0.251 C 
ATOM      5  O   UNL A   1      33.029  22.343  25.817  1.00  0.00    -0.269 OA
ATOM      6  H   UNL A   1      35.204  21.294  25.923  1.00  0.00     0.163 HD
BRANCH   4   7
ATOM      7  C   UNL A   1      33.853  23.845  24.224  1.00  0.00     0.041 A 
ATOM      8  C   UNL A   1      33.647  26.220  23.962  1.00  0.00     0.083 A 
ATOM      9  C   UNL A   1      33.025  26.056  22.722  1.00  0.00     0.022 A 
ATOM     10  C   UNL A   1      34.169  25.128  24.655  1.00  0.00     0.035 A 
ATOM     11  C   UNL A   1      32.902  24.770  22.191  1.00  0.00     0.002 A 
ATOM     12  C   UNL A   1      33.284  23.662  22.957  1.00  0.00     0.014 A 
BRANCH   8  13
ATOM     13  S   UNL A   1      33.538  27.751  24.847  1.00  0.00     0.243 S 
ATOM     14  O   UNL A   1      34.007  28.812  23.980  1.00  0.00    -0.207 OA
ATOM     15  O   UNL A   1      34.173  27.495  26.121  1.00  0.00    -0.207 OA
BRANCH  13  16
ATOM     16  N   UNL A   1      31.866  28.045  25.130  1.00  0.00    -0.197 NA
ATOM     17  C   UNL A   1      31.728  28.984  26.293  1.00  0.00     0.125 C 
BRANCH  16  18
ATOM     18  C   UNL A   1      31.059  28.537  23.947  1.00  0.00     0.083 C 
ATOM     19  C   UNL A   1      29.829  27.688  23.635  1.00  0.00     0.032 C 
ATOM     20  C   UNL A   1      30.493  29.938  24.232  1.00  0.00     0.089 C 
ATOM     21  C   UNL A   1      29.015  28.439  22.594  1.00  0.00     0.071 C 
ATOM     22  S   UNL A   1      29.091  30.171  23.105  1.00  0.00    -0.160 SA
ENDBRANCH  16  18
ENDBRANCH  13  16
ENDBRANCH   8  13
ENDBRANCH   4   7
ENDBRANCH   2   3
ENDBRANCH   1   2
BRANCH   1  23
ATOM     23  C   UNL A   1      38.101  20.746  25.909  1.00  0.00     0.023 C 
BRANCH  23  24
ATOM     24  C   UNL A   1      39.004  19.897  25.020  1.00  0.00     0.116 C 
BRANCH  24  25
ATOM     25  N   UNL A   1      40.074  19.207  25.732  1.00  0.00    -0.352 N 
ATOM     26  C   UNL A   1      41.082  19.717  26.520  1.00  0.00     0.251 C 
ATOM     27  H   UNL A   1      40.075  18.227  25.636  1.00  0.00     0.163 HD
ATOM     28  O   UNL A   1      41.922  18.965  27.009  1.00  0.00    -0.269 OA
BRANCH  26  29
ATOM     29  C   UNL A   1      41.188  21.177  26.730  1.00  0.00     0.039 A 
ATOM     30  C   UNL A   1      40.932  21.690  28.005  1.00  0.00     0.014 A 
ATOM     31  C   UNL A   1      41.604  22.024  25.702  1.00  0.00     0.014 A 
ATOM     32  C   UNL A   1      41.218  23.030  28.280  1.00  0.00     0.010 A 
ATOM     33  C   UNL A   1      41.961  23.337  25.997  1.00  0.00     0.010 A 
ATOM     34  C   UNL A   1      41.800  23.844  27.295  1.00  0.00    -0.014 A 
BRANCH  34  35
ATOM     35  C   UNL A   1      42.337  25.191  27.621  1.00  0.00     0.031 A 
ATOM     36  C   UNL A   1      41.459  26.238  28.246  1.00  0.00     0.074 A 
ATOM     37  C   UNL A   1      43.589  25.509  27.231  1.00  0.00     0.049 A 
ATOM     38  N   UNL A   1      41.732  27.489  28.511  1.00  0.00    -0.248 NA
ATOM     39  C   UNL A   1      40.086  25.836  28.593  1.00  0.00     0.031 C 
ATOM     40  C   UNL A   1      44.510  24.611  26.529  1.00  0.00     0.029 A 
ATOM     41  N   UNL A   1      44.291  26.685  27.333  1.00  0.00    -0.354 N 
ATOM     42  C   UNL A   1      40.561  28.034  29.021  1.00  0.00     0.074 A 
ATOM     43  C   UNL A   1      39.565  26.984  29.005  1.00  0.00     0.031 C 
ATOM     44  C   UNL A   1      45.650  25.267  26.264  1.00  0.00     0.029 A 
ATOM     45  C   UNL A   1      45.534  26.639  26.747  1.00  0.00     0.049 A 
ATOM     46  H   UNL A   1      43.937  27.486  27.784  1.00  0.00     0.167 HD
ATOM     47  C   UNL A   1      40.342  29.286  29.490  1.00  0.00     0.034 A 
ATOM     48  C   UNL A   1      46.473  27.594  26.602  1.00  0.00     0.034 A 
ATOM     49  C   UNL A   1      41.347  30.312  29.552  1.00  0.00     0.049 A 
ATOM     50  C   UNL A   1      46.218  28.964  27.167  1.00  0.00     0.074 A 
ATOM     51  C   UNL A   1      41.253  31.574  30.115  1.00  0.00     0.029 A 
ATOM     52  N   UNL A   1      42.626  30.203  29.030  1.00  0.00    -0.354 N 
ATOM     53  N   UNL A   1      45.166  29.405  27.813  1.00  0.00    -0.248 NA
ATOM     54  C   UNL A   1      47.289  29.959  27.011  1.00  0.00     0.031 C 
ATOM     55  C   UNL A   1      42.472  32.232  29.919  1.00  0.00     0.029 A 
ATOM     56  C   UNL A   1      43.327  31.378  29.243  1.00  0.00     0.049 A 
ATOM     57  H   UNL A   1      42.983  29.406  28.574  1.00  0.00     0.167 HD
ATOM     58  C   UNL A   1      45.455  30.720  28.158  1.00  0.00     0.074 A 
ATOM     59  C   UNL A   1      46.794  30.994  27.676  1.00  0.00     0.031 C 
ATOM     60  C   UNL A   1      44.674  31.625  28.798  1.00  0.00     0.034 A 
BRANCH  47  61
ATOM     61  C   UNL A   1      38.976  29.595  30.041  1.00  0.00     0.023 A 
ATOM     62  C   UNL A   1      38.691  29.282  31.386  1.00  0.00     0.012 A 
ATOM     63  C   UNL A   1      38.001  30.245  29.260  1.00  0.00     0.148 A 
ATOM     64  C   UNL A   1      37.447  29.585  31.937  1.00  0.00     0.002 A 
ATOM     65  C   UNL A   1      36.776  30.578  29.828  1.00  0.00     0.091 A 
ATOM     66  F   UNL A   1      38.282  30.512  27.976  1.00  0.00    -0.205 F 
ATOM     67  C   UNL A   1      36.495  30.242  31.163  1.00  0.00     0.022 A 
BRANCH  65  68
ATOM     68  S   UNL A   1      35.511  31.486  28.932  1.00  0.00     0.127 S 
ATOM     69  O   UNL A   1      34.922  30.433  28.106  1.00  0.00    -0.237 OA
ATOM     70  O   UNL A   1      34.649  31.965  30.013  1.00  0.00    -0.237 OA
ATOM     71  O   UNL A   1      36.213  32.536  28.207  1.00  0.00    -0.744 OA
ENDBRANCH  65  68
ENDBRANCH  47  61
BRANCH  48  72
ATOM     72  C   UNL A   1      47.772  27.265  25.950  1.00  0.00     0.023 A 
ATOM     73  C   UNL A   1      48.800  26.688  26.721  1.00  0.00     0.012 A 
ATOM     74  C   UNL A   1      47.983  27.479  24.574  1.00  0.00     0.148 A 
ATOM     75  C   UNL A   1      50.022  26.351  26.140  1.00  0.00     0.002 A 
ATOM     76  C   UNL A   1      49.185  27.092  23.990  1.00  0.00     0.091 A 
ATOM     77  F   UNL A   1      47.001  28.046  23.860  1.00  0.00    -0.205 F 
ATOM     78  C   UNL A   1      50.211  26.542  24.773  1.00  0.00     0.022 A 
BRANCH  76  79
ATOM     79  S   UNL A   1      49.457  27.178  22.216  1.00  0.00     0.127 S 
ATOM     80  O   UNL A   1      49.119  28.569  21.929  1.00  0.00    -0.237 OA
ATOM     81  O   UNL A   1      50.880  26.854  22.107  1.00  0.00    -0.237 OA
ATOM     82  O   UNL A   1      48.572  26.174  21.641  1.00  0.00    -0.744 OA
ENDBRANCH  76  79
ENDBRANCH  48  72
BRANCH  60  83
ATOM     83  C   UNL A   1      45.244  33.001  29.020  1.00  0.00     0.023 A 
ATOM     84  C   UNL A   1      45.956  33.270  30.206  1.00  0.00     0.012 A 
ATOM     85  C   UNL A   1      45.139  34.000  28.033  1.00  0.00     0.148 A 
ATOM     86  C   UNL A   1      46.534  34.521  30.417  1.00  0.00     0.002 A 
ATOM     87  C   UNL A   1      45.753  35.231  28.233  1.00  0.00     0.091 A 
ATOM     88  F   UNL A   1      44.438  33.731  26.922  1.00  0.00    -0.205 F 
ATOM     89  C   UNL A   1      46.443  35.496  29.427  1.00  0.00     0.022 A 
BRANCH  87  90
ATOM     90  S   UNL A   1      45.761  36.515  26.975  1.00  0.00     0.127 S 
ATOM     91  O   UNL A   1      46.733  37.461  27.520  1.00  0.00    -0.237 OA
ATOM     92  O   UNL A   1      46.216  35.789  25.789  1.00  0.00    -0.237 OA
ATOM     93  O   UNL A   1      44.389  37.000  26.893  1.00  0.00    -0.744 OA
ENDBRANCH  87  90
ENDBRANCH  60  83
ENDBRANCH  34  35
ENDBRANCH  26  29
ENDBRANCH  24  25
ENDBRANCH  23  24
ENDBRANCH   1  23
TORSDOF 17
ENDMDL
