MODEL 1
REMARK VINA RESULT:     -13.8      0.000      0.000
REMARK SMILES Nc1ccc(-c2cc(Cl)cc3c2O[C@H](C(F)(F)F)C(C(=O)NCCCCNC(=O)c2ccc(-c4c5nc(c(-c6cccc(S(=O)(=O)[O-])c6F)c6ccc([nH]6)c(-c6cccc(S(=O)(=O)[O-])c6F)c6nc(c(-c7cccc(S(=O)(=O)[O-])c7F)c7ccc4[nH]7)C=C6)C=C5)cc2)=C3)cc1
REMARK SMILES IDX 25 1 24 2 23 3 22 4 20 5 21 6 19 8 6 9 7 10 12 11 8 12 11 13
REMARK SMILES IDX 13 14 9 15 10 16 93 17 14 18 5 19 2 20 3 21 95 22 4 23 94 24
REMARK SMILES IDX 1 25 15 28 16 29 17 30 18 31 26 32 27 33 28 34 29 36 30 37
REMARK SMILES IDX 31 38 92 39 32 40 91 41 33 42 34 43 35 44 85 45 36 46 90 47
REMARK SMILES IDX 84 48 86 49 37 50 89 51 83 52 82 53 38 55 70 56 50 57 69 58
REMARK SMILES IDX 51 59 54 60 68 61 87 62 52 63 53 64 67 66 88 67 55 68 39 69
REMARK SMILES IDX 40 70 48 71 41 72 43 73 49 74 42 75 44 76 45 77 46 78 47 79
REMARK SMILES IDX 71 80 72 81 80 82 73 83 75 84 81 85 74 86 76 87 77 88 78 89
REMARK SMILES IDX 79 90 56 91 57 92 65 93 58 94 60 95 66 96 59 97 61 98 62 99
REMARK SMILES IDX 63 100 64 101
REMARK H PARENT 22 7 1 26 1 27 27 35 86 54 54 65
REMARK Flexibility Score: inf
ROOT
ATOM      1  C   UNL A   1      31.450  29.605  25.140  1.00  0.00     0.023 C 
ENDROOT
BRANCH   1   2
ATOM      2  C   UNL A   1      32.061  28.535  24.232  1.00  0.00     0.023 C 
BRANCH   2   3
ATOM      3  C   UNL A   1      31.077  27.462  23.769  1.00  0.00     0.116 C 
BRANCH   3   4
ATOM      4  N   UNL A   1      30.352  26.866  24.878  1.00  0.00    -0.352 N 
ATOM      5  C   UNL A   1      30.447  25.744  25.631  1.00  0.00     0.251 C 
ATOM      6  O   UNL A   1      29.589  25.621  26.512  1.00  0.00    -0.270 OA
ATOM      7  H   UNL A   1      29.591  27.425  25.157  1.00  0.00     0.163 HD
BRANCH   5   8
ATOM      8  C   UNL A   1      31.485  24.683  25.470  1.00  0.00     0.067 C 
ATOM      9  C   UNL A   1      34.469  21.716  25.239  1.00  0.00     0.026 A 
ATOM     10  C   UNL A   1      35.809  22.095  25.405  1.00  0.00     0.033 A 
ATOM     11  C   UNL A   1      33.478  22.705  25.396  1.00  0.00     0.135 A 
ATOM     12  C   UNL A   1      36.137  23.418  25.712  1.00  0.00     0.042 A 
ATOM     13  C   UNL A   1      33.804  24.032  25.699  1.00  0.00     0.019 A 
ATOM     14  O   UNL A   1      32.167  22.310  25.305  1.00  0.00    -0.475 OA
ATOM     15  Cl  UNL A   1      37.790  23.858  25.911  1.00  0.00    -0.084 Cl
ATOM     16  C   UNL A   1      35.144  24.387  25.860  1.00  0.00     0.032 A 
ATOM     17  C   UNL A   1      32.731  25.010  25.862  1.00  0.00     0.025 C 
ATOM     18  C   UNL A   1      31.225  23.328  24.880  1.00  0.00     0.314 C 
BRANCH   9  19
ATOM     19  C   UNL A   1      34.114  20.332  24.892  1.00  0.00    -0.014 A 
ATOM     20  C   UNL A   1      33.480  17.709  24.030  1.00  0.00     0.031 A 
ATOM     21  C   UNL A   1      34.789  18.047  24.373  1.00  0.00     0.026 A 
ATOM     22  C   UNL A   1      32.479  18.668  24.198  1.00  0.00     0.026 A 
ATOM     23  C   UNL A   1      35.106  19.344  24.789  1.00  0.00     0.011 A 
ATOM     24  C   UNL A   1      32.791  19.968  24.611  1.00  0.00     0.011 A 
BRANCH  20  25
ATOM     25  N   UNL A   1      33.163  16.411  23.661  1.00  0.00    -0.399 N 
ATOM     26  H   UNL A   1      33.588  16.006  22.871  1.00  0.00     0.156 HD
ATOM     27  H   UNL A   1      32.513  15.894  24.189  1.00  0.00     0.156 HD
ENDBRANCH  20  25
ENDBRANCH   9  19
BRANCH  18  28
ATOM     28  C   UNL A   1      31.145  23.345  23.341  1.00  0.00     0.429 C 
ATOM     29  F   UNL A   1      32.046  24.222  22.829  1.00  0.00    -0.167 F 
ATOM     30  F   UNL A   1      31.423  22.141  22.793  1.00  0.00    -0.167 F 
ATOM     31  F   UNL A   1      29.925  23.714  22.887  1.00  0.00    -0.167 F 
ENDBRANCH  18  28
ENDBRANCH   5   8
ENDBRANCH   3   4
ENDBRANCH   2   3
ENDBRANCH   1   2
BRANCH   1  32
ATOM     32  C   UNL A   1      32.359  30.121  26.254  1.00  0.00     0.116 C 
BRANCH  32  33
ATOM     33  N   UNL A   1      32.075  31.485  26.679  1.00  0.00    -0.352 N 
ATOM     34  C   UNL A   1      32.915  32.344  27.357  1.00  0.00     0.251 C 
ATOM     35  H   UNL A   1      31.182  31.834  26.457  1.00  0.00     0.163 HD
ATOM     36  O   UNL A   1      32.519  33.445  27.722  1.00  0.00    -0.269 OA
BRANCH  34  37
ATOM     37  C   UNL A   1      34.277  31.878  27.689  1.00  0.00     0.039 A 
ATOM     38  C   UNL A   1      34.512  30.523  27.930  1.00  0.00     0.014 A 
ATOM     39  C   UNL A   1      35.294  32.818  27.872  1.00  0.00     0.014 A 
ATOM     40  C   UNL A   1      35.703  30.134  28.530  1.00  0.00     0.010 A 
ATOM     41  C   UNL A   1      36.520  32.411  28.405  1.00  0.00     0.010 A 
ATOM     42  C   UNL A   1      36.710  31.078  28.799  1.00  0.00    -0.014 A 
BRANCH  42  43
ATOM     43  C   UNL A   1      37.933  30.643  29.522  1.00  0.00     0.031 A 
ATOM     44  C   UNL A   1      38.165  31.042  30.956  1.00  0.00     0.074 A 
ATOM     45  C   UNL A   1      38.804  29.822  28.904  1.00  0.00     0.049 A 
ATOM     46  N   UNL A   1      39.142  30.693  31.755  1.00  0.00    -0.248 NA
ATOM     47  C   UNL A   1      37.183  31.945  31.578  1.00  0.00     0.031 C 
ATOM     48  C   UNL A   1      38.696  29.379  27.512  1.00  0.00     0.029 A 
ATOM     49  N   UNL A   1      39.930  29.193  29.368  1.00  0.00    -0.354 N 
ATOM     50  C   UNL A   1      38.916  31.363  32.951  1.00  0.00     0.074 A 
ATOM     51  C   UNL A   1      37.710  32.141  32.780  1.00  0.00     0.031 C 
ATOM     52  C   UNL A   1      39.682  28.509  27.252  1.00  0.00     0.029 A 
ATOM     53  C   UNL A   1      40.517  28.364  28.442  1.00  0.00     0.049 A 
ATOM     54  H   UNL A   1      40.285  29.324  30.277  1.00  0.00     0.167 HD
ATOM     55  C   UNL A   1      39.634  31.315  34.097  1.00  0.00     0.034 A 
ATOM     56  C   UNL A   1      41.601  27.571  28.535  1.00  0.00     0.034 A 
ATOM     57  C   UNL A   1      40.795  30.490  34.294  1.00  0.00     0.049 A 
ATOM     58  C   UNL A   1      42.360  27.511  29.828  1.00  0.00     0.074 A 
ATOM     59  C   UNL A   1      41.560  30.346  35.439  1.00  0.00     0.029 A 
ATOM     60  N   UNL A   1      41.351  29.663  33.332  1.00  0.00    -0.354 N 
ATOM     61  N   UNL A   1      42.087  28.097  30.967  1.00  0.00    -0.248 NA
ATOM     62  C   UNL A   1      43.570  26.675  29.854  1.00  0.00     0.031 C 
ATOM     63  C   UNL A   1      42.577  29.425  35.171  1.00  0.00     0.029 A 
ATOM     64  C   UNL A   1      42.448  29.002  33.858  1.00  0.00     0.049 A 
ATOM     65  H   UNL A   1      41.017  29.560  32.413  1.00  0.00     0.167 HD
ATOM     66  C   UNL A   1      43.087  27.705  31.846  1.00  0.00     0.074 A 
ATOM     67  C   UNL A   1      43.958  26.805  31.117  1.00  0.00     0.031 C 
ATOM     68  C   UNL A   1      43.279  28.077  33.133  1.00  0.00     0.034 A 
BRANCH  55  69
ATOM     69  C   UNL A   1      39.156  32.129  35.267  1.00  0.00     0.023 A 
ATOM     70  C   UNL A   1      38.233  31.558  36.164  1.00  0.00     0.012 A 
ATOM     71  C   UNL A   1      39.692  33.404  35.534  1.00  0.00     0.148 A 
ATOM     72  C   UNL A   1      37.843  32.247  37.311  1.00  0.00     0.002 A 
ATOM     73  C   UNL A   1      39.316  34.075  36.692  1.00  0.00     0.091 A 
ATOM     74  F   UNL A   1      40.557  33.930  34.656  1.00  0.00    -0.205 F 
ATOM     75  C   UNL A   1      38.390  33.500  37.579  1.00  0.00     0.022 A 
BRANCH  73  76
ATOM     76  S   UNL A   1      39.997  35.670  37.158  1.00  0.00     0.127 S 
ATOM     77  O   UNL A   1      39.609  36.500  36.018  1.00  0.00    -0.237 OA
ATOM     78  O   UNL A   1      39.278  35.962  38.398  1.00  0.00    -0.237 OA
ATOM     79  O   UNL A   1      41.431  35.466  37.317  1.00  0.00    -0.744 OA
ENDBRANCH  73  76
ENDBRANCH  55  69
BRANCH  56  80
ATOM     80  C   UNL A   1      41.980  26.728  27.371  1.00  0.00     0.023 A 
ATOM     81  C   UNL A   1      42.682  27.313  26.300  1.00  0.00     0.012 A 
ATOM     82  C   UNL A   1      41.742  25.340  27.368  1.00  0.00     0.148 A 
ATOM     83  C   UNL A   1      43.141  26.527  25.242  1.00  0.00     0.002 A 
ATOM     84  C   UNL A   1      42.243  24.558  26.336  1.00  0.00     0.091 A 
ATOM     85  F   UNL A   1      41.061  24.813  28.395  1.00  0.00    -0.205 F 
ATOM     86  C   UNL A   1      42.935  25.150  25.267  1.00  0.00     0.022 A 
BRANCH  84  87
ATOM     87  S   UNL A   1      42.139  22.764  26.349  1.00  0.00     0.127 S 
ATOM     88  O   UNL A   1      42.916  22.429  27.539  1.00  0.00    -0.237 OA
ATOM     89  O   UNL A   1      40.697  22.548  26.473  1.00  0.00    -0.237 OA
ATOM     90  O   UNL A   1      42.705  22.327  25.081  1.00  0.00    -0.744 OA
ENDBRANCH  84  87
ENDBRANCH  56  80
BRANCH  68  91
ATOM     91  C   UNL A   1      44.484  27.538  33.851  1.00  0.00     0.023 A 
ATOM     92  C   UNL A   1      45.675  28.290  33.837  1.00  0.00     0.012 A 
ATOM     93  C   UNL A   1      44.404  26.370  34.629  1.00  0.00     0.148 A 
ATOM     94  C   UNL A   1      46.774  27.882  34.590  1.00  0.00     0.002 A 
ATOM     95  C   UNL A   1      45.494  25.984  35.399  1.00  0.00     0.091 A 
ATOM     96  F   UNL A   1      43.259  25.671  34.616  1.00  0.00    -0.205 F 
ATOM     97  C   UNL A   1      46.681  26.738  35.377  1.00  0.00     0.022 A 
BRANCH  95  98
ATOM     98  S   UNL A   1      45.453  24.565  36.499  1.00  0.00     0.127 S 
ATOM     99  O   UNL A   1      46.807  24.575  37.050  1.00  0.00    -0.237 OA
ATOM    100  O   UNL A   1      44.405  24.940  37.448  1.00  0.00    -0.237 OA
ATOM    101  O   UNL A   1      45.133  23.415  35.663  1.00  0.00    -0.744 OA
ENDBRANCH  95  98
ENDBRANCH  68  91
ENDBRANCH  42  43
ENDBRANCH  34  37
ENDBRANCH  32  33
ENDBRANCH   1  32
TORSDOF 17
ENDMDL
MODEL 2
REMARK VINA RESULT:     -13.6      1.288      7.401
REMARK SMILES Nc1ccc(-c2cc(Cl)cc3c2O[C@H](C(F)(F)F)C(C(=O)NCCCCNC(=O)c2ccc(-c4c5nc(c(-c6cccc(S(=O)(=O)[O-])c6F)c6ccc([nH]6)c(-c6cccc(S(=O)(=O)[O-])c6F)c6nc(c(-c7cccc(S(=O)(=O)[O-])c7F)c7ccc4[nH]7)C=C6)C=C5)cc2)=C3)cc1
REMARK SMILES IDX 25 1 24 2 23 3 22 4 20 5 21 6 19 8 6 9 7 10 12 11 8 12 11 13
REMARK SMILES IDX 13 14 9 15 10 16 93 17 14 18 5 19 2 20 3 21 95 22 4 23 94 24
REMARK SMILES IDX 1 25 15 28 16 29 17 30 18 31 26 32 27 33 28 34 29 36 30 37
REMARK SMILES IDX 31 38 92 39 32 40 91 41 33 42 34 43 35 44 85 45 36 46 90 47
REMARK SMILES IDX 84 48 86 49 37 50 89 51 83 52 82 53 38 55 70 56 50 57 69 58
REMARK SMILES IDX 51 59 54 60 68 61 87 62 52 63 53 64 67 66 88 67 55 68 39 69
REMARK SMILES IDX 40 70 48 71 41 72 43 73 49 74 42 75 44 76 45 77 46 78 47 79
REMARK SMILES IDX 71 80 72 81 80 82 73 83 75 84 81 85 74 86 76 87 77 88 78 89
REMARK SMILES IDX 79 90 56 91 57 92 65 93 58 94 60 95 66 96 59 97 61 98 62 99
REMARK SMILES IDX 63 100 64 101
REMARK H PARENT 22 7 1 26 1 27 27 35 86 54 54 65
REMARK Flexibility Score: inf
ROOT
ATOM      1  C   UNL A   1      31.444  29.642  25.058  1.00  0.00     0.023 C 
ENDROOT
BRANCH   1   2
ATOM      2  C   UNL A   1      32.048  28.543  24.181  1.00  0.00     0.023 C 
BRANCH   2   3
ATOM      3  C   UNL A   1      31.055  27.470  23.739  1.00  0.00     0.116 C 
BRANCH   3   4
ATOM      4  N   UNL A   1      30.371  26.856  24.864  1.00  0.00    -0.352 N 
ATOM      5  C   UNL A   1      30.500  25.729  25.604  1.00  0.00     0.251 C 
ATOM      6  O   UNL A   1      29.671  25.590  26.510  1.00  0.00    -0.270 OA
ATOM      7  H   UNL A   1      29.613  27.406  25.171  1.00  0.00     0.163 HD
BRANCH   5   8
ATOM      8  C   UNL A   1      31.542  24.679  25.400  1.00  0.00     0.067 C 
ATOM      9  C   UNL A   1      34.542  21.740  25.051  1.00  0.00     0.026 A 
ATOM     10  C   UNL A   1      35.881  22.123  25.213  1.00  0.00     0.033 A 
ATOM     11  C   UNL A   1      33.546  22.717  25.248  1.00  0.00     0.135 A 
ATOM     12  C   UNL A   1      36.204  23.438  25.555  1.00  0.00     0.042 A 
ATOM     13  C   UNL A   1      33.868  24.038  25.585  1.00  0.00     0.019 A 
ATOM     14  O   UNL A   1      32.237  22.317  25.159  1.00  0.00    -0.475 OA
ATOM     15  Cl  UNL A   1      37.857  23.883  25.748  1.00  0.00    -0.084 Cl
ATOM     16  C   UNL A   1      35.207  24.396  25.741  1.00  0.00     0.032 A 
ATOM     17  C   UNL A   1      32.791  25.003  25.788  1.00  0.00     0.025 C 
ATOM     18  C   UNL A   1      31.284  23.341  24.774  1.00  0.00     0.314 C 
BRANCH   9  19
ATOM     19  C   UNL A   1      34.191  20.364  24.668  1.00  0.00    -0.014 A 
ATOM     20  C   UNL A   1      33.430  17.693  24.112  1.00  0.00     0.031 A 
ATOM     21  C   UNL A   1      32.542  18.745  23.890  1.00  0.00     0.026 A 
ATOM     22  C   UNL A   1      34.726  17.993  24.537  1.00  0.00     0.026 A 
ATOM     23  C   UNL A   1      32.913  20.064  24.173  1.00  0.00     0.011 A 
ATOM     24  C   UNL A   1      35.101  19.311  24.824  1.00  0.00     0.011 A 
BRANCH  20  25
ATOM     25  N   UNL A   1      33.074  16.394  23.788  1.00  0.00    -0.399 N 
ATOM     26  H   UNL A   1      33.772  15.717  23.631  1.00  0.00     0.156 HD
ATOM     27  H   UNL A   1      32.124  16.147  23.713  1.00  0.00     0.156 HD
ENDBRANCH  20  25
ENDBRANCH   9  19
BRANCH  18  28
ATOM     28  C   UNL A   1      31.187  23.402  23.238  1.00  0.00     0.429 C 
ATOM     29  F   UNL A   1      29.978  23.888  22.857  1.00  0.00    -0.167 F 
ATOM     30  F   UNL A   1      32.120  24.214  22.690  1.00  0.00    -0.167 F 
ATOM     31  F   UNL A   1      31.331  22.189  22.657  1.00  0.00    -0.167 F 
ENDBRANCH  18  28
ENDBRANCH   5   8
ENDBRANCH   3   4
ENDBRANCH   2   3
ENDBRANCH   1   2
BRANCH   1  32
ATOM     32  C   UNL A   1      32.314  30.106  26.226  1.00  0.00     0.116 C 
BRANCH  32  33
ATOM     33  N   UNL A   1      32.105  31.493  26.617  1.00  0.00    -0.352 N 
ATOM     34  C   UNL A   1      32.969  32.303  27.325  1.00  0.00     0.251 C 
ATOM     35  H   UNL A   1      31.251  31.900  26.345  1.00  0.00     0.163 HD
ATOM     36  O   UNL A   1      32.634  33.436  27.654  1.00  0.00    -0.269 OA
BRANCH  34  37
ATOM     37  C   UNL A   1      34.276  31.748  27.733  1.00  0.00     0.039 A 
ATOM     38  C   UNL A   1      34.413  30.379  27.960  1.00  0.00     0.014 A 
ATOM     39  C   UNL A   1      35.334  32.622  28.000  1.00  0.00     0.014 A 
ATOM     40  C   UNL A   1      35.537  29.907  28.626  1.00  0.00     0.010 A 
ATOM     41  C   UNL A   1      36.497  32.131  28.600  1.00  0.00     0.010 A 
ATOM     42  C   UNL A   1      36.580  30.782  28.978  1.00  0.00    -0.014 A 
BRANCH  42  43
ATOM     43  C   UNL A   1      37.725  30.261  29.768  1.00  0.00     0.031 A 
ATOM     44  C   UNL A   1      38.756  29.364  29.135  1.00  0.00     0.074 A 
ATOM     45  C   UNL A   1      37.875  30.659  31.046  1.00  0.00     0.049 A 
ATOM     46  N   UNL A   1      39.851  28.877  29.661  1.00  0.00    -0.248 NA
ATOM     47  C   UNL A   1      38.537  28.957  27.737  1.00  0.00     0.031 C 
ATOM     48  C   UNL A   1      36.934  31.513  31.775  1.00  0.00     0.029 A 
ATOM     49  N   UNL A   1      38.880  30.424  31.948  1.00  0.00    -0.354 N 
ATOM     50  C   UNL A   1      40.426  28.079  28.680  1.00  0.00     0.074 A 
ATOM     51  C   UNL A   1      39.562  28.142  27.523  1.00  0.00     0.031 C 
ATOM     52  C   UNL A   1      37.433  31.775  32.991  1.00  0.00     0.029 A 
ATOM     53  C   UNL A   1      38.705  31.075  33.146  1.00  0.00     0.049 A 
ATOM     54  H   UNL A   1      39.653  29.845  31.756  1.00  0.00     0.167 HD
ATOM     55  C   UNL A   1      41.582  27.377  28.729  1.00  0.00     0.034 A 
ATOM     56  C   UNL A   1      39.480  31.111  34.247  1.00  0.00     0.034 A 
ATOM     57  C   UNL A   1      42.479  27.365  29.852  1.00  0.00     0.049 A 
ATOM     58  C   UNL A   1      40.773  30.350  34.263  1.00  0.00     0.074 A 
ATOM     59  C   UNL A   1      43.695  26.715  29.972  1.00  0.00     0.029 A 
ATOM     60  N   UNL A   1      42.265  28.041  31.042  1.00  0.00    -0.354 N 
ATOM     61  N   UNL A   1      41.330  29.661  33.299  1.00  0.00    -0.248 NA
ATOM     62  C   UNL A   1      41.549  30.377  35.512  1.00  0.00     0.031 C 
ATOM     63  C   UNL A   1      44.222  27.004  31.234  1.00  0.00     0.029 A 
ATOM     64  C   UNL A   1      43.329  27.828  31.901  1.00  0.00     0.049 A 
ATOM     65  H   UNL A   1      41.475  28.592  31.247  1.00  0.00     0.167 HD
ATOM     66  C   UNL A   1      42.520  29.171  33.820  1.00  0.00     0.074 A 
ATOM     67  C   UNL A   1      42.620  29.667  35.178  1.00  0.00     0.031 C 
ATOM     68  C   UNL A   1      43.434  28.363  33.233  1.00  0.00     0.034 A 
BRANCH  55  69
ATOM     69  C   UNL A   1      41.992  26.603  27.507  1.00  0.00     0.023 A 
ATOM     70  C   UNL A   1      42.634  27.283  26.453  1.00  0.00     0.012 A 
ATOM     71  C   UNL A   1      41.840  25.205  27.445  1.00  0.00     0.148 A 
ATOM     72  C   UNL A   1      43.115  26.581  25.349  1.00  0.00     0.002 A 
ATOM     73  C   UNL A   1      42.344  24.509  26.351  1.00  0.00     0.091 A 
ATOM     74  F   UNL A   1      41.213  24.585  28.454  1.00  0.00    -0.205 F 
ATOM     75  C   UNL A   1      42.978  25.195  25.302  1.00  0.00     0.022 A 
BRANCH  73  76
ATOM     76  S   UNL A   1      42.264  22.720  26.215  1.00  0.00     0.127 S 
ATOM     77  O   UNL A   1      42.998  22.300  27.408  1.00  0.00    -0.237 OA
ATOM     78  O   UNL A   1      40.824  22.471  26.265  1.00  0.00    -0.237 OA
ATOM     79  O   UNL A   1      42.898  22.383  24.947  1.00  0.00    -0.744 OA
ENDBRANCH  73  76
ENDBRANCH  55  69
BRANCH  56  80
ATOM     80  C   UNL A   1      39.062  31.957  35.396  1.00  0.00     0.023 A 
ATOM     81  C   UNL A   1      39.220  33.354  35.312  1.00  0.00     0.012 A 
ATOM     82  C   UNL A   1      38.421  31.398  36.518  1.00  0.00     0.148 A 
ATOM     83  C   UNL A   1      38.744  34.181  36.329  1.00  0.00     0.002 A 
ATOM     84  C   UNL A   1      37.908  32.231  37.504  1.00  0.00     0.091 A 
ATOM     85  F   UNL A   1      38.295  30.065  36.576  1.00  0.00    -0.205 F 
ATOM     86  C   UNL A   1      38.075  33.622  37.416  1.00  0.00     0.022 A 
BRANCH  84  87
ATOM     87  S   UNL A   1      36.922  31.611  38.871  1.00  0.00     0.127 S 
ATOM     88  O   UNL A   1      37.871  31.678  39.979  1.00  0.00    -0.237 OA
ATOM     89  O   UNL A   1      35.837  32.591  38.928  1.00  0.00    -0.237 OA
ATOM     90  O   UNL A   1      36.503  30.272  38.480  1.00  0.00    -0.744 OA
ENDBRANCH  84  87
ENDBRANCH  56  80
BRANCH  68  91
ATOM     91  C   UNL A   1      44.622  27.935  34.047  1.00  0.00     0.023 A 
ATOM     92  C   UNL A   1      45.752  28.774  34.093  1.00  0.00     0.012 A 
ATOM     93  C   UNL A   1      44.574  26.783  34.854  1.00  0.00     0.148 A 
ATOM     94  C   UNL A   1      46.823  28.470  34.931  1.00  0.00     0.002 A 
ATOM     95  C   UNL A   1      45.632  26.501  35.708  1.00  0.00     0.091 A 
ATOM     96  F   UNL A   1      43.488  26.000  34.782  1.00  0.00    -0.205 F 
ATOM     97  C   UNL A   1      46.758  27.342  35.745  1.00  0.00     0.022 A 
BRANCH  95  98
ATOM     98  S   UNL A   1      45.618  25.111  36.845  1.00  0.00     0.127 S 
ATOM     99  O   UNL A   1      46.979  25.147  37.378  1.00  0.00    -0.237 OA
ATOM    100  O   UNL A   1      44.579  25.501  37.797  1.00  0.00    -0.237 OA
ATOM    101  O   UNL A   1      45.299  23.937  36.043  1.00  0.00    -0.744 OA
ENDBRANCH  95  98
ENDBRANCH  68  91
ENDBRANCH  42  43
ENDBRANCH  34  37
ENDBRANCH  32  33
ENDBRANCH   1  32
TORSDOF 17
ENDMDL
MODEL 3
REMARK VINA RESULT:     -13.4      4.752     10.179
REMARK SMILES Nc1ccc(-c2cc(Cl)cc3c2O[C@H](C(F)(F)F)C(C(=O)NCCCCNC(=O)c2ccc(-c4c5nc(c(-c6cccc(S(=O)(=O)[O-])c6F)c6ccc([nH]6)c(-c6cccc(S(=O)(=O)[O-])c6F)c6nc(c(-c7cccc(S(=O)(=O)[O-])c7F)c7ccc4[nH]7)C=C6)C=C5)cc2)=C3)cc1
REMARK SMILES IDX 25 1 24 2 23 3 22 4 20 5 21 6 19 8 6 9 7 10 12 11 8 12 11 13
REMARK SMILES IDX 13 14 9 15 10 16 93 17 14 18 5 19 2 20 3 21 95 22 4 23 94 24
REMARK SMILES IDX 1 25 15 28 16 29 17 30 18 31 26 32 27 33 28 34 29 36 30 37
REMARK SMILES IDX 31 38 92 39 32 40 91 41 33 42 34 43 35 44 85 45 36 46 90 47
REMARK SMILES IDX 84 48 86 49 37 50 89 51 83 52 82 53 38 55 70 56 50 57 69 58
REMARK SMILES IDX 51 59 54 60 68 61 87 62 52 63 53 64 67 66 88 67 55 68 39 69
REMARK SMILES IDX 40 70 48 71 41 72 43 73 49 74 42 75 44 76 45 77 46 78 47 79
REMARK SMILES IDX 71 80 72 81 80 82 73 83 75 84 81 85 74 86 76 87 77 88 78 89
REMARK SMILES IDX 79 90 56 91 57 92 65 93 58 94 60 95 66 96 59 97 61 98 62 99
REMARK SMILES IDX 63 100 64 101
REMARK H PARENT 22 7 1 26 1 27 27 35 86 54 54 65
REMARK Flexibility Score: inf
ROOT
ATOM      1  C   UNL A   1      35.647  21.143  24.777  1.00  0.00     0.023 C 
ENDROOT
BRANCH   1   2
ATOM      2  C   UNL A   1      34.469  21.598  25.643  1.00  0.00     0.023 C 
BRANCH   2   3
ATOM      3  C   UNL A   1      33.185  21.881  24.865  1.00  0.00     0.116 C 
BRANCH   3   4
ATOM      4  N   UNL A   1      33.448  22.242  23.483  1.00  0.00    -0.352 N 
ATOM      5  C   UNL A   1      33.389  23.364  22.727  1.00  0.00     0.251 C 
ATOM      6  O   UNL A   1      33.715  23.225  21.543  1.00  0.00    -0.270 OA
ATOM      7  H   UNL A   1      33.749  21.466  22.956  1.00  0.00     0.163 HD
BRANCH   5   8
ATOM      8  C   UNL A   1      32.968  24.711  23.214  1.00  0.00     0.067 C 
ATOM      9  C   UNL A   1      31.990  28.593  24.531  1.00  0.00     0.026 A 
ATOM     10  C   UNL A   1      32.679  29.124  25.630  1.00  0.00     0.033 A 
ATOM     11  C   UNL A   1      32.381  27.326  24.054  1.00  0.00     0.135 A 
ATOM     12  C   UNL A   1      33.719  28.407  26.226  1.00  0.00     0.042 A 
ATOM     13  C   UNL A   1      33.418  26.602  24.654  1.00  0.00     0.019 A 
ATOM     14  O   UNL A   1      31.749  26.846  22.934  1.00  0.00    -0.475 OA
ATOM     15  Cl  UNL A   1      34.551  29.082  27.575  1.00  0.00    -0.084 Cl
ATOM     16  C   UNL A   1      34.092  27.151  25.746  1.00  0.00     0.032 A 
ATOM     17  C   UNL A   1      33.787  25.300  24.106  1.00  0.00     0.025 C 
ATOM     18  C   UNL A   1      31.702  25.403  22.801  1.00  0.00     0.314 C 
BRANCH   9  19
ATOM     19  C   UNL A   1      30.878  29.329  23.910  1.00  0.00    -0.014 A 
ATOM     20  C   UNL A   1      28.875  30.849  22.607  1.00  0.00     0.031 A 
ATOM     21  C   UNL A   1      29.382  29.691  22.019  1.00  0.00     0.026 A 
ATOM     22  C   UNL A   1      29.317  31.196  23.885  1.00  0.00     0.026 A 
ATOM     23  C   UNL A   1      30.379  28.945  22.656  1.00  0.00     0.011 A 
ATOM     24  C   UNL A   1      30.315  30.454  24.526  1.00  0.00     0.011 A 
BRANCH  20  25
ATOM     25  N   UNL A   1      27.856  31.561  21.993  1.00  0.00    -0.399 N 
ATOM     26  H   UNL A   1      27.653  32.479  22.283  1.00  0.00     0.156 HD
ATOM     27  H   UNL A   1      27.335  31.148  21.266  1.00  0.00     0.156 HD
ENDBRANCH  20  25
ENDBRANCH   9  19
BRANCH  18  28
ATOM     28  C   UNL A   1      30.454  24.860  23.524  1.00  0.00     0.429 C 
ATOM     29  F   UNL A   1      29.458  25.781  23.510  1.00  0.00    -0.167 F 
ATOM     30  F   UNL A   1      29.958  23.746  22.939  1.00  0.00    -0.167 F 
ATOM     31  F   UNL A   1      30.695  24.551  24.819  1.00  0.00    -0.167 F 
ENDBRANCH  18  28
ENDBRANCH   5   8
ENDBRANCH   3   4
ENDBRANCH   2   3
ENDBRANCH   1   2
BRANCH   1  32
ATOM     32  C   UNL A   1      37.021  21.643  25.219  1.00  0.00     0.116 C 
BRANCH  32  33
ATOM     33  N   UNL A   1      38.035  20.603  25.321  1.00  0.00    -0.352 N 
ATOM     34  C   UNL A   1      39.265  20.689  25.940  1.00  0.00     0.251 C 
ATOM     35  H   UNL A   1      37.818  19.739  24.901  1.00  0.00     0.163 HD
ATOM     36  O   UNL A   1      40.058  19.754  25.885  1.00  0.00    -0.269 OA
BRANCH  34  37
ATOM     37  C   UNL A   1      39.627  21.955  26.610  1.00  0.00     0.039 A 
ATOM     38  C   UNL A   1      39.097  23.162  26.154  1.00  0.00     0.014 A 
ATOM     39  C   UNL A   1      40.590  21.939  27.622  1.00  0.00     0.014 A 
ATOM     40  C   UNL A   1      39.663  24.358  26.577  1.00  0.00     0.010 A 
ATOM     41  C   UNL A   1      41.103  23.147  28.102  1.00  0.00     0.010 A 
ATOM     42  C   UNL A   1      40.691  24.363  27.536  1.00  0.00    -0.014 A 
BRANCH  42  43
ATOM     43  C   UNL A   1      41.334  25.652  27.899  1.00  0.00     0.031 A 
ATOM     44  C   UNL A   1      42.723  25.983  27.423  1.00  0.00     0.074 A 
ATOM     45  C   UNL A   1      40.631  26.560  28.603  1.00  0.00     0.049 A 
ATOM     46  N   UNL A   1      43.404  27.089  27.590  1.00  0.00    -0.248 NA
ATOM     47  C   UNL A   1      43.446  24.950  26.662  1.00  0.00     0.031 C 
ATOM     48  C   UNL A   1      39.282  26.350  29.135  1.00  0.00     0.029 A 
ATOM     49  N   UNL A   1      40.936  27.846  28.968  1.00  0.00    -0.354 N 
ATOM     50  C   UNL A   1      44.642  26.870  26.997  1.00  0.00     0.074 A 
ATOM     51  C   UNL A   1      44.624  25.527  26.463  1.00  0.00     0.031 C 
ATOM     52  C   UNL A   1      38.856  27.483  29.709  1.00  0.00     0.029 A 
ATOM     53  C   UNL A   1      39.913  28.487  29.626  1.00  0.00     0.049 A 
ATOM     54  H   UNL A   1      41.804  28.269  28.778  1.00  0.00     0.167 HD
ATOM     55  C   UNL A   1      45.690  27.720  26.884  1.00  0.00     0.034 A 
ATOM     56  C   UNL A   1      39.828  29.742  30.106  1.00  0.00     0.034 A 
ATOM     57  C   UNL A   1      45.687  29.078  27.353  1.00  0.00     0.049 A 
ATOM     58  C   UNL A   1      40.992  30.675  29.939  1.00  0.00     0.074 A 
ATOM     59  C   UNL A   1      46.690  30.025  27.243  1.00  0.00     0.029 A 
ATOM     60  N   UNL A   1      44.630  29.688  28.008  1.00  0.00    -0.354 N 
ATOM     61  N   UNL A   1      42.124  30.469  29.312  1.00  0.00    -0.248 NA
ATOM     62  C   UNL A   1      40.867  32.013  30.535  1.00  0.00     0.031 C 
ATOM     63  C   UNL A   1      46.237  31.212  27.826  1.00  0.00     0.029 A 
ATOM     64  C   UNL A   1      44.954  31.000  28.305  1.00  0.00     0.049 A 
ATOM     65  H   UNL A   1      43.775  29.253  28.230  1.00  0.00     0.167 HD
ATOM     66  C   UNL A   1      42.847  31.647  29.437  1.00  0.00     0.074 A 
ATOM     67  C   UNL A   1      42.014  32.576  30.174  1.00  0.00     0.031 C 
ATOM     68  C   UNL A   1      44.099  31.924  29.001  1.00  0.00     0.034 A 
BRANCH  55  69
ATOM     69  C   UNL A   1      46.919  27.236  26.168  1.00  0.00     0.023 A 
ATOM     70  C   UNL A   1      47.066  27.519  24.796  1.00  0.00     0.012 A 
ATOM     71  C   UNL A   1      47.965  26.601  26.865  1.00  0.00     0.148 A 
ATOM     72  C   UNL A   1      48.236  27.171  24.124  1.00  0.00     0.002 A 
ATOM     73  C   UNL A   1      49.139  26.278  26.193  1.00  0.00     0.091 A 
ATOM     74  F   UNL A   1      47.794  26.330  28.167  1.00  0.00    -0.205 F 
ATOM     75  C   UNL A   1      49.275  26.560  24.823  1.00  0.00     0.022 A 
BRANCH  73  76
ATOM     76  S   UNL A   1      50.556  25.534  27.009  1.00  0.00     0.127 S 
ATOM     77  O   UNL A   1      50.927  26.578  27.965  1.00  0.00    -0.237 OA
ATOM     78  O   UNL A   1      49.971  24.337  27.610  1.00  0.00    -0.237 OA
ATOM     79  O   UNL A   1      51.535  25.277  25.962  1.00  0.00    -0.744 OA
ENDBRANCH  73  76
ENDBRANCH  55  69
BRANCH  56  80
ATOM     80  C   UNL A   1      38.558  30.191  30.734  1.00  0.00     0.023 A 
ATOM     81  C   UNL A   1      38.307  29.866  32.081  1.00  0.00     0.012 A 
ATOM     82  C   UNL A   1      37.653  31.016  30.040  1.00  0.00     0.148 A 
ATOM     83  C   UNL A   1      37.173  30.358  32.727  1.00  0.00     0.002 A 
ATOM     84  C   UNL A   1      36.552  31.541  30.704  1.00  0.00     0.091 A 
ATOM     85  F   UNL A   1      37.912  31.299  28.756  1.00  0.00    -0.205 F 
ATOM     86  C   UNL A   1      36.305  31.207  32.045  1.00  0.00     0.022 A 
BRANCH  84  87
ATOM     87  S   UNL A   1      35.453  32.743  29.945  1.00  0.00     0.127 S 
ATOM     88  O   UNL A   1      34.384  32.837  30.936  1.00  0.00    -0.237 OA
ATOM     89  O   UNL A   1      36.314  33.922  29.853  1.00  0.00    -0.237 OA
ATOM     90  O   UNL A   1      35.074  32.174  28.659  1.00  0.00    -0.744 OA
ENDBRANCH  84  87
ENDBRANCH  56  80
BRANCH  68  91
ATOM     91  C   UNL A   1      44.671  33.277  29.317  1.00  0.00     0.023 A 
ATOM     92  C   UNL A   1      45.366  33.454  30.529  1.00  0.00     0.012 A 
ATOM     93  C   UNL A   1      44.631  34.322  28.376  1.00  0.00     0.148 A 
ATOM     94  C   UNL A   1      46.013  34.658  30.801  1.00  0.00     0.002 A 
ATOM     95  C   UNL A   1      45.302  35.509  28.641  1.00  0.00     0.091 A 
ATOM     96  F   UNL A   1      43.954  34.126  27.234  1.00  0.00    -0.205 F 
ATOM     97  C   UNL A   1      45.990  35.679  29.855  1.00  0.00     0.022 A 
BRANCH  95  98
ATOM     98  S   UNL A   1      45.389  36.860  27.461  1.00  0.00     0.127 S 
ATOM     99  O   UNL A   1      45.967  36.198  26.292  1.00  0.00    -0.237 OA
ATOM    100  O   UNL A   1      43.983  37.235  27.316  1.00  0.00    -0.237 OA
ATOM    101  O   UNL A   1      46.231  37.879  28.074  1.00  0.00    -0.744 OA
ENDBRANCH  95  98
ENDBRANCH  68  91
ENDBRANCH  42  43
ENDBRANCH  34  37
ENDBRANCH  32  33
ENDBRANCH   1  32
TORSDOF 17
ENDMDL
