MODEL 1
REMARK VINA RESULT:     -12.0      0.000      0.000
REMARK SMILES O=C(NCCCCNC(=O)c1cc(Br)ccc1OCc1ccccc1F)c1ccc(-c2c3nc(c(-c4cccc(S(=O)(=O)[O-])c4F)c4ccc([nH]4)c(-c4cccc(S(=O)(=O)[O-])c4F)c4nc(c(-c5cccc(S(=O)(=O)[O-])c5F)c5ccc2[nH]5)C=C4)C=C3)cc1
REMARK SMILES IDX 5 1 4 2 3 3 1 4 2 5 27 7 28 8 89 9 29 10 88 11 30 12 31 13
REMARK SMILES IDX 32 14 82 15 33 16 87 17 81 18 83 19 34 20 86 21 80 22 79 23
REMARK SMILES IDX 35 25 67 26 47 27 66 28 48 29 51 30 65 31 84 32 49 33 50 34
REMARK SMILES IDX 64 36 85 37 52 38 36 39 37 40 45 41 38 42 40 43 46 44 39 45
REMARK SMILES IDX 41 46 42 47 43 48 44 49 68 50 69 51 77 52 70 53 72 54 78 55
REMARK SMILES IDX 71 56 73 57 74 58 75 59 76 60 53 61 54 62 62 63 55 64 57 65
REMARK SMILES IDX 63 66 56 67 58 68 59 69 60 70 61 71 6 72 7 73 8 74 9 75
REMARK SMILES IDX 10 77 11 78 12 79 17 80 13 81 16 82 14 83 15 84 18 85 19 86
REMARK SMILES IDX 20 87 21 88 25 89 22 90 24 91 26 92 23 93
REMARK H PARENT 3 6 83 24 51 35 8 76
REMARK Flexibility Score: inf
ROOT
ATOM      1  C   UNL A   1      37.825  19.540  25.018  1.00  0.00     0.023 C 
ENDROOT
BRANCH   1   2
ATOM      2  C   UNL A   1      38.882  20.185  25.902  1.00  0.00     0.116 C 
BRANCH   2   3
ATOM      3  N   UNL A   1      40.055  19.350  26.095  1.00  0.00    -0.352 N 
ATOM      4  O   UNL A   1      42.241  18.905  26.431  1.00  0.00    -0.269 OA
ATOM      5  C   UNL A   1      41.335  19.730  26.428  1.00  0.00     0.251 C 
ATOM      6  H   UNL A   1      39.916  18.383  25.973  1.00  0.00     0.163 HD
BRANCH   5   7
ATOM      7  C   UNL A   1      41.600  21.150  26.736  1.00  0.00     0.039 A 
ATOM      8  C   UNL A   1      41.425  22.124  25.751  1.00  0.00     0.014 A 
ATOM      9  C   UNL A   1      42.084  21.499  27.998  1.00  0.00     0.014 A 
ATOM     10  C   UNL A   1      41.902  23.409  25.968  1.00  0.00     0.010 A 
ATOM     11  C   UNL A   1      42.456  22.821  28.252  1.00  0.00     0.010 A 
ATOM     12  C   UNL A   1      42.403  23.780  27.228  1.00  0.00    -0.014 A 
BRANCH  12  13
ATOM     13  C   UNL A   1      42.768  25.199  27.462  1.00  0.00     0.031 A 
ATOM     14  C   UNL A   1      41.829  26.164  28.128  1.00  0.00     0.074 A 
ATOM     15  C   UNL A   1      43.989  25.610  27.065  1.00  0.00     0.049 A 
ATOM     16  N   UNL A   1      42.034  27.417  28.443  1.00  0.00    -0.248 NA
ATOM     17  C   UNL A   1      40.487  25.673  28.479  1.00  0.00     0.031 C 
ATOM     18  C   UNL A   1      44.963  24.771  26.361  1.00  0.00     0.029 A 
ATOM     19  N   UNL A   1      44.626  26.816  27.199  1.00  0.00    -0.354 N 
ATOM     20  C   UNL A   1      40.840  27.879  28.983  1.00  0.00     0.074 A 
ATOM     21  C   UNL A   1      39.910  26.770  28.951  1.00  0.00     0.031 C 
ATOM     22  C   UNL A   1      46.087  25.470  26.168  1.00  0.00     0.029 A 
ATOM     23  C   UNL A   1      45.892  26.827  26.665  1.00  0.00     0.049 A 
ATOM     24  H   UNL A   1      44.217  27.598  27.634  1.00  0.00     0.167 HD
ATOM     25  C   UNL A   1      40.555  29.112  29.468  1.00  0.00     0.034 A 
ATOM     26  C   UNL A   1      46.798  27.817  26.564  1.00  0.00     0.034 A 
ATOM     27  C   UNL A   1      41.504  30.193  29.526  1.00  0.00     0.049 A 
ATOM     28  C   UNL A   1      46.468  29.161  27.135  1.00  0.00     0.074 A 
ATOM     29  C   UNL A   1      41.335  31.450  30.082  1.00  0.00     0.029 A 
ATOM     30  N   UNL A   1      42.786  30.159  28.999  1.00  0.00    -0.354 N 
ATOM     31  N   UNL A   1      45.380  29.540  27.762  1.00  0.00    -0.248 NA
ATOM     32  C   UNL A   1      47.488  30.210  27.008  1.00  0.00     0.031 C 
ATOM     33  C   UNL A   1      42.499  32.189  29.853  1.00  0.00     0.029 A 
ATOM     34  C   UNL A   1      43.410  31.379  29.193  1.00  0.00     0.049 A 
ATOM     35  H   UNL A   1      43.192  29.382  28.552  1.00  0.00     0.167 HD
ATOM     36  C   UNL A   1      45.588  30.865  28.120  1.00  0.00     0.074 A 
ATOM     37  C   UNL A   1      46.916  31.217  27.660  1.00  0.00     0.031 C 
ATOM     38  C   UNL A   1      44.747  31.711  28.761  1.00  0.00     0.034 A 
BRANCH  25  39
ATOM     39  C   UNL A   1      39.168  29.365  30.004  1.00  0.00     0.023 A 
ATOM     40  C   UNL A   1      38.835  28.961  31.312  1.00  0.00     0.012 A 
ATOM     41  C   UNL A   1      38.226  30.093  29.247  1.00  0.00     0.148 A 
ATOM     42  C   UNL A   1      37.582  29.253  31.850  1.00  0.00     0.002 A 
ATOM     43  C   UNL A   1      36.996  30.420  29.806  1.00  0.00     0.091 A 
ATOM     44  F   UNL A   1      38.551  30.452  27.997  1.00  0.00    -0.205 F 
ATOM     45  C   UNL A   1      36.668  29.992  31.102  1.00  0.00     0.022 A 
BRANCH  43  46
ATOM     46  S   UNL A   1      35.789  31.446  28.959  1.00  0.00     0.127 S 
ATOM     47  O   UNL A   1      36.614  32.568  28.515  1.00  0.00    -0.237 OA
ATOM     48  O   UNL A   1      35.333  30.563  27.884  1.00  0.00    -0.237 OA
ATOM     49  O   UNL A   1      34.771  31.771  29.948  1.00  0.00    -0.744 OA
ENDBRANCH  43  46
ENDBRANCH  25  39
BRANCH  26  50
ATOM     50  C   UNL A   1      48.112  27.523  25.929  1.00  0.00     0.023 A 
ATOM     51  C   UNL A   1      49.144  26.955  26.699  1.00  0.00     0.012 A 
ATOM     52  C   UNL A   1      48.293  27.678  24.539  1.00  0.00     0.148 A 
ATOM     53  C   UNL A   1      50.333  26.546  26.095  1.00  0.00     0.002 A 
ATOM     54  C   UNL A   1      49.451  27.209  23.936  1.00  0.00     0.091 A 
ATOM     55  F   UNL A   1      47.296  28.225  23.828  1.00  0.00    -0.205 F 
ATOM     56  C   UNL A   1      50.480  26.655  24.714  1.00  0.00     0.022 A 
BRANCH  54  57
ATOM     57  S   UNL A   1      49.657  27.153  22.153  1.00  0.00     0.127 S 
ATOM     58  O   UNL A   1      51.044  26.713  22.026  1.00  0.00    -0.237 OA
ATOM     59  O   UNL A   1      48.656  26.157  21.768  1.00  0.00    -0.237 OA
ATOM     60  O   UNL A   1      49.380  28.501  21.677  1.00  0.00    -0.744 OA
ENDBRANCH  54  57
ENDBRANCH  26  50
BRANCH  38  61
ATOM     61  C   UNL A   1      45.225  33.115  29.025  1.00  0.00     0.023 A 
ATOM     62  C   UNL A   1      45.979  33.389  30.182  1.00  0.00     0.012 A 
ATOM     63  C   UNL A   1      45.034  34.128  28.065  1.00  0.00     0.148 A 
ATOM     64  C   UNL A   1      46.525  34.655  30.387  1.00  0.00     0.002 A 
ATOM     65  C   UNL A   1      45.624  35.371  28.249  1.00  0.00     0.091 A 
ATOM     66  F   UNL A   1      44.298  33.848  26.979  1.00  0.00    -0.205 F 
ATOM     67  C   UNL A   1      46.362  35.640  29.414  1.00  0.00     0.022 A 
BRANCH  65  68
ATOM     68  S   UNL A   1      45.561  36.666  27.006  1.00  0.00     0.127 S 
ATOM     69  O   UNL A   1      46.172  36.004  25.855  1.00  0.00    -0.237 OA
ATOM     70  O   UNL A   1      44.123  36.904  26.881  1.00  0.00    -0.237 OA
ATOM     71  O   UNL A   1      46.317  37.787  27.550  1.00  0.00    -0.744 OA
ENDBRANCH  65  68
ENDBRANCH  38  61
ENDBRANCH  12  13
ENDBRANCH   5   7
ENDBRANCH   2   3
ENDBRANCH   1   2
BRANCH   1  72
ATOM     72  C   UNL A   1      36.480  20.261  24.967  1.00  0.00     0.023 C 
BRANCH  72  73
ATOM     73  C   UNL A   1      36.479  21.664  25.556  1.00  0.00     0.116 C 
BRANCH  73  74
ATOM     74  N   UNL A   1      35.521  21.798  26.636  1.00  0.00    -0.352 N 
ATOM     75  C   UNL A   1      34.317  22.434  26.687  1.00  0.00     0.255 C 
ATOM     76  H   UNL A   1      35.785  21.355  27.474  1.00  0.00     0.163 HD
ATOM     77  O   UNL A   1      33.661  22.309  27.716  1.00  0.00    -0.269 OA
BRANCH  75  78
ATOM     78  C   UNL A   1      33.797  23.120  25.490  1.00  0.00     0.082 A 
ATOM     79  C   UNL A   1      33.823  24.527  25.584  1.00  0.00     0.033 A 
ATOM     80  C   UNL A   1      33.282  22.509  24.338  1.00  0.00     0.132 A 
ATOM     81  C   UNL A   1      33.229  25.314  24.605  1.00  0.00     0.019 A 
ATOM     82  C   UNL A   1      32.656  23.331  23.382  1.00  0.00     0.048 A 
ATOM     83  Br  UNL A   1      33.232  27.194  24.784  1.00  0.00    -0.051 Br
ATOM     84  C   UNL A   1      32.617  24.719  23.513  1.00  0.00     0.019 A 
BRANCH  80  85
ATOM     85  O   UNL A   1      33.291  21.211  23.914  1.00  0.00    -0.488 OA
BRANCH  85  86
ATOM     86  C   UNL A   1      32.375  20.219  24.386  1.00  0.00     0.268 C 
BRANCH  86  87
ATOM     87  C   UNL A   1      32.713  18.761  24.165  1.00  0.00     0.025 A 
ATOM     88  C   UNL A   1      33.024  18.204  22.917  1.00  0.00     0.010 A 
ATOM     89  C   UNL A   1      32.891  17.969  25.308  1.00  0.00     0.129 A 
ATOM     90  C   UNL A   1      33.654  16.958  22.842  1.00  0.00     0.001 A 
ATOM     91  C   UNL A   1      33.496  16.718  25.238  1.00  0.00     0.039 A 
ATOM     92  F   UNL A   1      32.543  18.452  26.510  1.00  0.00    -0.207 F 
ATOM     93  C   UNL A   1      33.915  16.228  24.005  1.00  0.00     0.003 A 
ENDBRANCH  86  87
ENDBRANCH  85  86
ENDBRANCH  80  85
ENDBRANCH  75  78
ENDBRANCH  73  74
ENDBRANCH  72  73
ENDBRANCH   1  72
TORSDOF 17
ENDMDL
MODEL 2
REMARK VINA RESULT:     -12.0      5.252      8.154
REMARK SMILES O=C(NCCCCNC(=O)c1cc(Br)ccc1OCc1ccccc1F)c1ccc(-c2c3nc(c(-c4cccc(S(=O)(=O)[O-])c4F)c4ccc([nH]4)c(-c4cccc(S(=O)(=O)[O-])c4F)c4nc(c(-c5cccc(S(=O)(=O)[O-])c5F)c5ccc2[nH]5)C=C4)C=C3)cc1
REMARK SMILES IDX 5 1 4 2 3 3 1 4 2 5 27 7 28 8 89 9 29 10 88 11 30 12 31 13
REMARK SMILES IDX 32 14 82 15 33 16 87 17 81 18 83 19 34 20 86 21 80 22 79 23
REMARK SMILES IDX 35 25 67 26 47 27 66 28 48 29 51 30 65 31 84 32 49 33 50 34
REMARK SMILES IDX 64 36 85 37 52 38 36 39 37 40 45 41 38 42 40 43 46 44 39 45
REMARK SMILES IDX 41 46 42 47 43 48 44 49 68 50 69 51 77 52 70 53 72 54 78 55
REMARK SMILES IDX 71 56 73 57 74 58 75 59 76 60 53 61 54 62 62 63 55 64 57 65
REMARK SMILES IDX 63 66 56 67 58 68 59 69 60 70 61 71 6 72 7 73 8 74 9 75
REMARK SMILES IDX 10 77 11 78 12 79 17 80 13 81 16 82 14 83 15 84 18 85 19 86
REMARK SMILES IDX 20 87 21 88 25 89 22 90 24 91 26 92 23 93
REMARK H PARENT 3 6 83 24 51 35 8 76
REMARK Flexibility Score: inf
ROOT
ATOM      1  C   UNL A   1      32.093  28.512  24.405  1.00  0.00     0.023 C 
ENDROOT
BRANCH   1   2
ATOM      2  C   UNL A   1      33.071  29.304  25.261  1.00  0.00     0.116 C 
BRANCH   2   3
ATOM      3  N   UNL A   1      32.502  30.528  25.799  1.00  0.00    -0.352 N 
ATOM      4  O   UNL A   1      32.283  32.241  27.251  1.00  0.00    -0.269 OA
ATOM      5  C   UNL A   1      32.955  31.300  26.844  1.00  0.00     0.251 C 
ATOM      6  H   UNL A   1      31.684  30.850  25.355  1.00  0.00     0.163 HD
BRANCH   5   7
ATOM      7  C   UNL A   1      34.235  30.946  27.489  1.00  0.00     0.039 A 
ATOM      8  C   UNL A   1      34.467  29.636  27.912  1.00  0.00     0.014 A 
ATOM      9  C   UNL A   1      35.182  31.944  27.725  1.00  0.00     0.014 A 
ATOM     10  C   UNL A   1      35.556  29.364  28.727  1.00  0.00     0.010 A 
ATOM     11  C   UNL A   1      36.338  31.639  28.448  1.00  0.00     0.010 A 
ATOM     12  C   UNL A   1      36.518  30.355  28.987  1.00  0.00    -0.014 A 
BRANCH  12  13
ATOM     13  C   UNL A   1      37.741  29.985  29.742  1.00  0.00     0.031 A 
ATOM     14  C   UNL A   1      37.975  30.443  31.153  1.00  0.00     0.074 A 
ATOM     15  C   UNL A   1      38.651  29.206  29.125  1.00  0.00     0.049 A 
ATOM     16  N   UNL A   1      38.972  30.155  31.949  1.00  0.00    -0.248 NA
ATOM     17  C   UNL A   1      36.976  31.345  31.749  1.00  0.00     0.031 C 
ATOM     18  C   UNL A   1      38.551  28.746  27.736  1.00  0.00     0.029 A 
ATOM     19  N   UNL A   1      39.824  28.656  29.572  1.00  0.00    -0.354 N 
ATOM     20  C   UNL A   1      38.751  30.872  33.119  1.00  0.00     0.074 A 
ATOM     21  C   UNL A   1      37.522  31.614  32.928  1.00  0.00     0.031 C 
ATOM     22  C   UNL A   1      39.589  27.948  27.461  1.00  0.00     0.029 A 
ATOM     23  C   UNL A   1      40.467  27.897  28.624  1.00  0.00     0.049 A 
ATOM     24  H   UNL A   1      40.172  28.792  30.483  1.00  0.00     0.167 HD
ATOM     25  C   UNL A   1      39.499  30.897  34.248  1.00  0.00     0.034 A 
ATOM     26  C   UNL A   1      41.643  27.243  28.668  1.00  0.00     0.034 A 
ATOM     27  C   UNL A   1      40.699  30.124  34.435  1.00  0.00     0.049 A 
ATOM     28  C   UNL A   1      42.436  27.264  29.938  1.00  0.00     0.074 A 
ATOM     29  C   UNL A   1      41.476  30.014  35.575  1.00  0.00     0.029 A 
ATOM     30  N   UNL A   1      41.307  29.346  33.461  1.00  0.00    -0.354 N 
ATOM     31  N   UNL A   1      42.141  27.840  31.078  1.00  0.00    -0.248 NA
ATOM     32  C   UNL A   1      43.709  26.531  29.942  1.00  0.00     0.031 C 
ATOM     33  C   UNL A   1      42.576  29.205  35.278  1.00  0.00     0.029 A 
ATOM     34  C   UNL A   1      42.462  28.774  33.965  1.00  0.00     0.049 A 
ATOM     35  H   UNL A   1      40.967  29.219  32.546  1.00  0.00     0.167 HD
ATOM     36  C   UNL A   1      43.182  27.529  31.943  1.00  0.00     0.074 A 
ATOM     37  C   UNL A   1      44.104  26.693  31.201  1.00  0.00     0.031 C 
ATOM     38  C   UNL A   1      43.358  27.914  33.229  1.00  0.00     0.034 A 
BRANCH  25  39
ATOM     39  C   UNL A   1      39.040  31.768  35.391  1.00  0.00     0.023 A 
ATOM     40  C   UNL A   1      38.154  31.250  36.356  1.00  0.00     0.012 A 
ATOM     41  C   UNL A   1      39.565  33.066  35.563  1.00  0.00     0.148 A 
ATOM     42  C   UNL A   1      37.776  32.016  37.460  1.00  0.00     0.002 A 
ATOM     43  C   UNL A   1      39.221  33.806  36.688  1.00  0.00     0.091 A 
ATOM     44  F   UNL A   1      40.391  33.550  34.625  1.00  0.00    -0.205 F 
ATOM     45  C   UNL A   1      38.319  33.288  37.631  1.00  0.00     0.022 A 
BRANCH  43  46
ATOM     46  S   UNL A   1      39.936  35.415  37.046  1.00  0.00     0.127 S 
ATOM     47  O   UNL A   1      41.360  35.092  37.130  1.00  0.00    -0.237 OA
ATOM     48  O   UNL A   1      39.557  36.191  35.865  1.00  0.00    -0.237 OA
ATOM     49  O   UNL A   1      39.322  35.861  38.289  1.00  0.00    -0.744 OA
ENDBRANCH  43  46
ENDBRANCH  25  39
BRANCH  26  50
ATOM     50  C   UNL A   1      42.086  26.486  27.465  1.00  0.00     0.023 A 
ATOM     51  C   UNL A   1      42.833  27.141  26.469  1.00  0.00     0.012 A 
ATOM     52  C   UNL A   1      41.885  25.093  27.374  1.00  0.00     0.148 A 
ATOM     53  C   UNL A   1      43.374  26.421  25.403  1.00  0.00     0.002 A 
ATOM     54  C   UNL A   1      42.481  24.375  26.347  1.00  0.00     0.091 A 
ATOM     55  F   UNL A   1      41.166  24.494  28.335  1.00  0.00    -0.205 F 
ATOM     56  C   UNL A   1      43.214  25.038  25.352  1.00  0.00     0.022 A 
BRANCH  54  57
ATOM     57  S   UNL A   1      42.471  22.579  26.293  1.00  0.00     0.127 S 
ATOM     58  O   UNL A   1      43.296  22.241  27.450  1.00  0.00    -0.237 OA
ATOM     59  O   UNL A   1      41.045  22.285  26.445  1.00  0.00    -0.237 OA
ATOM     60  O   UNL A   1      43.028  22.216  24.998  1.00  0.00    -0.744 OA
ENDBRANCH  54  57
ENDBRANCH  26  50
BRANCH  38  61
ATOM     61  C   UNL A   1      44.592  27.434  33.946  1.00  0.00     0.023 A 
ATOM     62  C   UNL A   1      45.740  28.248  33.983  1.00  0.00     0.012 A 
ATOM     63  C   UNL A   1      44.567  26.236  34.689  1.00  0.00     0.148 A 
ATOM     64  C   UNL A   1      46.851  27.871  34.735  1.00  0.00     0.002 A 
ATOM     65  C   UNL A   1      45.658  25.892  35.477  1.00  0.00     0.091 A 
ATOM     66  F   UNL A   1      43.469  25.468  34.625  1.00  0.00    -0.205 F 
ATOM     67  C   UNL A   1      46.804  26.704  35.494  1.00  0.00     0.022 A 
BRANCH  65  68
ATOM     68  S   UNL A   1      45.649  24.467  36.570  1.00  0.00     0.127 S 
ATOM     69  O   UNL A   1      46.960  24.575  37.210  1.00  0.00    -0.237 OA
ATOM     70  O   UNL A   1      44.516  24.758  37.448  1.00  0.00    -0.237 OA
ATOM     71  O   UNL A   1      45.473  23.301  35.714  1.00  0.00    -0.744 OA
ENDBRANCH  65  68
ENDBRANCH  38  61
ENDBRANCH  12  13
ENDBRANCH   5   7
ENDBRANCH   2   3
ENDBRANCH   1   2
BRANCH   1  72
ATOM     72  C   UNL A   1      32.486  27.063  24.128  1.00  0.00     0.023 C 
BRANCH  72  73
ATOM     73  C   UNL A   1      33.427  26.444  25.151  1.00  0.00     0.116 C 
BRANCH  73  74
ATOM     74  N   UNL A   1      32.785  25.388  25.911  1.00  0.00    -0.352 N 
ATOM     75  C   UNL A   1      33.128  24.082  26.089  1.00  0.00     0.255 C 
ATOM     76  H   UNL A   1      31.962  25.662  26.376  1.00  0.00     0.163 HD
ATOM     77  O   UNL A   1      32.446  23.425  26.868  1.00  0.00    -0.269 OA
BRANCH  75  78
ATOM     78  C   UNL A   1      34.352  23.551  25.461  1.00  0.00     0.082 A 
ATOM     79  C   UNL A   1      35.538  23.904  26.138  1.00  0.00     0.033 A 
ATOM     80  C   UNL A   1      34.422  22.785  24.289  1.00  0.00     0.132 A 
ATOM     81  C   UNL A   1      36.781  23.611  25.592  1.00  0.00     0.019 A 
ATOM     82  C   UNL A   1      35.695  22.536  23.742  1.00  0.00     0.048 A 
ATOM     83  Br  UNL A   1      38.351  24.144  26.495  1.00  0.00    -0.051 Br
ATOM     84  C   UNL A   1      36.867  22.951  24.376  1.00  0.00     0.019 A 
BRANCH  80  85
ATOM     85  O   UNL A   1      33.458  22.171  23.544  1.00  0.00    -0.488 OA
BRANCH  85  86
ATOM     86  C   UNL A   1      32.520  21.234  24.080  1.00  0.00     0.268 C 
BRANCH  86  87
ATOM     87  C   UNL A   1      32.794  19.756  23.905  1.00  0.00     0.025 A 
ATOM     88  C   UNL A   1      32.154  18.943  22.960  1.00  0.00     0.010 A 
ATOM     89  C   UNL A   1      33.875  19.220  24.618  1.00  0.00     0.129 A 
ATOM     90  C   UNL A   1      32.695  17.698  22.624  1.00  0.00     0.001 A 
ATOM     91  C   UNL A   1      34.404  17.972  24.305  1.00  0.00     0.039 A 
ATOM     92  F   UNL A   1      34.468  19.953  25.573  1.00  0.00    -0.207 F 
ATOM     93  C   UNL A   1      33.836  17.226  23.277  1.00  0.00     0.003 A 
ENDBRANCH  86  87
ENDBRANCH  85  86
ENDBRANCH  80  85
ENDBRANCH  75  78
ENDBRANCH  73  74
ENDBRANCH  72  73
ENDBRANCH   1  72
TORSDOF 17
ENDMDL
MODEL 3
REMARK VINA RESULT:     -11.8      5.570      8.679
REMARK SMILES O=C(NCCCCNC(=O)c1cc(Br)ccc1OCc1ccccc1F)c1ccc(-c2c3nc(c(-c4cccc(S(=O)(=O)[O-])c4F)c4ccc([nH]4)c(-c4cccc(S(=O)(=O)[O-])c4F)c4nc(c(-c5cccc(S(=O)(=O)[O-])c5F)c5ccc2[nH]5)C=C4)C=C3)cc1
REMARK SMILES IDX 5 1 4 2 3 3 1 4 2 5 27 7 28 8 89 9 29 10 88 11 30 12 31 13
REMARK SMILES IDX 32 14 82 15 33 16 87 17 81 18 83 19 34 20 86 21 80 22 79 23
REMARK SMILES IDX 35 25 67 26 47 27 66 28 48 29 51 30 65 31 84 32 49 33 50 34
REMARK SMILES IDX 64 36 85 37 52 38 36 39 37 40 45 41 38 42 40 43 46 44 39 45
REMARK SMILES IDX 41 46 42 47 43 48 44 49 68 50 69 51 77 52 70 53 72 54 78 55
REMARK SMILES IDX 71 56 73 57 74 58 75 59 76 60 53 61 54 62 62 63 55 64 57 65
REMARK SMILES IDX 63 66 56 67 58 68 59 69 60 70 61 71 6 72 7 73 8 74 9 75
REMARK SMILES IDX 10 77 11 78 12 79 17 80 13 81 16 82 14 83 15 84 18 85 19 86
REMARK SMILES IDX 20 87 21 88 25 89 22 90 24 91 26 92 23 93
REMARK H PARENT 3 6 83 24 51 35 8 76
REMARK Flexibility Score: inf
ROOT
ATOM      1  C   UNL A   1      33.043  27.909  25.507  1.00  0.00     0.023 C 
ENDROOT
BRANCH   1   2
ATOM      2  C   UNL A   1      33.484  29.270  24.988  1.00  0.00     0.116 C 
BRANCH   2   3
ATOM      3  N   UNL A   1      32.790  30.378  25.622  1.00  0.00    -0.352 N 
ATOM      4  O   UNL A   1      32.371  31.904  27.230  1.00  0.00    -0.269 OA
ATOM      5  C   UNL A   1      33.137  31.071  26.759  1.00  0.00     0.251 C 
ATOM      6  H   UNL A   1      31.962  30.673  25.179  1.00  0.00     0.163 HD
BRANCH   5   7
ATOM      7  C   UNL A   1      34.422  30.762  27.419  1.00  0.00     0.039 A 
ATOM      8  C   UNL A   1      34.676  29.471  27.886  1.00  0.00     0.014 A 
ATOM      9  C   UNL A   1      35.350  31.784  27.624  1.00  0.00     0.014 A 
ATOM     10  C   UNL A   1      35.767  29.246  28.713  1.00  0.00     0.010 A 
ATOM     11  C   UNL A   1      36.509  31.525  28.360  1.00  0.00     0.010 A 
ATOM     12  C   UNL A   1      36.710  30.263  28.941  1.00  0.00    -0.014 A 
BRANCH  12  13
ATOM     13  C   UNL A   1      37.937  29.940  29.711  1.00  0.00     0.031 A 
ATOM     14  C   UNL A   1      38.157  30.445  31.109  1.00  0.00     0.074 A 
ATOM     15  C   UNL A   1      38.865  29.161  29.121  1.00  0.00     0.049 A 
ATOM     16  N   UNL A   1      39.155  30.201  31.917  1.00  0.00    -0.248 NA
ATOM     17  C   UNL A   1      37.138  31.345  31.674  1.00  0.00     0.031 C 
ATOM     18  C   UNL A   1      38.779  28.657  27.747  1.00  0.00     0.029 A 
ATOM     19  N   UNL A   1      40.046  28.648  29.589  1.00  0.00    -0.354 N 
ATOM     20  C   UNL A   1      38.916  30.949  33.063  1.00  0.00     0.074 A 
ATOM     21  C   UNL A   1      37.673  31.660  32.846  1.00  0.00     0.031 C 
ATOM     22  C   UNL A   1      39.834  27.871  27.500  1.00  0.00     0.029 A 
ATOM     23  C   UNL A   1      40.708  27.873  28.667  1.00  0.00     0.049 A 
ATOM     24  H   UNL A   1      40.388  28.818  30.497  1.00  0.00     0.167 HD
ATOM     25  C   UNL A   1      39.659  31.023  34.193  1.00  0.00     0.034 A 
ATOM     26  C   UNL A   1      41.897  27.244  28.735  1.00  0.00     0.034 A 
ATOM     27  C   UNL A   1      40.873  30.280  34.409  1.00  0.00     0.049 A 
ATOM     28  C   UNL A   1      42.684  27.319  30.007  1.00  0.00     0.074 A 
ATOM     29  C   UNL A   1      41.648  30.219  35.554  1.00  0.00     0.029 A 
ATOM     30  N   UNL A   1      41.500  29.484  33.461  1.00  0.00    -0.354 N 
ATOM     31  N   UNL A   1      42.373  27.924  31.127  1.00  0.00    -0.248 NA
ATOM     32  C   UNL A   1      43.971  26.612  30.038  1.00  0.00     0.031 C 
ATOM     33  C   UNL A   1      42.765  29.424  35.285  1.00  0.00     0.029 A 
ATOM     34  C   UNL A   1      42.664  28.951  33.986  1.00  0.00     0.049 A 
ATOM     35  H   UNL A   1      41.166  29.323  32.549  1.00  0.00     0.167 HD
ATOM     36  C   UNL A   1      43.416  27.660  32.005  1.00  0.00     0.074 A 
ATOM     37  C   UNL A   1      44.357  26.820  31.292  1.00  0.00     0.031 C 
ATOM     38  C   UNL A   1      43.580  28.087  33.280  1.00  0.00     0.034 A 
BRANCH  25  39
ATOM     39  C   UNL A   1      39.178  31.919  35.308  1.00  0.00     0.023 A 
ATOM     40  C   UNL A   1      38.293  31.416  36.282  1.00  0.00     0.012 A 
ATOM     41  C   UNL A   1      39.682  33.229  35.446  1.00  0.00     0.148 A 
ATOM     42  C   UNL A   1      37.896  32.207  37.360  1.00  0.00     0.002 A 
ATOM     43  C   UNL A   1      39.319  33.996  36.547  1.00  0.00     0.091 A 
ATOM     44  F   UNL A   1      40.508  33.699  34.501  1.00  0.00    -0.205 F 
ATOM     45  C   UNL A   1      38.418  33.491  37.499  1.00  0.00     0.022 A 
BRANCH  43  46
ATOM     46  S   UNL A   1      40.007  35.625  36.864  1.00  0.00     0.127 S 
ATOM     47  O   UNL A   1      41.440  35.336  36.905  1.00  0.00    -0.237 OA
ATOM     48  O   UNL A   1      39.571  36.378  35.688  1.00  0.00    -0.237 OA
ATOM     49  O   UNL A   1      39.423  36.071  38.121  1.00  0.00    -0.744 OA
ENDBRANCH  43  46
ENDBRANCH  25  39
BRANCH  26  50
ATOM     50  C   UNL A   1      42.359  26.460  27.557  1.00  0.00     0.023 A 
ATOM     51  C   UNL A   1      43.318  27.012  26.688  1.00  0.00     0.012 A 
ATOM     52  C   UNL A   1      41.952  25.122  27.376  1.00  0.00     0.148 A 
ATOM     53  C   UNL A   1      43.865  26.245  25.659  1.00  0.00     0.002 A 
ATOM     54  C   UNL A   1      42.549  24.345  26.393  1.00  0.00     0.091 A 
ATOM     55  F   UNL A   1      41.035  24.620  28.216  1.00  0.00    -0.205 F 
ATOM     56  C   UNL A   1      43.495  24.908  25.523  1.00  0.00     0.022 A 
BRANCH  54  57
ATOM     57  S   UNL A   1      42.262  22.577  26.252  1.00  0.00     0.127 S 
ATOM     58  O   UNL A   1      43.047  22.240  25.067  1.00  0.00    -0.237 OA
ATOM     59  O   UNL A   1      42.811  22.085  27.516  1.00  0.00    -0.237 OA
ATOM     60  O   UNL A   1      40.821  22.417  26.117  1.00  0.00    -0.744 OA
ENDBRANCH  54  57
ENDBRANCH  26  50
BRANCH  38  61
ATOM     61  C   UNL A   1      44.820  27.653  34.015  1.00  0.00     0.023 A 
ATOM     62  C   UNL A   1      45.943  28.501  34.050  1.00  0.00     0.012 A 
ATOM     63  C   UNL A   1      44.823  26.466  34.774  1.00  0.00     0.148 A 
ATOM     64  C   UNL A   1      47.058  28.168  34.819  1.00  0.00     0.002 A 
ATOM     65  C   UNL A   1      45.915  26.165  35.578  1.00  0.00     0.091 A 
ATOM     66  F   UNL A   1      43.748  25.665  34.711  1.00  0.00    -0.205 F 
ATOM     67  C   UNL A   1      47.037  27.010  35.594  1.00  0.00     0.022 A 
BRANCH  65  68
ATOM     68  S   UNL A   1      45.937  24.756  36.692  1.00  0.00     0.127 S 
ATOM     69  O   UNL A   1      45.766  23.640  35.762  1.00  0.00    -0.237 OA
ATOM     70  O   UNL A   1      47.269  24.854  37.287  1.00  0.00    -0.237 OA
ATOM     71  O   UNL A   1      44.837  24.960  37.625  1.00  0.00    -0.744 OA
ENDBRANCH  65  68
ENDBRANCH  38  61
ENDBRANCH  12  13
ENDBRANCH   5   7
ENDBRANCH   2   3
ENDBRANCH   1   2
BRANCH   1  72
ATOM     72  C   UNL A   1      33.630  26.705  24.776  1.00  0.00     0.023 C 
BRANCH  72  73
ATOM     73  C   UNL A   1      33.928  25.499  25.655  1.00  0.00     0.116 C 
BRANCH  73  74
ATOM     74  N   UNL A   1      32.795  25.141  26.488  1.00  0.00    -0.352 N 
ATOM     75  C   UNL A   1      31.833  24.191  26.325  1.00  0.00     0.255 C 
ATOM     76  H   UNL A   1      32.707  25.677  27.308  1.00  0.00     0.163 HD
ATOM     77  O   UNL A   1      31.033  24.041  27.244  1.00  0.00    -0.269 OA
BRANCH  75  78
ATOM     78  C   UNL A   1      31.865  23.307  25.146  1.00  0.00     0.082 A 
ATOM     79  C   UNL A   1      32.209  21.972  25.444  1.00  0.00     0.033 A 
ATOM     80  C   UNL A   1      31.617  23.682  23.818  1.00  0.00     0.132 A 
ATOM     81  C   UNL A   1      32.429  21.052  24.426  1.00  0.00     0.019 A 
ATOM     82  C   UNL A   1      31.885  22.738  22.808  1.00  0.00     0.048 A 
ATOM     83  Br  UNL A   1      32.942  19.286  24.853  1.00  0.00    -0.051 Br
ATOM     84  C   UNL A   1      32.297  21.438  23.102  1.00  0.00     0.019 A 
BRANCH  80  85
ATOM     85  O   UNL A   1      31.113  24.827  23.274  1.00  0.00    -0.488 OA
BRANCH  85  86
ATOM     86  C   UNL A   1      29.901  25.445  23.714  1.00  0.00     0.268 C 
BRANCH  86  87
ATOM     87  C   UNL A   1      29.692  26.915  23.422  1.00  0.00     0.025 A 
ATOM     88  C   UNL A   1      30.655  27.748  22.837  1.00  0.00     0.010 A 
ATOM     89  C   UNL A   1      28.395  27.421  23.594  1.00  0.00     0.129 A 
ATOM     90  C   UNL A   1      30.279  28.978  22.287  1.00  0.00     0.001 A 
ATOM     91  C   UNL A   1      28.021  28.654  23.071  1.00  0.00     0.039 A 
ATOM     92  F   UNL A   1      27.468  26.671  24.208  1.00  0.00    -0.207 F 
ATOM     93  C   UNL A   1      28.957  29.417  22.380  1.00  0.00     0.003 A 
ENDBRANCH  86  87
ENDBRANCH  85  86
ENDBRANCH  80  85
ENDBRANCH  75  78
ENDBRANCH  73  74
ENDBRANCH  72  73
ENDBRANCH   1  72
TORSDOF 17
ENDMDL
