MODEL 1
REMARK VINA RESULT:     -11.3      0.000      0.000
REMARK SMILES COC(=O)[C@@H]1CCN(S(=O)(=O)N2CCC(C(=O)NCCCCNC(=O)c3ccc(-c4c5nc(c(-c6cccc(S(=O)(=O)[O-])c6F)c6ccc([nH]6)c(-c6cccc(S(=O)(=O)[O-])c6F)c6nc(c(-c7cccc(S(=O)(=O)[O-])c7F)c7ccc4[nH]7)C=C6)C=C5)cc3)CC2)C1
REMARK SMILES IDX 20 1 19 2 18 3 16 4 17 5 15 7 12 8 13 9 90 10 14 11 89 12
REMARK SMILES IDX 9 13 10 14 11 15 8 16 5 17 6 18 91 19 7 20 3 21 4 22 2 23
REMARK SMILES IDX 1 24 21 25 22 26 23 27 24 28 25 30 26 31 27 32 88 33 28 34
REMARK SMILES IDX 87 35 29 36 30 37 31 38 81 39 32 40 86 41 80 42 82 43 33 44
REMARK SMILES IDX 85 45 79 46 78 47 34 49 66 50 46 51 65 52 47 53 50 54 64 55
REMARK SMILES IDX 83 56 48 57 49 58 63 60 84 61 51 62 35 63 36 64 44 65 37 66
REMARK SMILES IDX 39 67 45 68 38 69 40 70 41 71 42 72 43 73 67 74 68 75 76 76
REMARK SMILES IDX 69 77 71 78 77 79 70 80 72 81 73 82 74 83 75 84 52 85 53 86
REMARK SMILES IDX 61 87 54 88 56 89 62 90 55 91 57 92 58 93 59 94 60 95
REMARK H PARENT 18 6 23 29 82 48 50 59
REMARK Flexibility Score: inf
ROOT
ATOM      1  C   UNL A   1      35.352  21.360  26.166  1.00  0.00     0.023 C 
ENDROOT
BRANCH   1   2
ATOM      2  C   UNL A   1      35.216  20.482  24.932  1.00  0.00     0.116 C 
BRANCH   2   3
ATOM      3  N   UNL A   1      34.219  19.444  25.127  1.00  0.00    -0.356 N 
ATOM      4  C   UNL A   1      32.866  19.497  25.030  1.00  0.00     0.223 C 
ATOM      5  O   UNL A   1      32.213  18.488  25.302  1.00  0.00    -0.275 OA
ATOM      6  H   UNL A   1      34.584  18.562  25.369  1.00  0.00     0.163 HD
BRANCH   4   7
ATOM      7  C   UNL A   1      32.168  20.749  24.545  1.00  0.00     0.081 C 
ATOM      8  N   UNL A   1      32.121  23.576  24.038  1.00  0.00    -0.189 NA
ATOM      9  C   UNL A   1      31.262  23.064  25.123  1.00  0.00     0.104 C 
ATOM     10  C   UNL A   1      32.285  22.625  22.930  1.00  0.00     0.104 C 
ATOM     11  C   UNL A   1      31.840  21.751  25.659  1.00  0.00     0.030 C 
ATOM     12  C   UNL A   1      32.937  21.345  23.367  1.00  0.00     0.030 C 
BRANCH   8  13
ATOM     13  S   UNL A   1      32.030  25.218  23.665  1.00  0.00     0.281 S 
ATOM     14  O   UNL A   1      31.125  25.366  22.552  1.00  0.00    -0.195 OA
ATOM     15  O   UNL A   1      33.376  25.743  23.575  1.00  0.00    -0.195 OA
BRANCH  13  16
ATOM     16  N   UNL A   1      31.298  25.947  25.034  1.00  0.00    -0.188 NA
ATOM     17  C   UNL A   1      32.423  27.927  25.975  1.00  0.00     0.116 C 
ATOM     18  C   UNL A   1      31.526  28.282  24.793  1.00  0.00     0.033 C 
ATOM     19  C   UNL A   1      32.328  26.384  26.074  1.00  0.00     0.118 C 
ATOM     20  C   UNL A   1      30.501  27.182  24.871  1.00  0.00     0.104 C 
BRANCH  17  21
ATOM     21  C   UNL A   1      31.955  28.638  27.238  1.00  0.00     0.310 C 
ATOM     22  O   UNL A   1      31.173  28.183  28.058  1.00  0.00    -0.252 OA
BRANCH  21  23
ATOM     23  O   UNL A   1      32.593  29.837  27.353  1.00  0.00    -0.469 OA
ATOM     24  C   UNL A   1      33.967  29.910  26.980  1.00  0.00     0.282 C 
ENDBRANCH  21  23
ENDBRANCH  17  21
ENDBRANCH  13  16
ENDBRANCH   8  13
ENDBRANCH   4   7
ENDBRANCH   2   3
ENDBRANCH   1   2
BRANCH   1  25
ATOM     25  C   UNL A   1      35.330  22.853  25.861  1.00  0.00     0.023 C 
BRANCH  25  26
ATOM     26  C   UNL A   1      36.700  23.516  25.864  1.00  0.00     0.116 C 
BRANCH  26  27
ATOM     27  N   UNL A   1      37.786  22.562  26.042  1.00  0.00    -0.352 N 
ATOM     28  C   UNL A   1      39.078  22.804  26.437  1.00  0.00     0.251 C 
ATOM     29  H   UNL A   1      37.564  21.621  25.856  1.00  0.00     0.163 HD
ATOM     30  O   UNL A   1      39.918  21.911  26.383  1.00  0.00    -0.269 OA
BRANCH  28  31
ATOM     31  C   UNL A   1      39.447  24.154  26.905  1.00  0.00     0.039 A 
ATOM     32  C   UNL A   1      39.282  24.472  28.253  1.00  0.00     0.014 A 
ATOM     33  C   UNL A   1      39.979  25.092  26.016  1.00  0.00     0.014 A 
ATOM     34  C   UNL A   1      39.686  25.723  28.716  1.00  0.00     0.010 A 
ATOM     35  C   UNL A   1      40.474  26.296  26.499  1.00  0.00     0.010 A 
ATOM     36  C   UNL A   1      40.305  26.638  27.847  1.00  0.00    -0.014 A 
BRANCH  36  37
ATOM     37  C   UNL A   1      40.741  27.974  28.326  1.00  0.00     0.031 A 
ATOM     38  C   UNL A   1      42.206  28.326  28.337  1.00  0.00     0.074 A 
ATOM     39  C   UNL A   1      39.830  28.846  28.798  1.00  0.00     0.049 A 
ATOM     40  N   UNL A   1      42.783  29.435  28.719  1.00  0.00    -0.248 NA
ATOM     41  C   UNL A   1      43.149  27.288  27.886  1.00  0.00     0.031 C 
ATOM     42  C   UNL A   1      38.392  28.592  28.914  1.00  0.00     0.029 A 
ATOM     43  N   UNL A   1      39.980  30.121  29.280  1.00  0.00    -0.354 N 
ATOM     44  C   UNL A   1      44.149  29.217  28.586  1.00  0.00     0.074 A 
ATOM     45  C   UNL A   1      44.319  27.853  28.139  1.00  0.00     0.031 C 
ATOM     46  C   UNL A   1      37.791  29.685  29.412  1.00  0.00     0.029 A 
ATOM     47  C   UNL A   1      38.799  30.704  29.680  1.00  0.00     0.049 A 
ATOM     48  H   UNL A   1      40.851  30.577  29.335  1.00  0.00     0.167 HD
ATOM     49  C   UNL A   1      45.172  30.082  28.781  1.00  0.00     0.034 A 
ATOM     50  C   UNL A   1      38.560  31.923  30.200  1.00  0.00     0.034 A 
ATOM     51  C   UNL A   1      44.996  31.448  29.191  1.00  0.00     0.049 A 
ATOM     52  C   UNL A   1      39.711  32.878  30.376  1.00  0.00     0.074 A 
ATOM     53  C   UNL A   1      45.957  32.430  29.347  1.00  0.00     0.029 A 
ATOM     54  N   UNL A   1      43.778  32.024  29.519  1.00  0.00    -0.354 N 
ATOM     55  N   UNL A   1      40.980  32.701  30.105  1.00  0.00    -0.248 NA
ATOM     56  C   UNL A   1      39.386  34.216  30.891  1.00  0.00     0.031 C 
ATOM     57  C   UNL A   1      45.323  33.592  29.802  1.00  0.00     0.029 A 
ATOM     58  C   UNL A   1      43.963  33.346  29.883  1.00  0.00     0.049 A 
ATOM     59  H   UNL A   1      42.910  31.560  29.496  1.00  0.00     0.167 HD
ATOM     60  C   UNL A   1      41.600  33.918  30.369  1.00  0.00     0.074 A 
ATOM     61  C   UNL A   1      40.559  34.828  30.806  1.00  0.00     0.031 C 
ATOM     62  C   UNL A   1      42.910  34.253  30.265  1.00  0.00     0.034 A 
BRANCH  49  63
ATOM     63  C   UNL A   1      46.569  29.584  28.510  1.00  0.00     0.023 A 
ATOM     64  C   UNL A   1      47.142  29.764  27.234  1.00  0.00     0.012 A 
ATOM     65  C   UNL A   1      47.331  28.976  29.526  1.00  0.00     0.148 A 
ATOM     66  C   UNL A   1      48.430  29.308  26.959  1.00  0.00     0.002 A 
ATOM     67  C   UNL A   1      48.634  28.570  29.260  1.00  0.00     0.091 A 
ATOM     68  F   UNL A   1      46.765  28.794  30.728  1.00  0.00    -0.205 F 
ATOM     69  C   UNL A   1      49.179  28.721  27.975  1.00  0.00     0.022 A 
BRANCH  67  70
ATOM     70  S   UNL A   1      49.712  27.882  30.521  1.00  0.00     0.127 S 
ATOM     71  O   UNL A   1      50.931  27.622  29.756  1.00  0.00    -0.237 OA
ATOM     72  O   UNL A   1      49.813  28.986  31.474  1.00  0.00    -0.237 OA
ATOM     73  O   UNL A   1      49.032  26.698  31.030  1.00  0.00    -0.744 OA
ENDBRANCH  67  70
ENDBRANCH  49  63
BRANCH  50  74
ATOM     74  C   UNL A   1      37.166  32.338  30.524  1.00  0.00     0.023 A 
ATOM     75  C   UNL A   1      36.660  32.121  31.821  1.00  0.00     0.012 A 
ATOM     76  C   UNL A   1      36.344  32.954  29.562  1.00  0.00     0.148 A 
ATOM     77  C   UNL A   1      35.349  32.472  32.143  1.00  0.00     0.002 A 
ATOM     78  C   UNL A   1      35.058  33.353  29.905  1.00  0.00     0.091 A 
ATOM     79  F   UNL A   1      36.841  33.146  28.332  1.00  0.00    -0.205 F 
ATOM     80  C   UNL A   1      34.551  33.095  31.188  1.00  0.00     0.022 A 
BRANCH  78  81
ATOM     81  S   UNL A   1      34.001  34.274  28.780  1.00  0.00     0.127 S 
ATOM     82  O   UNL A   1      33.706  33.272  27.760  1.00  0.00    -0.237 OA
ATOM     83  O   UNL A   1      32.875  34.624  29.646  1.00  0.00    -0.237 OA
ATOM     84  O   UNL A   1      34.795  35.411  28.337  1.00  0.00    -0.744 OA
ENDBRANCH  78  81
ENDBRANCH  50  74
BRANCH  62  85
ATOM     85  C   UNL A   1      43.292  35.678  30.570  1.00  0.00     0.023 A 
ATOM     86  C   UNL A   1      43.404  36.623  29.532  1.00  0.00     0.012 A 
ATOM     87  C   UNL A   1      43.484  36.091  31.904  1.00  0.00     0.148 A 
ATOM     88  C   UNL A   1      43.746  37.946  29.812  1.00  0.00     0.002 A 
ATOM     89  C   UNL A   1      43.768  37.422  32.180  1.00  0.00     0.091 A 
ATOM     90  F   UNL A   1      43.390  35.174  32.877  1.00  0.00    -0.205 F 
ATOM     91  C   UNL A   1      43.917  38.347  31.134  1.00  0.00     0.022 A 
BRANCH  89  92
ATOM     92  S   UNL A   1      43.900  38.048  33.858  1.00  0.00     0.127 S 
ATOM     93  O   UNL A   1      43.922  39.492  33.636  1.00  0.00    -0.237 OA
ATOM     94  O   UNL A   1      42.672  37.544  34.474  1.00  0.00    -0.237 OA
ATOM     95  O   UNL A   1      45.125  37.480  34.404  1.00  0.00    -0.744 OA
ENDBRANCH  89  92
ENDBRANCH  62  85
ENDBRANCH  36  37
ENDBRANCH  28  31
ENDBRANCH  26  27
ENDBRANCH  25  26
ENDBRANCH   1  25
TORSDOF 18
ENDMDL
MODEL 2
REMARK VINA RESULT:     -11.3      5.033      8.613
REMARK SMILES COC(=O)[C@@H]1CCN(S(=O)(=O)N2CCC(C(=O)NCCCCNC(=O)c3ccc(-c4c5nc(c(-c6cccc(S(=O)(=O)[O-])c6F)c6ccc([nH]6)c(-c6cccc(S(=O)(=O)[O-])c6F)c6nc(c(-c7cccc(S(=O)(=O)[O-])c7F)c7ccc4[nH]7)C=C6)C=C5)cc3)CC2)C1
REMARK SMILES IDX 20 1 19 2 18 3 16 4 17 5 15 7 12 8 13 9 90 10 14 11 89 12
REMARK SMILES IDX 9 13 10 14 11 15 8 16 5 17 6 18 91 19 7 20 3 21 4 22 2 23
REMARK SMILES IDX 1 24 21 25 22 26 23 27 24 28 25 30 26 31 27 32 88 33 28 34
REMARK SMILES IDX 87 35 29 36 30 37 31 38 81 39 32 40 86 41 80 42 82 43 33 44
REMARK SMILES IDX 85 45 79 46 78 47 34 49 66 50 46 51 65 52 47 53 50 54 64 55
REMARK SMILES IDX 83 56 48 57 49 58 63 60 84 61 51 62 35 63 36 64 44 65 37 66
REMARK SMILES IDX 39 67 45 68 38 69 40 70 41 71 42 72 43 73 67 74 68 75 76 76
REMARK SMILES IDX 69 77 71 78 77 79 70 80 72 81 73 82 74 83 75 84 52 85 53 86
REMARK SMILES IDX 61 87 54 88 56 89 62 90 55 91 57 92 58 93 59 94 60 95
REMARK H PARENT 18 6 23 29 82 48 50 59
REMARK Flexibility Score: inf
ROOT
ATOM      1  C   UNL A   1      31.833  30.645  26.546  1.00  0.00     0.023 C 
ENDROOT
BRANCH   1   2
ATOM      2  C   UNL A   1      31.234  30.154  25.237  1.00  0.00     0.116 C 
BRANCH   2   3
ATOM      3  N   UNL A   1      32.267  29.724  24.311  1.00  0.00    -0.356 N 
ATOM      4  C   UNL A   1      32.705  28.478  24.000  1.00  0.00     0.223 C 
ATOM      5  O   UNL A   1      33.648  28.359  23.216  1.00  0.00    -0.275 OA
ATOM      6  H   UNL A   1      32.722  30.455  23.832  1.00  0.00     0.163 HD
BRANCH   4   7
ATOM      7  C   UNL A   1      32.019  27.249  24.559  1.00  0.00     0.081 C 
ATOM      8  N   UNL A   1      32.089  24.569  25.589  1.00  0.00    -0.189 NA
ATOM      9  C   UNL A   1      31.472  24.774  24.265  1.00  0.00     0.104 C 
ATOM     10  C   UNL A   1      31.907  25.709  26.498  1.00  0.00     0.104 C 
ATOM     11  C   UNL A   1      32.048  26.038  23.620  1.00  0.00     0.030 C 
ATOM     12  C   UNL A   1      32.534  26.968  25.970  1.00  0.00     0.030 C 
BRANCH   8  13
ATOM     13  S   UNL A   1      32.050  23.018  26.249  1.00  0.00     0.281 S 
ATOM     14  O   UNL A   1      31.151  22.223  25.449  1.00  0.00    -0.195 OA
ATOM     15  O   UNL A   1      31.837  23.132  27.676  1.00  0.00    -0.195 OA
BRANCH  13  16
ATOM     16  N   UNL A   1      33.634  22.398  26.026  1.00  0.00    -0.188 NA
ATOM     17  C   UNL A   1      34.933  23.314  24.144  1.00  0.00     0.116 C 
ATOM     18  C   UNL A   1      35.010  24.201  25.383  1.00  0.00     0.033 C 
ATOM     19  C   UNL A   1      33.963  22.176  24.551  1.00  0.00     0.118 C 
ATOM     20  C   UNL A   1      34.802  23.186  26.475  1.00  0.00     0.104 C 
BRANCH  17  21
ATOM     21  C   UNL A   1      36.316  22.811  23.754  1.00  0.00     0.310 C 
ATOM     22  O   UNL A   1      36.833  22.942  22.656  1.00  0.00    -0.252 OA
BRANCH  21  23
ATOM     23  O   UNL A   1      36.923  22.250  24.839  1.00  0.00    -0.469 OA
ATOM     24  C   UNL A   1      37.457  20.936  24.709  1.00  0.00     0.282 C 
ENDBRANCH  21  23
ENDBRANCH  17  21
ENDBRANCH  13  16
ENDBRANCH   8  13
ENDBRANCH   4   7
ENDBRANCH   2   3
ENDBRANCH   1   2
BRANCH   1  25
ATOM     25  C   UNL A   1      31.607  32.131  26.802  1.00  0.00     0.023 C 
BRANCH  25  26
ATOM     26  C   UNL A   1      32.877  32.919  27.090  1.00  0.00     0.116 C 
BRANCH  26  27
ATOM     27  N   UNL A   1      32.608  34.234  27.653  1.00  0.00    -0.352 N 
ATOM     28  C   UNL A   1      33.158  34.813  28.770  1.00  0.00     0.251 C 
ATOM     29  H   UNL A   1      31.946  34.779  27.170  1.00  0.00     0.163 HD
ATOM     30  O   UNL A   1      32.706  35.867  29.205  1.00  0.00    -0.269 OA
BRANCH  28  31
ATOM     31  C   UNL A   1      34.283  34.141  29.449  1.00  0.00     0.039 A 
ATOM     32  C   UNL A   1      35.587  34.444  29.059  1.00  0.00     0.014 A 
ATOM     33  C   UNL A   1      34.046  33.235  30.487  1.00  0.00     0.014 A 
ATOM     34  C   UNL A   1      36.657  33.861  29.737  1.00  0.00     0.010 A 
ATOM     35  C   UNL A   1      35.111  32.738  31.225  1.00  0.00     0.010 A 
ATOM     36  C   UNL A   1      36.428  33.020  30.839  1.00  0.00    -0.014 A 
BRANCH  36  37
ATOM     37  C   UNL A   1      37.558  32.393  31.571  1.00  0.00     0.031 A 
ATOM     38  C   UNL A   1      38.321  31.256  30.942  1.00  0.00     0.074 A 
ATOM     39  C   UNL A   1      37.863  32.809  32.815  1.00  0.00     0.049 A 
ATOM     40  N   UNL A   1      39.332  30.579  31.420  1.00  0.00    -0.248 NA
ATOM     41  C   UNL A   1      37.873  30.800  29.614  1.00  0.00     0.031 C 
ATOM     42  C   UNL A   1      37.148  33.846  33.562  1.00  0.00     0.029 A 
ATOM     43  N   UNL A   1      38.850  32.401  33.676  1.00  0.00    -0.354 N 
ATOM     44  C   UNL A   1      39.617  29.604  30.472  1.00  0.00     0.074 A 
ATOM     45  C   UNL A   1      38.641  29.741  29.416  1.00  0.00     0.031 C 
ATOM     46  C   UNL A   1      37.734  34.008  34.760  1.00  0.00     0.029 A 
ATOM     47  C   UNL A   1      38.844  33.069  34.879  1.00  0.00     0.049 A 
ATOM     48  H   UNL A   1      39.501  31.697  33.454  1.00  0.00     0.167 HD
ATOM     49  C   UNL A   1      40.622  28.697  30.460  1.00  0.00     0.034 A 
ATOM     50  C   UNL A   1      39.644  32.937  35.954  1.00  0.00     0.034 A 
ATOM     51  C   UNL A   1      41.613  28.588  31.496  1.00  0.00     0.049 A 
ATOM     52  C   UNL A   1      40.776  31.945  35.902  1.00  0.00     0.074 A 
ATOM     53  C   UNL A   1      42.716  27.756  31.547  1.00  0.00     0.029 A 
ATOM     54  N   UNL A   1      41.616  29.330  32.668  1.00  0.00    -0.354 N 
ATOM     55  N   UNL A   1      41.118  31.132  34.933  1.00  0.00    -0.248 NA
ATOM     56  C   UNL A   1      41.657  31.885  37.077  1.00  0.00     0.031 C 
ATOM     57  C   UNL A   1      43.368  27.971  32.767  1.00  0.00     0.029 A 
ATOM     58  C   UNL A   1      42.697  28.971  33.452  1.00  0.00     0.049 A 
ATOM     59  H   UNL A   1      40.946  30.012  32.905  1.00  0.00     0.167 HD
ATOM     60  C   UNL A   1      42.280  30.498  35.359  1.00  0.00     0.074 A 
ATOM     61  C   UNL A   1      42.591  31.037  36.669  1.00  0.00     0.031 C 
ATOM     62  C   UNL A   1      43.021  29.553  34.730  1.00  0.00     0.034 A 
BRANCH  49  63
ATOM     63  C   UNL A   1      40.723  27.782  29.266  1.00  0.00     0.023 A 
ATOM     64  C   UNL A   1      39.943  26.607  29.216  1.00  0.00     0.012 A 
ATOM     65  C   UNL A   1      41.556  28.101  28.177  1.00  0.00     0.148 A 
ATOM     66  C   UNL A   1      40.025  25.744  28.125  1.00  0.00     0.002 A 
ATOM     67  C   UNL A   1      41.592  27.262  27.069  1.00  0.00     0.091 A 
ATOM     68  F   UNL A   1      42.306  29.211  28.249  1.00  0.00    -0.205 F 
ATOM     69  C   UNL A   1      40.840  26.077  27.048  1.00  0.00     0.022 A 
BRANCH  67  70
ATOM     70  S   UNL A   1      42.544  27.643  25.595  1.00  0.00     0.127 S 
ATOM     71  O   UNL A   1      43.899  27.743  26.136  1.00  0.00    -0.237 OA
ATOM     72  O   UNL A   1      42.305  26.465  24.762  1.00  0.00    -0.237 OA
ATOM     73  O   UNL A   1      41.991  28.884  25.067  1.00  0.00    -0.744 OA
ENDBRANCH  67  70
ENDBRANCH  49  63
BRANCH  50  74
ATOM     74  C   UNL A   1      39.453  33.816  37.142  1.00  0.00     0.023 A 
ATOM     75  C   UNL A   1      39.918  35.145  37.106  1.00  0.00     0.012 A 
ATOM     76  C   UNL A   1      38.805  33.348  38.301  1.00  0.00     0.148 A 
ATOM     77  C   UNL A   1      39.779  35.980  38.214  1.00  0.00     0.002 A 
ATOM     78  C   UNL A   1      38.618  34.202  39.382  1.00  0.00     0.091 A 
ATOM     79  F   UNL A   1      38.374  32.079  38.319  1.00  0.00    -0.205 F 
ATOM     80  C   UNL A   1      39.122  35.511  39.349  1.00  0.00     0.022 A 
BRANCH  78  81
ATOM     81  S   UNL A   1      37.676  33.727  40.835  1.00  0.00     0.127 S 
ATOM     82  O   UNL A   1      38.599  32.815  41.505  1.00  0.00    -0.237 OA
ATOM     83  O   UNL A   1      37.485  35.014  41.503  1.00  0.00    -0.237 OA
ATOM     84  O   UNL A   1      36.450  33.124  40.330  1.00  0.00    -0.744 OA
ENDBRANCH  78  81
ENDBRANCH  50  74
BRANCH  62  85
ATOM     85  C   UNL A   1      44.277  29.080  35.415  1.00  0.00     0.023 A 
ATOM     86  C   UNL A   1      45.490  29.771  35.235  1.00  0.00     0.012 A 
ATOM     87  C   UNL A   1      44.233  27.975  36.289  1.00  0.00     0.148 A 
ATOM     88  C   UNL A   1      46.652  29.341  35.877  1.00  0.00     0.002 A 
ATOM     89  C   UNL A   1      45.381  27.588  36.969  1.00  0.00     0.091 A 
ATOM     90  F   UNL A   1      43.074  27.319  36.435  1.00  0.00    -0.205 F 
ATOM     91  C   UNL A   1      46.595  28.259  36.751  1.00  0.00     0.022 A 
BRANCH  89  92
ATOM     92  S   UNL A   1      45.375  26.273  38.192  1.00  0.00     0.127 S 
ATOM     93  O   UNL A   1      46.774  26.254  38.616  1.00  0.00    -0.237 OA
ATOM     94  O   UNL A   1      44.441  26.786  39.195  1.00  0.00    -0.237 OA
ATOM     95  O   UNL A   1      44.916  25.079  37.496  1.00  0.00    -0.744 OA
ENDBRANCH  89  92
ENDBRANCH  62  85
ENDBRANCH  36  37
ENDBRANCH  28  31
ENDBRANCH  26  27
ENDBRANCH  25  26
ENDBRANCH   1  25
TORSDOF 18
ENDMDL
MODEL 3
REMARK VINA RESULT:     -11.1      3.844      8.511
REMARK SMILES COC(=O)[C@@H]1CCN(S(=O)(=O)N2CCC(C(=O)NCCCCNC(=O)c3ccc(-c4c5nc(c(-c6cccc(S(=O)(=O)[O-])c6F)c6ccc([nH]6)c(-c6cccc(S(=O)(=O)[O-])c6F)c6nc(c(-c7cccc(S(=O)(=O)[O-])c7F)c7ccc4[nH]7)C=C6)C=C5)cc3)CC2)C1
REMARK SMILES IDX 20 1 19 2 18 3 16 4 17 5 15 7 12 8 13 9 90 10 14 11 89 12
REMARK SMILES IDX 9 13 10 14 11 15 8 16 5 17 6 18 91 19 7 20 3 21 4 22 2 23
REMARK SMILES IDX 1 24 21 25 22 26 23 27 24 28 25 30 26 31 27 32 88 33 28 34
REMARK SMILES IDX 87 35 29 36 30 37 31 38 81 39 32 40 86 41 80 42 82 43 33 44
REMARK SMILES IDX 85 45 79 46 78 47 34 49 66 50 46 51 65 52 47 53 50 54 64 55
REMARK SMILES IDX 83 56 48 57 49 58 63 60 84 61 51 62 35 63 36 64 44 65 37 66
REMARK SMILES IDX 39 67 45 68 38 69 40 70 41 71 42 72 43 73 67 74 68 75 76 76
REMARK SMILES IDX 69 77 71 78 77 79 70 80 72 81 73 82 74 83 75 84 52 85 53 86
REMARK SMILES IDX 61 87 54 88 56 89 62 90 55 91 57 92 58 93 59 94 60 95
REMARK H PARENT 18 6 23 29 82 48 50 59
REMARK Flexibility Score: inf
ROOT
ATOM      1  C   UNL A   1      37.107  20.771  24.639  1.00  0.00     0.023 C 
ENDROOT
BRANCH   1   2
ATOM      2  C   UNL A   1      35.699  20.331  25.004  1.00  0.00     0.116 C 
BRANCH   2   3
ATOM      3  N   UNL A   1      35.191  21.073  26.145  1.00  0.00    -0.356 N 
ATOM      4  C   UNL A   1      34.449  22.208  26.194  1.00  0.00     0.223 C 
ATOM      5  O   UNL A   1      34.181  22.695  27.294  1.00  0.00    -0.275 OA
ATOM      6  H   UNL A   1      35.423  20.691  27.022  1.00  0.00     0.163 HD
BRANCH   4   7
ATOM      7  C   UNL A   1      33.910  22.841  24.929  1.00  0.00     0.081 C 
ATOM      8  N   UNL A   1      33.111  25.137  23.399  1.00  0.00    -0.189 NA
ATOM      9  C   UNL A   1      32.052  24.207  23.834  1.00  0.00     0.104 C 
ATOM     10  C   UNL A   1      34.393  24.472  23.126  1.00  0.00     0.104 C 
ATOM     11  C   UNL A   1      32.513  23.454  25.086  1.00  0.00     0.030 C 
ATOM     12  C   UNL A   1      34.953  23.790  24.342  1.00  0.00     0.030 C 
BRANCH   8  13
ATOM     13  S   UNL A   1      32.670  26.436  22.418  1.00  0.00     0.281 S 
ATOM     14  O   UNL A   1      31.229  26.499  22.395  1.00  0.00    -0.195 OA
ATOM     15  O   UNL A   1      33.408  26.344  21.176  1.00  0.00    -0.195 OA
BRANCH  13  16
ATOM     16  N   UNL A   1      33.240  27.830  23.239  1.00  0.00    -0.188 NA
ATOM     17  C   UNL A   1      31.778  28.769  24.985  1.00  0.00     0.116 C 
ATOM     18  C   UNL A   1      32.625  27.612  25.505  1.00  0.00     0.033 C 
ATOM     19  C   UNL A   1      32.130  28.851  23.479  1.00  0.00     0.118 C 
ATOM     20  C   UNL A   1      33.820  27.700  24.593  1.00  0.00     0.104 C 
BRANCH  17  21
ATOM     21  C   UNL A   1      32.093  30.050  25.745  1.00  0.00     0.310 C 
ATOM     22  O   UNL A   1      31.386  31.045  25.779  1.00  0.00    -0.252 OA
BRANCH  21  23
ATOM     23  O   UNL A   1      33.255  29.897  26.442  1.00  0.00    -0.469 OA
ATOM     24  C   UNL A   1      33.599  30.886  27.408  1.00  0.00     0.282 C 
ENDBRANCH  21  23
ENDBRANCH  17  21
ENDBRANCH  13  16
ENDBRANCH   8  13
ENDBRANCH   4   7
ENDBRANCH   2   3
ENDBRANCH   1   2
BRANCH   1  25
ATOM     25  C   UNL A   1      38.173  19.720  24.933  1.00  0.00     0.023 C 
BRANCH  25  26
ATOM     26  C   UNL A   1      39.181  20.128  25.998  1.00  0.00     0.116 C 
BRANCH  26  27
ATOM     27  N   UNL A   1      40.299  19.202  26.098  1.00  0.00    -0.352 N 
ATOM     28  C   UNL A   1      41.636  19.487  26.225  1.00  0.00     0.251 C 
ATOM     29  H   UNL A   1      40.067  18.245  26.071  1.00  0.00     0.163 HD
ATOM     30  O   UNL A   1      42.470  18.592  26.135  1.00  0.00    -0.269 OA
BRANCH  28  31
ATOM     31  C   UNL A   1      42.054  20.885  26.451  1.00  0.00     0.039 A 
ATOM     32  C   UNL A   1      42.336  21.305  27.752  1.00  0.00     0.014 A 
ATOM     33  C   UNL A   1      42.193  21.767  25.376  1.00  0.00     0.014 A 
ATOM     34  C   UNL A   1      42.792  22.605  27.967  1.00  0.00     0.010 A 
ATOM     35  C   UNL A   1      42.744  23.024  25.582  1.00  0.00     0.010 A 
ATOM     36  C   UNL A   1      43.020  23.468  26.882  1.00  0.00    -0.014 A 
BRANCH  36  37
ATOM     37  C   UNL A   1      43.506  24.854  27.096  1.00  0.00     0.031 A 
ATOM     38  C   UNL A   1      42.568  25.905  27.632  1.00  0.00     0.074 A 
ATOM     39  C   UNL A   1      44.769  25.180  26.763  1.00  0.00     0.049 A 
ATOM     40  N   UNL A   1      42.801  27.166  27.884  1.00  0.00    -0.248 NA
ATOM     41  C   UNL A   1      41.177  25.492  27.892  1.00  0.00     0.031 C 
ATOM     42  C   UNL A   1      45.749  24.273  26.162  1.00  0.00     0.029 A 
ATOM     43  N   UNL A   1      45.444  26.370  26.872  1.00  0.00    -0.354 N 
ATOM     44  C   UNL A   1      41.587  27.700  28.299  1.00  0.00     0.074 A 
ATOM     45  C   UNL A   1      40.607  26.642  28.214  1.00  0.00     0.031 C 
ATOM     46  C   UNL A   1      46.904  24.933  25.976  1.00  0.00     0.029 A 
ATOM     47  C   UNL A   1      46.740  26.314  26.415  1.00  0.00     0.049 A 
ATOM     48  H   UNL A   1      45.038  27.187  27.242  1.00  0.00     0.167 HD
ATOM     49  C   UNL A   1      41.316  28.949  28.745  1.00  0.00     0.034 A 
ATOM     50  C   UNL A   1      47.688  27.270  26.359  1.00  0.00     0.034 A 
ATOM     51  C   UNL A   1      42.301  29.988  28.861  1.00  0.00     0.049 A 
ATOM     52  C   UNL A   1      47.370  28.641  26.894  1.00  0.00     0.074 A 
ATOM     53  C   UNL A   1      42.150  31.265  29.371  1.00  0.00     0.029 A 
ATOM     54  N   UNL A   1      43.622  29.874  28.455  1.00  0.00    -0.354 N 
ATOM     55  N   UNL A   1      46.255  29.086  27.419  1.00  0.00    -0.248 NA
ATOM     56  C   UNL A   1      48.458  29.630  26.866  1.00  0.00     0.031 C 
ATOM     57  C   UNL A   1      43.372  31.934  29.242  1.00  0.00     0.029 A 
ATOM     58  C   UNL A   1      44.296  31.058  28.696  1.00  0.00     0.049 A 
ATOM     59  H   UNL A   1      44.021  29.068  28.054  1.00  0.00     0.167 HD
ATOM     60  C   UNL A   1      46.520  30.389  27.828  1.00  0.00     0.074 A 
ATOM     61  C   UNL A   1      47.907  30.653  27.504  1.00  0.00     0.031 C 
ATOM     62  C   UNL A   1      45.690  31.288  28.414  1.00  0.00     0.034 A 
BRANCH  49  63
ATOM     63  C   UNL A   1      39.902  29.243  29.182  1.00  0.00     0.023 A 
ATOM     64  C   UNL A   1      38.912  29.513  28.215  1.00  0.00     0.012 A 
ATOM     65  C   UNL A   1      39.544  29.211  30.544  1.00  0.00     0.148 A 
ATOM     66  C   UNL A   1      37.601  29.793  28.596  1.00  0.00     0.002 A 
ATOM     67  C   UNL A   1      38.224  29.440  30.913  1.00  0.00     0.091 A 
ATOM     68  F   UNL A   1      40.501  28.973  31.452  1.00  0.00    -0.205 F 
ATOM     69  C   UNL A   1      37.254  29.745  29.943  1.00  0.00     0.022 A 
BRANCH  67  70
ATOM     70  S   UNL A   1      37.657  29.318  32.613  1.00  0.00     0.127 S 
ATOM     71  O   UNL A   1      36.281  29.797  32.500  1.00  0.00    -0.237 OA
ATOM     72  O   UNL A   1      37.784  27.884  32.876  1.00  0.00    -0.237 OA
ATOM     73  O   UNL A   1      38.549  30.162  33.397  1.00  0.00    -0.744 OA
ENDBRANCH  67  70
ENDBRANCH  49  63
BRANCH  50  74
ATOM     74  C   UNL A   1      49.048  26.946  25.845  1.00  0.00     0.023 A 
ATOM     75  C   UNL A   1      49.944  26.224  26.658  1.00  0.00     0.012 A 
ATOM     76  C   UNL A   1      49.456  27.338  24.556  1.00  0.00     0.148 A 
ATOM     77  C   UNL A   1      51.234  25.934  26.213  1.00  0.00     0.002 A 
ATOM     78  C   UNL A   1      50.722  26.997  24.097  1.00  0.00     0.091 A 
ATOM     79  F   UNL A   1      48.590  28.029  23.800  1.00  0.00    -0.205 F 
ATOM     80  C   UNL A   1      51.620  26.313  24.930  1.00  0.00     0.022 A 
BRANCH  78  81
ATOM     81  S   UNL A   1      51.262  27.332  22.416  1.00  0.00     0.127 S 
ATOM     82  O   UNL A   1      51.261  28.792  22.388  1.00  0.00    -0.237 OA
ATOM     83  O   UNL A   1      52.588  26.714  22.399  1.00  0.00    -0.237 OA
ATOM     84  O   UNL A   1      50.285  26.684  21.552  1.00  0.00    -0.744 OA
ENDBRANCH  78  81
ENDBRANCH  50  74
BRANCH  62  85
ATOM     85  C   UNL A   1      46.271  32.623  28.802  1.00  0.00     0.023 A 
ATOM     86  C   UNL A   1      46.881  32.796  30.059  1.00  0.00     0.012 A 
ATOM     87  C   UNL A   1      46.259  33.694  27.885  1.00  0.00     0.148 A 
ATOM     88  C   UNL A   1      47.429  34.028  30.416  1.00  0.00     0.002 A 
ATOM     89  C   UNL A   1      46.857  34.900  28.227  1.00  0.00     0.091 A 
ATOM     90  F   UNL A   1      45.658  33.515  26.700  1.00  0.00    -0.205 F 
ATOM     91  C   UNL A   1      47.427  35.075  29.498  1.00  0.00     0.022 A 
BRANCH  89  92
ATOM     92  S   UNL A   1      46.993  36.266  27.068  1.00  0.00     0.127 S 
ATOM     93  O   UNL A   1      47.957  37.133  27.742  1.00  0.00    -0.237 OA
ATOM     94  O   UNL A   1      47.504  35.603  25.867  1.00  0.00    -0.237 OA
ATOM     95  O   UNL A   1      45.650  36.811  26.929  1.00  0.00    -0.744 OA
ENDBRANCH  89  92
ENDBRANCH  62  85
ENDBRANCH  36  37
ENDBRANCH  28  31
ENDBRANCH  26  27
ENDBRANCH  25  26
ENDBRANCH   1  25
TORSDOF 18
ENDMDL
