MODEL 1
REMARK VINA RESULT:     -12.8      0.000      0.000
REMARK SMILES Cc1n[nH]c2c1[C@@]1(C(=O)N([C@@H](C)C(=O)NCCCCNC(=O)c3ccc(-c4c5nc(c(-c6cccc(S(=O)(=O)[O-])c6F)c6ccc([nH]6)c(-c6cccc(S(=O)(=O)[O-])c6F)c6nc(c(-c7cccc(S(=O)(=O)[O-])c7F)c7ccc4[nH]7)C=C6)C=C5)cc3)c3ccccc31)C(C#N)=C(N)O2
REMARK SMILES IDX 18 1 17 2 16 3 15 4 13 5 14 6 11 8 12 9 10 10 1 11 2 12 3 13
REMARK SMILES IDX 6 14 4 15 5 16 7 17 97 19 8 20 91 21 92 22 95 23 9 24 86 25
REMARK SMILES IDX 90 26 87 27 89 28 88 29 93 30 94 31 96 32 19 35 20 36 21 37
REMARK SMILES IDX 22 39 23 40 24 41 85 42 25 43 84 44 26 45 27 46 28 47 78 48
REMARK SMILES IDX 29 49 83 50 77 51 79 52 30 53 82 54 76 55 75 56 31 58 63 59
REMARK SMILES IDX 43 60 62 61 44 62 47 63 61 64 80 65 45 66 46 67 60 69 81 70
REMARK SMILES IDX 48 71 32 72 33 73 41 74 34 75 36 76 42 77 35 78 37 79 38 80
REMARK SMILES IDX 39 81 40 82 64 83 65 84 73 85 66 86 68 87 74 88 67 89 69 90
REMARK SMILES IDX 70 91 71 92 72 93 49 94 50 95 58 96 51 97 53 98 59 99 52 100
REMARK SMILES IDX 54 101 55 102 56 103 57 104
REMARK H PARENT 15 7 4 18 96 33 96 34 20 38 79 57 47 68
REMARK Flexibility Score: inf
ROOT
ATOM      1  C   UNL A   1      35.121  31.979  27.752  1.00  0.00     0.023 C 
ENDROOT
BRANCH   1   2
ATOM      2  C   UNL A   1      33.846  31.140  27.712  1.00  0.00     0.023 C 
BRANCH   2   3
ATOM      3  C   UNL A   1      33.936  29.837  26.910  1.00  0.00     0.116 C 
BRANCH   3   4
ATOM      4  N   UNL A   1      32.926  29.757  25.871  1.00  0.00    -0.354 N 
ATOM      5  C   UNL A   1      32.806  28.992  24.753  1.00  0.00     0.242 C 
ATOM      6  O   UNL A   1      31.743  29.111  24.126  1.00  0.00    -0.273 OA
ATOM      7  H   UNL A   1      32.177  30.383  26.001  1.00  0.00     0.163 HD
BRANCH   5   8
ATOM      8  C   UNL A   1      33.882  28.014  24.216  1.00  0.00     0.176 C 
ATOM      9  C   UNL A   1      34.431  28.339  22.832  1.00  0.00     0.042 C 
BRANCH   8  10
ATOM     10  N   UNL A   1      33.530  26.612  24.420  1.00  0.00    -0.298 N 
ATOM     11  C   UNL A   1      29.927  25.965  25.446  1.00  0.00     0.069 C 
ATOM     12  C   UNL A   1      30.415  24.705  26.063  1.00  0.00     0.068 A 
ATOM     13  N   UNL A   1      29.592  24.000  26.859  1.00  0.00    -0.177 NA
ATOM     14  C   UNL A   1      31.717  24.135  26.031  1.00  0.00     0.063 A 
ATOM     15  N   UNL A   1      30.389  23.061  27.410  1.00  0.00    -0.246 N 
ATOM     16  C   UNL A   1      31.660  23.111  26.938  1.00  0.00     0.222 A 
ATOM     17  C   UNL A   1      33.037  24.536  25.459  1.00  0.00     0.149 C 
ATOM     18  H   UNL A   1      30.081  22.411  28.082  1.00  0.00     0.193 HD
ATOM     19  O   UNL A   1      32.659  22.366  27.391  1.00  0.00    -0.422 OA
ATOM     20  C   UNL A   1      33.203  26.051  25.657  1.00  0.00     0.248 C 
ATOM     21  C   UNL A   1      32.957  24.430  23.959  1.00  0.00     0.002 A 
ATOM     22  C   UNL A   1      34.183  23.732  26.082  1.00  0.00     0.114 C 
ATOM     23  C   UNL A   1      33.952  22.714  26.962  1.00  0.00     0.208 C 
ATOM     24  O   UNL A   1      32.954  26.652  26.686  1.00  0.00    -0.273 OA
ATOM     25  C   UNL A   1      33.310  25.667  23.395  1.00  0.00     0.050 A 
ATOM     26  C   UNL A   1      32.613  23.345  23.163  1.00  0.00     0.008 A 
ATOM     27  C   UNL A   1      33.324  25.840  22.023  1.00  0.00     0.027 A 
ATOM     28  C   UNL A   1      32.604  23.521  21.780  1.00  0.00     0.001 A 
ATOM     29  C   UNL A   1      32.957  24.758  21.216  1.00  0.00     0.002 A 
BRANCH  22  30
ATOM     30  C   UNL A   1      35.630  23.990  25.690  1.00  0.00     0.102 C 
ATOM     31  N   UNL A   1      36.828  24.205  25.365  1.00  0.00    -0.193 NA
ENDBRANCH  22  30
BRANCH  23  32
ATOM     32  N   UNL A   1      34.908  21.916  27.516  1.00  0.00    -0.369 N 
ATOM     33  H   UNL A   1      34.657  21.240  28.187  1.00  0.00     0.159 HD
ATOM     34  H   UNL A   1      35.849  22.013  27.246  1.00  0.00     0.159 HD
ENDBRANCH  23  32
ENDBRANCH   8  10
ENDBRANCH   5   8
ENDBRANCH   3   4
ENDBRANCH   2   3
ENDBRANCH   1   2
BRANCH   1  35
ATOM     35  C   UNL A   1      35.005  33.212  28.647  1.00  0.00     0.116 C 
BRANCH  35  36
ATOM     36  N   UNL A   1      34.664  32.891  30.019  1.00  0.00    -0.352 N 
ATOM     37  C   UNL A   1      35.328  32.310  31.062  1.00  0.00     0.251 C 
ATOM     38  H   UNL A   1      33.744  33.151  30.253  1.00  0.00     0.163 HD
ATOM     39  O   UNL A   1      34.769  32.380  32.160  1.00  0.00    -0.269 OA
BRANCH  37  40
ATOM     40  C   UNL A   1      36.607  31.561  30.953  1.00  0.00     0.039 A 
ATOM     41  C   UNL A   1      37.878  32.134  30.956  1.00  0.00     0.014 A 
ATOM     42  C   UNL A   1      36.493  30.173  30.738  1.00  0.00     0.014 A 
ATOM     43  C   UNL A   1      38.992  31.362  30.663  1.00  0.00     0.010 A 
ATOM     44  C   UNL A   1      37.607  29.391  30.455  1.00  0.00     0.010 A 
ATOM     45  C   UNL A   1      38.850  30.000  30.377  1.00  0.00    -0.014 A 
BRANCH  45  46
ATOM     46  C   UNL A   1      40.074  29.232  30.183  1.00  0.00     0.031 A 
ATOM     47  C   UNL A   1      40.792  28.995  31.465  1.00  0.00     0.074 A 
ATOM     48  C   UNL A   1      40.486  28.742  28.994  1.00  0.00     0.049 A 
ATOM     49  N   UNL A   1      41.902  29.531  31.852  1.00  0.00    -0.248 NA
ATOM     50  C   UNL A   1      40.096  28.238  32.521  1.00  0.00     0.031 C 
ATOM     51  C   UNL A   1      39.717  28.676  27.748  1.00  0.00     0.029 A 
ATOM     52  N   UNL A   1      41.642  28.090  28.668  1.00  0.00    -0.354 N 
ATOM     53  C   UNL A   1      42.174  28.954  33.091  1.00  0.00     0.074 A 
ATOM     54  C   UNL A   1      40.954  28.341  33.539  1.00  0.00     0.031 C 
ATOM     55  C   UNL A   1      40.311  27.804  26.900  1.00  0.00     0.029 A 
ATOM     56  C   UNL A   1      41.575  27.375  27.471  1.00  0.00     0.049 A 
ATOM     57  H   UNL A   1      42.452  28.122  29.228  1.00  0.00     0.167 HD
ATOM     58  C   UNL A   1      43.459  28.752  33.494  1.00  0.00     0.034 A 
ATOM     59  C   UNL A   1      42.474  26.459  27.028  1.00  0.00     0.034 A 
ATOM     60  C   UNL A   1      44.382  29.496  32.684  1.00  0.00     0.049 A 
ATOM     61  C   UNL A   1      43.752  26.760  27.706  1.00  0.00     0.074 A 
ATOM     62  C   UNL A   1      44.813  30.798  32.581  1.00  0.00     0.029 A 
ATOM     63  N   UNL A   1      44.691  28.859  31.514  1.00  0.00    -0.354 N 
ATOM     64  N   UNL A   1      44.435  27.851  27.501  1.00  0.00    -0.248 NA
ATOM     65  C   UNL A   1      44.149  25.971  28.868  1.00  0.00     0.031 C 
ATOM     66  C   UNL A   1      45.262  30.960  31.237  1.00  0.00     0.029 A 
ATOM     67  C   UNL A   1      45.139  29.742  30.573  1.00  0.00     0.049 A 
ATOM     68  H   UNL A   1      44.601  27.890  31.368  1.00  0.00     0.167 HD
ATOM     69  C   UNL A   1      45.018  28.101  28.726  1.00  0.00     0.074 A 
ATOM     70  C   UNL A   1      44.973  26.841  29.453  1.00  0.00     0.031 C 
ATOM     71  C   UNL A   1      45.164  29.376  29.179  1.00  0.00     0.034 A 
BRANCH  58  72
ATOM     72  C   UNL A   1      43.924  27.532  34.256  1.00  0.00     0.023 A 
ATOM     73  C   UNL A   1      44.647  27.730  35.452  1.00  0.00     0.012 A 
ATOM     74  C   UNL A   1      43.941  26.229  33.706  1.00  0.00     0.148 A 
ATOM     75  C   UNL A   1      45.340  26.683  36.071  1.00  0.00     0.002 A 
ATOM     76  C   UNL A   1      44.568  25.176  34.360  1.00  0.00     0.091 A 
ATOM     77  F   UNL A   1      43.472  26.027  32.471  1.00  0.00    -0.205 F 
ATOM     78  C   UNL A   1      45.286  25.401  35.536  1.00  0.00     0.022 A 
BRANCH  76  79
ATOM     79  S   UNL A   1      44.516  23.498  33.718  1.00  0.00     0.127 S 
ATOM     80  O   UNL A   1      45.675  22.898  34.373  1.00  0.00    -0.237 OA
ATOM     81  O   UNL A   1      43.217  23.034  34.208  1.00  0.00    -0.237 OA
ATOM     82  O   UNL A   1      44.596  23.631  32.270  1.00  0.00    -0.744 OA
ENDBRANCH  76  79
ENDBRANCH  58  72
BRANCH  59  83
ATOM     83  C   UNL A   1      42.320  25.196  26.255  1.00  0.00     0.023 A 
ATOM     84  C   UNL A   1      43.304  24.866  25.293  1.00  0.00     0.012 A 
ATOM     85  C   UNL A   1      41.450  24.172  26.683  1.00  0.00     0.148 A 
ATOM     86  C   UNL A   1      43.488  23.548  24.858  1.00  0.00     0.002 A 
ATOM     87  C   UNL A   1      41.632  22.862  26.240  1.00  0.00     0.091 A 
ATOM     88  F   UNL A   1      40.513  24.458  27.594  1.00  0.00    -0.205 F 
ATOM     89  C   UNL A   1      42.665  22.542  25.350  1.00  0.00     0.022 A 
BRANCH  87  90
ATOM     90  S   UNL A   1      40.616  21.504  26.836  1.00  0.00     0.127 S 
ATOM     91  O   UNL A   1      39.278  21.908  26.402  1.00  0.00    -0.237 OA
ATOM     92  O   UNL A   1      41.176  20.366  26.114  1.00  0.00    -0.237 OA
ATOM     93  O   UNL A   1      40.792  21.489  28.284  1.00  0.00    -0.744 OA
ENDBRANCH  87  90
ENDBRANCH  59  83
BRANCH  71  94
ATOM     94  C   UNL A   1      45.200  30.482  28.176  1.00  0.00     0.023 A 
ATOM     95  C   UNL A   1      44.047  31.127  27.692  1.00  0.00     0.012 A 
ATOM     96  C   UNL A   1      46.468  30.981  27.844  1.00  0.00     0.148 A 
ATOM     97  C   UNL A   1      44.166  32.275  26.903  1.00  0.00     0.002 A 
ATOM     98  C   UNL A   1      46.581  32.140  27.097  1.00  0.00     0.091 A 
ATOM     99  F   UNL A   1      47.542  30.332  28.319  1.00  0.00    -0.205 F 
ATOM    100  C   UNL A   1      45.432  32.791  26.621  1.00  0.00     0.022 A 
BRANCH  98 101
ATOM    101  S   UNL A   1      48.172  32.909  26.795  1.00  0.00     0.127 S 
ATOM    102  O   UNL A   1      47.846  33.890  25.762  1.00  0.00    -0.237 OA
ATOM    103  O   UNL A   1      48.488  33.478  28.105  1.00  0.00    -0.237 OA
ATOM    104  O   UNL A   1      49.068  31.839  26.371  1.00  0.00    -0.744 OA
ENDBRANCH  98 101
ENDBRANCH  71  94
ENDBRANCH  45  46
ENDBRANCH  37  40
ENDBRANCH  35  36
ENDBRANCH   1  35
TORSDOF 17
ENDMDL
MODEL 2
REMARK VINA RESULT:     -12.2      2.162      2.952
REMARK SMILES Cc1n[nH]c2c1[C@@]1(C(=O)N([C@@H](C)C(=O)NCCCCNC(=O)c3ccc(-c4c5nc(c(-c6cccc(S(=O)(=O)[O-])c6F)c6ccc([nH]6)c(-c6cccc(S(=O)(=O)[O-])c6F)c6nc(c(-c7cccc(S(=O)(=O)[O-])c7F)c7ccc4[nH]7)C=C6)C=C5)cc3)c3ccccc31)C(C#N)=C(N)O2
REMARK SMILES IDX 18 1 17 2 16 3 15 4 13 5 14 6 11 8 12 9 10 10 1 11 2 12 3 13
REMARK SMILES IDX 6 14 4 15 5 16 7 17 97 19 8 20 91 21 92 22 95 23 9 24 86 25
REMARK SMILES IDX 90 26 87 27 89 28 88 29 93 30 94 31 96 32 19 35 20 36 21 37
REMARK SMILES IDX 22 39 23 40 24 41 85 42 25 43 84 44 26 45 27 46 28 47 78 48
REMARK SMILES IDX 29 49 83 50 77 51 79 52 30 53 82 54 76 55 75 56 31 58 63 59
REMARK SMILES IDX 43 60 62 61 44 62 47 63 61 64 80 65 45 66 46 67 60 69 81 70
REMARK SMILES IDX 48 71 32 72 33 73 41 74 34 75 36 76 42 77 35 78 37 79 38 80
REMARK SMILES IDX 39 81 40 82 64 83 65 84 73 85 66 86 68 87 74 88 67 89 69 90
REMARK SMILES IDX 70 91 71 92 72 93 49 94 50 95 58 96 51 97 53 98 59 99 52 100
REMARK SMILES IDX 54 101 55 102 56 103 57 104
REMARK H PARENT 15 7 4 18 96 33 96 34 20 38 79 57 47 68
REMARK Flexibility Score: inf
ROOT
ATOM      1  C   UNL A   1      31.598  29.705  26.730  1.00  0.00     0.023 C 
ENDROOT
BRANCH   1   2
ATOM      2  C   UNL A   1      31.585  29.639  25.205  1.00  0.00     0.023 C 
BRANCH   2   3
ATOM      3  C   UNL A   1      31.784  28.244  24.602  1.00  0.00     0.116 C 
BRANCH   3   4
ATOM      4  N   UNL A   1      31.247  27.195  25.448  1.00  0.00    -0.354 N 
ATOM      5  C   UNL A   1      31.829  26.211  26.185  1.00  0.00     0.242 C 
ATOM      6  O   UNL A   1      31.063  25.535  26.887  1.00  0.00    -0.273 OA
ATOM      7  H   UNL A   1      30.263  27.194  25.499  1.00  0.00     0.163 HD
BRANCH   5   8
ATOM      8  C   UNL A   1      33.343  25.880  26.203  1.00  0.00     0.176 C 
ATOM      9  C   UNL A   1      34.274  27.064  25.969  1.00  0.00     0.042 C 
BRANCH   8  10
ATOM     10  N   UNL A   1      33.674  24.681  25.439  1.00  0.00    -0.298 N 
ATOM     11  C   UNL A   1      31.077  21.907  25.548  1.00  0.00     0.069 C 
ATOM     12  C   UNL A   1      32.189  20.967  25.253  1.00  0.00     0.068 A 
ATOM     13  N   UNL A   1      31.975  19.643  25.353  1.00  0.00    -0.177 NA
ATOM     14  C   UNL A   1      33.550  21.250  24.960  1.00  0.00     0.063 A 
ATOM     15  N   UNL A   1      33.204  19.100  25.234  1.00  0.00    -0.246 N 
ATOM     16  C   UNL A   1      34.166  20.027  24.997  1.00  0.00     0.222 A 
ATOM     17  C   UNL A   1      34.382  22.488  24.874  1.00  0.00     0.149 C 
ATOM     18  H   UNL A   1      33.384  18.135  25.311  1.00  0.00     0.193 HD
ATOM     19  O   UNL A   1      35.464  19.766  24.942  1.00  0.00    -0.422 OA
ATOM     20  C   UNL A   1      33.948  23.434  26.005  1.00  0.00     0.248 C 
ATOM     21  C   UNL A   1      33.961  23.259  23.651  1.00  0.00     0.002 A 
ATOM     22  C   UNL A   1      35.878  22.160  24.922  1.00  0.00     0.114 C 
ATOM     23  C   UNL A   1      36.332  20.872  24.930  1.00  0.00     0.208 C 
ATOM     24  O   UNL A   1      33.752  23.099  27.160  1.00  0.00    -0.273 OA
ATOM     25  C   UNL A   1      33.606  24.563  24.035  1.00  0.00     0.050 A 
ATOM     26  C   UNL A   1      33.904  22.856  22.324  1.00  0.00     0.008 A 
ATOM     27  C   UNL A   1      33.184  25.486  23.095  1.00  0.00     0.027 A 
ATOM     28  C   UNL A   1      33.458  23.776  21.375  1.00  0.00     0.001 A 
ATOM     29  C   UNL A   1      33.102  25.079  21.758  1.00  0.00     0.002 A 
BRANCH  22  30
ATOM     30  C   UNL A   1      36.926  23.261  24.893  1.00  0.00     0.102 C 
ATOM     31  N   UNL A   1      37.795  24.174  24.868  1.00  0.00    -0.193 NA
ENDBRANCH  22  30
BRANCH  23  32
ATOM     32  N   UNL A   1      37.642  20.496  24.915  1.00  0.00    -0.369 N 
ATOM     33  H   UNL A   1      37.940  19.773  24.317  1.00  0.00     0.159 HD
ATOM     34  H   UNL A   1      38.291  20.948  25.501  1.00  0.00     0.159 HD
ENDBRANCH  23  32
ENDBRANCH   8  10
ENDBRANCH   5   8
ENDBRANCH   3   4
ENDBRANCH   2   3
ENDBRANCH   1   2
BRANCH   1  35
ATOM     35  C   UNL A   1      33.003  29.833  27.318  1.00  0.00     0.116 C 
BRANCH  35  36
ATOM     36  N   UNL A   1      33.414  31.209  27.517  1.00  0.00    -0.352 N 
ATOM     37  C   UNL A   1      34.616  31.836  27.685  1.00  0.00     0.251 C 
ATOM     38  H   UNL A   1      32.654  31.835  27.533  1.00  0.00     0.163 HD
ATOM     39  O   UNL A   1      34.590  33.070  27.631  1.00  0.00    -0.269 OA
BRANCH  37  40
ATOM     40  C   UNL A   1      35.902  31.157  27.991  1.00  0.00     0.039 A 
ATOM     41  C   UNL A   1      36.132  29.786  27.889  1.00  0.00     0.014 A 
ATOM     42  C   UNL A   1      36.924  31.975  28.513  1.00  0.00     0.014 A 
ATOM     43  C   UNL A   1      37.309  29.237  28.375  1.00  0.00     0.010 A 
ATOM     44  C   UNL A   1      38.111  31.434  28.991  1.00  0.00     0.010 A 
ATOM     45  C   UNL A   1      38.280  30.057  28.959  1.00  0.00    -0.014 A 
BRANCH  45  46
ATOM     46  C   UNL A   1      39.534  29.425  29.351  1.00  0.00     0.031 A 
ATOM     47  C   UNL A   1      39.868  29.687  30.777  1.00  0.00     0.074 A 
ATOM     48  C   UNL A   1      40.281  28.647  28.539  1.00  0.00     0.049 A 
ATOM     49  N   UNL A   1      40.806  30.449  31.235  1.00  0.00    -0.248 NA
ATOM     50  C   UNL A   1      38.928  29.214  31.809  1.00  0.00     0.031 C 
ATOM     51  C   UNL A   1      39.897  28.104  27.233  1.00  0.00     0.029 A 
ATOM     52  N   UNL A   1      41.503  28.074  28.754  1.00  0.00    -0.354 N 
ATOM     53  C   UNL A   1      40.736  30.323  32.621  1.00  0.00     0.074 A 
ATOM     54  C   UNL A   1      39.460  29.732  32.919  1.00  0.00     0.031 C 
ATOM     55  C   UNL A   1      40.735  27.093  26.904  1.00  0.00     0.029 A 
ATOM     56  C   UNL A   1      41.801  27.022  27.888  1.00  0.00     0.049 A 
ATOM     57  H   UNL A   1      42.120  28.378  29.460  1.00  0.00     0.167 HD
ATOM     58  C   UNL A   1      41.861  30.416  33.382  1.00  0.00     0.034 A 
ATOM     59  C   UNL A   1      42.818  26.133  28.019  1.00  0.00     0.034 A 
ATOM     60  C   UNL A   1      42.949  30.981  32.637  1.00  0.00     0.049 A 
ATOM     61  C   UNL A   1      43.842  26.785  28.861  1.00  0.00     0.074 A 
ATOM     62  C   UNL A   1      43.348  32.231  32.221  1.00  0.00     0.029 A 
ATOM     63  N   UNL A   1      43.597  30.058  31.863  1.00  0.00    -0.354 N 
ATOM     64  N   UNL A   1      44.518  27.834  28.488  1.00  0.00    -0.248 NA
ATOM     65  C   UNL A   1      43.921  26.449  30.280  1.00  0.00     0.031 C 
ATOM     66  C   UNL A   1      44.153  32.024  31.062  1.00  0.00     0.029 A 
ATOM     67  C   UNL A   1      44.263  30.655  30.832  1.00  0.00     0.049 A 
ATOM     68  H   UNL A   1      43.585  29.087  32.029  1.00  0.00     0.167 HD
ATOM     69  C   UNL A   1      44.723  28.521  29.666  1.00  0.00     0.074 A 
ATOM     70  C   UNL A   1      44.516  27.552  30.733  1.00  0.00     0.031 C 
ATOM     71  C   UNL A   1      44.692  29.881  29.693  1.00  0.00     0.034 A 
BRANCH  58  72
ATOM     72  C   UNL A   1      42.133  29.558  34.597  1.00  0.00     0.023 A 
ATOM     73  C   UNL A   1      42.808  30.147  35.689  1.00  0.00     0.012 A 
ATOM     74  C   UNL A   1      42.023  28.148  34.597  1.00  0.00     0.148 A 
ATOM     75  C   UNL A   1      43.333  29.371  36.729  1.00  0.00     0.002 A 
ATOM     76  C   UNL A   1      42.481  27.387  35.666  1.00  0.00     0.091 A 
ATOM     77  F   UNL A   1      41.601  27.519  33.496  1.00  0.00    -0.205 F 
ATOM     78  C   UNL A   1      43.155  27.992  36.728  1.00  0.00     0.022 A 
BRANCH  76  79
ATOM     79  S   UNL A   1      42.263  25.604  35.719  1.00  0.00     0.127 S 
ATOM     80  O   UNL A   1      40.828  25.477  35.485  1.00  0.00    -0.237 OA
ATOM     81  O   UNL A   1      43.115  25.170  34.611  1.00  0.00    -0.237 OA
ATOM     82  O   UNL A   1      42.737  25.192  37.033  1.00  0.00    -0.744 OA
ENDBRANCH  76  79
ENDBRANCH  58  72
BRANCH  59  83
ATOM     83  C   UNL A   1      42.931  24.684  27.695  1.00  0.00     0.023 A 
ATOM     84  C   UNL A   1      41.842  23.834  28.003  1.00  0.00     0.012 A 
ATOM     85  C   UNL A   1      43.906  24.203  26.797  1.00  0.00     0.148 A 
ATOM     86  C   UNL A   1      41.671  22.603  27.357  1.00  0.00     0.002 A 
ATOM     87  C   UNL A   1      43.735  22.972  26.164  1.00  0.00     0.091 A 
ATOM     88  F   UNL A   1      44.945  24.989  26.488  1.00  0.00    -0.205 F 
ATOM     89  C   UNL A   1      42.607  22.184  26.421  1.00  0.00     0.022 A 
BRANCH  87  90
ATOM     90  S   UNL A   1      44.897  22.364  24.933  1.00  0.00     0.127 S 
ATOM     91  O   UNL A   1      46.101  22.139  25.734  1.00  0.00    -0.237 OA
ATOM     92  O   UNL A   1      44.235  21.149  24.467  1.00  0.00    -0.237 OA
ATOM     93  O   UNL A   1      45.025  23.435  23.953  1.00  0.00    -0.744 OA
ENDBRANCH  87  90
ENDBRANCH  59  83
BRANCH  71  94
ATOM     94  C   UNL A   1      44.973  30.618  28.425  1.00  0.00     0.023 A 
ATOM     95  C   UNL A   1      43.967  31.044  27.538  1.00  0.00     0.012 A 
ATOM     96  C   UNL A   1      46.299  31.027  28.222  1.00  0.00     0.148 A 
ATOM     97  C   UNL A   1      44.287  31.891  26.471  1.00  0.00     0.002 A 
ATOM     98  C   UNL A   1      46.605  31.897  27.190  1.00  0.00     0.091 A 
ATOM     99  F   UNL A   1      47.229  30.592  29.086  1.00  0.00    -0.205 F 
ATOM    100  C   UNL A   1      45.602  32.332  26.309  1.00  0.00     0.022 A 
BRANCH  98 101
ATOM    101  S   UNL A   1      48.251  32.581  26.998  1.00  0.00     0.127 S 
ATOM    102  O   UNL A   1      49.029  31.402  26.623  1.00  0.00    -0.237 OA
ATOM    103  O   UNL A   1      48.052  33.552  25.922  1.00  0.00    -0.237 OA
ATOM    104  O   UNL A   1      48.601  33.170  28.284  1.00  0.00    -0.744 OA
ENDBRANCH  98 101
ENDBRANCH  71  94
ENDBRANCH  45  46
ENDBRANCH  37  40
ENDBRANCH  35  36
ENDBRANCH   1  35
TORSDOF 17
ENDMDL
MODEL 3
REMARK VINA RESULT:     -11.8      1.866      2.261
REMARK SMILES Cc1n[nH]c2c1[C@@]1(C(=O)N([C@@H](C)C(=O)NCCCCNC(=O)c3ccc(-c4c5nc(c(-c6cccc(S(=O)(=O)[O-])c6F)c6ccc([nH]6)c(-c6cccc(S(=O)(=O)[O-])c6F)c6nc(c(-c7cccc(S(=O)(=O)[O-])c7F)c7ccc4[nH]7)C=C6)C=C5)cc3)c3ccccc31)C(C#N)=C(N)O2
REMARK SMILES IDX 18 1 17 2 16 3 15 4 13 5 14 6 11 8 12 9 10 10 1 11 2 12 3 13
REMARK SMILES IDX 6 14 4 15 5 16 7 17 97 19 8 20 91 21 92 22 95 23 9 24 86 25
REMARK SMILES IDX 90 26 87 27 89 28 88 29 93 30 94 31 96 32 19 35 20 36 21 37
REMARK SMILES IDX 22 39 23 40 24 41 85 42 25 43 84 44 26 45 27 46 28 47 78 48
REMARK SMILES IDX 29 49 83 50 77 51 79 52 30 53 82 54 76 55 75 56 31 58 63 59
REMARK SMILES IDX 43 60 62 61 44 62 47 63 61 64 80 65 45 66 46 67 60 69 81 70
REMARK SMILES IDX 48 71 32 72 33 73 41 74 34 75 36 76 42 77 35 78 37 79 38 80
REMARK SMILES IDX 39 81 40 82 64 83 65 84 73 85 66 86 68 87 74 88 67 89 69 90
REMARK SMILES IDX 70 91 71 92 72 93 49 94 50 95 58 96 51 97 53 98 59 99 52 100
REMARK SMILES IDX 54 101 55 102 56 103 57 104
REMARK H PARENT 15 7 4 18 96 33 96 34 20 38 79 57 47 68
REMARK Flexibility Score: inf
ROOT
ATOM      1  C   UNL A   1      35.530  31.496  27.858  1.00  0.00     0.023 C 
ENDROOT
BRANCH   1   2
ATOM      2  C   UNL A   1      36.179  30.152  27.535  1.00  0.00     0.023 C 
BRANCH   2   3
ATOM      3  C   UNL A   1      35.217  28.967  27.401  1.00  0.00     0.116 C 
BRANCH   3   4
ATOM      4  N   UNL A   1      33.980  29.333  26.735  1.00  0.00    -0.354 N 
ATOM      5  C   UNL A   1      33.416  28.953  25.557  1.00  0.00     0.242 C 
ATOM      6  O   UNL A   1      32.279  29.393  25.335  1.00  0.00    -0.273 OA
ATOM      7  H   UNL A   1      33.442  29.988  27.235  1.00  0.00     0.163 HD
BRANCH   5   8
ATOM      8  C   UNL A   1      34.082  28.039  24.497  1.00  0.00     0.176 C 
ATOM      9  C   UNL A   1      34.091  28.585  23.074  1.00  0.00     0.042 C 
BRANCH   8  10
ATOM     10  N   UNL A   1      33.676  26.641  24.613  1.00  0.00    -0.298 N 
ATOM     11  C   UNL A   1      30.040  26.072  25.566  1.00  0.00     0.069 C 
ATOM     12  C   UNL A   1      30.474  24.759  26.111  1.00  0.00     0.068 A 
ATOM     13  N   UNL A   1      29.617  24.040  26.856  1.00  0.00    -0.177 NA
ATOM     14  C   UNL A   1      31.754  24.144  26.056  1.00  0.00     0.063 A 
ATOM     15  N   UNL A   1      30.371  23.040  27.356  1.00  0.00    -0.246 N 
ATOM     16  C   UNL A   1      31.648  23.069  26.899  1.00  0.00     0.222 A 
ATOM     17  C   UNL A   1      33.094  24.527  25.521  1.00  0.00     0.149 C 
ATOM     18  H   UNL A   1      30.032  22.362  27.984  1.00  0.00     0.193 HD
ATOM     19  O   UNL A   1      32.614  22.261  27.315  1.00  0.00    -0.422 OA
ATOM     20  C   UNL A   1      33.314  26.020  25.811  1.00  0.00     0.248 C 
ATOM     21  C   UNL A   1      33.026  24.515  24.016  1.00  0.00     0.002 A 
ATOM     22  C   UNL A   1      34.203  23.644  26.104  1.00  0.00     0.114 C 
ATOM     23  C   UNL A   1      33.923  22.585  26.919  1.00  0.00     0.208 C 
ATOM     24  O   UNL A   1      33.077  26.568  26.872  1.00  0.00    -0.273 OA
ATOM     25  C   UNL A   1      33.432  25.769  23.531  1.00  0.00     0.050 A 
ATOM     26  C   UNL A   1      32.652  23.494  23.153  1.00  0.00     0.008 A 
ATOM     27  C   UNL A   1      33.467  26.024  22.172  1.00  0.00     0.027 A 
ATOM     28  C   UNL A   1      32.664  23.752  21.783  1.00  0.00     0.001 A 
ATOM     29  C   UNL A   1      33.069  25.006  21.298  1.00  0.00     0.002 A 
BRANCH  22  30
ATOM     30  C   UNL A   1      35.662  23.871  25.741  1.00  0.00     0.102 C 
ATOM     31  N   UNL A   1      36.871  24.058  25.440  1.00  0.00    -0.193 NA
ENDBRANCH  22  30
BRANCH  23  32
ATOM     32  N   UNL A   1      34.843  21.719  27.432  1.00  0.00    -0.369 N 
ATOM     33  H   UNL A   1      35.781  21.767  27.138  1.00  0.00     0.159 HD
ATOM     34  H   UNL A   1      34.570  21.047  28.097  1.00  0.00     0.159 HD
ENDBRANCH  23  32
ENDBRANCH   8  10
ENDBRANCH   5   8
ENDBRANCH   3   4
ENDBRANCH   2   3
ENDBRANCH   1   2
BRANCH   1  35
ATOM     35  C   UNL A   1      36.494  32.497  28.494  1.00  0.00     0.116 C 
BRANCH  35  36
ATOM     36  N   UNL A   1      36.257  32.695  29.910  1.00  0.00    -0.352 N 
ATOM     37  C   UNL A   1      36.950  32.398  31.050  1.00  0.00     0.251 C 
ATOM     38  H   UNL A   1      35.402  33.148  30.093  1.00  0.00     0.163 HD
ATOM     39  O   UNL A   1      36.516  32.904  32.089  1.00  0.00    -0.269 OA
BRANCH  37  40
ATOM     40  C   UNL A   1      38.114  31.478  31.130  1.00  0.00     0.039 A 
ATOM     41  C   UNL A   1      39.448  31.873  31.209  1.00  0.00     0.014 A 
ATOM     42  C   UNL A   1      37.822  30.103  31.022  1.00  0.00     0.014 A 
ATOM     43  C   UNL A   1      40.462  30.934  31.092  1.00  0.00     0.010 A 
ATOM     44  C   UNL A   1      38.833  29.155  30.916  1.00  0.00     0.010 A 
ATOM     45  C   UNL A   1      40.153  29.582  30.909  1.00  0.00    -0.014 A 
BRANCH  45  46
ATOM     46  C   UNL A   1      41.268  28.642  30.901  1.00  0.00     0.031 A 
ATOM     47  C   UNL A   1      41.896  28.512  32.244  1.00  0.00     0.074 A 
ATOM     48  C   UNL A   1      41.654  27.928  29.822  1.00  0.00     0.049 A 
ATOM     49  N   UNL A   1      43.053  28.953  32.613  1.00  0.00    -0.248 NA
ATOM     50  C   UNL A   1      41.063  28.021  33.356  1.00  0.00     0.031 C 
ATOM     51  C   UNL A   1      40.932  27.773  28.556  1.00  0.00     0.029 A 
ATOM     52  N   UNL A   1      42.722  27.090  29.662  1.00  0.00    -0.354 N 
ATOM     53  C   UNL A   1      43.196  28.541  33.936  1.00  0.00     0.074 A 
ATOM     54  C   UNL A   1      41.887  28.166  34.396  1.00  0.00     0.031 C 
ATOM     55  C   UNL A   1      41.433  26.713  27.881  1.00  0.00     0.029 A 
ATOM     56  C   UNL A   1      42.605  26.216  28.581  1.00  0.00     0.049 A 
ATOM     57  H   UNL A   1      43.506  27.103  30.259  1.00  0.00     0.167 HD
ATOM     58  C   UNL A   1      44.425  28.238  34.438  1.00  0.00     0.034 A 
ATOM     59  C   UNL A   1      43.387  25.135  28.329  1.00  0.00     0.034 A 
ATOM     60  C   UNL A   1      45.471  28.725  33.585  1.00  0.00     0.049 A 
ATOM     61  C   UNL A   1      44.667  25.369  29.030  1.00  0.00     0.074 A 
ATOM     62  C   UNL A   1      46.079  29.930  33.318  1.00  0.00     0.029 A 
ATOM     63  N   UNL A   1      45.735  27.884  32.539  1.00  0.00    -0.354 N 
ATOM     64  N   UNL A   1      45.499  26.318  28.708  1.00  0.00    -0.248 NA
ATOM     65  C   UNL A   1      44.907  24.721  30.316  1.00  0.00     0.031 C 
ATOM     66  C   UNL A   1      46.598  29.826  31.994  1.00  0.00     0.029 A 
ATOM     67  C   UNL A   1      46.336  28.548  31.509  1.00  0.00     0.049 A 
ATOM     68  H   UNL A   1      45.520  26.923  32.531  1.00  0.00     0.167 HD
ATOM     69  C   UNL A   1      46.063  26.675  29.916  1.00  0.00     0.074 A 
ATOM     70  C   UNL A   1      45.818  25.556  30.815  1.00  0.00     0.031 C 
ATOM     71  C   UNL A   1      46.364  27.973  30.186  1.00  0.00     0.034 A 
BRANCH  58  72
ATOM     72  C   UNL A   1      44.689  27.098  35.396  1.00  0.00     0.023 A 
ATOM     73  C   UNL A   1      45.320  27.394  36.624  1.00  0.00     0.012 A 
ATOM     74  C   UNL A   1      44.618  25.735  35.024  1.00  0.00     0.148 A 
ATOM     75  C   UNL A   1      45.841  26.384  37.442  1.00  0.00     0.002 A 
ATOM     76  C   UNL A   1      45.070  24.731  35.871  1.00  0.00     0.091 A 
ATOM     77  F   UNL A   1      44.242  25.408  33.784  1.00  0.00    -0.205 F 
ATOM     78  C   UNL A   1      45.700  25.050  37.075  1.00  0.00     0.022 A 
BRANCH  76  79
ATOM     79  S   UNL A   1      44.900  22.992  35.450  1.00  0.00     0.127 S 
ATOM     80  O   UNL A   1      45.303  22.348  36.696  1.00  0.00    -0.237 OA
ATOM     81  O   UNL A   1      43.473  22.902  35.136  1.00  0.00    -0.237 OA
ATOM     82  O   UNL A   1      45.777  22.779  34.306  1.00  0.00    -0.744 OA
ENDBRANCH  76  79
ENDBRANCH  58  72
BRANCH  59  83
ATOM     83  C   UNL A   1      43.092  23.801  27.740  1.00  0.00     0.023 A 
ATOM     84  C   UNL A   1      41.761  23.320  27.781  1.00  0.00     0.012 A 
ATOM     85  C   UNL A   1      43.990  23.173  26.852  1.00  0.00     0.148 A 
ATOM     86  C   UNL A   1      41.314  22.332  26.896  1.00  0.00     0.002 A 
ATOM     87  C   UNL A   1      43.540  22.182  25.978  1.00  0.00     0.091 A 
ATOM     88  F   UNL A   1      45.253  23.609  26.793  1.00  0.00    -0.205 F 
ATOM     89  C   UNL A   1      42.199  21.780  25.979  1.00  0.00     0.022 A 
BRANCH  87  90
ATOM     90  S   UNL A   1      44.622  21.426  24.757  1.00  0.00     0.127 S 
ATOM     91  O   UNL A   1      44.535  22.372  23.644  1.00  0.00    -0.237 OA
ATOM     92  O   UNL A   1      45.904  21.415  25.453  1.00  0.00    -0.237 OA
ATOM     93  O   UNL A   1      44.039  20.119  24.474  1.00  0.00    -0.744 OA
ENDBRANCH  87  90
ENDBRANCH  59  83
BRANCH  71  94
ATOM     94  C   UNL A   1      46.590  28.900  29.037  1.00  0.00     0.023 A 
ATOM     95  C   UNL A   1      47.758  28.890  28.253  1.00  0.00     0.012 A 
ATOM     96  C   UNL A   1      45.499  29.692  28.651  1.00  0.00     0.148 A 
ATOM     97  C   UNL A   1      47.821  29.652  27.081  1.00  0.00     0.002 A 
ATOM     98  C   UNL A   1      45.550  30.413  27.470  1.00  0.00     0.091 A 
ATOM     99  F   UNL A   1      44.407  29.679  29.431  1.00  0.00    -0.205 F 
ATOM    100  C   UNL A   1      46.711  30.398  26.681  1.00  0.00     0.022 A 
BRANCH  98 101
ATOM    101  S   UNL A   1      44.121  31.300  26.852  1.00  0.00     0.127 S 
ATOM    102  O   UNL A   1      44.686  32.045  25.729  1.00  0.00    -0.237 OA
ATOM    103  O   UNL A   1      43.224  30.207  26.476  1.00  0.00    -0.237 OA
ATOM    104  O   UNL A   1      43.640  32.120  27.958  1.00  0.00    -0.744 OA
ENDBRANCH  98 101
ENDBRANCH  71  94
ENDBRANCH  45  46
ENDBRANCH  37  40
ENDBRANCH  35  36
ENDBRANCH   1  35
TORSDOF 17
ENDMDL
