MODEL 1
REMARK VINA RESULT:     -11.7      0.000      0.000
REMARK SMILES COc1c(F)cc(F)c(C(=O)NCCCCNC(=O)c2ccc(-c3c4nc(c(-c5cccc(S(=O)(=O)[O-])c5F)c5ccc([nH]5)c(-c5cccc(S(=O)(=O)[O-])c5F)c5nc(c(-c6cccc(S(=O)(=O)[O-])c6F)c6ccc3[nH]6)C=C5)C=C4)cc2)c1F
REMARK SMILES IDX 15 1 14 2 13 3 12 4 10 5 11 6 9 8 3 9 4 10 83 11 5 12 6 13
REMARK SMILES IDX 84 14 7 15 8 16 2 17 1 18 16 19 17 20 18 21 19 23 20 24
REMARK SMILES IDX 21 25 82 26 22 27 81 28 23 29 24 30 25 31 75 32 26 33 80 34
REMARK SMILES IDX 74 35 76 36 27 37 79 38 73 39 72 40 28 42 60 43 40 44 59 45
REMARK SMILES IDX 41 46 44 47 58 48 77 49 42 50 43 51 57 53 78 54 45 55 29 56
REMARK SMILES IDX 30 57 38 58 31 59 33 60 39 61 32 62 34 63 35 64 36 65 37 66
REMARK SMILES IDX 61 67 62 68 70 69 63 70 65 71 71 72 64 73 66 74 67 75 68 76
REMARK SMILES IDX 69 77 46 78 47 79 55 80 48 81 50 82 56 83 49 84 51 85 52 86
REMARK SMILES IDX 53 87 54 88
REMARK H PARENT 12 7 17 22 76 41 44 52
REMARK Flexibility Score: inf
ROOT
ATOM      1  C   UNL A   1      32.051  29.935  25.259  1.00  0.00     0.023 C 
ENDROOT
BRANCH   1   2
ATOM      2  C   UNL A   1      33.254  29.101  24.813  1.00  0.00     0.023 C 
BRANCH   2   3
ATOM      3  C   UNL A   1      33.037  27.585  24.860  1.00  0.00     0.116 C 
BRANCH   3   4
ATOM      4  N   UNL A   1      32.933  27.052  23.516  1.00  0.00    -0.352 N 
ATOM      5  C   UNL A   1      31.881  26.877  22.654  1.00  0.00     0.257 C 
ATOM      6  O   UNL A   1      32.123  26.266  21.612  1.00  0.00    -0.269 OA
ATOM      7  H   UNL A   1      33.796  26.754  23.145  1.00  0.00     0.163 HD
BRANCH   5   8
ATOM      8  C   UNL A   1      30.506  27.399  22.866  1.00  0.00     0.115 A 
ATOM      9  C   UNL A   1      28.730  29.070  22.751  1.00  0.00     0.191 A 
ATOM     10  C   UNL A   1      27.860  28.213  23.412  1.00  0.00     0.171 A 
ATOM     11  C   UNL A   1      30.051  28.669  22.510  1.00  0.00     0.183 A 
ATOM     12  F   UNL A   1      26.590  28.572  23.648  1.00  0.00    -0.203 F 
ATOM     13  C   UNL A   1      28.293  26.964  23.825  1.00  0.00     0.083 A 
ATOM     14  F   UNL A   1      30.861  29.589  21.979  1.00  0.00    -0.202 F 
ATOM     15  C   UNL A   1      29.598  26.563  23.536  1.00  0.00     0.142 A 
ATOM     16  F   UNL A   1      29.938  25.321  23.914  1.00  0.00    -0.206 F 
BRANCH   9  17
ATOM     17  O   UNL A   1      28.322  30.265  22.220  1.00  0.00    -0.491 OA
ATOM     18  C   UNL A   1      28.031  31.233  23.223  1.00  0.00     0.278 C 
ENDBRANCH   9  17
ENDBRANCH   5   8
ENDBRANCH   3   4
ENDBRANCH   2   3
ENDBRANCH   1   2
BRANCH   1  19
ATOM     19  C   UNL A   1      32.096  30.409  26.707  1.00  0.00     0.116 C 
BRANCH  19  20
ATOM     20  N   UNL A   1      32.109  31.858  26.839  1.00  0.00    -0.352 N 
ATOM     21  C   UNL A   1      33.071  32.662  27.409  1.00  0.00     0.251 C 
ATOM     22  H   UNL A   1      31.325  32.328  26.472  1.00  0.00     0.163 HD
ATOM     23  O   UNL A   1      32.887  33.862  27.522  1.00  0.00    -0.269 OA
BRANCH  21  24
ATOM     24  C   UNL A   1      34.312  32.041  27.924  1.00  0.00     0.039 A 
ATOM     25  C   UNL A   1      35.429  32.852  28.133  1.00  0.00     0.014 A 
ATOM     26  C   UNL A   1      34.356  30.679  28.235  1.00  0.00     0.014 A 
ATOM     27  C   UNL A   1      36.571  32.311  28.726  1.00  0.00     0.010 A 
ATOM     28  C   UNL A   1      35.472  30.157  28.882  1.00  0.00     0.010 A 
ATOM     29  C   UNL A   1      36.587  30.969  29.140  1.00  0.00    -0.014 A 
BRANCH  29  30
ATOM     30  C   UNL A   1      37.741  30.406  29.882  1.00  0.00     0.031 A 
ATOM     31  C   UNL A   1      38.029  30.847  31.290  1.00  0.00     0.074 A 
ATOM     32  C   UNL A   1      38.590  29.575  29.246  1.00  0.00     0.049 A 
ATOM     33  N   UNL A   1      39.020  30.504  32.072  1.00  0.00    -0.248 NA
ATOM     34  C   UNL A   1      37.100  31.819  31.889  1.00  0.00     0.031 C 
ATOM     35  C   UNL A   1      38.468  29.145  27.851  1.00  0.00     0.029 A 
ATOM     36  N   UNL A   1      39.741  28.964  29.680  1.00  0.00    -0.354 N 
ATOM     37  C   UNL A   1      38.856  31.243  33.237  1.00  0.00     0.074 A 
ATOM     38  C   UNL A   1      37.685  32.073  33.051  1.00  0.00     0.031 C 
ATOM     39  C   UNL A   1      39.499  28.341  27.545  1.00  0.00     0.029 A 
ATOM     40  C   UNL A   1      40.366  28.213  28.711  1.00  0.00     0.049 A 
ATOM     41  H   UNL A   1      40.085  29.056  30.597  1.00  0.00     0.167 HD
ATOM     42  C   UNL A   1      39.595  31.211  34.371  1.00  0.00     0.034 A 
ATOM     43  C   UNL A   1      41.509  27.502  28.759  1.00  0.00     0.034 A 
ATOM     44  C   UNL A   1      40.723  30.342  34.573  1.00  0.00     0.049 A 
ATOM     45  C   UNL A   1      42.278  27.439  30.050  1.00  0.00     0.074 A 
ATOM     46  C   UNL A   1      41.468  30.153  35.723  1.00  0.00     0.029 A 
ATOM     47  N   UNL A   1      41.272  29.520  33.602  1.00  0.00    -0.354 N 
ATOM     48  N   UNL A   1      42.002  28.002  31.202  1.00  0.00    -0.248 NA
ATOM     49  C   UNL A   1      43.494  26.614  30.061  1.00  0.00     0.031 C 
ATOM     50  C   UNL A   1      42.476  29.225  35.444  1.00  0.00     0.029 A 
ATOM     51  C   UNL A   1      42.352  28.828  34.122  1.00  0.00     0.049 A 
ATOM     52  H   UNL A   1      40.943  29.440  32.677  1.00  0.00     0.167 HD
ATOM     53  C   UNL A   1      42.990  27.575  32.081  1.00  0.00     0.074 A 
ATOM     54  C   UNL A   1      43.859  26.687  31.335  1.00  0.00     0.031 C 
ATOM     55  C   UNL A   1      43.173  27.904  33.384  1.00  0.00     0.034 A 
BRANCH  42  56
ATOM     56  C   UNL A   1      39.165  32.093  35.512  1.00  0.00     0.023 A 
ATOM     57  C   UNL A   1      38.265  31.588  36.473  1.00  0.00     0.012 A 
ATOM     58  C   UNL A   1      39.692  33.388  35.672  1.00  0.00     0.148 A 
ATOM     59  C   UNL A   1      37.876  32.366  37.560  1.00  0.00     0.002 A 
ATOM     60  C   UNL A   1      39.329  34.146  36.781  1.00  0.00     0.091 A 
ATOM     61  F   UNL A   1      40.528  33.861  34.736  1.00  0.00    -0.205 F 
ATOM     62  C   UNL A   1      38.414  33.640  37.720  1.00  0.00     0.022 A 
BRANCH  60  63
ATOM     63  S   UNL A   1      40.023  35.769  37.112  1.00  0.00     0.127 S 
ATOM     64  O   UNL A   1      41.441  35.453  37.287  1.00  0.00    -0.237 OA
ATOM     65  O   UNL A   1      39.710  36.497  35.881  1.00  0.00    -0.237 OA
ATOM     66  O   UNL A   1      39.339  36.262  38.298  1.00  0.00    -0.744 OA
ENDBRANCH  60  63
ENDBRANCH  42  56
BRANCH  43  67
ATOM     67  C   UNL A   1      41.949  26.722  27.568  1.00  0.00     0.023 A 
ATOM     68  C   UNL A   1      42.642  27.382  26.534  1.00  0.00     0.012 A 
ATOM     69  C   UNL A   1      41.720  25.337  27.466  1.00  0.00     0.148 A 
ATOM     70  C   UNL A   1      43.075  26.682  25.408  1.00  0.00     0.002 A 
ATOM     71  C   UNL A   1      42.199  24.635  26.364  1.00  0.00     0.091 A 
ATOM     72  F   UNL A   1      41.045  24.728  28.452  1.00  0.00    -0.205 F 
ATOM     73  C   UNL A   1      42.863  25.309  25.327  1.00  0.00     0.022 A 
BRANCH  71  74
ATOM     74  S   UNL A   1      42.085  22.847  26.245  1.00  0.00     0.127 S 
ATOM     75  O   UNL A   1      42.846  22.418  27.415  1.00  0.00    -0.237 OA
ATOM     76  O   UNL A   1      40.640  22.625  26.335  1.00  0.00    -0.237 OA
ATOM     77  O   UNL A   1      42.659  22.509  24.949  1.00  0.00    -0.744 OA
ENDBRANCH  71  74
ENDBRANCH  43  67
BRANCH  55  78
ATOM     78  C   UNL A   1      44.345  27.287  34.100  1.00  0.00     0.023 A 
ATOM     79  C   UNL A   1      45.589  27.947  34.091  1.00  0.00     0.012 A 
ATOM     80  C   UNL A   1      44.194  26.102  34.846  1.00  0.00     0.148 A 
ATOM     81  C   UNL A   1      46.675  27.423  34.791  1.00  0.00     0.002 A 
ATOM     82  C   UNL A   1      45.269  25.609  35.578  1.00  0.00     0.091 A 
ATOM     83  F   UNL A   1      43.008  25.477  34.825  1.00  0.00    -0.205 F 
ATOM     84  C   UNL A   1      46.511  26.262  35.544  1.00  0.00     0.022 A 
BRANCH  82  85
ATOM     85  S   UNL A   1      45.120  24.172  36.646  1.00  0.00     0.127 S 
ATOM     86  O   UNL A   1      46.512  23.739  36.759  1.00  0.00    -0.237 OA
ATOM     87  O   UNL A   1      44.559  24.747  37.870  1.00  0.00    -0.237 OA
ATOM     88  O   UNL A   1      44.229  23.252  35.952  1.00  0.00    -0.744 OA
ENDBRANCH  82  85
ENDBRANCH  55  78
ENDBRANCH  29  30
ENDBRANCH  21  24
ENDBRANCH  19  20
ENDBRANCH   1  19
TORSDOF 15
ENDMDL
MODEL 2
REMARK VINA RESULT:     -11.4      5.129     10.175
REMARK SMILES COc1c(F)cc(F)c(C(=O)NCCCCNC(=O)c2ccc(-c3c4nc(c(-c5cccc(S(=O)(=O)[O-])c5F)c5ccc([nH]5)c(-c5cccc(S(=O)(=O)[O-])c5F)c5nc(c(-c6cccc(S(=O)(=O)[O-])c6F)c6ccc3[nH]6)C=C5)C=C4)cc2)c1F
REMARK SMILES IDX 15 1 14 2 13 3 12 4 10 5 11 6 9 8 3 9 4 10 83 11 5 12 6 13
REMARK SMILES IDX 84 14 7 15 8 16 2 17 1 18 16 19 17 20 18 21 19 23 20 24
REMARK SMILES IDX 21 25 82 26 22 27 81 28 23 29 24 30 25 31 75 32 26 33 80 34
REMARK SMILES IDX 74 35 76 36 27 37 79 38 73 39 72 40 28 42 60 43 40 44 59 45
REMARK SMILES IDX 41 46 44 47 58 48 77 49 42 50 43 51 57 53 78 54 45 55 29 56
REMARK SMILES IDX 30 57 38 58 31 59 33 60 39 61 32 62 34 63 35 64 36 65 37 66
REMARK SMILES IDX 61 67 62 68 70 69 63 70 65 71 71 72 64 73 66 74 67 75 68 76
REMARK SMILES IDX 69 77 46 78 47 79 55 80 48 81 50 82 56 83 49 84 51 85 52 86
REMARK SMILES IDX 53 87 54 88
REMARK H PARENT 12 7 17 22 76 41 44 52
REMARK Flexibility Score: inf
ROOT
ATOM      1  C   UNL A   1      35.885  22.252  24.185  1.00  0.00     0.023 C 
ENDROOT
BRANCH   1   2
ATOM      2  C   UNL A   1      34.534  22.971  24.147  1.00  0.00     0.023 C 
BRANCH   2   3
ATOM      3  C   UNL A   1      34.408  24.154  25.113  1.00  0.00     0.116 C 
BRANCH   3   4
ATOM      4  N   UNL A   1      33.275  23.961  25.997  1.00  0.00    -0.352 N 
ATOM      5  C   UNL A   1      32.218  24.757  26.354  1.00  0.00     0.257 C 
ATOM      6  O   UNL A   1      31.484  24.325  27.244  1.00  0.00    -0.269 OA
ATOM      7  H   UNL A   1      33.262  23.076  26.429  1.00  0.00     0.163 HD
BRANCH   5   8
ATOM      8  C   UNL A   1      31.876  26.059  25.725  1.00  0.00     0.115 A 
ATOM      9  C   UNL A   1      32.110  28.457  25.332  1.00  0.00     0.191 A 
ATOM     10  C   UNL A   1      31.030  28.435  24.459  1.00  0.00     0.171 A 
ATOM     11  C   UNL A   1      32.504  27.279  25.979  1.00  0.00     0.183 A 
ATOM     12  F   UNL A   1      30.639  29.548  23.823  1.00  0.00    -0.203 F 
ATOM     13  C   UNL A   1      30.352  27.252  24.222  1.00  0.00     0.083 A 
ATOM     14  F   UNL A   1      33.471  27.401  26.893  1.00  0.00    -0.202 F 
ATOM     15  C   UNL A   1      30.786  26.078  24.838  1.00  0.00     0.142 A 
ATOM     16  F   UNL A   1      30.120  24.956  24.524  1.00  0.00    -0.206 F 
BRANCH   9  17
ATOM     17  O   UNL A   1      32.886  29.572  25.512  1.00  0.00    -0.491 OA
ATOM     18  C   UNL A   1      32.377  30.430  26.527  1.00  0.00     0.278 C 
ENDBRANCH   9  17
ENDBRANCH   5   8
ENDBRANCH   3   4
ENDBRANCH   2   3
ENDBRANCH   1   2
BRANCH   1  19
ATOM     19  C   UNL A   1      36.439  21.996  25.582  1.00  0.00     0.116 C 
BRANCH  19  20
ATOM     20  N   UNL A   1      37.467  20.966  25.613  1.00  0.00    -0.352 N 
ATOM     21  C   UNL A   1      38.789  21.081  25.979  1.00  0.00     0.251 C 
ATOM     22  H   UNL A   1      37.178  20.066  25.335  1.00  0.00     0.163 HD
ATOM     23  O   UNL A   1      39.548  20.134  25.861  1.00  0.00    -0.269 OA
BRANCH  21  24
ATOM     24  C   UNL A   1      39.287  22.385  26.473  1.00  0.00     0.039 A 
ATOM     25  C   UNL A   1      40.411  22.401  27.300  1.00  0.00     0.014 A 
ATOM     26  C   UNL A   1      38.672  23.579  26.088  1.00  0.00     0.014 A 
ATOM     27  C   UNL A   1      40.967  23.624  27.683  1.00  0.00     0.010 A 
ATOM     28  C   UNL A   1      39.262  24.795  26.420  1.00  0.00     0.010 A 
ATOM     29  C   UNL A   1      40.418  24.829  27.214  1.00  0.00    -0.014 A 
BRANCH  29  30
ATOM     30  C   UNL A   1      41.062  26.133  27.506  1.00  0.00     0.031 A 
ATOM     31  C   UNL A   1      42.480  26.393  27.080  1.00  0.00     0.074 A 
ATOM     32  C   UNL A   1      40.401  27.042  28.249  1.00  0.00     0.049 A 
ATOM     33  N   UNL A   1      43.221  27.450  27.294  1.00  0.00    -0.248 NA
ATOM     34  C   UNL A   1      43.163  25.320  26.340  1.00  0.00     0.031 C 
ATOM     35  C   UNL A   1      39.054  26.867  28.799  1.00  0.00     0.029 A 
ATOM     36  N   UNL A   1      40.780  28.283  28.696  1.00  0.00    -0.354 N 
ATOM     37  C   UNL A   1      44.465  27.155  26.751  1.00  0.00     0.074 A 
ATOM     38  C   UNL A   1      44.388  25.812  26.220  1.00  0.00     0.031 C 
ATOM     39  C   UNL A   1      38.721  27.959  29.505  1.00  0.00     0.029 A 
ATOM     40  C   UNL A   1      39.834  28.902  29.479  1.00  0.00     0.049 A 
ATOM     41  H   UNL A   1      41.649  28.691  28.476  1.00  0.00     0.167 HD
ATOM     42  C   UNL A   1      45.563  27.944  26.674  1.00  0.00     0.034 A 
ATOM     43  C   UNL A   1      39.860  30.095  30.104  1.00  0.00     0.034 A 
ATOM     44  C   UNL A   1      45.616  29.300  27.151  1.00  0.00     0.049 A 
ATOM     45  C   UNL A   1      41.072  30.974  29.951  1.00  0.00     0.074 A 
ATOM     46  C   UNL A   1      46.643  30.218  27.019  1.00  0.00     0.029 A 
ATOM     47  N   UNL A   1      44.603  29.931  27.854  1.00  0.00    -0.354 N 
ATOM     48  N   UNL A   1      42.172  30.750  29.274  1.00  0.00    -0.248 NA
ATOM     49  C   UNL A   1      41.032  32.284  30.616  1.00  0.00     0.031 C 
ATOM     50  C   UNL A   1      46.255  31.402  27.655  1.00  0.00     0.029 A 
ATOM     51  C   UNL A   1      44.982  31.224  28.173  1.00  0.00     0.049 A 
ATOM     52  H   UNL A   1      43.740  29.521  28.093  1.00  0.00     0.167 HD
ATOM     53  C   UNL A   1      42.941  31.900  29.405  1.00  0.00     0.074 A 
ATOM     54  C   UNL A   1      42.170  32.829  30.207  1.00  0.00     0.031 C 
ATOM     55  C   UNL A   1      44.181  32.157  28.922  1.00  0.00     0.034 A 
BRANCH  42  56
ATOM     56  C   UNL A   1      46.780  27.386  25.986  1.00  0.00     0.023 A 
ATOM     57  C   UNL A   1      46.915  27.541  24.591  1.00  0.00     0.012 A 
ATOM     58  C   UNL A   1      47.812  26.767  26.716  1.00  0.00     0.148 A 
ATOM     59  C   UNL A   1      48.046  27.066  23.930  1.00  0.00     0.002 A 
ATOM     60  C   UNL A   1      48.955  26.331  26.055  1.00  0.00     0.091 A 
ATOM     61  F   UNL A   1      47.655  26.607  28.038  1.00  0.00    -0.205 F 
ATOM     62  C   UNL A   1      49.069  26.471  24.661  1.00  0.00     0.022 A 
BRANCH  60  63
ATOM     63  S   UNL A   1      50.359  25.616  26.919  1.00  0.00     0.127 S 
ATOM     64  O   UNL A   1      51.271  25.329  25.813  1.00  0.00    -0.237 OA
ATOM     65  O   UNL A   1      50.782  26.717  27.786  1.00  0.00    -0.237 OA
ATOM     66  O   UNL A   1      49.843  24.453  27.626  1.00  0.00    -0.744 OA
ENDBRANCH  60  63
ENDBRANCH  42  56
BRANCH  43  67
ATOM     67  C   UNL A   1      38.665  30.565  30.859  1.00  0.00     0.023 A 
ATOM     68  C   UNL A   1      38.610  30.359  32.251  1.00  0.00     0.012 A 
ATOM     69  C   UNL A   1      37.606  31.239  30.222  1.00  0.00     0.148 A 
ATOM     70  C   UNL A   1      37.510  30.791  32.992  1.00  0.00     0.002 A 
ATOM     71  C   UNL A   1      36.536  31.714  30.974  1.00  0.00     0.091 A 
ATOM     72  F   UNL A   1      37.668  31.412  28.894  1.00  0.00    -0.205 F 
ATOM     73  C   UNL A   1      36.479  31.477  32.357  1.00  0.00     0.022 A 
BRANCH  71  74
ATOM     74  S   UNL A   1      35.233  32.719  30.256  1.00  0.00     0.127 S 
ATOM     75  O   UNL A   1      34.327  32.891  31.389  1.00  0.00    -0.237 OA
ATOM     76  O   UNL A   1      35.959  33.927  29.860  1.00  0.00    -0.237 OA
ATOM     77  O   UNL A   1      34.717  31.941  29.137  1.00  0.00    -0.744 OA
ENDBRANCH  71  74
ENDBRANCH  43  67
BRANCH  55  78
ATOM     78  C   UNL A   1      44.782  33.504  29.225  1.00  0.00     0.023 A 
ATOM     79  C   UNL A   1      45.569  33.668  30.381  1.00  0.00     0.012 A 
ATOM     80  C   UNL A   1      44.636  34.580  28.327  1.00  0.00     0.148 A 
ATOM     81  C   UNL A   1      46.179  34.891  30.656  1.00  0.00     0.002 A 
ATOM     82  C   UNL A   1      45.283  35.783  28.584  1.00  0.00     0.091 A 
ATOM     83  F   UNL A   1      43.866  34.410  27.243  1.00  0.00    -0.205 F 
ATOM     84  C   UNL A   1      46.047  35.943  29.752  1.00  0.00     0.022 A 
BRANCH  82  85
ATOM     85  S   UNL A   1      45.242  37.158  27.429  1.00  0.00     0.127 S 
ATOM     86  O   UNL A   1      43.810  37.281  27.162  1.00  0.00    -0.237 OA
ATOM     87  O   UNL A   1      45.811  38.250  28.220  1.00  0.00    -0.237 OA
ATOM     88  O   UNL A   1      46.060  36.749  26.295  1.00  0.00    -0.744 OA
ENDBRANCH  82  85
ENDBRANCH  55  78
ENDBRANCH  29  30
ENDBRANCH  21  24
ENDBRANCH  19  20
ENDBRANCH   1  19
TORSDOF 15
ENDMDL
MODEL 3
REMARK VINA RESULT:     -11.4      2.089      3.480
REMARK SMILES COc1c(F)cc(F)c(C(=O)NCCCCNC(=O)c2ccc(-c3c4nc(c(-c5cccc(S(=O)(=O)[O-])c5F)c5ccc([nH]5)c(-c5cccc(S(=O)(=O)[O-])c5F)c5nc(c(-c6cccc(S(=O)(=O)[O-])c6F)c6ccc3[nH]6)C=C5)C=C4)cc2)c1F
REMARK SMILES IDX 15 1 14 2 13 3 12 4 10 5 11 6 9 8 3 9 4 10 83 11 5 12 6 13
REMARK SMILES IDX 84 14 7 15 8 16 2 17 1 18 16 19 17 20 18 21 19 23 20 24
REMARK SMILES IDX 21 25 82 26 22 27 81 28 23 29 24 30 25 31 75 32 26 33 80 34
REMARK SMILES IDX 74 35 76 36 27 37 79 38 73 39 72 40 28 42 60 43 40 44 59 45
REMARK SMILES IDX 41 46 44 47 58 48 77 49 42 50 43 51 57 53 78 54 45 55 29 56
REMARK SMILES IDX 30 57 38 58 31 59 33 60 39 61 32 62 34 63 35 64 36 65 37 66
REMARK SMILES IDX 61 67 62 68 70 69 63 70 65 71 71 72 64 73 66 74 67 75 68 76
REMARK SMILES IDX 69 77 46 78 47 79 55 80 48 81 50 82 56 83 49 84 51 85 52 86
REMARK SMILES IDX 53 87 54 88
REMARK H PARENT 12 7 17 22 76 41 44 52
REMARK Flexibility Score: inf
ROOT
ATOM      1  C   UNL A   1      31.411  29.138  26.239  1.00  0.00     0.023 C 
ENDROOT
BRANCH   1   2
ATOM      2  C   UNL A   1      31.684  27.837  26.998  1.00  0.00     0.023 C 
BRANCH   2   3
ATOM      3  C   UNL A   1      31.789  26.589  26.115  1.00  0.00     0.116 C 
BRANCH   3   4
ATOM      4  N   UNL A   1      31.425  25.408  26.873  1.00  0.00    -0.352 N 
ATOM      5  C   UNL A   1      31.802  24.092  26.797  1.00  0.00     0.257 C 
ATOM      6  O   UNL A   1      31.195  23.306  27.525  1.00  0.00    -0.269 OA
ATOM      7  H   UNL A   1      30.773  25.587  27.589  1.00  0.00     0.163 HD
BRANCH   5   8
ATOM      8  C   UNL A   1      32.900  23.564  25.946  1.00  0.00     0.115 A 
ATOM      9  C   UNL A   1      35.132  22.677  25.509  1.00  0.00     0.191 A 
ATOM     10  C   UNL A   1      34.868  22.641  24.146  1.00  0.00     0.171 A 
ATOM     11  C   UNL A   1      34.160  23.164  26.392  1.00  0.00     0.183 A 
ATOM     12  F   UNL A   1      35.779  22.172  23.282  1.00  0.00    -0.203 F 
ATOM     13  C   UNL A   1      33.646  23.077  23.663  1.00  0.00     0.083 A 
ATOM     14  F   UNL A   1      34.529  23.281  27.671  1.00  0.00    -0.202 F 
ATOM     15  C   UNL A   1      32.672  23.516  24.560  1.00  0.00     0.142 A 
ATOM     16  F   UNL A   1      31.491  23.873  24.033  1.00  0.00    -0.206 F 
BRANCH   9  17
ATOM     17  O   UNL A   1      36.276  22.151  26.049  1.00  0.00    -0.491 OA
ATOM     18  C   UNL A   1      37.426  22.937  25.758  1.00  0.00     0.278 C 
ENDBRANCH   9  17
ENDBRANCH   5   8
ENDBRANCH   3   4
ENDBRANCH   2   3
ENDBRANCH   1   2
BRANCH   1  19
ATOM     19  C   UNL A   1      32.633  30.023  26.018  1.00  0.00     0.116 C 
BRANCH  19  20
ATOM     20  N   UNL A   1      32.431  31.401  26.442  1.00  0.00    -0.352 N 
ATOM     21  C   UNL A   1      33.211  32.167  27.279  1.00  0.00     0.251 C 
ATOM     22  H   UNL A   1      31.628  31.845  26.083  1.00  0.00     0.163 HD
ATOM     23  O   UNL A   1      32.850  33.284  27.610  1.00  0.00    -0.269 OA
BRANCH  21  24
ATOM     24  C   UNL A   1      34.470  31.597  27.808  1.00  0.00     0.039 A 
ATOM     25  C   UNL A   1      35.559  32.448  28.004  1.00  0.00     0.014 A 
ATOM     26  C   UNL A   1      34.559  30.243  28.144  1.00  0.00     0.014 A 
ATOM     27  C   UNL A   1      36.717  31.957  28.609  1.00  0.00     0.010 A 
ATOM     28  C   UNL A   1      35.690  29.771  28.802  1.00  0.00     0.010 A 
ATOM     29  C   UNL A   1      36.776  30.624  29.047  1.00  0.00    -0.014 A 
BRANCH  29  30
ATOM     30  C   UNL A   1      37.947  30.113  29.802  1.00  0.00     0.031 A 
ATOM     31  C   UNL A   1      38.213  30.585  31.204  1.00  0.00     0.074 A 
ATOM     32  C   UNL A   1      38.827  29.302  29.182  1.00  0.00     0.049 A 
ATOM     33  N   UNL A   1      39.213  30.289  31.994  1.00  0.00    -0.248 NA
ATOM     34  C   UNL A   1      37.248  31.532  31.784  1.00  0.00     0.031 C 
ATOM     35  C   UNL A   1      38.725  28.848  27.792  1.00  0.00     0.029 A 
ATOM     36  N   UNL A   1      39.997  28.739  29.628  1.00  0.00    -0.354 N 
ATOM     37  C   UNL A   1      39.018  31.039  33.147  1.00  0.00     0.074 A 
ATOM     38  C   UNL A   1      37.820  31.824  32.944  1.00  0.00     0.031 C 
ATOM     39  C   UNL A   1      39.785  28.076  27.503  1.00  0.00     0.029 A 
ATOM     40  C   UNL A   1      40.652  27.996  28.673  1.00  0.00     0.049 A 
ATOM     41  H   UNL A   1      40.334  28.857  30.546  1.00  0.00     0.167 HD
ATOM     42  C   UNL A   1      39.754  31.050  34.284  1.00  0.00     0.034 A 
ATOM     43  C   UNL A   1      41.819  27.327  28.735  1.00  0.00     0.034 A 
ATOM     44  C   UNL A   1      40.911  30.224  34.503  1.00  0.00     0.049 A 
ATOM     45  C   UNL A   1      42.585  27.310  30.031  1.00  0.00     0.074 A 
ATOM     46  C   UNL A   1      41.657  30.080  35.659  1.00  0.00     0.029 A 
ATOM     47  N   UNL A   1      41.492  29.408  33.546  1.00  0.00    -0.354 N 
ATOM     48  N   UNL A   1      42.284  27.880  31.173  1.00  0.00    -0.248 NA
ATOM     49  C   UNL A   1      43.829  26.528  30.058  1.00  0.00     0.031 C 
ATOM     50  C   UNL A   1      42.699  29.184  35.397  1.00  0.00     0.029 A 
ATOM     51  C   UNL A   1      42.594  28.763  34.081  1.00  0.00     0.049 A 
ATOM     52  H   UNL A   1      41.170  29.302  32.622  1.00  0.00     0.167 HD
ATOM     53  C   UNL A   1      43.283  27.502  32.061  1.00  0.00     0.074 A 
ATOM     54  C   UNL A   1      44.185  26.634  31.332  1.00  0.00     0.031 C 
ATOM     55  C   UNL A   1      43.449  27.857  33.359  1.00  0.00     0.034 A 
BRANCH  42  56
ATOM     56  C   UNL A   1      39.289  31.934  35.410  1.00  0.00     0.023 A 
ATOM     57  C   UNL A   1      38.412  31.409  36.382  1.00  0.00     0.012 A 
ATOM     58  C   UNL A   1      39.761  33.253  35.547  1.00  0.00     0.148 A 
ATOM     59  C   UNL A   1      37.992  32.190  37.456  1.00  0.00     0.002 A 
ATOM     60  C   UNL A   1      39.368  34.014  36.642  1.00  0.00     0.091 A 
ATOM     61  F   UNL A   1      40.575  33.743  34.600  1.00  0.00    -0.205 F 
ATOM     62  C   UNL A   1      38.476  33.487  37.592  1.00  0.00     0.022 A 
BRANCH  60  63
ATOM     63  S   UNL A   1      39.994  35.671  36.943  1.00  0.00     0.127 S 
ATOM     64  O   UNL A   1      39.286  36.035  38.170  1.00  0.00    -0.237 OA
ATOM     65  O   UNL A   1      41.428  35.433  37.116  1.00  0.00    -0.237 OA
ATOM     66  O   UNL A   1      39.647  36.450  35.763  1.00  0.00    -0.744 OA
ENDBRANCH  60  63
ENDBRANCH  42  56
BRANCH  43  67
ATOM     67  C   UNL A   1      42.291  26.544  27.558  1.00  0.00     0.023 A 
ATOM     68  C   UNL A   1      43.056  27.191  26.568  1.00  0.00     0.012 A 
ATOM     69  C   UNL A   1      42.020  25.169  27.428  1.00  0.00     0.148 A 
ATOM     70  C   UNL A   1      43.520  26.489  25.455  1.00  0.00     0.002 A 
ATOM     71  C   UNL A   1      42.529  24.464  26.343  1.00  0.00     0.091 A 
ATOM     72  F   UNL A   1      41.277  24.574  28.372  1.00  0.00    -0.205 F 
ATOM     73  C   UNL A   1      43.266  25.125  25.347  1.00  0.00     0.022 A 
BRANCH  71  74
ATOM     74  S   UNL A   1      42.360  22.682  26.196  1.00  0.00     0.127 S 
ATOM     75  O   UNL A   1      40.909  22.519  26.167  1.00  0.00    -0.237 OA
ATOM     76  O   UNL A   1      43.035  22.413  24.925  1.00  0.00    -0.237 OA
ATOM     77  O   UNL A   1      43.042  22.131  27.360  1.00  0.00    -0.744 OA
ENDBRANCH  71  74
ENDBRANCH  43  67
BRANCH  55  78
ATOM     78  C   UNL A   1      44.639  27.293  34.089  1.00  0.00     0.023 A 
ATOM     79  C   UNL A   1      45.853  28.007  34.094  1.00  0.00     0.012 A 
ATOM     80  C   UNL A   1      44.534  26.101  34.833  1.00  0.00     0.148 A 
ATOM     81  C   UNL A   1      46.953  27.532  34.806  1.00  0.00     0.002 A 
ATOM     82  C   UNL A   1      45.620  25.656  35.577  1.00  0.00     0.091 A 
ATOM     83  F   UNL A   1      43.377  25.424  34.799  1.00  0.00    -0.205 F 
ATOM     84  C   UNL A   1      46.833  26.365  35.557  1.00  0.00     0.022 A 
BRANCH  82  85
ATOM     85  S   UNL A   1      45.524  24.214  36.644  1.00  0.00     0.127 S 
ATOM     86  O   UNL A   1      44.424  24.575  37.536  1.00  0.00    -0.237 OA
ATOM     87  O   UNL A   1      45.214  23.142  35.696  1.00  0.00    -0.237 OA
ATOM     88  O   UNL A   1      46.833  24.098  37.273  1.00  0.00    -0.744 OA
ENDBRANCH  82  85
ENDBRANCH  55  78
ENDBRANCH  29  30
ENDBRANCH  21  24
ENDBRANCH  19  20
ENDBRANCH   1  19
TORSDOF 15
ENDMDL
