MODEL 1
REMARK VINA RESULT:     -11.8      0.000      0.000
REMARK SMILES C[C@@H](C(=O)NCCCCNC(=O)c1ccc(-c2c3nc(c(-c4cccc(S(=O)(=O)[O-])c4F)c4ccc([nH]4)c(-c4cccc(S(=O)(=O)[O-])c4F)c4nc(c(-c5cccc(S(=O)(=O)[O-])c5F)c5ccc2[nH]5)C=C4)C=C3)cc1)c1ccc(OC2CCCC2)cc1F
REMARK SMILES IDX 7 1 6 2 5 3 3 4 4 5 2 7 1 8 76 9 77 10 87 11 78 12 86 13
REMARK SMILES IDX 88 14 79 15 80 16 81 17 82 18 85 19 83 20 84 21 8 22 9 23
REMARK SMILES IDX 10 24 11 25 12 27 13 28 14 29 75 30 15 31 74 32 16 33 17 34
REMARK SMILES IDX 18 35 68 36 19 37 73 38 67 39 69 40 20 41 72 42 66 43 65 44
REMARK SMILES IDX 21 46 53 47 33 48 52 49 34 50 37 51 51 52 70 53 35 54 36 55
REMARK SMILES IDX 50 57 71 58 38 59 22 60 23 61 31 62 24 63 26 64 32 65 25 66
REMARK SMILES IDX 27 67 28 68 29 69 30 70 54 71 55 72 63 73 56 74 58 75 64 76
REMARK SMILES IDX 57 77 59 78 60 79 61 80 62 81 39 82 40 83 48 84 41 85 43 86
REMARK SMILES IDX 49 87 42 88 44 89 45 90 46 91 47 92
REMARK H PARENT 5 6 10 26 69 45 37 56
REMARK Flexibility Score: inf
ROOT
ATOM      1  C   UNL A   1      33.439  28.766  25.115  1.00  0.00     0.023 C 
ENDROOT
BRANCH   1   2
ATOM      2  C   UNL A   1      33.624  27.490  25.944  1.00  0.00     0.116 C 
BRANCH   2   3
ATOM      3  N   UNL A   1      34.136  26.430  25.103  1.00  0.00    -0.356 N 
ATOM      4  C   UNL A   1      33.619  25.177  24.925  1.00  0.00     0.227 C 
ATOM      5  O   UNL A   1      34.406  24.273  24.637  1.00  0.00    -0.274 OA
ATOM      6  H   UNL A   1      34.956  26.636  24.599  1.00  0.00     0.163 HD
BRANCH   4   7
ATOM      7  C   UNL A   1      32.102  24.956  25.087  1.00  0.00     0.108 C 
ATOM      8  C   UNL A   1      31.799  23.480  24.789  1.00  0.00     0.023 C 
BRANCH   7   9
ATOM      9  C   UNL A   1      31.272  25.913  24.230  1.00  0.00     0.000 A 
ATOM     10  C   UNL A   1      31.704  26.376  22.979  1.00  0.00     0.011 A 
ATOM     11  C   UNL A   1      30.020  26.360  24.672  1.00  0.00     0.130 A 
ATOM     12  C   UNL A   1      30.955  27.315  22.263  1.00  0.00     0.047 A 
ATOM     13  C   UNL A   1      29.295  27.331  23.983  1.00  0.00     0.086 A 
ATOM     14  F   UNL A   1      29.473  25.851  25.786  1.00  0.00    -0.207 F 
ATOM     15  C   UNL A   1      29.757  27.819  22.769  1.00  0.00     0.122 A 
BRANCH  15  16
ATOM     16  O   UNL A   1      29.166  28.752  21.970  1.00  0.00    -0.490 OA
BRANCH  16  17
ATOM     17  C   UNL A   1      29.108  30.131  22.309  1.00  0.00     0.173 C 
ATOM     18  C   UNL A   1      28.832  31.094  21.161  1.00  0.00     0.045 C 
ATOM     19  C   UNL A   1      28.158  30.499  23.444  1.00  0.00     0.045 C 
ATOM     20  C   UNL A   1      28.356  32.365  21.845  1.00  0.00     0.004 C 
ATOM     21  C   UNL A   1      27.788  31.959  23.205  1.00  0.00     0.004 C 
ENDBRANCH  16  17
ENDBRANCH  15  16
ENDBRANCH   7   9
ENDBRANCH   4   7
ENDBRANCH   2   3
ENDBRANCH   1   2
BRANCH   1  22
ATOM     22  C   UNL A   1      32.141  29.526  25.403  1.00  0.00     0.023 C 
BRANCH  22  23
ATOM     23  C   UNL A   1      32.040  30.112  26.804  1.00  0.00     0.116 C 
BRANCH  23  24
ATOM     24  N   UNL A   1      32.078  31.566  26.800  1.00  0.00    -0.352 N 
ATOM     25  C   UNL A   1      33.005  32.413  27.348  1.00  0.00     0.251 C 
ATOM     26  H   UNL A   1      31.329  32.006  26.334  1.00  0.00     0.163 HD
ATOM     27  O   UNL A   1      32.776  33.621  27.380  1.00  0.00    -0.269 OA
BRANCH  25  28
ATOM     28  C   UNL A   1      34.258  31.876  27.920  1.00  0.00     0.039 A 
ATOM     29  C   UNL A   1      35.340  32.743  28.082  1.00  0.00     0.014 A 
ATOM     30  C   UNL A   1      34.373  30.533  28.293  1.00  0.00     0.014 A 
ATOM     31  C   UNL A   1      36.518  32.275  28.665  1.00  0.00     0.010 A 
ATOM     32  C   UNL A   1      35.519  30.088  28.946  1.00  0.00     0.010 A 
ATOM     33  C   UNL A   1      36.607  30.952  29.135  1.00  0.00    -0.014 A 
BRANCH  33  34
ATOM     34  C   UNL A   1      37.824  30.488  29.849  1.00  0.00     0.031 A 
ATOM     35  C   UNL A   1      38.153  30.990  31.228  1.00  0.00     0.074 A 
ATOM     36  C   UNL A   1      38.663  29.636  29.224  1.00  0.00     0.049 A 
ATOM     37  N   UNL A   1      39.157  30.668  32.002  1.00  0.00    -0.248 NA
ATOM     38  C   UNL A   1      37.251  31.999  31.810  1.00  0.00     0.031 C 
ATOM     39  C   UNL A   1      38.507  29.150  27.850  1.00  0.00     0.029 A 
ATOM     40  N   UNL A   1      39.819  29.037  29.656  1.00  0.00    -0.354 N 
ATOM     41  C   UNL A   1      39.020  31.439  33.150  1.00  0.00     0.074 A 
ATOM     42  C   UNL A   1      37.859  32.281  32.954  1.00  0.00     0.031 C 
ATOM     43  C   UNL A   1      39.521  28.321  27.558  1.00  0.00     0.029 A 
ATOM     44  C   UNL A   1      40.413  28.236  28.709  1.00  0.00     0.049 A 
ATOM     45  H   UNL A   1      40.192  29.170  30.558  1.00  0.00     0.167 HD
ATOM     46  C   UNL A   1      39.768  31.425  34.278  1.00  0.00     0.034 A 
ATOM     47  C   UNL A   1      41.550  27.515  28.759  1.00  0.00     0.034 A 
ATOM     48  C   UNL A   1      40.908  30.571  34.480  1.00  0.00     0.049 A 
ATOM     49  C   UNL A   1      42.339  27.489  30.039  1.00  0.00     0.074 A 
ATOM     50  C   UNL A   1      41.691  30.434  35.614  1.00  0.00     0.029 A 
ATOM     51  N   UNL A   1      41.434  29.711  33.527  1.00  0.00    -0.354 N 
ATOM     52  N   UNL A   1      42.097  28.103  31.172  1.00  0.00    -0.248 NA
ATOM     53  C   UNL A   1      43.535  26.636  30.062  1.00  0.00     0.031 C 
ATOM     54  C   UNL A   1      42.707  29.511  35.337  1.00  0.00     0.029 A 
ATOM     55  C   UNL A   1      42.534  29.047  34.044  1.00  0.00     0.049 A 
ATOM     56  H   UNL A   1      41.078  29.591  32.618  1.00  0.00     0.167 HD
ATOM     57  C   UNL A   1      43.093  27.690  32.049  1.00  0.00     0.074 A 
ATOM     58  C   UNL A   1      43.916  26.741  31.327  1.00  0.00     0.031 C 
ATOM     59  C   UNL A   1      43.321  28.074  33.329  1.00  0.00     0.034 A 
BRANCH  46  60
ATOM     60  C   UNL A   1      39.343  32.319  35.416  1.00  0.00     0.023 A 
ATOM     61  C   UNL A   1      38.520  31.796  36.434  1.00  0.00     0.012 A 
ATOM     62  C   UNL A   1      39.822  33.640  35.526  1.00  0.00     0.148 A 
ATOM     63  C   UNL A   1      38.156  32.579  37.530  1.00  0.00     0.002 A 
ATOM     64  C   UNL A   1      39.492  34.399  36.643  1.00  0.00     0.091 A 
ATOM     65  F   UNL A   1      40.589  34.125  34.540  1.00  0.00    -0.205 F 
ATOM     66  C   UNL A   1      38.651  33.875  37.639  1.00  0.00     0.022 A 
BRANCH  64  67
ATOM     67  S   UNL A   1      40.139  36.052  36.923  1.00  0.00     0.127 S 
ATOM     68  O   UNL A   1      41.571  35.789  37.059  1.00  0.00    -0.237 OA
ATOM     69  O   UNL A   1      39.760  36.742  35.690  1.00  0.00    -0.237 OA
ATOM     70  O   UNL A   1      39.483  36.544  38.126  1.00  0.00    -0.744 OA
ENDBRANCH  64  67
ENDBRANCH  46  60
BRANCH  47  71
ATOM     71  C   UNL A   1      41.988  26.719  27.576  1.00  0.00     0.023 A 
ATOM     72  C   UNL A   1      42.669  27.353  26.520  1.00  0.00     0.012 A 
ATOM     73  C   UNL A   1      41.733  25.337  27.498  1.00  0.00     0.148 A 
ATOM     74  C   UNL A   1      43.045  26.635  25.383  1.00  0.00     0.002 A 
ATOM     75  C   UNL A   1      42.166  24.615  26.391  1.00  0.00     0.091 A 
ATOM     76  F   UNL A   1      41.073  24.753  28.508  1.00  0.00    -0.205 F 
ATOM     77  C   UNL A   1      42.802  25.266  25.324  1.00  0.00     0.022 A 
BRANCH  75  78
ATOM     78  S   UNL A   1      42.018  22.828  26.298  1.00  0.00     0.127 S 
ATOM     79  O   UNL A   1      40.571  22.644  26.359  1.00  0.00    -0.237 OA
ATOM     80  O   UNL A   1      42.623  22.540  24.997  1.00  0.00    -0.237 OA
ATOM     81  O   UNL A   1      42.773  22.315  27.434  1.00  0.00    -0.744 OA
ENDBRANCH  75  78
ENDBRANCH  47  71
BRANCH  59  82
ATOM     82  C   UNL A   1      44.492  27.447  34.040  1.00  0.00     0.023 A 
ATOM     83  C   UNL A   1      45.775  28.021  33.922  1.00  0.00     0.012 A 
ATOM     84  C   UNL A   1      44.318  26.307  34.850  1.00  0.00     0.148 A 
ATOM     85  C   UNL A   1      46.873  27.439  34.554  1.00  0.00     0.002 A 
ATOM     86  C   UNL A   1      45.408  25.766  35.521  1.00  0.00     0.091 A 
ATOM     87  F   UNL A   1      43.095  25.765  34.938  1.00  0.00    -0.205 F 
ATOM     88  C   UNL A   1      46.689  26.319  35.361  1.00  0.00     0.022 A 
BRANCH  86  89
ATOM     89  S   UNL A   1      45.248  24.383  36.656  1.00  0.00     0.127 S 
ATOM     90  O   UNL A   1      44.749  23.330  35.774  1.00  0.00    -0.237 OA
ATOM     91  O   UNL A   1      46.625  24.195  37.113  1.00  0.00    -0.237 OA
ATOM     92  O   UNL A   1      44.324  24.822  37.693  1.00  0.00    -0.744 OA
ENDBRANCH  86  89
ENDBRANCH  59  82
ENDBRANCH  33  34
ENDBRANCH  25  28
ENDBRANCH  23  24
ENDBRANCH  22  23
ENDBRANCH   1  22
TORSDOF 17
ENDMDL
MODEL 2
REMARK VINA RESULT:     -11.7      5.495     10.683
REMARK SMILES C[C@@H](C(=O)NCCCCNC(=O)c1ccc(-c2c3nc(c(-c4cccc(S(=O)(=O)[O-])c4F)c4ccc([nH]4)c(-c4cccc(S(=O)(=O)[O-])c4F)c4nc(c(-c5cccc(S(=O)(=O)[O-])c5F)c5ccc2[nH]5)C=C4)C=C3)cc1)c1ccc(OC2CCCC2)cc1F
REMARK SMILES IDX 7 1 6 2 5 3 3 4 4 5 2 7 1 8 76 9 77 10 87 11 78 12 86 13
REMARK SMILES IDX 88 14 79 15 80 16 81 17 82 18 85 19 83 20 84 21 8 22 9 23
REMARK SMILES IDX 10 24 11 25 12 27 13 28 14 29 75 30 15 31 74 32 16 33 17 34
REMARK SMILES IDX 18 35 68 36 19 37 73 38 67 39 69 40 20 41 72 42 66 43 65 44
REMARK SMILES IDX 21 46 53 47 33 48 52 49 34 50 37 51 51 52 70 53 35 54 36 55
REMARK SMILES IDX 50 57 71 58 38 59 22 60 23 61 31 62 24 63 26 64 32 65 25 66
REMARK SMILES IDX 27 67 28 68 29 69 30 70 54 71 55 72 63 73 56 74 58 75 64 76
REMARK SMILES IDX 57 77 59 78 60 79 61 80 62 81 39 82 40 83 48 84 41 85 43 86
REMARK SMILES IDX 49 87 42 88 44 89 45 90 46 91 47 92
REMARK H PARENT 5 6 10 26 69 45 37 56
REMARK Flexibility Score: inf
ROOT
ATOM      1  C   UNL A   1      35.477  23.538  24.020  1.00  0.00     0.023 C 
ENDROOT
BRANCH   1   2
ATOM      2  C   UNL A   1      34.944  24.301  25.238  1.00  0.00     0.116 C 
BRANCH   2   3
ATOM      3  N   UNL A   1      34.126  25.412  24.800  1.00  0.00    -0.356 N 
ATOM      4  C   UNL A   1      32.783  25.415  24.543  1.00  0.00     0.227 C 
ATOM      5  O   UNL A   1      32.365  26.224  23.712  1.00  0.00    -0.274 OA
ATOM      6  H   UNL A   1      34.594  26.268  24.670  1.00  0.00     0.163 HD
BRANCH   4   7
ATOM      7  C   UNL A   1      31.868  24.427  25.295  1.00  0.00     0.108 C 
ATOM      8  C   UNL A   1      32.097  24.615  26.801  1.00  0.00     0.023 C 
BRANCH   7   9
ATOM      9  C   UNL A   1      32.067  22.979  24.843  1.00  0.00     0.000 A 
ATOM     10  C   UNL A   1      32.410  21.950  25.731  1.00  0.00     0.011 A 
ATOM     11  C   UNL A   1      31.897  22.624  23.499  1.00  0.00     0.130 A 
ATOM     12  C   UNL A   1      32.663  20.656  25.267  1.00  0.00     0.047 A 
ATOM     13  C   UNL A   1      32.196  21.347  23.027  1.00  0.00     0.086 A 
ATOM     14  F   UNL A   1      31.428  23.518  22.615  1.00  0.00    -0.207 F 
ATOM     15  C   UNL A   1      32.583  20.348  23.910  1.00  0.00     0.122 A 
BRANCH  15  16
ATOM     16  O   UNL A   1      32.894  19.054  23.614  1.00  0.00    -0.490 OA
BRANCH  16  17
ATOM     17  C   UNL A   1      33.392  18.141  24.581  1.00  0.00     0.173 C 
ATOM     18  C   UNL A   1      32.453  17.011  24.986  1.00  0.00     0.045 C 
ATOM     19  C   UNL A   1      34.745  17.511  24.269  1.00  0.00     0.045 C 
ATOM     20  C   UNL A   1      33.367  15.971  25.612  1.00  0.00     0.004 C 
ATOM     21  C   UNL A   1      34.764  16.191  25.032  1.00  0.00     0.004 C 
ENDBRANCH  16  17
ENDBRANCH  15  16
ENDBRANCH   7   9
ENDBRANCH   4   7
ENDBRANCH   2   3
ENDBRANCH   1   2
BRANCH   1  22
ATOM     22  C   UNL A   1      35.998  22.132  24.332  1.00  0.00     0.023 C 
BRANCH  22  23
ATOM     23  C   UNL A   1      36.567  21.957  25.734  1.00  0.00     0.116 C 
BRANCH  23  24
ATOM     24  N   UNL A   1      37.626  20.961  25.780  1.00  0.00    -0.352 N 
ATOM     25  C   UNL A   1      38.960  21.124  26.048  1.00  0.00     0.251 C 
ATOM     26  H   UNL A   1      37.344  20.037  25.592  1.00  0.00     0.163 HD
ATOM     27  O   UNL A   1      39.730  20.180  25.879  1.00  0.00    -0.269 OA
BRANCH  25  28
ATOM     28  C   UNL A   1      39.472  22.430  26.513  1.00  0.00     0.039 A 
ATOM     29  C   UNL A   1      40.480  22.443  27.479  1.00  0.00     0.014 A 
ATOM     30  C   UNL A   1      38.968  23.633  26.009  1.00  0.00     0.014 A 
ATOM     31  C   UNL A   1      41.017  23.661  27.900  1.00  0.00     0.010 A 
ATOM     32  C   UNL A   1      39.558  24.841  26.371  1.00  0.00     0.010 A 
ATOM     33  C   UNL A   1      40.586  24.869  27.324  1.00  0.00    -0.014 A 
BRANCH  33  34
ATOM     34  C   UNL A   1      41.233  26.154  27.699  1.00  0.00     0.031 A 
ATOM     35  C   UNL A   1      42.662  26.439  27.326  1.00  0.00     0.074 A 
ATOM     36  C   UNL A   1      40.532  27.052  28.420  1.00  0.00     0.049 A 
ATOM     37  N   UNL A   1      43.370  27.516  27.550  1.00  0.00    -0.248 NA
ATOM     38  C   UNL A   1      43.402  25.372  26.631  1.00  0.00     0.031 C 
ATOM     39  C   UNL A   1      39.170  26.854  28.926  1.00  0.00     0.029 A 
ATOM     40  N   UNL A   1      40.870  28.305  28.866  1.00  0.00    -0.354 N 
ATOM     41  C   UNL A   1      44.636  27.256  27.040  1.00  0.00     0.074 A 
ATOM     42  C   UNL A   1      44.615  25.901  26.535  1.00  0.00     0.031 C 
ATOM     43  C   UNL A   1      38.787  27.949  29.600  1.00  0.00     0.029 A 
ATOM     44  C   UNL A   1      39.880  28.915  29.599  1.00  0.00     0.049 A 
ATOM     45  H   UNL A   1      41.740  28.727  28.680  1.00  0.00     0.167 HD
ATOM     46  C   UNL A   1      45.708  28.081  26.965  1.00  0.00     0.034 A 
ATOM     47  C   UNL A   1      39.854  30.117  30.207  1.00  0.00     0.034 A 
ATOM     48  C   UNL A   1      45.719  29.436  27.447  1.00  0.00     0.049 A 
ATOM     49  C   UNL A   1      41.046  31.025  30.075  1.00  0.00     0.074 A 
ATOM     50  C   UNL A   1      46.734  30.373  27.358  1.00  0.00     0.029 A 
ATOM     51  N   UNL A   1      44.670  30.050  28.115  1.00  0.00    -0.354 N 
ATOM     52  N   UNL A   1      42.176  30.818  29.443  1.00  0.00    -0.248 NA
ATOM     53  C   UNL A   1      40.942  32.350  30.701  1.00  0.00     0.031 C 
ATOM     54  C   UNL A   1      46.309  31.544  27.994  1.00  0.00     0.029 A 
ATOM     55  C   UNL A   1      45.015  31.349  28.448  1.00  0.00     0.049 A 
ATOM     56  H   UNL A   1      43.807  29.624  28.321  1.00  0.00     0.167 HD
ATOM     57  C   UNL A   1      42.905  31.994  29.573  1.00  0.00     0.074 A 
ATOM     58  C   UNL A   1      42.070  32.922  30.308  1.00  0.00     0.031 C 
ATOM     59  C   UNL A   1      44.160  32.276  29.143  1.00  0.00     0.034 A 
BRANCH  46  60
ATOM     60  C   UNL A   1      46.948  27.562  26.281  1.00  0.00     0.023 A 
ATOM     61  C   UNL A   1      47.821  26.710  26.988  1.00  0.00     0.012 A 
ATOM     62  C   UNL A   1      47.206  27.844  24.925  1.00  0.00     0.148 A 
ATOM     63  C   UNL A   1      48.946  26.168  26.367  1.00  0.00     0.002 A 
ATOM     64  C   UNL A   1      48.303  27.263  24.299  1.00  0.00     0.091 A 
ATOM     65  F   UNL A   1      46.374  28.669  24.274  1.00  0.00    -0.205 F 
ATOM     66  C   UNL A   1      49.180  26.435  25.021  1.00  0.00     0.022 A 
BRANCH  64  67
ATOM     67  S   UNL A   1      48.654  27.476  22.550  1.00  0.00     0.127 S 
ATOM     68  O   UNL A   1      49.950  28.154  22.589  1.00  0.00    -0.237 OA
ATOM     69  O   UNL A   1      48.704  26.093  22.078  1.00  0.00    -0.237 OA
ATOM     70  O   UNL A   1      47.557  28.268  22.011  1.00  0.00    -0.744 OA
ENDBRANCH  64  67
ENDBRANCH  46  60
BRANCH  47  71
ATOM     71  C   UNL A   1      38.642  30.554  30.958  1.00  0.00     0.023 A 
ATOM     72  C   UNL A   1      38.530  30.268  32.333  1.00  0.00     0.012 A 
ATOM     73  C   UNL A   1      37.603  31.253  30.315  1.00  0.00     0.148 A 
ATOM     74  C   UNL A   1      37.382  30.627  33.042  1.00  0.00     0.002 A 
ATOM     75  C   UNL A   1      36.491  31.663  31.041  1.00  0.00     0.091 A 
ATOM     76  F   UNL A   1      37.723  31.506  29.004  1.00  0.00    -0.205 F 
ATOM     77  C   UNL A   1      36.368  31.332  32.399  1.00  0.00     0.022 A 
BRANCH  75  78
ATOM     78  S   UNL A   1      35.208  32.694  30.325  1.00  0.00     0.127 S 
ATOM     79  O   UNL A   1      35.978  33.841  29.850  1.00  0.00    -0.237 OA
ATOM     80  O   UNL A   1      34.676  31.829  29.271  1.00  0.00    -0.237 OA
ATOM     81  O   UNL A   1      34.272  32.961  31.408  1.00  0.00    -0.744 OA
ENDBRANCH  75  78
ENDBRANCH  47  71
BRANCH  59  82
ATOM     82  C   UNL A   1      44.695  33.655  29.433  1.00  0.00     0.023 A 
ATOM     83  C   UNL A   1      45.315  33.923  30.671  1.00  0.00     0.012 A 
ATOM     84  C   UNL A   1      44.612  34.679  28.468  1.00  0.00     0.148 A 
ATOM     85  C   UNL A   1      45.794  35.199  30.963  1.00  0.00     0.002 A 
ATOM     86  C   UNL A   1      45.141  35.933  28.746  1.00  0.00     0.091 A 
ATOM     87  F   UNL A   1      44.004  34.412  27.303  1.00  0.00    -0.205 F 
ATOM     88  C   UNL A   1      45.716  36.201  29.999  1.00  0.00     0.022 A 
BRANCH  86  89
ATOM     89  S   UNL A   1      45.171  37.255  27.530  1.00  0.00     0.127 S 
ATOM     90  O   UNL A   1      43.750  37.417  27.232  1.00  0.00    -0.237 OA
ATOM     91  O   UNL A   1      45.766  38.358  28.286  1.00  0.00    -0.237 OA
ATOM     92  O   UNL A   1      45.991  36.767  26.430  1.00  0.00    -0.744 OA
ENDBRANCH  86  89
ENDBRANCH  59  82
ENDBRANCH  33  34
ENDBRANCH  25  28
ENDBRANCH  23  24
ENDBRANCH  22  23
ENDBRANCH   1  22
TORSDOF 17
ENDMDL
MODEL 3
REMARK VINA RESULT:     -11.6      6.212     12.502
REMARK SMILES C[C@@H](C(=O)NCCCCNC(=O)c1ccc(-c2c3nc(c(-c4cccc(S(=O)(=O)[O-])c4F)c4ccc([nH]4)c(-c4cccc(S(=O)(=O)[O-])c4F)c4nc(c(-c5cccc(S(=O)(=O)[O-])c5F)c5ccc2[nH]5)C=C4)C=C3)cc1)c1ccc(OC2CCCC2)cc1F
REMARK SMILES IDX 7 1 6 2 5 3 3 4 4 5 2 7 1 8 76 9 77 10 87 11 78 12 86 13
REMARK SMILES IDX 88 14 79 15 80 16 81 17 82 18 85 19 83 20 84 21 8 22 9 23
REMARK SMILES IDX 10 24 11 25 12 27 13 28 14 29 75 30 15 31 74 32 16 33 17 34
REMARK SMILES IDX 18 35 68 36 19 37 73 38 67 39 69 40 20 41 72 42 66 43 65 44
REMARK SMILES IDX 21 46 53 47 33 48 52 49 34 50 37 51 51 52 70 53 35 54 36 55
REMARK SMILES IDX 50 57 71 58 38 59 22 60 23 61 31 62 24 63 26 64 32 65 25 66
REMARK SMILES IDX 27 67 28 68 29 69 30 70 54 71 55 72 63 73 56 74 58 75 64 76
REMARK SMILES IDX 57 77 59 78 60 79 61 80 62 81 39 82 40 83 48 84 41 85 43 86
REMARK SMILES IDX 49 87 42 88 44 89 45 90 46 91 47 92
REMARK H PARENT 5 6 10 26 69 45 37 56
REMARK Flexibility Score: inf
ROOT
ATOM      1  C   UNL A   1      42.751  18.781  26.896  1.00  0.00     0.023 C 
ENDROOT
BRANCH   1   2
ATOM      2  C   UNL A   1      43.392  19.036  25.528  1.00  0.00     0.116 C 
BRANCH   2   3
ATOM      3  N   UNL A   1      44.804  19.308  25.692  1.00  0.00    -0.356 N 
ATOM      4  C   UNL A   1      45.495  20.420  25.299  1.00  0.00     0.227 C 
ATOM      5  O   UNL A   1      46.690  20.281  25.028  1.00  0.00    -0.274 OA
ATOM      6  H   UNL A   1      45.331  18.607  26.140  1.00  0.00     0.163 HD
BRANCH   4   7
ATOM      7  C   UNL A   1      44.763  21.775  25.217  1.00  0.00     0.108 C 
ATOM      8  C   UNL A   1      44.970  22.347  23.808  1.00  0.00     0.023 C 
BRANCH   7   9
ATOM      9  C   UNL A   1      45.193  22.746  26.318  1.00  0.00     0.000 A 
ATOM     10  C   UNL A   1      46.323  23.568  26.201  1.00  0.00     0.011 A 
ATOM     11  C   UNL A   1      44.451  22.855  27.500  1.00  0.00     0.130 A 
ATOM     12  C   UNL A   1      46.731  24.381  27.262  1.00  0.00     0.047 A 
ATOM     13  C   UNL A   1      44.882  23.628  28.576  1.00  0.00     0.086 A 
ATOM     14  F   UNL A   1      43.280  22.213  27.628  1.00  0.00    -0.207 F 
ATOM     15  C   UNL A   1      46.030  24.402  28.467  1.00  0.00     0.122 A 
BRANCH  15  16
ATOM     16  O   UNL A   1      46.574  25.217  29.414  1.00  0.00    -0.490 OA
BRANCH  16  17
ATOM     17  C   UNL A   1      45.796  26.093  30.217  1.00  0.00     0.173 C 
ATOM     18  C   UNL A   1      45.980  27.583  29.959  1.00  0.00     0.045 C 
ATOM     19  C   UNL A   1      44.296  25.821  30.238  1.00  0.00     0.045 C 
ATOM     20  C   UNL A   1      44.742  28.224  30.565  1.00  0.00     0.004 C 
ATOM     21  C   UNL A   1      43.647  27.157  30.584  1.00  0.00     0.004 C 
ENDBRANCH  16  17
ENDBRANCH  15  16
ENDBRANCH   7   9
ENDBRANCH   4   7
ENDBRANCH   2   3
ENDBRANCH   1   2
BRANCH   1  22
ATOM     22  C   UNL A   1      41.411  19.490  27.109  1.00  0.00     0.023 C 
BRANCH  22  23
ATOM     23  C   UNL A   1      41.018  20.461  26.004  1.00  0.00     0.116 C 
BRANCH  23  24
ATOM     24  N   UNL A   1      39.576  20.554  25.837  1.00  0.00    -0.352 N 
ATOM     25  C   UNL A   1      38.734  21.595  26.125  1.00  0.00     0.251 C 
ATOM     26  H   UNL A   1      39.143  19.753  25.461  1.00  0.00     0.163 HD
ATOM     27  O   UNL A   1      37.517  21.423  26.066  1.00  0.00    -0.269 OA
BRANCH  25  28
ATOM     28  C   UNL A   1      39.282  22.907  26.529  1.00  0.00     0.039 A 
ATOM     29  C   UNL A   1      40.155  22.956  27.618  1.00  0.00     0.014 A 
ATOM     30  C   UNL A   1      38.943  24.080  25.848  1.00  0.00     0.014 A 
ATOM     31  C   UNL A   1      40.727  24.174  27.989  1.00  0.00     0.010 A 
ATOM     32  C   UNL A   1      39.574  25.279  26.171  1.00  0.00     0.010 A 
ATOM     33  C   UNL A   1      40.469  25.340  27.248  1.00  0.00    -0.014 A 
BRANCH  33  34
ATOM     34  C   UNL A   1      41.160  26.613  27.583  1.00  0.00     0.031 A 
ATOM     35  C   UNL A   1      42.531  26.916  27.041  1.00  0.00     0.074 A 
ATOM     36  C   UNL A   1      40.559  27.482  28.420  1.00  0.00     0.049 A 
ATOM     37  N   UNL A   1      43.263  27.986  27.211  1.00  0.00    -0.248 NA
ATOM     38  C   UNL A   1      43.174  25.877  26.218  1.00  0.00     0.031 C 
ATOM     39  C   UNL A   1      39.273  27.261  29.089  1.00  0.00     0.029 A 
ATOM     40  N   UNL A   1      40.953  28.719  28.864  1.00  0.00    -0.354 N 
ATOM     41  C   UNL A   1      44.453  27.749  26.534  1.00  0.00     0.074 A 
ATOM     42  C   UNL A   1      44.365  26.413  25.987  1.00  0.00     0.031 C 
ATOM     43  C   UNL A   1      38.981  28.330  29.845  1.00  0.00     0.029 A 
ATOM     44  C   UNL A   1      40.066  29.300  29.740  1.00  0.00     0.049 A 
ATOM     45  H   UNL A   1      41.793  29.150  28.583  1.00  0.00     0.167 HD
ATOM     46  C   UNL A   1      45.508  28.579  26.353  1.00  0.00     0.034 A 
ATOM     47  C   UNL A   1      40.120  30.479  30.389  1.00  0.00     0.034 A 
ATOM     48  C   UNL A   1      45.583  29.916  26.878  1.00  0.00     0.049 A 
ATOM     49  C   UNL A   1      41.287  31.394  30.138  1.00  0.00     0.074 A 
ATOM     50  C   UNL A   1      46.580  30.859  26.693  1.00  0.00     0.029 A 
ATOM     51  N   UNL A   1      44.629  30.502  27.696  1.00  0.00    -0.354 N 
ATOM     52  N   UNL A   1      42.326  31.214  29.360  1.00  0.00    -0.248 NA
ATOM     53  C   UNL A   1      41.266  32.696  30.820  1.00  0.00     0.031 C 
ATOM     54  C   UNL A   1      46.241  32.005  27.421  1.00  0.00     0.029 A 
ATOM     55  C   UNL A   1      45.016  31.789  28.030  1.00  0.00     0.049 A 
ATOM     56  H   UNL A   1      43.799  30.066  27.995  1.00  0.00     0.167 HD
ATOM     57  C   UNL A   1      43.068  32.387  29.438  1.00  0.00     0.074 A 
ATOM     58  C   UNL A   1      42.335  33.286  30.306  1.00  0.00     0.031 C 
ATOM     59  C   UNL A   1      44.258  32.688  28.862  1.00  0.00     0.034 A 
BRANCH  46  60
ATOM     60  C   UNL A   1      46.649  28.089  25.497  1.00  0.00     0.023 A 
ATOM     61  C   UNL A   1      46.564  28.215  24.095  1.00  0.00     0.012 A 
ATOM     62  C   UNL A   1      47.833  27.588  26.074  1.00  0.00     0.148 A 
ATOM     63  C   UNL A   1      47.624  27.825  23.278  1.00  0.00     0.002 A 
ATOM     64  C   UNL A   1      48.904  27.244  25.257  1.00  0.00     0.091 A 
ATOM     65  F   UNL A   1      47.890  27.461  27.407  1.00  0.00    -0.205 F 
ATOM     66  C   UNL A   1      48.797  27.351  23.860  1.00  0.00     0.022 A 
BRANCH  64  67
ATOM     67  S   UNL A   1      50.488  26.699  25.904  1.00  0.00     0.127 S 
ATOM     68  O   UNL A   1      51.254  26.494  24.675  1.00  0.00    -0.237 OA
ATOM     69  O   UNL A   1      50.907  27.853  26.699  1.00  0.00    -0.237 OA
ATOM     70  O   UNL A   1      50.217  25.492  26.673  1.00  0.00    -0.744 OA
ENDBRANCH  64  67
ENDBRANCH  46  60
BRANCH  47  71
ATOM     71  C   UNL A   1      39.015  30.884  31.304  1.00  0.00     0.023 A 
ATOM     72  C   UNL A   1      39.050  30.498  32.658  1.00  0.00     0.012 A 
ATOM     73  C   UNL A   1      37.931  31.652  30.837  1.00  0.00     0.148 A 
ATOM     74  C   UNL A   1      38.002  30.829  33.519  1.00  0.00     0.002 A 
ATOM     75  C   UNL A   1      36.922  32.030  31.714  1.00  0.00     0.091 A 
ATOM     76  F   UNL A   1      37.910  32.000  29.543  1.00  0.00    -0.205 F 
ATOM     77  C   UNL A   1      36.944  31.601  33.050  1.00  0.00     0.022 A 
BRANCH  75  78
ATOM     78  S   UNL A   1      35.598  33.141  31.227  1.00  0.00     0.127 S 
ATOM     79  O   UNL A   1      34.765  32.268  30.404  1.00  0.00    -0.237 OA
ATOM     80  O   UNL A   1      35.018  33.509  32.519  1.00  0.00    -0.237 OA
ATOM     81  O   UNL A   1      36.249  34.242  30.529  1.00  0.00    -0.744 OA
ENDBRANCH  75  78
ENDBRANCH  47  71
BRANCH  59  82
ATOM     82  C   UNL A   1      44.827  34.058  29.130  1.00  0.00     0.023 A 
ATOM     83  C   UNL A   1      45.537  34.302  30.324  1.00  0.00     0.012 A 
ATOM     84  C   UNL A   1      44.688  35.095  28.186  1.00  0.00     0.148 A 
ATOM     85  C   UNL A   1      46.050  35.569  30.598  1.00  0.00     0.002 A 
ATOM     86  C   UNL A   1      45.250  36.340  28.442  1.00  0.00     0.091 A 
ATOM     87  F   UNL A   1      43.997  34.850  27.064  1.00  0.00    -0.205 F 
ATOM     88  C   UNL A   1      45.915  36.584  29.655  1.00  0.00     0.022 A 
BRANCH  86  89
ATOM     89  S   UNL A   1      45.209  37.677  27.244  1.00  0.00     0.127 S 
ATOM     90  O   UNL A   1      43.779  37.784  26.965  1.00  0.00    -0.237 OA
ATOM     91  O   UNL A   1      45.767  38.795  28.007  1.00  0.00    -0.237 OA
ATOM     92  O   UNL A   1      46.035  37.238  26.127  1.00  0.00    -0.744 OA
ENDBRANCH  86  89
ENDBRANCH  59  82
ENDBRANCH  33  34
ENDBRANCH  25  28
ENDBRANCH  23  24
ENDBRANCH  22  23
ENDBRANCH   1  22
TORSDOF 17
ENDMDL
