MODEL 1
REMARK VINA RESULT:     -12.8      0.000      0.000
REMARK SMILES Cc1cc2c(c(C)c1Cl)C=C(C(=O)NCCCCNC(=O)c1ccc(-c3c4nc(c(-c5cccc(S(=O)(=O)[O-])c5F)c5ccc([nH]5)c(-c5cccc(S(=O)(=O)[O-])c5F)c5nc(c(-c6cccc(S(=O)(=O)[O-])c6F)c6ccc3[nH]6)C=C5)C=C4)cc1)[C@@H](C(F)(F)F)O2
REMARK SMILES IDX 17 1 16 2 15 3 14 4 12 5 13 6 11 8 1 9 2 10 3 11 8 12 4 13
REMARK SMILES IDX 6 14 9 15 5 16 90 17 7 18 10 19 85 20 86 21 87 22 88 23
REMARK SMILES IDX 89 24 18 25 19 26 20 27 21 29 22 30 23 31 84 32 24 33 83 34
REMARK SMILES IDX 25 35 26 36 27 37 77 38 28 39 82 40 76 41 78 42 29 43 81 44
REMARK SMILES IDX 75 45 74 46 30 48 62 49 42 50 61 51 43 52 46 53 60 54 79 55
REMARK SMILES IDX 44 56 45 57 59 59 80 60 47 61 31 62 32 63 40 64 33 65 35 66
REMARK SMILES IDX 41 67 34 68 36 69 37 70 38 71 39 72 63 73 64 74 72 75 65 76
REMARK SMILES IDX 67 77 73 78 66 79 68 80 69 81 70 82 71 83 48 84 49 85 57 86
REMARK SMILES IDX 50 87 52 88 58 89 51 90 53 91 54 92 55 93 56 94
REMARK H PARENT 14 7 19 28 78 47 46 58
REMARK Flexibility Score: inf
ROOT
ATOM      1  C   UNL A   1      32.008  29.726  27.203  1.00  0.00     0.023 C 
ENDROOT
BRANCH   1   2
ATOM      2  C   UNL A   1      32.349  28.260  26.928  1.00  0.00     0.023 C 
BRANCH   2   3
ATOM      3  C   UNL A   1      33.773  28.027  26.430  1.00  0.00     0.116 C 
BRANCH   3   4
ATOM      4  N   UNL A   1      33.839  27.934  24.984  1.00  0.00    -0.352 N 
ATOM      5  C   UNL A   1      33.639  26.981  24.045  1.00  0.00     0.251 C 
ATOM      6  O   UNL A   1      33.804  27.348  22.877  1.00  0.00    -0.270 OA
ATOM      7  H   UNL A   1      34.099  28.792  24.577  1.00  0.00     0.163 HD
BRANCH   5   8
ATOM      8  C   UNL A   1      33.242  25.567  24.316  1.00  0.00     0.067 C 
ATOM      9  C   UNL A   1      32.895  19.181  25.575  1.00  0.00     0.046 C 
ATOM     10  C   UNL A   1      33.302  20.589  25.234  1.00  0.00    -0.028 A 
ATOM     11  C   UNL A   1      32.342  21.602  25.310  1.00  0.00     0.052 A 
ATOM     12  C   UNL A   1      34.616  20.923  24.848  1.00  0.00     0.047 A 
ATOM     13  C   UNL A   1      32.677  22.918  25.009  1.00  0.00     0.128 A 
ATOM     14  C   UNL A   1      34.971  22.259  24.539  1.00  0.00    -0.021 A 
ATOM     15  Cl  UNL A   1      35.801  19.651  24.775  1.00  0.00    -0.084 Cl
ATOM     16  C   UNL A   1      33.980  23.266  24.640  1.00  0.00     0.022 A 
ATOM     17  O   UNL A   1      31.669  23.830  25.146  1.00  0.00    -0.475 OA
ATOM     18  C   UNL A   1      36.376  22.636  24.128  1.00  0.00     0.047 C 
ATOM     19  C   UNL A   1      34.258  24.689  24.419  1.00  0.00     0.026 C 
ATOM     20  C   UNL A   1      31.827  25.086  24.429  1.00  0.00     0.314 C 
BRANCH  20  21
ATOM     21  C   UNL A   1      31.120  24.986  23.066  1.00  0.00     0.429 C 
ATOM     22  F   UNL A   1      32.017  24.702  22.087  1.00  0.00    -0.167 F 
ATOM     23  F   UNL A   1      30.191  24.003  23.031  1.00  0.00    -0.167 F 
ATOM     24  F   UNL A   1      30.496  26.134  22.718  1.00  0.00    -0.167 F 
ENDBRANCH  20  21
ENDBRANCH   5   8
ENDBRANCH   3   4
ENDBRANCH   2   3
ENDBRANCH   1   2
BRANCH   1  25
ATOM     25  C   UNL A   1      32.926  30.754  26.544  1.00  0.00     0.116 C 
BRANCH  25  26
ATOM     26  N   UNL A   1      32.815  32.096  27.103  1.00  0.00    -0.352 N 
ATOM     27  C   UNL A   1      33.734  32.754  27.888  1.00  0.00     0.251 C 
ATOM     28  H   UNL A   1      31.987  32.587  26.895  1.00  0.00     0.163 HD
ATOM     29  O   UNL A   1      33.491  33.868  28.343  1.00  0.00    -0.269 OA
BRANCH  27  30
ATOM     30  C   UNL A   1      34.994  32.064  28.213  1.00  0.00     0.039 A 
ATOM     31  C   UNL A   1      36.185  32.791  28.182  1.00  0.00     0.014 A 
ATOM     32  C   UNL A   1      34.971  30.740  28.661  1.00  0.00     0.014 A 
ATOM     33  C   UNL A   1      37.349  32.213  28.686  1.00  0.00     0.010 A 
ATOM     34  C   UNL A   1      36.120  30.189  29.217  1.00  0.00     0.010 A 
ATOM     35  C   UNL A   1      37.314  30.925  29.248  1.00  0.00    -0.014 A 
BRANCH  35  36
ATOM     36  C   UNL A   1      38.508  30.355  29.916  1.00  0.00     0.031 A 
ATOM     37  C   UNL A   1      38.884  30.796  31.300  1.00  0.00     0.074 A 
ATOM     38  C   UNL A   1      39.294  29.494  29.239  1.00  0.00     0.049 A 
ATOM     39  N   UNL A   1      39.888  30.406  32.039  1.00  0.00    -0.248 NA
ATOM     40  C   UNL A   1      38.037  31.824  31.928  1.00  0.00     0.031 C 
ATOM     41  C   UNL A   1      39.078  29.062  27.856  1.00  0.00     0.029 A 
ATOM     42  N   UNL A   1      40.439  28.838  29.615  1.00  0.00    -0.354 N 
ATOM     43  C   UNL A   1      39.807  31.152  33.207  1.00  0.00     0.074 A 
ATOM     44  C   UNL A   1      38.681  32.048  33.064  1.00  0.00     0.031 C 
ATOM     45  C   UNL A   1      40.044  28.195  27.510  1.00  0.00     0.029 A 
ATOM     46  C   UNL A   1      40.955  28.020  28.636  1.00  0.00     0.049 A 
ATOM     47  H   UNL A   1      40.853  28.943  30.502  1.00  0.00     0.167 HD
ATOM     48  C   UNL A   1      40.574  31.065  34.319  1.00  0.00     0.034 A 
ATOM     49  C   UNL A   1      42.029  27.206  28.654  1.00  0.00     0.034 A 
ATOM     50  C   UNL A   1      41.654  30.131  34.478  1.00  0.00     0.049 A 
ATOM     51  C   UNL A   1      42.838  27.093  29.918  1.00  0.00     0.074 A 
ATOM     52  C   UNL A   1      42.433  29.903  35.598  1.00  0.00     0.029 A 
ATOM     53  N   UNL A   1      42.104  29.268  33.491  1.00  0.00    -0.354 N 
ATOM     54  N   UNL A   1      42.644  27.684  31.072  1.00  0.00    -0.248 NA
ATOM     55  C   UNL A   1      43.990  26.180  29.896  1.00  0.00     0.031 C 
ATOM     56  C   UNL A   1      43.355  28.899  35.287  1.00  0.00     0.029 A 
ATOM     57  C   UNL A   1      43.151  28.504  33.974  1.00  0.00     0.049 A 
ATOM     58  H   UNL A   1      41.733  29.207  32.582  1.00  0.00     0.167 HD
ATOM     59  C   UNL A   1      43.629  27.196  31.922  1.00  0.00     0.074 A 
ATOM     60  C   UNL A   1      44.409  26.245  31.154  1.00  0.00     0.031 C 
ATOM     61  C   UNL A   1      43.876  27.519  33.214  1.00  0.00     0.034 A 
BRANCH  48  62
ATOM     62  C   UNL A   1      40.208  31.937  35.487  1.00  0.00     0.023 A 
ATOM     63  C   UNL A   1      40.914  33.141  35.683  1.00  0.00     0.012 A 
ATOM     64  C   UNL A   1      39.144  31.609  36.347  1.00  0.00     0.148 A 
ATOM     65  C   UNL A   1      40.582  33.997  36.732  1.00  0.00     0.002 A 
ATOM     66  C   UNL A   1      38.796  32.485  37.371  1.00  0.00     0.091 A 
ATOM     67  F   UNL A   1      38.503  30.447  36.160  1.00  0.00    -0.205 F 
ATOM     68  C   UNL A   1      39.519  33.673  37.568  1.00  0.00     0.022 A 
BRANCH  66  69
ATOM     69  S   UNL A   1      37.399  32.188  38.461  1.00  0.00     0.127 S 
ATOM     70  O   UNL A   1      36.357  32.997  37.832  1.00  0.00    -0.237 OA
ATOM     71  O   UNL A   1      37.209  30.742  38.336  1.00  0.00    -0.237 OA
ATOM     72  O   UNL A   1      37.826  32.628  39.782  1.00  0.00    -0.744 OA
ENDBRANCH  66  69
ENDBRANCH  48  62
BRANCH  49  73
ATOM     73  C   UNL A   1      42.317  26.343  27.474  1.00  0.00     0.023 A 
ATOM     74  C   UNL A   1      43.057  26.881  26.403  1.00  0.00     0.012 A 
ATOM     75  C   UNL A   1      41.931  24.989  27.428  1.00  0.00     0.148 A 
ATOM     76  C   UNL A   1      43.394  26.094  25.303  1.00  0.00     0.002 A 
ATOM     77  C   UNL A   1      42.311  24.197  26.349  1.00  0.00     0.091 A 
ATOM     78  F   UNL A   1      41.211  24.498  28.448  1.00  0.00    -0.205 F 
ATOM     79  C   UNL A   1      43.033  24.750  25.281  1.00  0.00     0.022 A 
BRANCH  77  80
ATOM     80  S   UNL A   1      42.003  22.427  26.307  1.00  0.00     0.127 S 
ATOM     81  O   UNL A   1      40.545  22.378  26.250  1.00  0.00    -0.237 OA
ATOM     82  O   UNL A   1      42.682  22.025  25.073  1.00  0.00    -0.237 OA
ATOM     83  O   UNL A   1      42.614  21.900  27.520  1.00  0.00    -0.744 OA
ENDBRANCH  77  80
ENDBRANCH  49  73
BRANCH  61  84
ATOM     84  C   UNL A   1      45.032  26.847  33.904  1.00  0.00     0.023 A 
ATOM     85  C   UNL A   1      46.307  27.442  33.842  1.00  0.00     0.012 A 
ATOM     86  C   UNL A   1      44.828  25.722  34.727  1.00  0.00     0.148 A 
ATOM     87  C   UNL A   1      47.366  26.923  34.584  1.00  0.00     0.002 A 
ATOM     88  C   UNL A   1      45.879  25.234  35.495  1.00  0.00     0.091 A 
ATOM     89  F   UNL A   1      43.609  25.165  34.758  1.00  0.00    -0.205 F 
ATOM     90  C   UNL A   1      47.148  25.830  35.421  1.00  0.00     0.022 A 
BRANCH  88  91
ATOM     91  S   UNL A   1      45.671  23.893  36.674  1.00  0.00     0.127 S 
ATOM     92  O   UNL A   1      47.032  23.728  37.179  1.00  0.00    -0.237 OA
ATOM     93  O   UNL A   1      44.728  24.467  37.635  1.00  0.00    -0.237 OA
ATOM     94  O   UNL A   1      45.146  22.767  35.911  1.00  0.00    -0.744 OA
ENDBRANCH  88  91
ENDBRANCH  61  84
ENDBRANCH  35  36
ENDBRANCH  27  30
ENDBRANCH  25  26
ENDBRANCH   1  25
TORSDOF 15
ENDMDL
MODEL 2
REMARK VINA RESULT:     -12.6      5.242     10.172
REMARK SMILES Cc1cc2c(c(C)c1Cl)C=C(C(=O)NCCCCNC(=O)c1ccc(-c3c4nc(c(-c5cccc(S(=O)(=O)[O-])c5F)c5ccc([nH]5)c(-c5cccc(S(=O)(=O)[O-])c5F)c5nc(c(-c6cccc(S(=O)(=O)[O-])c6F)c6ccc3[nH]6)C=C5)C=C4)cc1)[C@@H](C(F)(F)F)O2
REMARK SMILES IDX 17 1 16 2 15 3 14 4 12 5 13 6 11 8 1 9 2 10 3 11 8 12 4 13
REMARK SMILES IDX 6 14 9 15 5 16 90 17 7 18 10 19 85 20 86 21 87 22 88 23
REMARK SMILES IDX 89 24 18 25 19 26 20 27 21 29 22 30 23 31 84 32 24 33 83 34
REMARK SMILES IDX 25 35 26 36 27 37 77 38 28 39 82 40 76 41 78 42 29 43 81 44
REMARK SMILES IDX 75 45 74 46 30 48 62 49 42 50 61 51 43 52 46 53 60 54 79 55
REMARK SMILES IDX 44 56 45 57 59 59 80 60 47 61 31 62 32 63 40 64 33 65 35 66
REMARK SMILES IDX 41 67 34 68 36 69 37 70 38 71 39 72 63 73 64 74 72 75 65 76
REMARK SMILES IDX 67 77 73 78 66 79 68 80 69 81 70 82 71 83 48 84 49 85 57 86
REMARK SMILES IDX 50 87 52 88 58 89 51 90 53 91 54 92 55 93 56 94
REMARK H PARENT 14 7 19 28 78 47 46 58
REMARK Flexibility Score: inf
ROOT
ATOM      1  C   UNL A   1      35.887  21.498  25.721  1.00  0.00     0.023 C 
ENDROOT
BRANCH   1   2
ATOM      2  C   UNL A   1      34.918  20.556  25.002  1.00  0.00     0.023 C 
BRANCH   2   3
ATOM      3  C   UNL A   1      33.559  20.412  25.682  1.00  0.00     0.116 C 
BRANCH   3   4
ATOM      4  N   UNL A   1      33.490  21.150  26.930  1.00  0.00    -0.352 N 
ATOM      5  C   UNL A   1      32.912  22.289  27.374  1.00  0.00     0.251 C 
ATOM      6  O   UNL A   1      33.113  22.555  28.563  1.00  0.00    -0.270 OA
ATOM      7  H   UNL A   1      34.002  20.703  27.643  1.00  0.00     0.163 HD
BRANCH   5   8
ATOM      8  C   UNL A   1      32.071  23.211  26.553  1.00  0.00     0.067 C 
ATOM      9  C   UNL A   1      29.479  28.124  23.142  1.00  0.00     0.046 C 
ATOM     10  C   UNL A   1      30.300  27.224  24.027  1.00  0.00    -0.028 A 
ATOM     11  C   UNL A   1      29.977  25.866  24.086  1.00  0.00     0.052 A 
ATOM     12  C   UNL A   1      31.384  27.701  24.791  1.00  0.00     0.047 A 
ATOM     13  C   UNL A   1      30.712  24.998  24.887  1.00  0.00     0.128 A 
ATOM     14  C   UNL A   1      32.142  26.829  25.610  1.00  0.00    -0.021 A 
ATOM     15  Cl  UNL A   1      31.781  29.392  24.691  1.00  0.00    -0.084 Cl
ATOM     16  C   UNL A   1      31.800  25.455  25.638  1.00  0.00     0.022 A 
ATOM     17  O   UNL A   1      30.329  23.688  24.845  1.00  0.00    -0.475 OA
ATOM     18  C   UNL A   1      33.310  27.322  26.433  1.00  0.00     0.047 C 
ATOM     19  C   UNL A   1      32.564  24.453  26.389  1.00  0.00     0.026 C 
ATOM     20  C   UNL A   1      30.740  22.854  25.964  1.00  0.00     0.314 C 
BRANCH  20  21
ATOM     21  C   UNL A   1      29.614  22.819  27.013  1.00  0.00     0.429 C 
ATOM     22  F   UNL A   1      28.727  21.833  26.721  1.00  0.00    -0.167 F 
ATOM     23  F   UNL A   1      30.072  22.565  28.261  1.00  0.00    -0.167 F 
ATOM     24  F   UNL A   1      28.921  23.978  27.073  1.00  0.00    -0.167 F 
ENDBRANCH  20  21
ENDBRANCH   5   8
ENDBRANCH   3   4
ENDBRANCH   2   3
ENDBRANCH   1   2
BRANCH   1  25
ATOM     25  C   UNL A   1      37.234  21.712  25.034  1.00  0.00     0.116 C 
BRANCH  25  26
ATOM     26  N   UNL A   1      38.210  20.661  25.297  1.00  0.00    -0.352 N 
ATOM     27  C   UNL A   1      39.384  20.768  26.007  1.00  0.00     0.251 C 
ATOM     28  H   UNL A   1      38.006  19.774  24.921  1.00  0.00     0.163 HD
ATOM     29  O   UNL A   1      40.149  19.813  26.107  1.00  0.00    -0.269 OA
BRANCH  27  30
ATOM     30  C   UNL A   1      39.723  22.073  26.600  1.00  0.00     0.039 A 
ATOM     31  C   UNL A   1      40.670  22.120  27.624  1.00  0.00     0.014 A 
ATOM     32  C   UNL A   1      39.192  23.247  26.057  1.00  0.00     0.014 A 
ATOM     33  C   UNL A   1      41.154  23.356  28.049  1.00  0.00     0.010 A 
ATOM     34  C   UNL A   1      39.720  24.474  26.442  1.00  0.00     0.010 A 
ATOM     35  C   UNL A   1      40.715  24.539  27.429  1.00  0.00    -0.014 A 
BRANCH  35  36
ATOM     36  C   UNL A   1      41.325  25.846  27.770  1.00  0.00     0.031 A 
ATOM     37  C   UNL A   1      42.739  26.148  27.372  1.00  0.00     0.074 A 
ATOM     38  C   UNL A   1      40.621  26.730  28.506  1.00  0.00     0.049 A 
ATOM     39  N   UNL A   1      43.434  27.234  27.580  1.00  0.00    -0.248 NA
ATOM     40  C   UNL A   1      43.478  25.086  26.667  1.00  0.00     0.031 C 
ATOM     41  C   UNL A   1      39.270  26.508  29.026  1.00  0.00     0.029 A 
ATOM     42  N   UNL A   1      40.947  27.985  28.955  1.00  0.00    -0.354 N 
ATOM     43  C   UNL A   1      44.694  26.983  27.054  1.00  0.00     0.074 A 
ATOM     44  C   UNL A   1      44.683  25.626  26.553  1.00  0.00     0.031 C 
ATOM     45  C   UNL A   1      38.874  27.599  29.702  1.00  0.00     0.029 A 
ATOM     46  C   UNL A   1      39.945  28.591  29.677  1.00  0.00     0.049 A 
ATOM     47  H   UNL A   1      41.817  28.410  28.778  1.00  0.00     0.167 HD
ATOM     48  C   UNL A   1      45.751  27.822  26.956  1.00  0.00     0.034 A 
ATOM     49  C   UNL A   1      39.889  29.816  30.237  1.00  0.00     0.034 A 
ATOM     50  C   UNL A   1      45.736  29.187  27.402  1.00  0.00     0.049 A 
ATOM     51  C   UNL A   1      41.060  30.746  30.072  1.00  0.00     0.074 A 
ATOM     52  C   UNL A   1      46.724  30.145  27.265  1.00  0.00     0.029 A 
ATOM     53  N   UNL A   1      44.679  29.790  28.065  1.00  0.00    -0.354 N 
ATOM     54  N   UNL A   1      42.183  30.547  29.424  1.00  0.00    -0.248 NA
ATOM     55  C   UNL A   1      40.949  32.078  30.685  1.00  0.00     0.031 C 
ATOM     56  C   UNL A   1      46.262  31.330  27.847  1.00  0.00     0.029 A 
ATOM     57  C   UNL A   1      44.988  31.108  28.346  1.00  0.00     0.049 A 
ATOM     58  H   UNL A   1      43.832  29.346  28.300  1.00  0.00     0.167 HD
ATOM     59  C   UNL A   1      42.898  31.735  29.525  1.00  0.00     0.074 A 
ATOM     60  C   UNL A   1      42.074  32.655  30.282  1.00  0.00     0.031 C 
ATOM     61  C   UNL A   1      44.132  32.029  29.048  1.00  0.00     0.034 A 
BRANCH  48  62
ATOM     62  C   UNL A   1      46.979  27.315  26.252  1.00  0.00     0.023 A 
ATOM     63  C   UNL A   1      47.124  27.567  24.873  1.00  0.00     0.012 A 
ATOM     64  C   UNL A   1      48.008  26.655  26.948  1.00  0.00     0.148 A 
ATOM     65  C   UNL A   1      48.264  27.148  24.190  1.00  0.00     0.002 A 
ATOM     66  C   UNL A   1      49.158  26.270  26.267  1.00  0.00     0.091 A 
ATOM     67  F   UNL A   1      47.839  26.402  28.254  1.00  0.00    -0.205 F 
ATOM     68  C   UNL A   1      49.284  26.509  24.889  1.00  0.00     0.022 A 
BRANCH  66  69
ATOM     69  S   UNL A   1      50.555  25.498  27.092  1.00  0.00     0.127 S 
ATOM     70  O   UNL A   1      49.939  24.296  27.652  1.00  0.00    -0.237 OA
ATOM     71  O   UNL A   1      51.476  25.252  25.981  1.00  0.00    -0.237 OA
ATOM     72  O   UNL A   1      51.030  26.472  28.065  1.00  0.00    -0.744 OA
ENDBRANCH  66  69
ENDBRANCH  48  62
BRANCH  49  73
ATOM     73  C   UNL A   1      38.630  30.269  30.892  1.00  0.00     0.023 A 
ATOM     74  C   UNL A   1      38.478  30.076  32.279  1.00  0.00     0.012 A 
ATOM     75  C   UNL A   1      37.619  30.943  30.178  1.00  0.00     0.148 A 
ATOM     76  C   UNL A   1      37.339  30.531  32.941  1.00  0.00     0.002 A 
ATOM     77  C   UNL A   1      36.507  31.437  30.854  1.00  0.00     0.091 A 
ATOM     78  F   UNL A   1      37.772  31.102  28.856  1.00  0.00    -0.205 F 
ATOM     79  C   UNL A   1      36.360  31.222  32.233  1.00  0.00     0.022 A 
BRANCH  77  80
ATOM     80  S   UNL A   1      35.268  32.453  30.040  1.00  0.00     0.127 S 
ATOM     81  O   UNL A   1      34.317  32.689  31.122  1.00  0.00    -0.237 OA
ATOM     82  O   UNL A   1      36.048  33.625  29.638  1.00  0.00    -0.237 OA
ATOM     83  O   UNL A   1      34.783  31.650  28.925  1.00  0.00    -0.744 OA
ENDBRANCH  77  80
ENDBRANCH  49  73
BRANCH  61  84
ATOM     84  C   UNL A   1      44.687  33.401  29.317  1.00  0.00     0.023 A 
ATOM     85  C   UNL A   1      45.507  33.599  30.445  1.00  0.00     0.012 A 
ATOM     86  C   UNL A   1      44.520  34.444  28.386  1.00  0.00     0.148 A 
ATOM     87  C   UNL A   1      46.149  34.819  30.645  1.00  0.00     0.002 A 
ATOM     88  C   UNL A   1      45.196  35.644  28.570  1.00  0.00     0.091 A 
ATOM     89  F   UNL A   1      43.722  34.235  27.328  1.00  0.00    -0.205 F 
ATOM     90  C   UNL A   1      46.006  35.835  29.702  1.00  0.00     0.022 A 
BRANCH  88  91
ATOM     91  S   UNL A   1      45.150  36.974  27.362  1.00  0.00     0.127 S 
ATOM     92  O   UNL A   1      45.664  38.100  28.139  1.00  0.00    -0.237 OA
ATOM     93  O   UNL A   1      46.057  36.483  26.325  1.00  0.00    -0.237 OA
ATOM     94  O   UNL A   1      43.758  37.087  26.944  1.00  0.00    -0.744 OA
ENDBRANCH  88  91
ENDBRANCH  61  84
ENDBRANCH  35  36
ENDBRANCH  27  30
ENDBRANCH  25  26
ENDBRANCH   1  25
TORSDOF 15
ENDMDL
MODEL 3
REMARK VINA RESULT:     -12.5      1.695      2.030
REMARK SMILES Cc1cc2c(c(C)c1Cl)C=C(C(=O)NCCCCNC(=O)c1ccc(-c3c4nc(c(-c5cccc(S(=O)(=O)[O-])c5F)c5ccc([nH]5)c(-c5cccc(S(=O)(=O)[O-])c5F)c5nc(c(-c6cccc(S(=O)(=O)[O-])c6F)c6ccc3[nH]6)C=C5)C=C4)cc1)[C@@H](C(F)(F)F)O2
REMARK SMILES IDX 17 1 16 2 15 3 14 4 12 5 13 6 11 8 1 9 2 10 3 11 8 12 4 13
REMARK SMILES IDX 6 14 9 15 5 16 90 17 7 18 10 19 85 20 86 21 87 22 88 23
REMARK SMILES IDX 89 24 18 25 19 26 20 27 21 29 22 30 23 31 84 32 24 33 83 34
REMARK SMILES IDX 25 35 26 36 27 37 77 38 28 39 82 40 76 41 78 42 29 43 81 44
REMARK SMILES IDX 75 45 74 46 30 48 62 49 42 50 61 51 43 52 46 53 60 54 79 55
REMARK SMILES IDX 44 56 45 57 59 59 80 60 47 61 31 62 32 63 40 64 33 65 35 66
REMARK SMILES IDX 41 67 34 68 36 69 37 70 38 71 39 72 63 73 64 74 72 75 65 76
REMARK SMILES IDX 67 77 73 78 66 79 68 80 69 81 70 82 71 83 48 84 49 85 57 86
REMARK SMILES IDX 50 87 52 88 58 89 51 90 53 91 54 92 55 93 56 94
REMARK H PARENT 14 7 19 28 78 47 46 58
REMARK Flexibility Score: inf
ROOT
ATOM      1  C   UNL A   1      32.686  29.434  25.144  1.00  0.00     0.023 C 
ENDROOT
BRANCH   1   2
ATOM      2  C   UNL A   1      33.954  28.644  24.807  1.00  0.00     0.023 C 
BRANCH   2   3
ATOM      3  C   UNL A   1      33.764  27.130  24.781  1.00  0.00     0.116 C 
BRANCH   3   4
ATOM      4  N   UNL A   1      32.917  26.703  23.683  1.00  0.00    -0.352 N 
ATOM      5  C   UNL A   1      32.350  25.549  23.263  1.00  0.00     0.251 C 
ATOM      6  O   UNL A   1      31.669  25.638  22.236  1.00  0.00    -0.270 OA
ATOM      7  H   UNL A   1      32.698  27.452  23.083  1.00  0.00     0.163 HD
BRANCH   5   8
ATOM      8  C   UNL A   1      32.484  24.222  23.937  1.00  0.00     0.067 C 
ATOM      9  C   UNL A   1      33.048  17.935  25.561  1.00  0.00     0.046 C 
ATOM     10  C   UNL A   1      32.844  19.262  24.881  1.00  0.00    -0.028 A 
ATOM     11  C   UNL A   1      33.080  20.432  25.609  1.00  0.00     0.052 A 
ATOM     12  C   UNL A   1      32.430  19.367  23.538  1.00  0.00     0.047 A 
ATOM     13  C   UNL A   1      32.909  21.679  25.017  1.00  0.00     0.128 A 
ATOM     14  C   UNL A   1      32.253  20.630  22.923  1.00  0.00    -0.021 A 
ATOM     15  Cl  UNL A   1      32.157  17.900  22.643  1.00  0.00    -0.084 Cl
ATOM     16  C   UNL A   1      32.515  21.797  23.681  1.00  0.00     0.022 A 
ATOM     17  O   UNL A   1      33.197  22.753  25.811  1.00  0.00    -0.475 OA
ATOM     18  C   UNL A   1      31.815  20.762  21.482  1.00  0.00     0.047 C 
ATOM     19  C   UNL A   1      32.438  23.151  23.121  1.00  0.00     0.026 C 
ATOM     20  C   UNL A   1      32.616  24.028  25.416  1.00  0.00     0.314 C 
BRANCH  20  21
ATOM     21  C   UNL A   1      31.288  24.235  26.166  1.00  0.00     0.429 C 
ATOM     22  F   UNL A   1      30.240  23.880  25.379  1.00  0.00    -0.167 F 
ATOM     23  F   UNL A   1      31.198  23.481  27.286  1.00  0.00    -0.167 F 
ATOM     24  F   UNL A   1      31.094  25.520  26.537  1.00  0.00    -0.167 F 
ENDBRANCH  20  21
ENDBRANCH   5   8
ENDBRANCH   3   4
ENDBRANCH   2   3
ENDBRANCH   1   2
BRANCH   1  25
ATOM     25  C   UNL A   1      32.509  29.802  26.616  1.00  0.00     0.116 C 
BRANCH  25  26
ATOM     26  N   UNL A   1      32.357  31.232  26.857  1.00  0.00    -0.352 N 
ATOM     27  C   UNL A   1      33.277  32.090  27.415  1.00  0.00     0.251 C 
ATOM     28  H   UNL A   1      31.495  31.629  26.591  1.00  0.00     0.163 HD
ATOM     29  O   UNL A   1      33.000  33.269  27.615  1.00  0.00    -0.269 OA
BRANCH  27  30
ATOM     30  C   UNL A   1      34.585  31.543  27.814  1.00  0.00     0.039 A 
ATOM     31  C   UNL A   1      35.667  32.416  27.943  1.00  0.00     0.014 A 
ATOM     32  C   UNL A   1      34.700  30.197  28.175  1.00  0.00     0.014 A 
ATOM     33  C   UNL A   1      36.850  31.955  28.518  1.00  0.00     0.010 A 
ATOM     34  C   UNL A   1      35.861  29.757  28.801  1.00  0.00     0.010 A 
ATOM     35  C   UNL A   1      36.939  30.635  28.992  1.00  0.00    -0.014 A 
BRANCH  35  36
ATOM     36  C   UNL A   1      38.136  30.173  29.734  1.00  0.00     0.031 A 
ATOM     37  C   UNL A   1      38.393  30.656  31.131  1.00  0.00     0.074 A 
ATOM     38  C   UNL A   1      39.029  29.376  29.114  1.00  0.00     0.049 A 
ATOM     39  N   UNL A   1      39.382  30.359  31.930  1.00  0.00    -0.248 NA
ATOM     40  C   UNL A   1      37.429  31.615  31.697  1.00  0.00     0.031 C 
ATOM     41  C   UNL A   1      38.928  28.915  27.727  1.00  0.00     0.029 A 
ATOM     42  N   UNL A   1      40.201  28.821  29.563  1.00  0.00    -0.354 N 
ATOM     43  C   UNL A   1      39.173  31.105  33.082  1.00  0.00     0.074 A 
ATOM     44  C   UNL A   1      37.987  31.902  32.864  1.00  0.00     0.031 C 
ATOM     45  C   UNL A   1      39.981  28.130  27.447  1.00  0.00     0.029 A 
ATOM     46  C   UNL A   1      40.838  28.041  28.626  1.00  0.00     0.049 A 
ATOM     47  H   UNL A   1      40.553  28.969  30.470  1.00  0.00     0.167 HD
ATOM     48  C   UNL A   1      39.880  31.093  34.236  1.00  0.00     0.034 A 
ATOM     49  C   UNL A   1      41.974  27.321  28.714  1.00  0.00     0.034 A 
ATOM     50  C   UNL A   1      41.024  30.255  34.468  1.00  0.00     0.049 A 
ATOM     51  C   UNL A   1      42.716  27.287  30.023  1.00  0.00     0.074 A 
ATOM     52  C   UNL A   1      41.753  30.103  35.633  1.00  0.00     0.029 A 
ATOM     53  N   UNL A   1      41.599  29.424  33.520  1.00  0.00    -0.354 N 
ATOM     54  N   UNL A   1      42.407  27.871  31.157  1.00  0.00    -0.248 NA
ATOM     55  C   UNL A   1      43.939  26.474  30.079  1.00  0.00     0.031 C 
ATOM     56  C   UNL A   1      42.772  29.177  35.388  1.00  0.00     0.029 A 
ATOM     57  C   UNL A   1      42.677  28.755  34.071  1.00  0.00     0.049 A 
ATOM     58  H   UNL A   1      41.287  29.324  32.592  1.00  0.00     0.167 HD
ATOM     59  C   UNL A   1      43.380  27.474  32.067  1.00  0.00     0.074 A 
ATOM     60  C   UNL A   1      44.279  26.586  31.358  1.00  0.00     0.031 C 
ATOM     61  C   UNL A   1      43.525  27.828  33.367  1.00  0.00     0.034 A 
BRANCH  48  62
ATOM     62  C   UNL A   1      39.377  31.941  35.371  1.00  0.00     0.023 A 
ATOM     63  C   UNL A   1      38.460  31.381  36.283  1.00  0.00     0.012 A 
ATOM     64  C   UNL A   1      39.845  33.253  35.574  1.00  0.00     0.148 A 
ATOM     65  C   UNL A   1      37.997  32.121  37.370  1.00  0.00     0.002 A 
ATOM     66  C   UNL A   1      39.405  33.973  36.680  1.00  0.00     0.091 A 
ATOM     67  F   UNL A   1      40.696  33.776  34.680  1.00  0.00    -0.205 F 
ATOM     68  C   UNL A   1      38.477  33.411  37.573  1.00  0.00     0.022 A 
BRANCH  66  69
ATOM     69  S   UNL A   1      40.014  35.619  37.064  1.00  0.00     0.127 S 
ATOM     70  O   UNL A   1      41.453  35.384  37.165  1.00  0.00    -0.237 OA
ATOM     71  O   UNL A   1      39.602  36.385  35.886  1.00  0.00    -0.237 OA
ATOM     72  O   UNL A   1      39.352  36.009  38.300  1.00  0.00    -0.744 OA
ENDBRANCH  66  69
ENDBRANCH  48  62
BRANCH  49  73
ATOM     73  C   UNL A   1      42.400  26.475  27.564  1.00  0.00     0.023 A 
ATOM     74  C   UNL A   1      43.279  27.021  26.608  1.00  0.00     0.012 A 
ATOM     75  C   UNL A   1      42.005  25.128  27.442  1.00  0.00     0.148 A 
ATOM     76  C   UNL A   1      43.744  26.249  25.545  1.00  0.00     0.002 A 
ATOM     77  C   UNL A   1      42.511  24.350  26.406  1.00  0.00     0.091 A 
ATOM     78  F   UNL A   1      41.154  24.630  28.351  1.00  0.00    -0.205 F 
ATOM     79  C   UNL A   1      43.371  24.911  25.450  1.00  0.00     0.022 A 
BRANCH  77  80
ATOM     80  S   UNL A   1      42.187  22.586  26.289  1.00  0.00     0.127 S 
ATOM     81  O   UNL A   1      40.728  22.550  26.258  1.00  0.00    -0.237 OA
ATOM     82  O   UNL A   1      42.840  22.237  25.026  1.00  0.00    -0.237 OA
ATOM     83  O   UNL A   1      42.817  21.999  27.465  1.00  0.00    -0.744 OA
ENDBRANCH  77  80
ENDBRANCH  49  73
BRANCH  61  84
ATOM     84  C   UNL A   1      44.691  27.262  34.130  1.00  0.00     0.023 A 
ATOM     85  C   UNL A   1      45.892  27.995  34.189  1.00  0.00     0.012 A 
ATOM     86  C   UNL A   1      44.552  26.092  34.901  1.00  0.00     0.148 A 
ATOM     87  C   UNL A   1      46.941  27.568  35.000  1.00  0.00     0.002 A 
ATOM     88  C   UNL A   1      45.587  25.693  35.739  1.00  0.00     0.091 A 
ATOM     89  F   UNL A   1      43.404  25.403  34.816  1.00  0.00    -0.205 F 
ATOM     90  C   UNL A   1      46.784  26.428  35.785  1.00  0.00     0.022 A 
BRANCH  88  91
ATOM     91  S   UNL A   1      45.440  24.294  36.858  1.00  0.00     0.127 S 
ATOM     92  O   UNL A   1      46.802  24.183  37.375  1.00  0.00    -0.237 OA
ATOM     93  O   UNL A   1      44.456  24.775  37.828  1.00  0.00    -0.237 OA
ATOM     94  O   UNL A   1      44.988  23.175  36.042  1.00  0.00    -0.744 OA
ENDBRANCH  88  91
ENDBRANCH  61  84
ENDBRANCH  35  36
ENDBRANCH  27  30
ENDBRANCH  25  26
ENDBRANCH   1  25
TORSDOF 15
ENDMDL
