MODEL 1
REMARK VINA RESULT:     -11.2      0.000      0.000
REMARK SMILES C[C@H](COc1ccccc1C(=O)NCCCCNC(=O)c1ccc(-c2c3nc(c(-c4cccc(S(=O)(=O)[O-])c4F)c4ccc([nH]4)c(-c4cccc(S(=O)(=O)[O-])c4F)c4nc(c(-c5cccc(S(=O)(=O)[O-])c5F)c5ccc2[nH]5)C=C4)C=C3)cc1)C(N)=O
REMARK SMILES IDX 15 1 14 2 13 3 11 4 12 5 10 7 5 8 6 9 7 10 9 11 8 12 4 13
REMARK SMILES IDX 3 14 2 15 1 16 84 17 85 18 86 19 16 22 17 23 18 24 19 25
REMARK SMILES IDX 20 27 21 28 22 29 83 30 23 31 82 32 24 33 25 34 26 35 76 36
REMARK SMILES IDX 27 37 81 38 75 39 77 40 28 41 80 42 74 43 73 44 29 46 61 47
REMARK SMILES IDX 41 48 60 49 42 50 45 51 59 52 78 53 43 54 44 55 58 57 79 58
REMARK SMILES IDX 46 59 30 60 31 61 39 62 32 63 34 64 40 65 33 66 35 67 36 68
REMARK SMILES IDX 37 69 38 70 62 71 63 72 71 73 64 74 66 75 72 76 65 77 67 78
REMARK SMILES IDX 68 79 69 80 70 81 47 82 48 83 56 84 49 85 51 86 57 87 50 88
REMARK SMILES IDX 52 89 53 90 54 91 55 92
REMARK H PARENT 13 6 85 20 85 21 18 26 77 45 45 56
REMARK Flexibility Score: inf
ROOT
ATOM      1  C   UNL A   1      32.412  28.270  26.885  1.00  0.00     0.023 C 
ENDROOT
BRANCH   1   2
ATOM      2  C   UNL A   1      31.516  27.023  26.876  1.00  0.00     0.116 C 
BRANCH   2   3
ATOM      3  N   UNL A   1      32.215  25.879  26.282  1.00  0.00    -0.352 N 
ATOM      4  C   UNL A   1      32.014  24.583  26.716  1.00  0.00     0.255 C 
ATOM      5  O   UNL A   1      30.952  24.217  27.207  1.00  0.00    -0.269 OA
ATOM      6  H   UNL A   1      32.851  26.041  25.548  1.00  0.00     0.163 HD
BRANCH   4   7
ATOM      7  C   UNL A   1      33.086  23.585  26.438  1.00  0.00     0.081 A 
ATOM      8  C   UNL A   1      33.996  23.615  25.357  1.00  0.00     0.132 A 
ATOM      9  C   UNL A   1      34.989  22.629  25.252  1.00  0.00     0.047 A 
ATOM     10  C   UNL A   1      35.078  21.612  26.199  1.00  0.00     0.004 A 
ATOM     11  C   UNL A   1      33.211  22.573  27.399  1.00  0.00     0.018 A 
ATOM     12  C   UNL A   1      34.185  21.581  27.268  1.00  0.00     0.001 A 
BRANCH   8  13
ATOM     13  O   UNL A   1      33.847  24.368  24.226  1.00  0.00    -0.492 OA
BRANCH  13  14
ATOM     14  C   UNL A   1      33.286  23.715  23.072  1.00  0.00     0.242 C 
BRANCH  14  15
ATOM     15  C   UNL A   1      32.262  24.654  22.419  1.00  0.00     0.113 C 
ATOM     16  C   UNL A   1      30.943  24.518  23.176  1.00  0.00     0.022 C 
BRANCH  15  17
ATOM     17  C   UNL A   1      32.907  26.030  22.293  1.00  0.00     0.223 C 
ATOM     18  N   UNL A   1      32.414  27.053  23.034  1.00  0.00    -0.369 N 
ATOM     19  O   UNL A   1      33.775  26.274  21.455  1.00  0.00    -0.275 OA
ATOM     20  H   UNL A   1      31.718  26.882  23.710  1.00  0.00     0.159 HD
ATOM     21  H   UNL A   1      32.751  27.968  22.897  1.00  0.00     0.159 HD
ENDBRANCH  15  17
ENDBRANCH  14  15
ENDBRANCH  13  14
ENDBRANCH   8  13
ENDBRANCH   4   7
ENDBRANCH   2   3
ENDBRANCH   1   2
BRANCH   1  22
ATOM     22  C   UNL A   1      31.729  29.617  26.602  1.00  0.00     0.023 C 
BRANCH  22  23
ATOM     23  C   UNL A   1      32.586  30.792  26.122  1.00  0.00     0.116 C 
BRANCH  23  24
ATOM     24  N   UNL A   1      32.310  32.070  26.778  1.00  0.00    -0.352 N 
ATOM     25  C   UNL A   1      33.146  32.803  27.603  1.00  0.00     0.251 C 
ATOM     26  H   UNL A   1      31.421  32.457  26.612  1.00  0.00     0.163 HD
ATOM     27  O   UNL A   1      32.774  33.864  28.100  1.00  0.00    -0.269 OA
BRANCH  25  28
ATOM     28  C   UNL A   1      34.483  32.262  27.929  1.00  0.00     0.039 A 
ATOM     29  C   UNL A   1      35.578  33.130  27.969  1.00  0.00     0.014 A 
ATOM     30  C   UNL A   1      34.622  30.929  28.318  1.00  0.00     0.014 A 
ATOM     31  C   UNL A   1      36.787  32.693  28.522  1.00  0.00     0.010 A 
ATOM     32  C   UNL A   1      35.805  30.517  28.928  1.00  0.00     0.010 A 
ATOM     33  C   UNL A   1      36.890  31.401  29.064  1.00  0.00    -0.014 A 
BRANCH  33  34
ATOM     34  C   UNL A   1      38.092  30.956  29.822  1.00  0.00     0.031 A 
ATOM     35  C   UNL A   1      39.029  29.946  29.220  1.00  0.00     0.074 A 
ATOM     36  C   UNL A   1      38.267  31.353  31.101  1.00  0.00     0.049 A 
ATOM     37  N   UNL A   1      40.030  29.315  29.774  1.00  0.00    -0.248 NA
ATOM     38  C   UNL A   1      38.782  29.570  27.818  1.00  0.00     0.031 C 
ATOM     39  C   UNL A   1      37.392  32.272  31.834  1.00  0.00     0.029 A 
ATOM     40  N   UNL A   1      39.220  31.000  32.027  1.00  0.00    -0.354 N 
ATOM     41  C   UNL A   1      40.500  28.429  28.810  1.00  0.00     0.074 A 
ATOM     42  C   UNL A   1      39.656  28.589  27.646  1.00  0.00     0.031 C 
ATOM     43  C   UNL A   1      37.846  32.407  33.091  1.00  0.00     0.029 A 
ATOM     44  C   UNL A   1      39.023  31.561  33.269  1.00  0.00     0.049 A 
ATOM     45  H   UNL A   1      39.974  30.403  31.821  1.00  0.00     0.167 HD
ATOM     46  C   UNL A   1      41.553  27.581  28.877  1.00  0.00     0.034 A 
ATOM     47  C   UNL A   1      39.702  31.406  34.424  1.00  0.00     0.034 A 
ATOM     48  C   UNL A   1      42.430  27.470  30.009  1.00  0.00     0.049 A 
ATOM     49  C   UNL A   1      40.908  30.503  34.451  1.00  0.00     0.074 A 
ATOM     50  C   UNL A   1      43.574  26.703  30.138  1.00  0.00     0.029 A 
ATOM     51  N   UNL A   1      42.266  28.151  31.205  1.00  0.00    -0.354 N 
ATOM     52  N   UNL A   1      41.419  29.782  33.483  1.00  0.00    -0.248 NA
ATOM     53  C   UNL A   1      41.652  30.420  35.717  1.00  0.00     0.031 C 
ATOM     54  C   UNL A   1      44.099  26.915  31.417  1.00  0.00     0.029 A 
ATOM     55  C   UNL A   1      43.292  27.827  32.076  1.00  0.00     0.049 A 
ATOM     56  H   UNL A   1      41.530  28.771  31.406  1.00  0.00     0.167 HD
ATOM     57  C   UNL A   1      42.568  29.200  34.006  1.00  0.00     0.074 A 
ATOM     58  C   UNL A   1      42.684  29.658  35.375  1.00  0.00     0.031 C 
ATOM     59  C   UNL A   1      43.441  28.354  33.408  1.00  0.00     0.034 A 
BRANCH  46  60
ATOM     60  C   UNL A   1      41.852  26.746  27.659  1.00  0.00     0.023 A 
ATOM     61  C   UNL A   1      42.463  27.349  26.540  1.00  0.00     0.012 A 
ATOM     62  C   UNL A   1      41.578  25.365  27.638  1.00  0.00     0.148 A 
ATOM     63  C   UNL A   1      42.758  26.599  25.403  1.00  0.00     0.002 A 
ATOM     64  C   UNL A   1      41.917  24.615  26.518  1.00  0.00     0.091 A 
ATOM     65  F   UNL A   1      40.979  24.814  28.703  1.00  0.00    -0.205 F 
ATOM     66  C   UNL A   1      42.494  25.232  25.395  1.00  0.00     0.022 A 
BRANCH  64  67
ATOM     67  S   UNL A   1      41.692  22.834  26.444  1.00  0.00     0.127 S 
ATOM     68  O   UNL A   1      42.350  22.402  27.676  1.00  0.00    -0.237 OA
ATOM     69  O   UNL A   1      40.235  22.706  26.454  1.00  0.00    -0.237 OA
ATOM     70  O   UNL A   1      42.329  22.403  25.207  1.00  0.00    -0.744 OA
ENDBRANCH  64  67
ENDBRANCH  46  60
BRANCH  47  71
ATOM     71  C   UNL A   1      39.308  32.182  35.635  1.00  0.00     0.023 A 
ATOM     72  C   UNL A   1      39.748  33.514  35.769  1.00  0.00     0.012 A 
ATOM     73  C   UNL A   1      38.489  31.627  36.638  1.00  0.00     0.148 A 
ATOM     74  C   UNL A   1      39.410  34.268  36.894  1.00  0.00     0.002 A 
ATOM     75  C   UNL A   1      38.113  32.401  37.731  1.00  0.00     0.091 A 
ATOM     76  F   UNL A   1      38.090  30.355  36.501  1.00  0.00    -0.205 F 
ATOM     77  C   UNL A   1      38.585  33.715  37.870  1.00  0.00     0.022 A 
BRANCH  75  78
ATOM     78  S   UNL A   1      36.950  31.815  38.970  1.00  0.00     0.127 S 
ATOM     79  O   UNL A   1      35.741  32.555  38.619  1.00  0.00    -0.237 OA
ATOM     80  O   UNL A   1      36.899  30.381  38.684  1.00  0.00    -0.237 OA
ATOM     81  O   UNL A   1      37.548  32.147  40.256  1.00  0.00    -0.744 OA
ENDBRANCH  75  78
ENDBRANCH  47  71
BRANCH  59  82
ATOM     82  C   UNL A   1      44.645  27.904  34.193  1.00  0.00     0.023 A 
ATOM     83  C   UNL A   1      45.814  28.687  34.200  1.00  0.00     0.012 A 
ATOM     84  C   UNL A   1      44.570  26.760  35.015  1.00  0.00     0.148 A 
ATOM     85  C   UNL A   1      46.898  28.332  35.001  1.00  0.00     0.002 A 
ATOM     86  C   UNL A   1      45.637  26.438  35.844  1.00  0.00     0.091 A 
ATOM     87  F   UNL A   1      43.454  26.017  34.977  1.00  0.00    -0.205 F 
ATOM     88  C   UNL A   1      46.805  27.217  35.833  1.00  0.00     0.022 A 
BRANCH  86  89
ATOM     89  S   UNL A   1      45.567  25.080  37.020  1.00  0.00     0.127 S 
ATOM     90  O   UNL A   1      44.271  25.306  37.658  1.00  0.00    -0.237 OA
ATOM     91  O   UNL A   1      45.621  23.908  36.146  1.00  0.00    -0.237 OA
ATOM     92  O   UNL A   1      46.726  25.240  37.888  1.00  0.00    -0.744 OA
ENDBRANCH  86  89
ENDBRANCH  59  82
ENDBRANCH  33  34
ENDBRANCH  25  28
ENDBRANCH  23  24
ENDBRANCH  22  23
ENDBRANCH   1  22
TORSDOF 18
ENDMDL
MODEL 2
REMARK VINA RESULT:     -11.1      5.310      7.875
REMARK SMILES C[C@H](COc1ccccc1C(=O)NCCCCNC(=O)c1ccc(-c2c3nc(c(-c4cccc(S(=O)(=O)[O-])c4F)c4ccc([nH]4)c(-c4cccc(S(=O)(=O)[O-])c4F)c4nc(c(-c5cccc(S(=O)(=O)[O-])c5F)c5ccc2[nH]5)C=C4)C=C3)cc1)C(N)=O
REMARK SMILES IDX 15 1 14 2 13 3 11 4 12 5 10 7 5 8 6 9 7 10 9 11 8 12 4 13
REMARK SMILES IDX 3 14 2 15 1 16 84 17 85 18 86 19 16 22 17 23 18 24 19 25
REMARK SMILES IDX 20 27 21 28 22 29 83 30 23 31 82 32 24 33 25 34 26 35 76 36
REMARK SMILES IDX 27 37 81 38 75 39 77 40 28 41 80 42 74 43 73 44 29 46 61 47
REMARK SMILES IDX 41 48 60 49 42 50 45 51 59 52 78 53 43 54 44 55 58 57 79 58
REMARK SMILES IDX 46 59 30 60 31 61 39 62 32 63 34 64 40 65 33 66 35 67 36 68
REMARK SMILES IDX 37 69 38 70 62 71 63 72 71 73 64 74 66 75 72 76 65 77 67 78
REMARK SMILES IDX 68 79 69 80 70 81 47 82 48 83 56 84 49 85 51 86 57 87 50 88
REMARK SMILES IDX 52 89 53 90 54 91 55 92
REMARK H PARENT 13 6 85 20 85 21 18 26 77 45 45 56
REMARK Flexibility Score: inf
ROOT
ATOM      1  C   UNL A   1      36.097  23.303  23.549  1.00  0.00     0.023 C 
ENDROOT
BRANCH   1   2
ATOM      2  C   UNL A   1      34.618  23.673  23.369  1.00  0.00     0.116 C 
BRANCH   2   3
ATOM      3  N   UNL A   1      34.315  24.953  24.018  1.00  0.00    -0.352 N 
ATOM      4  C   UNL A   1      33.800  25.030  25.297  1.00  0.00     0.255 C 
ATOM      5  O   UNL A   1      34.027  24.174  26.144  1.00  0.00    -0.269 OA
ATOM      6  H   UNL A   1      34.485  25.787  23.523  1.00  0.00     0.163 HD
BRANCH   4   7
ATOM      7  C   UNL A   1      33.067  26.272  25.675  1.00  0.00     0.081 A 
ATOM      8  C   UNL A   1      31.679  26.499  25.537  1.00  0.00     0.132 A 
ATOM      9  C   UNL A   1      31.120  27.705  25.986  1.00  0.00     0.047 A 
ATOM     10  C   UNL A   1      31.924  28.688  26.559  1.00  0.00     0.004 A 
ATOM     11  C   UNL A   1      33.856  27.258  26.283  1.00  0.00     0.018 A 
ATOM     12  C   UNL A   1      33.292  28.466  26.700  1.00  0.00     0.001 A 
BRANCH   8  13
ATOM     13  O   UNL A   1      30.839  25.762  24.750  1.00  0.00    -0.492 OA
BRANCH  13  14
ATOM     14  C   UNL A   1      30.195  26.443  23.658  1.00  0.00     0.242 C 
BRANCH  14  15
ATOM     15  C   UNL A   1      31.267  27.126  22.797  1.00  0.00     0.113 C 
ATOM     16  C   UNL A   1      31.777  26.108  21.779  1.00  0.00     0.022 C 
BRANCH  15  17
ATOM     17  C   UNL A   1      30.692  28.448  22.300  1.00  0.00     0.223 C 
ATOM     18  N   UNL A   1      31.544  29.455  21.989  1.00  0.00    -0.369 N 
ATOM     19  O   UNL A   1      29.482  28.675  22.289  1.00  0.00    -0.275 OA
ATOM     20  H   UNL A   1      32.517  29.297  21.992  1.00  0.00     0.159 HD
ATOM     21  H   UNL A   1      31.192  30.346  21.759  1.00  0.00     0.159 HD
ENDBRANCH  15  17
ENDBRANCH  14  15
ENDBRANCH  13  14
ENDBRANCH   8  13
ENDBRANCH   4   7
ENDBRANCH   2   3
ENDBRANCH   1   2
BRANCH   1  22
ATOM     22  C   UNL A   1      36.399  21.905  24.112  1.00  0.00     0.023 C 
BRANCH  22  23
ATOM     23  C   UNL A   1      37.042  21.792  25.498  1.00  0.00     0.116 C 
BRANCH  23  24
ATOM     24  N   UNL A   1      38.190  20.887  25.576  1.00  0.00    -0.352 N 
ATOM     25  C   UNL A   1      39.428  21.128  26.148  1.00  0.00     0.251 C 
ATOM     26  H   UNL A   1      38.067  19.998  25.172  1.00  0.00     0.163 HD
ATOM     27  O   UNL A   1      40.311  20.273  26.130  1.00  0.00    -0.269 OA
BRANCH  25  28
ATOM     28  C   UNL A   1      39.696  22.457  26.738  1.00  0.00     0.039 A 
ATOM     29  C   UNL A   1      40.679  22.578  27.725  1.00  0.00     0.014 A 
ATOM     30  C   UNL A   1      39.069  23.591  26.221  1.00  0.00     0.014 A 
ATOM     31  C   UNL A   1      41.124  23.849  28.105  1.00  0.00     0.010 A 
ATOM     32  C   UNL A   1      39.561  24.852  26.552  1.00  0.00     0.010 A 
ATOM     33  C   UNL A   1      40.613  24.994  27.474  1.00  0.00    -0.014 A 
BRANCH  33  34
ATOM     34  C   UNL A   1      41.183  26.349  27.713  1.00  0.00     0.031 A 
ATOM     35  C   UNL A   1      42.594  26.655  27.290  1.00  0.00     0.074 A 
ATOM     36  C   UNL A   1      40.487  27.258  28.428  1.00  0.00     0.049 A 
ATOM     37  N   UNL A   1      43.324  27.708  27.549  1.00  0.00    -0.248 NA
ATOM     38  C   UNL A   1      43.287  25.621  26.504  1.00  0.00     0.031 C 
ATOM     39  C   UNL A   1      39.137  27.065  28.963  1.00  0.00     0.029 A 
ATOM     40  N   UNL A   1      40.836  28.514  28.865  1.00  0.00    -0.354 N 
ATOM     41  C   UNL A   1      44.576  27.443  27.006  1.00  0.00     0.074 A 
ATOM     42  C   UNL A   1      44.512  26.120  26.426  1.00  0.00     0.031 C 
ATOM     43  C   UNL A   1      38.775  28.158  29.656  1.00  0.00     0.029 A 
ATOM     44  C   UNL A   1      39.876  29.117  29.646  1.00  0.00     0.049 A 
ATOM     45  H   UNL A   1      41.692  28.943  28.640  1.00  0.00     0.167 HD
ATOM     46  C   UNL A   1      45.671  28.239  26.968  1.00  0.00     0.034 A 
ATOM     47  C   UNL A   1      39.881  30.302  30.292  1.00  0.00     0.034 A 
ATOM     48  C   UNL A   1      45.715  29.578  27.486  1.00  0.00     0.049 A 
ATOM     49  C   UNL A   1      41.091  31.193  30.180  1.00  0.00     0.074 A 
ATOM     50  C   UNL A   1      46.750  30.493  27.417  1.00  0.00     0.029 A 
ATOM     51  N   UNL A   1      44.676  30.198  28.162  1.00  0.00    -0.354 N 
ATOM     52  N   UNL A   1      42.214  30.981  29.538  1.00  0.00    -0.248 NA
ATOM     53  C   UNL A   1      41.021  32.502  30.847  1.00  0.00     0.031 C 
ATOM     54  C   UNL A   1      46.339  31.666  28.060  1.00  0.00     0.029 A 
ATOM     55  C   UNL A   1      45.042  31.486  28.511  1.00  0.00     0.049 A 
ATOM     56  H   UNL A   1      43.807  29.783  28.365  1.00  0.00     0.167 HD
ATOM     57  C   UNL A   1      42.962  32.143  29.684  1.00  0.00     0.074 A 
ATOM     58  C   UNL A   1      42.163  33.061  30.468  1.00  0.00     0.031 C 
ATOM     59  C   UNL A   1      44.205  32.419  29.220  1.00  0.00     0.034 A 
BRANCH  46  60
ATOM     60  C   UNL A   1      46.900  27.699  26.285  1.00  0.00     0.023 A 
ATOM     61  C   UNL A   1      47.799  26.892  27.014  1.00  0.00     0.012 A 
ATOM     62  C   UNL A   1      47.142  27.943  24.920  1.00  0.00     0.148 A 
ATOM     63  C   UNL A   1      48.940  26.372  26.406  1.00  0.00     0.002 A 
ATOM     64  C   UNL A   1      48.258  27.383  24.309  1.00  0.00     0.091 A 
ATOM     65  F   UNL A   1      46.288  28.729  24.248  1.00  0.00    -0.205 F 
ATOM     66  C   UNL A   1      49.165  26.610  25.052  1.00  0.00     0.022 A 
BRANCH  64  67
ATOM     67  S   UNL A   1      48.591  27.564  22.553  1.00  0.00     0.127 S 
ATOM     68  O   UNL A   1      49.858  28.294  22.566  1.00  0.00    -0.237 OA
ATOM     69  O   UNL A   1      48.694  26.173  22.112  1.00  0.00    -0.237 OA
ATOM     70  O   UNL A   1      47.453  28.289  22.004  1.00  0.00    -0.744 OA
ENDBRANCH  64  67
ENDBRANCH  46  60
BRANCH  47  71
ATOM     71  C   UNL A   1      38.673  30.753  31.040  1.00  0.00     0.023 A 
ATOM     72  C   UNL A   1      38.610  30.544  32.432  1.00  0.00     0.012 A 
ATOM     73  C   UNL A   1      37.601  31.402  30.396  1.00  0.00     0.148 A 
ATOM     74  C   UNL A   1      37.490  30.940  33.164  1.00  0.00     0.002 A 
ATOM     75  C   UNL A   1      36.511  31.841  31.140  1.00  0.00     0.091 A 
ATOM     76  F   UNL A   1      37.671  31.581  29.070  1.00  0.00    -0.205 F 
ATOM     77  C   UNL A   1      36.445  31.597  32.521  1.00  0.00     0.022 A 
BRANCH  75  78
ATOM     78  S   UNL A   1      35.181  32.810  30.417  1.00  0.00     0.127 S 
ATOM     79  O   UNL A   1      35.895  33.993  29.944  1.00  0.00    -0.237 OA
ATOM     80  O   UNL A   1      34.696  31.920  29.362  1.00  0.00    -0.237 OA
ATOM     81  O   UNL A   1      34.227  33.032  31.496  1.00  0.00    -0.744 OA
ENDBRANCH  75  78
ENDBRANCH  47  71
BRANCH  59  82
ATOM     82  C   UNL A   1      44.773  33.789  29.480  1.00  0.00     0.023 A 
ATOM     83  C   UNL A   1      45.585  34.013  30.607  1.00  0.00     0.012 A 
ATOM     84  C   UNL A   1      44.591  34.824  28.539  1.00  0.00     0.148 A 
ATOM     85  C   UNL A   1      46.196  35.250  30.804  1.00  0.00     0.002 A 
ATOM     86  C   UNL A   1      45.239  36.039  28.718  1.00  0.00     0.091 A 
ATOM     87  F   UNL A   1      43.796  34.596  27.483  1.00  0.00    -0.205 F 
ATOM     88  C   UNL A   1      46.035  36.257  29.854  1.00  0.00     0.022 A 
BRANCH  86  89
ATOM     89  S   UNL A   1      45.170  37.357  27.498  1.00  0.00     0.127 S 
ATOM     90  O   UNL A   1      45.726  38.483  28.245  1.00  0.00    -0.237 OA
ATOM     91  O   UNL A   1      46.035  36.843  26.436  1.00  0.00    -0.237 OA
ATOM     92  O   UNL A   1      43.768  37.486  27.125  1.00  0.00    -0.744 OA
ENDBRANCH  86  89
ENDBRANCH  59  82
ENDBRANCH  33  34
ENDBRANCH  25  28
ENDBRANCH  23  24
ENDBRANCH  22  23
ENDBRANCH   1  22
TORSDOF 18
ENDMDL
MODEL 3
REMARK VINA RESULT:     -11.1      1.984      7.997
REMARK SMILES C[C@H](COc1ccccc1C(=O)NCCCCNC(=O)c1ccc(-c2c3nc(c(-c4cccc(S(=O)(=O)[O-])c4F)c4ccc([nH]4)c(-c4cccc(S(=O)(=O)[O-])c4F)c4nc(c(-c5cccc(S(=O)(=O)[O-])c5F)c5ccc2[nH]5)C=C4)C=C3)cc1)C(N)=O
REMARK SMILES IDX 15 1 14 2 13 3 11 4 12 5 10 7 5 8 6 9 7 10 9 11 8 12 4 13
REMARK SMILES IDX 3 14 2 15 1 16 84 17 85 18 86 19 16 22 17 23 18 24 19 25
REMARK SMILES IDX 20 27 21 28 22 29 83 30 23 31 82 32 24 33 25 34 26 35 76 36
REMARK SMILES IDX 27 37 81 38 75 39 77 40 28 41 80 42 74 43 73 44 29 46 61 47
REMARK SMILES IDX 41 48 60 49 42 50 45 51 59 52 78 53 43 54 44 55 58 57 79 58
REMARK SMILES IDX 46 59 30 60 31 61 39 62 32 63 34 64 40 65 33 66 35 67 36 68
REMARK SMILES IDX 37 69 38 70 62 71 63 72 71 73 64 74 66 75 72 76 65 77 67 78
REMARK SMILES IDX 68 79 69 80 70 81 47 82 48 83 56 84 49 85 51 86 57 87 50 88
REMARK SMILES IDX 52 89 53 90 54 91 55 92
REMARK H PARENT 13 6 85 20 85 21 18 26 77 45 45 56
REMARK Flexibility Score: inf
ROOT
ATOM      1  C   UNL A   1      31.842  30.434  26.872  1.00  0.00     0.023 C 
ENDROOT
BRANCH   1   2
ATOM      2  C   UNL A   1      33.137  30.069  26.131  1.00  0.00     0.116 C 
BRANCH   2   3
ATOM      3  N   UNL A   1      32.956  28.858  25.325  1.00  0.00    -0.352 N 
ATOM      4  C   UNL A   1      33.255  27.599  25.805  1.00  0.00     0.255 C 
ATOM      5  O   UNL A   1      33.189  27.323  26.998  1.00  0.00    -0.269 OA
ATOM      6  H   UNL A   1      32.609  28.947  24.407  1.00  0.00     0.163 HD
BRANCH   4   7
ATOM      7  C   UNL A   1      33.527  26.523  24.809  1.00  0.00     0.081 A 
ATOM      8  C   UNL A   1      33.272  26.586  23.420  1.00  0.00     0.132 A 
ATOM      9  C   UNL A   1      33.630  25.509  22.595  1.00  0.00     0.047 A 
ATOM     10  C   UNL A   1      34.223  24.371  23.134  1.00  0.00     0.004 A 
ATOM     11  C   UNL A   1      34.155  25.384  25.330  1.00  0.00     0.018 A 
ATOM     12  C   UNL A   1      34.479  24.306  24.502  1.00  0.00     0.001 A 
BRANCH   8  13
ATOM     13  O   UNL A   1      32.454  27.496  22.813  1.00  0.00    -0.492 OA
BRANCH  13  14
ATOM     14  C   UNL A   1      31.299  26.984  22.123  1.00  0.00     0.242 C 
BRANCH  14  15
ATOM     15  C   UNL A   1      30.039  27.634  22.711  1.00  0.00     0.113 C 
ATOM     16  C   UNL A   1      29.846  27.099  24.128  1.00  0.00     0.022 C 
BRANCH  15  17
ATOM     17  C   UNL A   1      30.149  29.140  22.495  1.00  0.00     0.223 C 
ATOM     18  N   UNL A   1      30.324  29.943  23.574  1.00  0.00    -0.369 N 
ATOM     19  O   UNL A   1      29.962  29.661  21.395  1.00  0.00    -0.275 OA
ATOM     20  H   UNL A   1      30.474  29.549  24.463  1.00  0.00     0.159 HD
ATOM     21  H   UNL A   1      30.300  30.922  23.468  1.00  0.00     0.159 HD
ENDBRANCH  15  17
ENDBRANCH  14  15
ENDBRANCH  13  14
ENDBRANCH   8  13
ENDBRANCH   4   7
ENDBRANCH   2   3
ENDBRANCH   1   2
BRANCH   1  22
ATOM     22  C   UNL A   1      31.349  31.884  26.734  1.00  0.00     0.023 C 
BRANCH  22  23
ATOM     23  C   UNL A   1      32.382  32.998  26.545  1.00  0.00     0.116 C 
BRANCH  23  24
ATOM     24  N   UNL A   1      32.287  34.100  27.504  1.00  0.00    -0.352 N 
ATOM     25  C   UNL A   1      33.155  34.408  28.538  1.00  0.00     0.251 C 
ATOM     26  H   UNL A   1      31.511  34.697  27.401  1.00  0.00     0.163 HD
ATOM     27  O   UNL A   1      32.942  35.364  29.280  1.00  0.00    -0.269 OA
BRANCH  25  28
ATOM     28  C   UNL A   1      34.321  33.531  28.777  1.00  0.00     0.039 A 
ATOM     29  C   UNL A   1      35.609  34.068  28.682  1.00  0.00     0.014 A 
ATOM     30  C   UNL A   1      34.132  32.220  29.219  1.00  0.00     0.014 A 
ATOM     31  C   UNL A   1      36.701  33.332  29.153  1.00  0.00     0.010 A 
ATOM     32  C   UNL A   1      35.213  31.518  29.748  1.00  0.00     0.010 A 
ATOM     33  C   UNL A   1      36.503  32.076  29.748  1.00  0.00    -0.014 A 
BRANCH  33  34
ATOM     34  C   UNL A   1      37.607  31.339  30.425  1.00  0.00     0.031 A 
ATOM     35  C   UNL A   1      37.937  31.635  31.862  1.00  0.00     0.074 A 
ATOM     36  C   UNL A   1      38.399  30.508  29.714  1.00  0.00     0.049 A 
ATOM     37  N   UNL A   1      38.951  31.226  32.578  1.00  0.00    -0.248 NA
ATOM     38  C   UNL A   1      37.023  32.541  32.577  1.00  0.00     0.031 C 
ATOM     39  C   UNL A   1      38.237  30.189  28.293  1.00  0.00     0.029 A 
ATOM     40  N   UNL A   1      39.525  29.811  30.080  1.00  0.00    -0.354 N 
ATOM     41  C   UNL A   1      38.829  31.865  33.807  1.00  0.00     0.074 A 
ATOM     42  C   UNL A   1      37.655  32.707  33.729  1.00  0.00     0.031 C 
ATOM     43  C   UNL A   1      39.226  29.364  27.910  1.00  0.00     0.029 A 
ATOM     44  C   UNL A   1      40.113  29.121  29.044  1.00  0.00     0.049 A 
ATOM     45  H   UNL A   1      39.879  29.804  30.998  1.00  0.00     0.167 HD
ATOM     46  C   UNL A   1      39.605  31.741  34.909  1.00  0.00     0.034 A 
ATOM     47  C   UNL A   1      41.243  28.384  29.004  1.00  0.00     0.034 A 
ATOM     48  C   UNL A   1      40.732  30.856  35.008  1.00  0.00     0.049 A 
ATOM     49  C   UNL A   1      42.053  28.214  30.262  1.00  0.00     0.074 A 
ATOM     50  C   UNL A   1      41.528  30.596  36.110  1.00  0.00     0.029 A 
ATOM     51  N   UNL A   1      41.220  30.078  33.970  1.00  0.00    -0.354 N 
ATOM     52  N   UNL A   1      41.838  28.715  31.455  1.00  0.00    -0.248 NA
ATOM     53  C   UNL A   1      43.239  27.348  30.182  1.00  0.00     0.031 C 
ATOM     54  C   UNL A   1      42.503  29.666  35.735  1.00  0.00     0.029 A 
ATOM     55  C   UNL A   1      42.302  29.334  34.406  1.00  0.00     0.049 A 
ATOM     56  H   UNL A   1      40.853  30.060  33.057  1.00  0.00     0.167 HD
ATOM     57  C   UNL A   1      42.829  28.189  32.274  1.00  0.00     0.074 A 
ATOM     58  C   UNL A   1      43.643  27.323  31.446  1.00  0.00     0.031 C 
ATOM     59  C   UNL A   1      43.052  28.413  33.592  1.00  0.00     0.034 A 
BRANCH  46  60
ATOM     60  C   UNL A   1      39.221  32.544  36.124  1.00  0.00     0.023 A 
ATOM     61  C   UNL A   1      38.315  31.997  37.057  1.00  0.00     0.012 A 
ATOM     62  C   UNL A   1      39.788  33.809  36.371  1.00  0.00     0.148 A 
ATOM     63  C   UNL A   1      37.948  32.714  38.194  1.00  0.00     0.002 A 
ATOM     64  C   UNL A   1      39.451  34.498  37.531  1.00  0.00     0.091 A 
ATOM     65  F   UNL A   1      40.632  34.321  35.464  1.00  0.00    -0.205 F 
ATOM     66  C   UNL A   1      38.522  33.959  38.436  1.00  0.00     0.022 A 
BRANCH  64  67
ATOM     67  S   UNL A   1      40.199  36.071  37.971  1.00  0.00     0.127 S 
ATOM     68  O   UNL A   1      41.596  35.687  38.173  1.00  0.00    -0.237 OA
ATOM     69  O   UNL A   1      39.957  36.875  36.773  1.00  0.00    -0.237 OA
ATOM     70  O   UNL A   1      39.494  36.529  39.160  1.00  0.00    -0.744 OA
ENDBRANCH  64  67
ENDBRANCH  46  60
BRANCH  47  71
ATOM     71  C   UNL A   1      41.637  27.685  27.747  1.00  0.00     0.023 A 
ATOM     72  C   UNL A   1      42.092  28.447  26.652  1.00  0.00     0.012 A 
ATOM     73  C   UNL A   1      41.588  26.283  27.631  1.00  0.00     0.148 A 
ATOM     74  C   UNL A   1      42.458  27.830  25.456  1.00  0.00     0.002 A 
ATOM     75  C   UNL A   1      42.003  25.670  26.453  1.00  0.00     0.091 A 
ATOM     76  F   UNL A   1      41.140  25.574  28.677  1.00  0.00    -0.205 F 
ATOM     77  C   UNL A   1      42.423  26.442  25.359  1.00  0.00     0.022 A 
BRANCH  75  78
ATOM     78  S   UNL A   1      42.114  23.884  26.285  1.00  0.00     0.127 S 
ATOM     79  O   UNL A   1      40.709  23.491  26.335  1.00  0.00    -0.237 OA
ATOM     80  O   UNL A   1      42.748  23.741  24.973  1.00  0.00    -0.237 OA
ATOM     81  O   UNL A   1      42.940  23.437  27.399  1.00  0.00    -0.744 OA
ENDBRANCH  75  78
ENDBRANCH  47  71
BRANCH  59  82
ATOM     82  C   UNL A   1      44.180  27.670  34.259  1.00  0.00     0.023 A 
ATOM     83  C   UNL A   1      45.472  28.228  34.287  1.00  0.00     0.012 A 
ATOM     84  C   UNL A   1      43.925  26.471  34.956  1.00  0.00     0.148 A 
ATOM     85  C   UNL A   1      46.499  27.596  34.986  1.00  0.00     0.002 A 
ATOM     86  C   UNL A   1      44.943  25.872  35.688  1.00  0.00     0.091 A 
ATOM     87  F   UNL A   1      42.692  25.946  34.899  1.00  0.00    -0.205 F 
ATOM     88  C   UNL A   1      46.232  26.428  35.697  1.00  0.00     0.022 A 
BRANCH  86  89
ATOM     89  S   UNL A   1      44.666  24.422  36.714  1.00  0.00     0.127 S 
ATOM     90  O   UNL A   1      43.715  24.933  37.700  1.00  0.00    -0.237 OA
ATOM     91  O   UNL A   1      44.102  23.468  35.760  1.00  0.00    -0.237 OA
ATOM     92  O   UNL A   1      45.971  24.048  37.242  1.00  0.00    -0.744 OA
ENDBRANCH  86  89
ENDBRANCH  59  82
ENDBRANCH  33  34
ENDBRANCH  25  28
ENDBRANCH  23  24
ENDBRANCH  22  23
ENDBRANCH   1  22
TORSDOF 18
ENDMDL
