MODEL 1
REMARK VINA RESULT:     -11.8      0.000      0.000
REMARK SMILES COc1cccc(C(=O)N[C@H]2C=C[C@@H](C(=O)NCCCCNC(=O)c3ccc(-c4c5nc(c(-c6cccc(S(=O)(=O)[O-])c6F)c6ccc([nH]6)c(-c6cccc(S(=O)(=O)[O-])c6F)c6nc(c(-c7cccc(S(=O)(=O)[O-])c7F)c7ccc4[nH]7)C=C6)C=C5)cc3)C2)c1
REMARK SMILES IDX 19 1 18 2 17 3 15 4 16 5 14 7 11 8 12 9 88 10 13 11 10 12
REMARK SMILES IDX 8 13 9 14 7 16 3 17 4 18 89 19 5 20 6 21 2 22 1 23 20 24
REMARK SMILES IDX 21 25 22 26 23 27 24 29 25 30 26 31 87 32 27 33 86 34 28 35
REMARK SMILES IDX 29 36 30 37 80 38 31 39 85 40 79 41 81 42 32 43 84 44 78 45
REMARK SMILES IDX 77 46 33 48 65 49 45 50 64 51 46 52 49 53 63 54 82 55 47 56
REMARK SMILES IDX 48 57 62 59 83 60 50 61 34 62 35 63 43 64 36 65 38 66 44 67
REMARK SMILES IDX 37 68 39 69 40 70 41 71 42 72 66 73 67 74 75 75 68 76 70 77
REMARK SMILES IDX 76 78 69 79 71 80 72 81 73 82 74 83 51 84 52 85 60 86 53 87
REMARK SMILES IDX 55 88 61 89 54 90 56 91 57 92 58 93 59 94
REMARK H PARENT 17 6 10 15 22 28 81 47 49 58
REMARK Flexibility Score: inf
ROOT
ATOM      1  C   UNL A   1      35.304  23.311  23.796  1.00  0.00     0.023 C 
ENDROOT
BRANCH   1   2
ATOM      2  C   UNL A   1      33.984  22.743  23.282  1.00  0.00     0.116 C 
BRANCH   2   3
ATOM      3  N   UNL A   1      33.200  23.769  22.624  1.00  0.00    -0.356 N 
ATOM      4  C   UNL A   1      32.194  24.550  23.099  1.00  0.00     0.227 C 
ATOM      5  O   UNL A   1      31.655  25.339  22.318  1.00  0.00    -0.274 OA
ATOM      6  H   UNL A   1      33.434  23.924  21.680  1.00  0.00     0.163 HD
BRANCH   4   7
ATOM      7  C   UNL A   1      31.776  24.529  24.563  1.00  0.00     0.103 C 
ATOM      8  C   UNL A   1      31.461  25.838  26.567  1.00  0.00     0.106 C 
ATOM      9  C   UNL A   1      30.186  25.722  25.784  1.00  0.00    -0.006 C 
ATOM     10  C   UNL A   1      32.521  25.465  25.528  1.00  0.00     0.047 C 
ATOM     11  C   UNL A   1      30.342  24.945  24.709  1.00  0.00    -0.016 C 
BRANCH   8  12
ATOM     12  N   UNL A   1      31.525  27.154  27.143  1.00  0.00    -0.346 N 
ATOM     13  C   UNL A   1      31.741  28.381  26.546  1.00  0.00     0.251 C 
ATOM     14  O   UNL A   1      31.759  29.364  27.289  1.00  0.00    -0.269 OA
ATOM     15  H   UNL A   1      31.394  27.184  28.118  1.00  0.00     0.164 HD
BRANCH  13  16
ATOM     16  C   UNL A   1      31.938  28.593  25.066  1.00  0.00     0.043 A 
ATOM     17  C   UNL A   1      31.156  28.914  22.763  1.00  0.00     0.119 A 
ATOM     18  C   UNL A   1      32.464  29.040  22.322  1.00  0.00     0.046 A 
ATOM     19  C   UNL A   1      30.920  28.646  24.110  1.00  0.00     0.060 A 
ATOM     20  C   UNL A   1      33.515  28.947  23.236  1.00  0.00     0.005 A 
ATOM     21  C   UNL A   1      33.253  28.738  24.598  1.00  0.00     0.014 A 
BRANCH  17  22
ATOM     22  O   UNL A   1      30.168  29.036  21.822  1.00  0.00    -0.497 OA
ATOM     23  C   UNL A   1      29.265  30.131  22.005  1.00  0.00     0.278 C 
ENDBRANCH  17  22
ENDBRANCH  13  16
ENDBRANCH   8  12
ENDBRANCH   4   7
ENDBRANCH   2   3
ENDBRANCH   1   2
BRANCH   1  24
ATOM     24  C   UNL A   1      36.395  22.262  23.986  1.00  0.00     0.023 C 
BRANCH  24  25
ATOM     25  C   UNL A   1      36.812  22.039  25.432  1.00  0.00     0.116 C 
BRANCH  25  26
ATOM     26  N   UNL A   1      37.806  20.984  25.579  1.00  0.00    -0.352 N 
ATOM     27  C   UNL A   1      39.095  21.097  26.040  1.00  0.00     0.251 C 
ATOM     28  H   UNL A   1      37.519  20.080  25.317  1.00  0.00     0.163 HD
ATOM     29  O   UNL A   1      39.865  20.143  25.991  1.00  0.00    -0.269 OA
BRANCH  27  30
ATOM     30  C   UNL A   1      39.542  22.402  26.561  1.00  0.00     0.039 A 
ATOM     31  C   UNL A   1      40.551  22.437  27.526  1.00  0.00     0.014 A 
ATOM     32  C   UNL A   1      39.022  23.583  26.024  1.00  0.00     0.014 A 
ATOM     33  C   UNL A   1      41.087  23.667  27.907  1.00  0.00     0.010 A 
ATOM     34  C   UNL A   1      39.614  24.797  26.345  1.00  0.00     0.010 A 
ATOM     35  C   UNL A   1      40.649  24.852  27.293  1.00  0.00    -0.014 A 
BRANCH  35  36
ATOM     36  C   UNL A   1      41.259  26.164  27.619  1.00  0.00     0.031 A 
ATOM     37  C   UNL A   1      42.682  26.447  27.222  1.00  0.00     0.074 A 
ATOM     38  C   UNL A   1      40.568  27.056  28.356  1.00  0.00     0.049 A 
ATOM     39  N   UNL A   1      43.412  27.501  27.475  1.00  0.00    -0.248 NA
ATOM     40  C   UNL A   1      43.388  25.395  26.470  1.00  0.00     0.031 C 
ATOM     41  C   UNL A   1      39.213  26.858  28.878  1.00  0.00     0.029 A 
ATOM     42  N   UNL A   1      40.921  28.298  28.821  1.00  0.00    -0.354 N 
ATOM     43  C   UNL A   1      44.671  27.222  26.955  1.00  0.00     0.074 A 
ATOM     44  C   UNL A   1      44.616  25.889  26.400  1.00  0.00     0.031 C 
ATOM     45  C   UNL A   1      38.850  27.940  29.585  1.00  0.00     0.029 A 
ATOM     46  C   UNL A   1      39.950  28.898  29.590  1.00  0.00     0.049 A 
ATOM     47  H   UNL A   1      41.789  28.719  28.624  1.00  0.00     0.167 HD
ATOM     48  C   UNL A   1      45.764  28.019  26.914  1.00  0.00     0.034 A 
ATOM     49  C   UNL A   1      39.952  30.086  30.226  1.00  0.00     0.034 A 
ATOM     50  C   UNL A   1      45.792  29.368  27.406  1.00  0.00     0.049 A 
ATOM     51  C   UNL A   1      41.160  30.976  30.106  1.00  0.00     0.074 A 
ATOM     52  C   UNL A   1      46.814  30.296  27.312  1.00  0.00     0.029 A 
ATOM     53  N   UNL A   1      44.752  29.983  28.084  1.00  0.00    -0.354 N 
ATOM     54  N   UNL A   1      42.278  30.765  29.454  1.00  0.00    -0.248 NA
ATOM     55  C   UNL A   1      41.093  32.284  30.774  1.00  0.00     0.031 C 
ATOM     56  C   UNL A   1      46.397  31.469  27.948  1.00  0.00     0.029 A 
ATOM     57  C   UNL A   1      45.109  31.277  28.420  1.00  0.00     0.049 A 
ATOM     58  H   UNL A   1      43.887  29.563  28.295  1.00  0.00     0.167 HD
ATOM     59  C   UNL A   1      43.029  31.927  29.601  1.00  0.00     0.074 A 
ATOM     60  C   UNL A   1      42.230  32.845  30.384  1.00  0.00     0.031 C 
ATOM     61  C   UNL A   1      44.275  32.201  29.144  1.00  0.00     0.034 A 
BRANCH  48  62
ATOM     62  C   UNL A   1      47.004  27.479  26.254  1.00  0.00     0.023 A 
ATOM     63  C   UNL A   1      47.257  27.781  24.901  1.00  0.00     0.012 A 
ATOM     64  C   UNL A   1      47.952  26.740  26.987  1.00  0.00     0.148 A 
ATOM     65  C   UNL A   1      48.422  27.334  24.279  1.00  0.00     0.002 A 
ATOM     66  C   UNL A   1      49.131  26.333  26.372  1.00  0.00     0.091 A 
ATOM     67  F   UNL A   1      47.682  26.443  28.267  1.00  0.00    -0.205 F 
ATOM     68  C   UNL A   1      49.362  26.622  25.017  1.00  0.00     0.022 A 
BRANCH  66  69
ATOM     69  S   UNL A   1      50.441  25.480  27.255  1.00  0.00     0.127 S 
ATOM     70  O   UNL A   1      51.440  25.304  26.201  1.00  0.00    -0.237 OA
ATOM     71  O   UNL A   1      50.806  26.455  28.283  1.00  0.00    -0.237 OA
ATOM     72  O   UNL A   1      49.849  24.251  27.764  1.00  0.00    -0.744 OA
ENDBRANCH  66  69
ENDBRANCH  48  62
BRANCH  49  73
ATOM     73  C   UNL A   1      38.742  30.540  30.971  1.00  0.00     0.023 A 
ATOM     74  C   UNL A   1      38.656  30.297  32.356  1.00  0.00     0.012 A 
ATOM     75  C   UNL A   1      37.688  31.216  30.327  1.00  0.00     0.148 A 
ATOM     76  C   UNL A   1      37.526  30.682  33.078  1.00  0.00     0.002 A 
ATOM     77  C   UNL A   1      36.590  31.646  31.063  1.00  0.00     0.091 A 
ATOM     78  F   UNL A   1      37.780  31.427  29.005  1.00  0.00    -0.205 F 
ATOM     79  C   UNL A   1      36.498  31.364  32.434  1.00  0.00     0.022 A 
BRANCH  77  80
ATOM     80  S   UNL A   1      35.285  32.645  30.335  1.00  0.00     0.127 S 
ATOM     81  O   UNL A   1      36.018  33.835  29.914  1.00  0.00    -0.237 OA
ATOM     82  O   UNL A   1      34.817  31.789  29.244  1.00  0.00    -0.237 OA
ATOM     83  O   UNL A   1      34.309  32.837  31.400  1.00  0.00    -0.744 OA
ENDBRANCH  77  80
ENDBRANCH  49  73
BRANCH  61  84
ATOM     84  C   UNL A   1      44.844  33.563  29.439  1.00  0.00     0.023 A 
ATOM     85  C   UNL A   1      45.622  33.760  30.595  1.00  0.00     0.012 A 
ATOM     86  C   UNL A   1      44.677  34.624  28.526  1.00  0.00     0.148 A 
ATOM     87  C   UNL A   1      46.202  35.001  30.856  1.00  0.00     0.002 A 
ATOM     88  C   UNL A   1      45.298  35.843  28.767  1.00  0.00     0.091 A 
ATOM     89  F   UNL A   1      43.917  34.421  27.439  1.00  0.00    -0.205 F 
ATOM     90  C   UNL A   1      46.050  36.037  29.937  1.00  0.00     0.022 A 
BRANCH  88  91
ATOM     91  S   UNL A   1      45.237  37.200  27.591  1.00  0.00     0.127 S 
ATOM     92  O   UNL A   1      46.017  38.227  28.280  1.00  0.00    -0.237 OA
ATOM     93  O   UNL A   1      45.892  36.623  26.416  1.00  0.00    -0.237 OA
ATOM     94  O   UNL A   1      43.825  37.503  27.404  1.00  0.00    -0.744 OA
ENDBRANCH  88  91
ENDBRANCH  61  84
ENDBRANCH  35  36
ENDBRANCH  27  30
ENDBRANCH  25  26
ENDBRANCH  24  25
ENDBRANCH   1  24
TORSDOF 17
ENDMDL
MODEL 2
REMARK VINA RESULT:     -11.7      2.129      7.998
REMARK SMILES COc1cccc(C(=O)N[C@H]2C=C[C@@H](C(=O)NCCCCNC(=O)c3ccc(-c4c5nc(c(-c6cccc(S(=O)(=O)[O-])c6F)c6ccc([nH]6)c(-c6cccc(S(=O)(=O)[O-])c6F)c6nc(c(-c7cccc(S(=O)(=O)[O-])c7F)c7ccc4[nH]7)C=C6)C=C5)cc3)C2)c1
REMARK SMILES IDX 19 1 18 2 17 3 15 4 16 5 14 7 11 8 12 9 88 10 13 11 10 12
REMARK SMILES IDX 8 13 9 14 7 16 3 17 4 18 89 19 5 20 6 21 2 22 1 23 20 24
REMARK SMILES IDX 21 25 22 26 23 27 24 29 25 30 26 31 87 32 27 33 86 34 28 35
REMARK SMILES IDX 29 36 30 37 80 38 31 39 85 40 79 41 81 42 32 43 84 44 78 45
REMARK SMILES IDX 77 46 33 48 65 49 45 50 64 51 46 52 49 53 63 54 82 55 47 56
REMARK SMILES IDX 48 57 62 59 83 60 50 61 34 62 35 63 43 64 36 65 38 66 44 67
REMARK SMILES IDX 37 68 39 69 40 70 41 71 42 72 66 73 67 74 75 75 68 76 70 77
REMARK SMILES IDX 76 78 69 79 71 80 72 81 73 82 74 83 51 84 52 85 60 86 53 87
REMARK SMILES IDX 55 88 61 89 54 90 56 91 57 92 58 93 59 94
REMARK H PARENT 17 6 10 15 22 28 81 47 49 58
REMARK Flexibility Score: inf
ROOT
ATOM      1  C   UNL A   1      37.330  20.894  24.242  1.00  0.00     0.023 C 
ENDROOT
BRANCH   1   2
ATOM      2  C   UNL A   1      37.059  22.086  25.155  1.00  0.00     0.116 C 
BRANCH   2   3
ATOM      3  N   UNL A   1      36.462  23.180  24.415  1.00  0.00    -0.356 N 
ATOM      4  C   UNL A   1      35.235  23.290  23.839  1.00  0.00     0.227 C 
ATOM      5  O   UNL A   1      34.973  24.329  23.227  1.00  0.00    -0.274 OA
ATOM      6  H   UNL A   1      37.039  23.972  24.314  1.00  0.00     0.163 HD
BRANCH   4   7
ATOM      7  C   UNL A   1      34.171  22.212  23.992  1.00  0.00     0.103 C 
ATOM      8  C   UNL A   1      32.162  21.542  25.154  1.00  0.00     0.106 C 
ATOM      9  C   UNL A   1      31.842  22.243  23.867  1.00  0.00    -0.006 C 
ATOM     10  C   UNL A   1      33.614  21.960  25.403  1.00  0.00     0.047 C 
ATOM     11  C   UNL A   1      32.950  22.557  23.191  1.00  0.00    -0.016 C 
BRANCH   8  12
ATOM     12  N   UNL A   1      31.183  21.919  26.136  1.00  0.00    -0.346 N 
ATOM     13  C   UNL A   1      30.774  23.170  26.557  1.00  0.00     0.251 C 
ATOM     14  O   UNL A   1      29.911  23.206  27.437  1.00  0.00    -0.269 OA
ATOM     15  H   UNL A   1      30.731  21.165  26.579  1.00  0.00     0.164 HD
BRANCH  13  16
ATOM     16  C   UNL A   1      31.297  24.474  26.008  1.00  0.00     0.043 A 
ATOM     17  C   UNL A   1      31.115  26.552  24.716  1.00  0.00     0.119 A 
ATOM     18  C   UNL A   1      32.398  26.915  25.095  1.00  0.00     0.046 A 
ATOM     19  C   UNL A   1      30.608  25.324  25.137  1.00  0.00     0.060 A 
ATOM     20  C   UNL A   1      33.139  26.074  25.926  1.00  0.00     0.005 A 
ATOM     21  C   UNL A   1      32.588  24.871  26.389  1.00  0.00     0.014 A 
BRANCH  17  22
ATOM     22  O   UNL A   1      30.430  27.429  23.917  1.00  0.00    -0.497 OA
ATOM     23  C   UNL A   1      31.233  28.335  23.155  1.00  0.00     0.278 C 
ENDBRANCH  17  22
ENDBRANCH  13  16
ENDBRANCH   8  12
ENDBRANCH   4   7
ENDBRANCH   2   3
ENDBRANCH   1   2
BRANCH   1  24
ATOM     24  C   UNL A   1      37.860  19.665  24.974  1.00  0.00     0.023 C 
BRANCH  24  25
ATOM     25  C   UNL A   1      38.846  19.972  26.091  1.00  0.00     0.116 C 
BRANCH  25  26
ATOM     26  N   UNL A   1      40.062  19.173  26.011  1.00  0.00    -0.352 N 
ATOM     27  C   UNL A   1      41.360  19.593  26.161  1.00  0.00     0.251 C 
ATOM     28  H   UNL A   1      39.937  18.214  25.826  1.00  0.00     0.163 HD
ATOM     29  O   UNL A   1      42.297  18.831  25.942  1.00  0.00    -0.269 OA
BRANCH  27  30
ATOM     30  C   UNL A   1      41.604  20.992  26.560  1.00  0.00     0.039 A 
ATOM     31  C   UNL A   1      42.220  21.250  27.786  1.00  0.00     0.014 A 
ATOM     32  C   UNL A   1      41.301  22.031  25.676  1.00  0.00     0.014 A 
ATOM     33  C   UNL A   1      42.595  22.557  28.098  1.00  0.00     0.010 A 
ATOM     34  C   UNL A   1      41.749  23.316  25.955  1.00  0.00     0.010 A 
ATOM     35  C   UNL A   1      42.396  23.592  27.170  1.00  0.00    -0.014 A 
BRANCH  35  36
ATOM     36  C   UNL A   1      42.860  24.975  27.442  1.00  0.00     0.031 A 
ATOM     37  C   UNL A   1      41.929  25.963  28.088  1.00  0.00     0.074 A 
ATOM     38  C   UNL A   1      44.078  25.364  27.017  1.00  0.00     0.049 A 
ATOM     39  N   UNL A   1      42.123  27.230  28.345  1.00  0.00    -0.248 NA
ATOM     40  C   UNL A   1      40.592  25.474  28.467  1.00  0.00     0.031 C 
ATOM     41  C   UNL A   1      45.037  24.522  26.297  1.00  0.00     0.029 A 
ATOM     42  N   UNL A   1      44.710  26.580  27.104  1.00  0.00    -0.354 N 
ATOM     43  C   UNL A   1      40.925  27.697  28.872  1.00  0.00     0.074 A 
ATOM     44  C   UNL A   1      39.998  26.588  28.870  1.00  0.00     0.031 C 
ATOM     45  C   UNL A   1      46.133  25.243  26.013  1.00  0.00     0.029 A 
ATOM     46  C   UNL A   1      45.949  26.604  26.506  1.00  0.00     0.049 A 
ATOM     47  H   UNL A   1      44.312  27.362  27.552  1.00  0.00     0.167 HD
ATOM     48  C   UNL A   1      40.634  28.931  29.346  1.00  0.00     0.034 A 
ATOM     49  C   UNL A   1      46.834  27.611  26.372  1.00  0.00     0.034 A 
ATOM     50  C   UNL A   1      41.580  30.010  29.409  1.00  0.00     0.049 A 
ATOM     51  C   UNL A   1      46.506  28.954  26.968  1.00  0.00     0.074 A 
ATOM     52  C   UNL A   1      41.418  31.263  29.972  1.00  0.00     0.029 A 
ATOM     53  N   UNL A   1      42.864  29.965  28.891  1.00  0.00    -0.354 N 
ATOM     54  N   UNL A   1      45.433  29.326  27.624  1.00  0.00    -0.248 NA
ATOM     55  C   UNL A   1      47.525  30.006  26.841  1.00  0.00     0.031 C 
ATOM     56  C   UNL A   1      42.601  31.983  29.780  1.00  0.00     0.029 A 
ATOM     57  C   UNL A   1      43.505  31.170  29.115  1.00  0.00     0.049 A 
ATOM     58  H   UNL A   1      43.262  29.191  28.431  1.00  0.00     0.167 HD
ATOM     59  C   UNL A   1      45.664  30.638  28.021  1.00  0.00     0.074 A 
ATOM     60  C   UNL A   1      46.987  30.989  27.551  1.00  0.00     0.031 C 
ATOM     61  C   UNL A   1      44.848  31.481  28.698  1.00  0.00     0.034 A 
BRANCH  48  62
ATOM     62  C   UNL A   1      39.254  29.164  29.900  1.00  0.00     0.023 A 
ATOM     63  C   UNL A   1      38.943  28.711  31.198  1.00  0.00     0.012 A 
ATOM     64  C   UNL A   1      38.294  29.893  29.172  1.00  0.00     0.148 A 
ATOM     65  C   UNL A   1      37.688  28.957  31.753  1.00  0.00     0.002 A 
ATOM     66  C   UNL A   1      37.060  30.171  29.749  1.00  0.00     0.091 A 
ATOM     67  F   UNL A   1      38.603  30.295  27.930  1.00  0.00    -0.205 F 
ATOM     68  C   UNL A   1      36.753  29.696  31.035  1.00  0.00     0.022 A 
BRANCH  66  69
ATOM     69  S   UNL A   1      35.816  31.181  28.939  1.00  0.00     0.127 S 
ATOM     70  O   UNL A   1      35.186  30.211  28.044  1.00  0.00    -0.237 OA
ATOM     71  O   UNL A   1      34.982  31.603  30.064  1.00  0.00    -0.237 OA
ATOM     72  O   UNL A   1      36.540  32.259  28.279  1.00  0.00    -0.744 OA
ENDBRANCH  66  69
ENDBRANCH  48  62
BRANCH  49  73
ATOM     73  C   UNL A   1      48.149  27.372  25.712  1.00  0.00     0.023 A 
ATOM     74  C   UNL A   1      49.245  26.955  26.494  1.00  0.00     0.012 A 
ATOM     75  C   UNL A   1      48.323  27.543  24.325  1.00  0.00     0.148 A 
ATOM     76  C   UNL A   1      50.497  26.751  25.914  1.00  0.00     0.002 A 
ATOM     77  C   UNL A   1      49.560  27.284  23.745  1.00  0.00     0.091 A 
ATOM     78  F   UNL A   1      47.274  27.955  23.598  1.00  0.00    -0.205 F 
ATOM     79  C   UNL A   1      50.653  26.907  24.540  1.00  0.00     0.022 A 
BRANCH  77  80
ATOM     80  S   UNL A   1      49.809  27.334  21.966  1.00  0.00     0.127 S 
ATOM     81  O   UNL A   1      51.198  26.900  21.846  1.00  0.00    -0.237 OA
ATOM     82  O   UNL A   1      48.817  26.370  21.490  1.00  0.00    -0.237 OA
ATOM     83  O   UNL A   1      49.533  28.711  21.578  1.00  0.00    -0.744 OA
ENDBRANCH  77  80
ENDBRANCH  49  73
BRANCH  61  84
ATOM     84  C   UNL A   1      45.370  32.858  29.013  1.00  0.00     0.023 A 
ATOM     85  C   UNL A   1      46.080  33.080  30.209  1.00  0.00     0.012 A 
ATOM     86  C   UNL A   1      45.230  33.908  28.084  1.00  0.00     0.148 A 
ATOM     87  C   UNL A   1      46.617  34.335  30.490  1.00  0.00     0.002 A 
ATOM     88  C   UNL A   1      45.810  35.142  28.349  1.00  0.00     0.091 A 
ATOM     89  F   UNL A   1      44.535  33.681  26.960  1.00  0.00    -0.205 F 
ATOM     90  C   UNL A   1      46.493  35.361  29.556  1.00  0.00     0.022 A 
BRANCH  88  91
ATOM     91  S   UNL A   1      45.784  36.489  27.161  1.00  0.00     0.127 S 
ATOM     92  O   UNL A   1      44.352  36.759  27.047  1.00  0.00    -0.237 OA
ATOM     93  O   UNL A   1      46.548  37.529  27.852  1.00  0.00    -0.237 OA
ATOM     94  O   UNL A   1      46.423  35.972  25.958  1.00  0.00    -0.744 OA
ENDBRANCH  88  91
ENDBRANCH  61  84
ENDBRANCH  35  36
ENDBRANCH  27  30
ENDBRANCH  25  26
ENDBRANCH  24  25
ENDBRANCH   1  24
TORSDOF 17
ENDMDL
MODEL 3
REMARK VINA RESULT:     -11.6      5.477      8.858
REMARK SMILES COc1cccc(C(=O)N[C@H]2C=C[C@@H](C(=O)NCCCCNC(=O)c3ccc(-c4c5nc(c(-c6cccc(S(=O)(=O)[O-])c6F)c6ccc([nH]6)c(-c6cccc(S(=O)(=O)[O-])c6F)c6nc(c(-c7cccc(S(=O)(=O)[O-])c7F)c7ccc4[nH]7)C=C6)C=C5)cc3)C2)c1
REMARK SMILES IDX 19 1 18 2 17 3 15 4 16 5 14 7 11 8 12 9 88 10 13 11 10 12
REMARK SMILES IDX 8 13 9 14 7 16 3 17 4 18 89 19 5 20 6 21 2 22 1 23 20 24
REMARK SMILES IDX 21 25 22 26 23 27 24 29 25 30 26 31 87 32 27 33 86 34 28 35
REMARK SMILES IDX 29 36 30 37 80 38 31 39 85 40 79 41 81 42 32 43 84 44 78 45
REMARK SMILES IDX 77 46 33 48 65 49 45 50 64 51 46 52 49 53 63 54 82 55 47 56
REMARK SMILES IDX 48 57 62 59 83 60 50 61 34 62 35 63 43 64 36 65 38 66 44 67
REMARK SMILES IDX 37 68 39 69 40 70 41 71 42 72 66 73 67 74 75 75 68 76 70 77
REMARK SMILES IDX 76 78 69 79 71 80 72 81 73 82 74 83 51 84 52 85 60 86 53 87
REMARK SMILES IDX 55 88 61 89 54 90 56 91 57 92 58 93 59 94
REMARK H PARENT 17 6 10 15 22 28 81 47 49 58
REMARK Flexibility Score: inf
ROOT
ATOM      1  C   UNL A   1      31.891  30.683  25.730  1.00  0.00     0.023 C 
ENDROOT
BRANCH   1   2
ATOM      2  C   UNL A   1      32.783  29.465  25.505  1.00  0.00     0.116 C 
BRANCH   2   3
ATOM      3  N   UNL A   1      32.415  28.382  26.396  1.00  0.00    -0.356 N 
ATOM      4  C   UNL A   1      31.534  27.361  26.226  1.00  0.00     0.227 C 
ATOM      5  O   UNL A   1      31.372  26.573  27.162  1.00  0.00    -0.274 OA
ATOM      6  H   UNL A   1      32.878  28.388  27.265  1.00  0.00     0.163 HD
BRANCH   4   7
ATOM      7  C   UNL A   1      30.813  27.127  24.905  1.00  0.00     0.103 C 
ATOM      8  C   UNL A   1      30.967  26.182  22.688  1.00  0.00     0.106 C 
ATOM      9  C   UNL A   1      30.358  25.211  23.656  1.00  0.00    -0.006 C 
ATOM     10  C   UNL A   1      31.652  27.186  23.618  1.00  0.00     0.047 C 
ATOM     11  C   UNL A   1      30.212  25.753  24.867  1.00  0.00    -0.016 C 
BRANCH   8  12
ATOM     12  N   UNL A   1      31.796  25.452  21.768  1.00  0.00    -0.346 N 
ATOM     13  C   UNL A   1      32.851  24.591  22.005  1.00  0.00     0.251 C 
ATOM     14  O   UNL A   1      33.403  24.104  21.016  1.00  0.00    -0.269 OA
ATOM     15  H   UNL A   1      31.577  25.587  20.818  1.00  0.00     0.164 HD
BRANCH  13  16
ATOM     16  C   UNL A   1      33.353  24.205  23.374  1.00  0.00     0.043 A 
ATOM     17  C   UNL A   1      33.720  22.636  25.224  1.00  0.00     0.119 A 
ATOM     18  C   UNL A   1      34.394  23.615  25.938  1.00  0.00     0.046 A 
ATOM     19  C   UNL A   1      33.174  22.960  23.984  1.00  0.00     0.060 A 
ATOM     20  C   UNL A   1      34.555  24.887  25.386  1.00  0.00     0.005 A 
ATOM     21  C   UNL A   1      34.050  25.175  24.110  1.00  0.00     0.014 A 
BRANCH  17  22
ATOM     22  O   UNL A   1      33.613  21.402  25.809  1.00  0.00    -0.497 OA
ATOM     23  C   UNL A   1      32.553  20.572  25.323  1.00  0.00     0.278 C 
ENDBRANCH  17  22
ENDBRANCH  13  16
ENDBRANCH   8  12
ENDBRANCH   4   7
ENDBRANCH   2   3
ENDBRANCH   1   2
BRANCH   1  24
ATOM     24  C   UNL A   1      31.989  31.269  27.135  1.00  0.00     0.023 C 
BRANCH  24  25
ATOM     25  C   UNL A   1      33.150  32.231  27.338  1.00  0.00     0.116 C 
BRANCH  25  26
ATOM     26  N   UNL A   1      32.717  33.606  27.550  1.00  0.00    -0.352 N 
ATOM     27  C   UNL A   1      33.167  34.497  28.493  1.00  0.00     0.251 C 
ATOM     28  H   UNL A   1      32.016  33.937  26.943  1.00  0.00     0.163 HD
ATOM     29  O   UNL A   1      32.621  35.586  28.639  1.00  0.00    -0.269 OA
BRANCH  27  30
ATOM     30  C   UNL A   1      34.300  34.100  29.349  1.00  0.00     0.039 A 
ATOM     31  C   UNL A   1      34.054  33.325  30.484  1.00  0.00     0.014 A 
ATOM     32  C   UNL A   1      35.606  34.423  28.971  1.00  0.00     0.014 A 
ATOM     33  C   UNL A   1      35.132  32.815  31.208  1.00  0.00     0.010 A 
ATOM     34  C   UNL A   1      36.674  33.847  29.646  1.00  0.00     0.010 A 
ATOM     35  C   UNL A   1      36.449  33.042  30.773  1.00  0.00    -0.014 A 
BRANCH  35  36
ATOM     36  C   UNL A   1      37.609  32.443  31.476  1.00  0.00     0.031 A 
ATOM     37  C   UNL A   1      38.363  31.306  30.843  1.00  0.00     0.074 A 
ATOM     38  C   UNL A   1      37.919  32.855  32.722  1.00  0.00     0.049 A 
ATOM     39  N   UNL A   1      39.357  30.608  31.326  1.00  0.00    -0.248 NA
ATOM     40  C   UNL A   1      37.923  30.874  29.505  1.00  0.00     0.031 C 
ATOM     41  C   UNL A   1      37.204  33.887  33.477  1.00  0.00     0.029 A 
ATOM     42  N   UNL A   1      38.899  32.435  33.586  1.00  0.00    -0.354 N 
ATOM     43  C   UNL A   1      39.630  29.631  30.375  1.00  0.00     0.074 A 
ATOM     44  C   UNL A   1      38.679  29.805  29.301  1.00  0.00     0.031 C 
ATOM     45  C   UNL A   1      37.772  34.022  34.686  1.00  0.00     0.029 A 
ATOM     46  C   UNL A   1      38.872  33.072  34.805  1.00  0.00     0.049 A 
ATOM     47  H   UNL A   1      39.559  31.741  33.354  1.00  0.00     0.167 HD
ATOM     48  C   UNL A   1      40.608  28.695  30.382  1.00  0.00     0.034 A 
ATOM     49  C   UNL A   1      39.650  32.906  35.893  1.00  0.00     0.034 A 
ATOM     50  C   UNL A   1      41.593  28.571  31.420  1.00  0.00     0.049 A 
ATOM     51  C   UNL A   1      40.770  31.902  35.843  1.00  0.00     0.074 A 
ATOM     52  C   UNL A   1      42.690  27.730  31.467  1.00  0.00     0.029 A 
ATOM     53  N   UNL A   1      41.601  29.309  32.593  1.00  0.00    -0.354 N 
ATOM     54  N   UNL A   1      41.124  31.109  34.860  1.00  0.00    -0.248 NA
ATOM     55  C   UNL A   1      41.622  31.794  37.036  1.00  0.00     0.031 C 
ATOM     56  C   UNL A   1      43.354  27.948  32.678  1.00  0.00     0.029 A 
ATOM     57  C   UNL A   1      42.681  28.938  33.375  1.00  0.00     0.049 A 
ATOM     58  H   UNL A   1      40.937  29.994  32.835  1.00  0.00     0.167 HD
ATOM     59  C   UNL A   1      42.261  30.441  35.300  1.00  0.00     0.074 A 
ATOM     60  C   UNL A   1      42.548  30.937  36.630  1.00  0.00     0.031 C 
ATOM     61  C   UNL A   1      42.990  29.490  34.668  1.00  0.00     0.034 A 
BRANCH  48  62
ATOM     62  C   UNL A   1      40.706  27.772  29.198  1.00  0.00     0.023 A 
ATOM     63  C   UNL A   1      39.866  26.641  29.129  1.00  0.00     0.012 A 
ATOM     64  C   UNL A   1      41.569  28.060  28.123  1.00  0.00     0.148 A 
ATOM     65  C   UNL A   1      39.903  25.796  28.021  1.00  0.00     0.002 A 
ATOM     66  C   UNL A   1      41.569  27.236  27.002  1.00  0.00     0.091 A 
ATOM     67  F   UNL A   1      42.375  29.127  28.218  1.00  0.00    -0.205 F 
ATOM     68  C   UNL A   1      40.744  26.100  26.955  1.00  0.00     0.022 A 
BRANCH  66  69
ATOM     69  S   UNL A   1      42.557  27.584  25.544  1.00  0.00     0.127 S 
ATOM     70  O   UNL A   1      43.907  27.627  26.106  1.00  0.00    -0.237 OA
ATOM     71  O   UNL A   1      42.285  26.418  24.703  1.00  0.00    -0.237 OA
ATOM     72  O   UNL A   1      42.062  28.846  25.013  1.00  0.00    -0.744 OA
ENDBRANCH  66  69
ENDBRANCH  48  62
BRANCH  49  73
ATOM     73  C   UNL A   1      39.449  33.763  37.097  1.00  0.00     0.023 A 
ATOM     74  C   UNL A   1      39.930  35.088  37.086  1.00  0.00     0.012 A 
ATOM     75  C   UNL A   1      38.781  33.286  38.241  1.00  0.00     0.148 A 
ATOM     76  C   UNL A   1      39.785  35.907  38.206  1.00  0.00     0.002 A 
ATOM     77  C   UNL A   1      38.592  34.126  39.333  1.00  0.00     0.091 A 
ATOM     78  F   UNL A   1      38.342  32.019  38.241  1.00  0.00    -0.205 F 
ATOM     79  C   UNL A   1      39.109  35.431  39.324  1.00  0.00     0.022 A 
BRANCH  77  80
ATOM     80  S   UNL A   1      37.618  33.633  40.760  1.00  0.00     0.127 S 
ATOM     81  O   UNL A   1      38.507  32.676  41.412  1.00  0.00    -0.237 OA
ATOM     82  O   UNL A   1      37.449  34.901  41.470  1.00  0.00    -0.237 OA
ATOM     83  O   UNL A   1      36.382  33.088  40.213  1.00  0.00    -0.744 OA
ENDBRANCH  77  80
ENDBRANCH  49  73
BRANCH  61  84
ATOM     84  C   UNL A   1      44.198  28.945  35.383  1.00  0.00     0.023 A 
ATOM     85  C   UNL A   1      45.456  29.546  35.188  1.00  0.00     0.012 A 
ATOM     86  C   UNL A   1      44.069  27.892  36.311  1.00  0.00     0.148 A 
ATOM     87  C   UNL A   1      46.575  29.089  35.883  1.00  0.00     0.002 A 
ATOM     88  C   UNL A   1      45.178  27.474  37.036  1.00  0.00     0.091 A 
ATOM     89  F   UNL A   1      42.865  27.321  36.469  1.00  0.00    -0.205 F 
ATOM     90  C   UNL A   1      46.433  28.063  36.815  1.00  0.00     0.022 A 
BRANCH  88  91
ATOM     91  S   UNL A   1      45.067  26.228  38.325  1.00  0.00     0.127 S 
ATOM     92  O   UNL A   1      44.814  25.016  37.547  1.00  0.00    -0.237 OA
ATOM     93  O   UNL A   1      46.394  26.294  38.937  1.00  0.00    -0.237 OA
ATOM     94  O   UNL A   1      43.981  26.653  39.197  1.00  0.00    -0.744 OA
ENDBRANCH  88  91
ENDBRANCH  61  84
ENDBRANCH  35  36
ENDBRANCH  27  30
ENDBRANCH  25  26
ENDBRANCH  24  25
ENDBRANCH   1  24
TORSDOF 17
ENDMDL
