MODEL 1
REMARK VINA RESULT:     -11.1      0.000      0.000
REMARK SMILES COCc1cc(SCC(=O)NCCCCNC(=O)c2ccc(-c3c4nc(c(-c5cccc(S(=O)(=O)[O-])c5F)c5ccc([nH]5)c(-c5cccc(S(=O)(=O)[O-])c5F)c5nc(c(-c6cccc(S(=O)(=O)[O-])c6F)c6ccc3[nH]6)C=C5)C=C4)cc2)nc(-c2cccnc2)n1
REMARK SMILES IDX 13 1 12 2 11 3 9 4 10 5 8 7 7 8 6 9 4 10 5 11 90 12 83 13
REMARK SMILES IDX 82 14 3 15 2 16 1 17 84 18 85 19 89 20 86 21 88 22 87 23
REMARK SMILES IDX 14 24 15 25 16 26 17 27 18 29 19 30 20 31 81 32 21 33 80 34
REMARK SMILES IDX 22 35 23 36 24 37 74 38 25 39 79 40 73 41 75 42 26 43 78 44
REMARK SMILES IDX 72 45 71 46 27 48 59 49 39 50 58 51 40 52 43 53 57 54 76 55
REMARK SMILES IDX 41 56 42 57 56 59 77 60 44 61 28 62 29 63 37 64 30 65 32 66
REMARK SMILES IDX 38 67 31 68 33 69 34 70 35 71 36 72 60 73 61 74 69 75 62 76
REMARK SMILES IDX 64 77 70 78 63 79 65 80 66 81 67 82 68 83 45 84 46 85 54 86
REMARK SMILES IDX 47 87 49 88 55 89 48 90 50 91 51 92 52 93 53 94
REMARK H PARENT 11 6 16 28 75 47 43 58
REMARK Flexibility Score: inf
ROOT
ATOM      1  C   UNL A   1      31.833  27.580  26.392  1.00  0.00     0.023 C 
ENDROOT
BRANCH   1   2
ATOM      2  C   UNL A   1      30.857  26.781  25.529  1.00  0.00     0.116 C 
BRANCH   2   3
ATOM      3  N   UNL A   1      30.678  27.379  24.222  1.00  0.00    -0.355 N 
ATOM      4  C   UNL A   1      30.994  26.889  22.994  1.00  0.00     0.230 C 
ATOM      5  O   UNL A   1      30.729  27.585  22.010  1.00  0.00    -0.274 OA
ATOM      6  H   UNL A   1      30.266  28.273  24.223  1.00  0.00     0.163 HD
BRANCH   4   7
ATOM      7  C   UNL A   1      31.565  25.497  22.810  1.00  0.00     0.176 C 
BRANCH   7   8
ATOM      8  S   UNL A   1      33.372  25.410  22.633  1.00  0.00    -0.096 SA
BRANCH   8   9
ATOM      9  C   UNL A   1      33.850  23.828  23.291  1.00  0.00     0.101 A 
ATOM     10  C   UNL A   1      33.595  21.561  23.878  1.00  0.00     0.071 A 
ATOM     11  C   UNL A   1      33.093  22.681  23.239  1.00  0.00     0.062 A 
ATOM     12  N   UNL A   1      34.804  21.560  24.477  1.00  0.00    -0.230 NA
ATOM     13  C   UNL A   1      35.485  22.717  24.462  1.00  0.00     0.162 A 
ATOM     14  N   UNL A   1      35.040  23.862  23.919  1.00  0.00    -0.222 NA
BRANCH  10  15
ATOM     15  C   UNL A   1      32.792  20.276  23.942  1.00  0.00     0.215 C 
BRANCH  15  16
ATOM     16  O   UNL A   1      32.339  19.939  25.259  1.00  0.00    -0.378 OA
ATOM     17  C   UNL A   1      32.630  18.601  25.636  1.00  0.00     0.195 C 
ENDBRANCH  15  16
ENDBRANCH  10  15
BRANCH  13  18
ATOM     18  C   UNL A   1      36.769  22.758  25.150  1.00  0.00     0.038 A 
ATOM     19  C   UNL A   1      37.217  23.907  25.818  1.00  0.00     0.015 A 
ATOM     20  C   UNL A   1      37.619  21.655  25.181  1.00  0.00     0.123 A 
ATOM     21  C   UNL A   1      38.446  23.910  26.473  1.00  0.00     0.021 A 
ATOM     22  N   UNL A   1      38.829  21.629  25.801  1.00  0.00    -0.264 NA
ATOM     23  C   UNL A   1      39.212  22.758  26.431  1.00  0.00     0.111 A 
ENDBRANCH  13  18
ENDBRANCH   8   9
ENDBRANCH   7   8
ENDBRANCH   4   7
ENDBRANCH   2   3
ENDBRANCH   1   2
BRANCH   1  24
ATOM     24  C   UNL A   1      33.295  27.522  25.939  1.00  0.00     0.023 C 
BRANCH  24  25
ATOM     25  C   UNL A   1      33.878  28.839  25.442  1.00  0.00     0.116 C 
BRANCH  25  26
ATOM     26  N   UNL A   1      33.184  30.006  25.968  1.00  0.00    -0.352 N 
ATOM     27  C   UNL A   1      33.565  30.831  27.000  1.00  0.00     0.251 C 
ATOM     28  H   UNL A   1      32.333  30.234  25.528  1.00  0.00     0.163 HD
ATOM     29  O   UNL A   1      32.816  31.720  27.396  1.00  0.00    -0.269 OA
BRANCH  27  30
ATOM     30  C   UNL A   1      34.873  30.613  27.649  1.00  0.00     0.039 A 
ATOM     31  C   UNL A   1      35.784  31.671  27.716  1.00  0.00     0.014 A 
ATOM     32  C   UNL A   1      35.171  29.381  28.237  1.00  0.00     0.014 A 
ATOM     33  C   UNL A   1      36.967  31.519  28.443  1.00  0.00     0.010 A 
ATOM     34  C   UNL A   1      36.320  29.252  29.008  1.00  0.00     0.010 A 
ATOM     35  C   UNL A   1      37.225  30.320  29.125  1.00  0.00    -0.014 A 
BRANCH  35  36
ATOM     36  C   UNL A   1      38.419  30.144  29.989  1.00  0.00     0.031 A 
ATOM     37  C   UNL A   1      39.518  29.216  29.555  1.00  0.00     0.074 A 
ATOM     38  C   UNL A   1      38.445  30.701  31.215  1.00  0.00     0.049 A 
ATOM     39  N   UNL A   1      40.547  28.780  30.233  1.00  0.00    -0.248 NA
ATOM     40  C   UNL A   1      39.429  28.679  28.186  1.00  0.00     0.031 C 
ATOM     41  C   UNL A   1      37.406  31.569  31.774  1.00  0.00     0.029 A 
ATOM     42  N   UNL A   1      39.361  30.583  32.232  1.00  0.00    -0.354 N 
ATOM     43  C   UNL A   1      41.195  27.879  29.399  1.00  0.00     0.074 A 
ATOM     44  C   UNL A   1      40.437  27.819  28.167  1.00  0.00     0.031 C 
ATOM     45  C   UNL A   1      37.733  31.890  33.036  1.00  0.00     0.029 A 
ATOM     46  C   UNL A   1      38.984  31.226  33.389  1.00  0.00     0.049 A 
ATOM     47  H   UNL A   1      40.205  30.084  32.142  1.00  0.00     0.167 HD
ATOM     48  C   UNL A   1      42.332  27.182  29.628  1.00  0.00     0.034 A 
ATOM     49  C   UNL A   1      39.570  31.259  34.603  1.00  0.00     0.034 A 
ATOM     50  C   UNL A   1      43.115  27.295  30.827  1.00  0.00     0.049 A 
ATOM     51  C   UNL A   1      40.864  30.520  34.813  1.00  0.00     0.074 A 
ATOM     52  C   UNL A   1      44.331  26.702  31.117  1.00  0.00     0.029 A 
ATOM     53  N   UNL A   1      42.766  28.056  31.931  1.00  0.00    -0.354 N 
ATOM     54  N   UNL A   1      41.539  29.785  33.962  1.00  0.00    -0.248 NA
ATOM     55  C   UNL A   1      41.496  30.638  36.136  1.00  0.00     0.031 C 
ATOM     56  C   UNL A   1      44.714  27.101  32.402  1.00  0.00     0.029 A 
ATOM     57  C   UNL A   1      43.742  27.951  32.904  1.00  0.00     0.049 A 
ATOM     58  H   UNL A   1      41.944  28.592  32.010  1.00  0.00     0.167 HD
ATOM     59  C   UNL A   1      42.691  29.388  34.630  1.00  0.00     0.074 A 
ATOM     60  C   UNL A   1      42.628  29.971  35.954  1.00  0.00     0.031 C 
ATOM     61  C   UNL A   1      43.702  28.600  34.190  1.00  0.00     0.034 A 
BRANCH  48  62
ATOM     62  C   UNL A   1      42.832  26.279  28.533  1.00  0.00     0.023 A 
ATOM     63  C   UNL A   1      42.216  25.028  28.333  1.00  0.00     0.012 A 
ATOM     64  C   UNL A   1      43.868  26.687  27.670  1.00  0.00     0.148 A 
ATOM     65  C   UNL A   1      42.641  24.183  27.310  1.00  0.00     0.002 A 
ATOM     66  C   UNL A   1      44.260  25.855  26.627  1.00  0.00     0.091 A 
ATOM     67  F   UNL A   1      44.461  27.869  27.892  1.00  0.00    -0.205 F 
ATOM     68  C   UNL A   1      43.655  24.600  26.451  1.00  0.00     0.022 A 
BRANCH  66  69
ATOM     69  S   UNL A   1      45.506  26.341  25.426  1.00  0.00     0.127 S 
ATOM     70  O   UNL A   1      46.690  26.483  26.271  1.00  0.00    -0.237 OA
ATOM     71  O   UNL A   1      45.536  25.189  24.524  1.00  0.00    -0.237 OA
ATOM     72  O   UNL A   1      45.013  27.569  24.819  1.00  0.00    -0.744 OA
ENDBRANCH  66  69
ENDBRANCH  48  62
BRANCH  49  73
ATOM     73  C   UNL A   1      38.970  32.080  35.692  1.00  0.00     0.023 A 
ATOM     74  C   UNL A   1      39.037  33.484  35.608  1.00  0.00     0.012 A 
ATOM     75  C   UNL A   1      38.301  31.489  36.780  1.00  0.00     0.148 A 
ATOM     76  C   UNL A   1      38.469  34.285  36.599  1.00  0.00     0.002 A 
ATOM     77  C   UNL A   1      37.693  32.293  37.739  1.00  0.00     0.091 A 
ATOM     78  F   UNL A   1      38.260  30.151  36.852  1.00  0.00    -0.205 F 
ATOM     79  C   UNL A   1      37.789  33.691  37.658  1.00  0.00     0.022 A 
BRANCH  77  80
ATOM     80  S   UNL A   1      36.688  31.614  39.064  1.00  0.00     0.127 S 
ATOM     81  O   UNL A   1      37.602  31.686  40.201  1.00  0.00    -0.237 OA
ATOM     82  O   UNL A   1      35.568  32.556  39.113  1.00  0.00    -0.237 OA
ATOM     83  O   UNL A   1      36.322  30.274  38.625  1.00  0.00    -0.744 OA
ENDBRANCH  77  80
ENDBRANCH  49  73
BRANCH  61  84
ATOM     84  C   UNL A   1      44.861  28.351  35.116  1.00  0.00     0.023 A 
ATOM     85  C   UNL A   1      46.025  29.135  35.001  1.00  0.00     0.012 A 
ATOM     86  C   UNL A   1      44.743  27.430  36.176  1.00  0.00     0.148 A 
ATOM     87  C   UNL A   1      47.061  28.997  35.922  1.00  0.00     0.002 A 
ATOM     88  C   UNL A   1      45.762  27.328  37.114  1.00  0.00     0.091 A 
ATOM     89  F   UNL A   1      43.632  26.685  36.253  1.00  0.00    -0.205 F 
ATOM     90  C   UNL A   1      46.925  28.105  36.985  1.00  0.00     0.022 A 
BRANCH  88  91
ATOM     91  S   UNL A   1      45.635  26.277  38.566  1.00  0.00     0.127 S 
ATOM     92  O   UNL A   1      44.259  26.523  38.992  1.00  0.00    -0.237 OA
ATOM     93  O   UNL A   1      45.874  24.946  38.008  1.00  0.00    -0.237 OA
ATOM     94  O   UNL A   1      46.664  26.739  39.488  1.00  0.00    -0.744 OA
ENDBRANCH  88  91
ENDBRANCH  61  84
ENDBRANCH  35  36
ENDBRANCH  27  30
ENDBRANCH  25  26
ENDBRANCH  24  25
ENDBRANCH   1  24
TORSDOF 19
ENDMDL
MODEL 2
REMARK VINA RESULT:     -11.1      5.086      7.876
REMARK SMILES COCc1cc(SCC(=O)NCCCCNC(=O)c2ccc(-c3c4nc(c(-c5cccc(S(=O)(=O)[O-])c5F)c5ccc([nH]5)c(-c5cccc(S(=O)(=O)[O-])c5F)c5nc(c(-c6cccc(S(=O)(=O)[O-])c6F)c6ccc3[nH]6)C=C5)C=C4)cc2)nc(-c2cccnc2)n1
REMARK SMILES IDX 13 1 12 2 11 3 9 4 10 5 8 7 7 8 6 9 4 10 5 11 90 12 83 13
REMARK SMILES IDX 82 14 3 15 2 16 1 17 84 18 85 19 89 20 86 21 88 22 87 23
REMARK SMILES IDX 14 24 15 25 16 26 17 27 18 29 19 30 20 31 81 32 21 33 80 34
REMARK SMILES IDX 22 35 23 36 24 37 74 38 25 39 79 40 73 41 75 42 26 43 78 44
REMARK SMILES IDX 72 45 71 46 27 48 59 49 39 50 58 51 40 52 43 53 57 54 76 55
REMARK SMILES IDX 41 56 42 57 56 59 77 60 44 61 28 62 29 63 37 64 30 65 32 66
REMARK SMILES IDX 38 67 31 68 33 69 34 70 35 71 36 72 60 73 61 74 69 75 62 76
REMARK SMILES IDX 64 77 70 78 63 79 65 80 66 81 67 82 68 83 45 84 46 85 54 86
REMARK SMILES IDX 47 87 49 88 55 89 48 90 50 91 51 92 52 93 53 94
REMARK H PARENT 11 6 16 28 75 47 43 58
REMARK Flexibility Score: inf
ROOT
ATOM      1  C   UNL A   1      35.505  23.329  23.525  1.00  0.00     0.023 C 
ENDROOT
BRANCH   1   2
ATOM      2  C   UNL A   1      34.375  22.440  24.046  1.00  0.00     0.116 C 
BRANCH   2   3
ATOM      3  N   UNL A   1      33.685  23.046  25.166  1.00  0.00    -0.355 N 
ATOM      4  C   UNL A   1      32.741  24.024  25.176  1.00  0.00     0.230 C 
ATOM      5  O   UNL A   1      32.281  24.371  26.268  1.00  0.00    -0.274 OA
ATOM      6  H   UNL A   1      33.936  22.697  26.051  1.00  0.00     0.163 HD
BRANCH   4   7
ATOM      7  C   UNL A   1      32.188  24.617  23.895  1.00  0.00     0.176 C 
BRANCH   7   8
ATOM      8  S   UNL A   1      30.434  25.091  23.946  1.00  0.00    -0.096 SA
BRANCH   8   9
ATOM      9  C   UNL A   1      30.412  26.869  23.973  1.00  0.00     0.101 A 
ATOM     10  C   UNL A   1      29.809  29.037  23.277  1.00  0.00     0.071 A 
ATOM     11  C   UNL A   1      29.632  27.669  23.172  1.00  0.00     0.062 A 
ATOM     12  N   UNL A   1      30.663  29.582  24.168  1.00  0.00    -0.230 NA
ATOM     13  C   UNL A   1      31.370  28.728  24.925  1.00  0.00     0.162 A 
ATOM     14  N   UNL A   1      31.301  27.390  24.840  1.00  0.00    -0.222 NA
BRANCH  10  15
ATOM     15  C   UNL A   1      29.050  29.991  22.375  1.00  0.00     0.215 C 
BRANCH  15  16
ATOM     16  O   UNL A   1      27.720  30.283  22.825  1.00  0.00    -0.378 OA
ATOM     17  C   UNL A   1      27.606  31.531  23.492  1.00  0.00     0.195 C 
ENDBRANCH  15  16
ENDBRANCH  10  15
BRANCH  13  18
ATOM     18  C   UNL A   1      32.339  29.290  25.858  1.00  0.00     0.038 A 
ATOM     19  C   UNL A   1      33.501  28.596  26.228  1.00  0.00     0.015 A 
ATOM     20  C   UNL A   1      32.162  30.548  26.429  1.00  0.00     0.123 A 
ATOM     21  C   UNL A   1      34.411  29.165  27.115  1.00  0.00     0.021 A 
ATOM     22  N   UNL A   1      33.025  31.126  27.306  1.00  0.00    -0.264 NA
ATOM     23  C   UNL A   1      34.128  30.420  27.627  1.00  0.00     0.111 A 
ENDBRANCH  13  18
ENDBRANCH   8   9
ENDBRANCH   7   8
ENDBRANCH   4   7
ENDBRANCH   2   3
ENDBRANCH   1   2
BRANCH   1  24
ATOM     24  C   UNL A   1      36.916  22.872  23.906  1.00  0.00     0.023 C 
BRANCH  24  25
ATOM     25  C   UNL A   1      37.317  23.125  25.354  1.00  0.00     0.116 C 
BRANCH  25  26
ATOM     26  N   UNL A   1      38.413  22.277  25.800  1.00  0.00    -0.352 N 
ATOM     27  C   UNL A   1      39.558  22.644  26.467  1.00  0.00     0.251 C 
ATOM     28  H   UNL A   1      38.322  21.317  25.600  1.00  0.00     0.163 HD
ATOM     29  O   UNL A   1      40.443  21.821  26.684  1.00  0.00    -0.269 OA
BRANCH  27  30
ATOM     30  C   UNL A   1      39.726  24.049  26.888  1.00  0.00     0.039 A 
ATOM     31  C   UNL A   1      39.429  24.404  28.207  1.00  0.00     0.014 A 
ATOM     32  C   UNL A   1      40.228  24.997  25.993  1.00  0.00     0.014 A 
ATOM     33  C   UNL A   1      39.710  25.697  28.653  1.00  0.00     0.010 A 
ATOM     34  C   UNL A   1      40.561  26.264  26.455  1.00  0.00     0.010 A 
ATOM     35  C   UNL A   1      40.312  26.625  27.790  1.00  0.00    -0.014 A 
BRANCH  35  36
ATOM     36  C   UNL A   1      40.719  27.979  28.244  1.00  0.00     0.031 A 
ATOM     37  C   UNL A   1      42.175  28.283  28.457  1.00  0.00     0.074 A 
ATOM     38  C   UNL A   1      39.778  28.875  28.599  1.00  0.00     0.049 A 
ATOM     39  N   UNL A   1      42.727  29.326  29.019  1.00  0.00    -0.248 NA
ATOM     40  C   UNL A   1      43.137  27.262  28.008  1.00  0.00     0.031 C 
ATOM     41  C   UNL A   1      38.332  28.671  28.498  1.00  0.00     0.029 A 
ATOM     42  N   UNL A   1      39.899  30.123  29.159  1.00  0.00    -0.354 N 
ATOM     43  C   UNL A   1      44.091  29.064  29.044  1.00  0.00     0.074 A 
ATOM     44  C   UNL A   1      44.284  27.758  28.451  1.00  0.00     0.031 C 
ATOM     45  C   UNL A   1      37.700  29.746  28.996  1.00  0.00     0.029 A 
ATOM     46  C   UNL A   1      38.692  30.701  29.482  1.00  0.00     0.049 A 
ATOM     47  H   UNL A   1      40.766  30.563  29.316  1.00  0.00     0.167 HD
ATOM     48  C   UNL A   1      45.094  29.851  29.497  1.00  0.00     0.034 A 
ATOM     49  C   UNL A   1      38.417  31.858  30.115  1.00  0.00     0.034 A 
ATOM     50  C   UNL A   1      44.902  31.173  30.024  1.00  0.00     0.049 A 
ATOM     51  C   UNL A   1      39.553  32.740  30.558  1.00  0.00     0.074 A 
ATOM     52  C   UNL A   1      45.862  32.086  30.423  1.00  0.00     0.029 A 
ATOM     53  N   UNL A   1      43.670  31.775  30.219  1.00  0.00    -0.354 N 
ATOM     54  N   UNL A   1      40.844  32.539  30.442  1.00  0.00    -0.248 NA
ATOM     55  C   UNL A   1      39.201  34.021  31.189  1.00  0.00     0.031 C 
ATOM     56  C   UNL A   1      45.208  33.240  30.866  1.00  0.00     0.029 A 
ATOM     57  C   UNL A   1      43.843  33.048  30.731  1.00  0.00     0.049 A 
ATOM     58  H   UNL A   1      42.800  31.358  30.023  1.00  0.00     0.167 HD
ATOM     59  C   UNL A   1      41.455  33.681  30.946  1.00  0.00     0.074 A 
ATOM     60  C   UNL A   1      40.394  34.575  31.360  1.00  0.00     0.031 C 
ATOM     61  C   UNL A   1      42.776  33.957  31.066  1.00  0.00     0.034 A 
BRANCH  48  62
ATOM     62  C   UNL A   1      46.500  29.326  29.385  1.00  0.00     0.023 A 
ATOM     63  C   UNL A   1      47.063  28.621  30.468  1.00  0.00     0.012 A 
ATOM     64  C   UNL A   1      47.241  29.477  28.197  1.00  0.00     0.148 A 
ATOM     65  C   UNL A   1      48.353  28.100  30.382  1.00  0.00     0.002 A 
ATOM     66  C   UNL A   1      48.512  28.921  28.105  1.00  0.00     0.091 A 
ATOM     67  F   UNL A   1      46.700  30.174  27.187  1.00  0.00    -0.205 F 
ATOM     68  C   UNL A   1      49.073  28.241  29.199  1.00  0.00     0.022 A 
BRANCH  66  69
ATOM     69  S   UNL A   1      49.484  28.989  26.595  1.00  0.00     0.127 S 
ATOM     70  O   UNL A   1      48.581  28.358  25.634  1.00  0.00    -0.237 OA
ATOM     71  O   UNL A   1      49.664  30.429  26.405  1.00  0.00    -0.237 OA
ATOM     72  O   UNL A   1      50.711  28.260  26.880  1.00  0.00    -0.744 OA
ENDBRANCH  66  69
ENDBRANCH  48  62
BRANCH  49  73
ATOM     73  C   UNL A   1      37.000  32.280  30.304  1.00  0.00     0.023 A 
ATOM     74  C   UNL A   1      36.331  31.923  31.491  1.00  0.00     0.012 A 
ATOM     75  C   UNL A   1      36.328  33.063  29.346  1.00  0.00     0.148 A 
ATOM     76  C   UNL A   1      35.011  32.318  31.710  1.00  0.00     0.002 A 
ATOM     77  C   UNL A   1      35.030  33.496  29.593  1.00  0.00     0.091 A 
ATOM     78  F   UNL A   1      36.975  33.381  28.216  1.00  0.00    -0.205 F 
ATOM     79  C   UNL A   1      34.364  33.112  30.769  1.00  0.00     0.022 A 
BRANCH  77  80
ATOM     80  S   UNL A   1      34.169  34.627  28.494  1.00  0.00     0.127 S 
ATOM     81  O   UNL A   1      34.412  34.019  27.189  1.00  0.00    -0.237 OA
ATOM     82  O   UNL A   1      32.789  34.528  28.972  1.00  0.00    -0.237 OA
ATOM     83  O   UNL A   1      34.786  35.928  28.717  1.00  0.00    -0.744 OA
ENDBRANCH  77  80
ENDBRANCH  49  73
BRANCH  61  84
ATOM     84  C   UNL A   1      43.172  35.298  31.621  1.00  0.00     0.023 A 
ATOM     85  C   UNL A   1      43.366  35.449  33.008  1.00  0.00     0.012 A 
ATOM     86  C   UNL A   1      43.473  36.368  30.756  1.00  0.00     0.148 A 
ATOM     87  C   UNL A   1      43.842  36.650  33.527  1.00  0.00     0.002 A 
ATOM     88  C   UNL A   1      43.987  37.549  31.277  1.00  0.00     0.091 A 
ATOM     89  F   UNL A   1      43.264  36.205  29.442  1.00  0.00    -0.205 F 
ATOM     90  C   UNL A   1      44.166  37.695  32.662  1.00  0.00     0.022 A 
BRANCH  88  91
ATOM     91  S   UNL A   1      44.521  38.911  30.233  1.00  0.00     0.127 S 
ATOM     92  O   UNL A   1      43.459  38.952  29.230  1.00  0.00    -0.237 OA
ATOM     93  O   UNL A   1      44.520  40.037  31.168  1.00  0.00    -0.237 OA
ATOM     94  O   UNL A   1      45.838  38.543  29.732  1.00  0.00    -0.744 OA
ENDBRANCH  88  91
ENDBRANCH  61  84
ENDBRANCH  35  36
ENDBRANCH  27  30
ENDBRANCH  25  26
ENDBRANCH  24  25
ENDBRANCH   1  24
TORSDOF 19
ENDMDL
MODEL 3
REMARK VINA RESULT:     -11.1      2.974      7.836
REMARK SMILES COCc1cc(SCC(=O)NCCCCNC(=O)c2ccc(-c3c4nc(c(-c5cccc(S(=O)(=O)[O-])c5F)c5ccc([nH]5)c(-c5cccc(S(=O)(=O)[O-])c5F)c5nc(c(-c6cccc(S(=O)(=O)[O-])c6F)c6ccc3[nH]6)C=C5)C=C4)cc2)nc(-c2cccnc2)n1
REMARK SMILES IDX 13 1 12 2 11 3 9 4 10 5 8 7 7 8 6 9 4 10 5 11 90 12 83 13
REMARK SMILES IDX 82 14 3 15 2 16 1 17 84 18 85 19 89 20 86 21 88 22 87 23
REMARK SMILES IDX 14 24 15 25 16 26 17 27 18 29 19 30 20 31 81 32 21 33 80 34
REMARK SMILES IDX 22 35 23 36 24 37 74 38 25 39 79 40 73 41 75 42 26 43 78 44
REMARK SMILES IDX 72 45 71 46 27 48 59 49 39 50 58 51 40 52 43 53 57 54 76 55
REMARK SMILES IDX 41 56 42 57 56 59 77 60 44 61 28 62 29 63 37 64 30 65 32 66
REMARK SMILES IDX 38 67 31 68 33 69 34 70 35 71 36 72 60 73 61 74 69 75 62 76
REMARK SMILES IDX 64 77 70 78 63 79 65 80 66 81 67 82 68 83 45 84 46 85 54 86
REMARK SMILES IDX 47 87 49 88 55 89 48 90 50 91 51 92 52 93 53 94
REMARK H PARENT 11 6 16 28 75 47 43 58
REMARK Flexibility Score: inf
ROOT
ATOM      1  C   UNL A   1      32.017  27.463  25.796  1.00  0.00     0.023 C 
ENDROOT
BRANCH   1   2
ATOM      2  C   UNL A   1      31.137  26.855  24.703  1.00  0.00     0.116 C 
BRANCH   2   3
ATOM      3  N   UNL A   1      31.913  26.089  23.749  1.00  0.00    -0.355 N 
ATOM      4  C   UNL A   1      31.792  24.786  23.381  1.00  0.00     0.230 C 
ATOM      5  O   UNL A   1      32.570  24.355  22.525  1.00  0.00    -0.274 OA
ATOM      6  H   UNL A   1      32.635  26.586  23.302  1.00  0.00     0.163 HD
BRANCH   4   7
ATOM      7  C   UNL A   1      30.685  23.901  23.918  1.00  0.00     0.176 C 
BRANCH   7   8
ATOM      8  S   UNL A   1      31.037  23.083  25.502  1.00  0.00    -0.096 SA
BRANCH   8   9
ATOM      9  C   UNL A   1      32.320  21.899  25.163  1.00  0.00     0.101 A 
ATOM     10  C   UNL A   1      33.240  19.798  24.626  1.00  0.00     0.071 A 
ATOM     11  C   UNL A   1      32.120  20.599  24.765  1.00  0.00     0.062 A 
ATOM     12  N   UNL A   1      34.488  20.276  24.810  1.00  0.00    -0.230 NA
ATOM     13  C   UNL A   1      34.593  21.563  25.177  1.00  0.00     0.162 A 
ATOM     14  N   UNL A   1      33.554  22.386  25.392  1.00  0.00    -0.222 NA
BRANCH  10  15
ATOM     15  C   UNL A   1      33.108  18.330  24.270  1.00  0.00     0.215 C 
BRANCH  15  16
ATOM     16  O   UNL A   1      33.005  17.463  25.407  1.00  0.00    -0.378 OA
ATOM     17  C   UNL A   1      33.930  16.386  25.386  1.00  0.00     0.195 C 
ENDBRANCH  15  16
ENDBRANCH  10  15
BRANCH  13  18
ATOM     18  C   UNL A   1      35.928  22.088  25.435  1.00  0.00     0.038 A 
ATOM     19  C   UNL A   1      36.133  23.397  25.898  1.00  0.00     0.015 A 
ATOM     20  C   UNL A   1      37.071  21.317  25.237  1.00  0.00     0.123 A 
ATOM     21  C   UNL A   1      37.421  23.866  26.143  1.00  0.00     0.021 A 
ATOM     22  N   UNL A   1      38.341  21.749  25.455  1.00  0.00    -0.264 NA
ATOM     23  C   UNL A   1      38.484  23.013  25.903  1.00  0.00     0.111 A 
ENDBRANCH  13  18
ENDBRANCH   8   9
ENDBRANCH   7   8
ENDBRANCH   4   7
ENDBRANCH   2   3
ENDBRANCH   1   2
BRANCH   1  24
ATOM     24  C   UNL A   1      33.465  27.741  25.381  1.00  0.00     0.023 C 
BRANCH  24  25
ATOM     25  C   UNL A   1      34.336  28.392  26.448  1.00  0.00     0.116 C 
BRANCH  25  26
ATOM     26  N   UNL A   1      33.975  29.777  26.714  1.00  0.00    -0.352 N 
ATOM     27  C   UNL A   1      34.619  30.686  27.519  1.00  0.00     0.251 C 
ATOM     28  H   UNL A   1      33.165  30.104  26.258  1.00  0.00     0.163 HD
ATOM     29  O   UNL A   1      34.129  31.794  27.723  1.00  0.00    -0.269 OA
BRANCH  27  30
ATOM     30  C   UNL A   1      35.891  30.303  28.162  1.00  0.00     0.039 A 
ATOM     31  C   UNL A   1      35.863  29.715  29.429  1.00  0.00     0.014 A 
ATOM     32  C   UNL A   1      37.102  30.475  27.486  1.00  0.00     0.014 A 
ATOM     33  C   UNL A   1      37.045  29.227  29.991  1.00  0.00     0.010 A 
ATOM     34  C   UNL A   1      38.266  29.936  28.020  1.00  0.00     0.010 A 
ATOM     35  C   UNL A   1      38.248  29.301  29.273  1.00  0.00    -0.014 A 
BRANCH  35  36
ATOM     36  C   UNL A   1      39.511  28.709  29.784  1.00  0.00     0.031 A 
ATOM     37  C   UNL A   1      40.267  29.408  30.878  1.00  0.00     0.074 A 
ATOM     38  C   UNL A   1      40.041  27.634  29.170  1.00  0.00     0.049 A 
ATOM     39  N   UNL A   1      41.467  29.167  31.335  1.00  0.00    -0.248 NA
ATOM     40  C   UNL A   1      39.597  30.553  31.518  1.00  0.00     0.031 C 
ATOM     41  C   UNL A   1      39.432  26.908  28.055  1.00  0.00     0.029 A 
ATOM     42  N   UNL A   1      41.239  26.992  29.369  1.00  0.00    -0.354 N 
ATOM     43  C   UNL A   1      41.720  30.159  32.275  1.00  0.00     0.074 A 
ATOM     44  C   UNL A   1      40.553  31.015  32.313  1.00  0.00     0.031 C 
ATOM     45  C   UNL A   1      40.264  25.933  27.657  1.00  0.00     0.029 A 
ATOM     46  C   UNL A   1      41.480  25.985  28.463  1.00  0.00     0.049 A 
ATOM     47  H   UNL A   1      41.866  27.231  30.090  1.00  0.00     0.167 HD
ATOM     48  C   UNL A   1      42.815  30.329  33.051  1.00  0.00     0.034 A 
ATOM     49  C   UNL A   1      42.566  25.205  28.289  1.00  0.00     0.034 A 
ATOM     50  C   UNL A   1      43.942  29.439  33.055  1.00  0.00     0.049 A 
ATOM     51  C   UNL A   1      43.747  25.378  29.205  1.00  0.00     0.074 A 
ATOM     52  C   UNL A   1      45.059  29.472  33.871  1.00  0.00     0.029 A 
ATOM     53  N   UNL A   1      44.095  28.353  32.209  1.00  0.00    -0.354 N 
ATOM     54  N   UNL A   1      43.909  26.233  30.186  1.00  0.00    -0.248 NA
ATOM     55  C   UNL A   1      44.882  24.462  29.015  1.00  0.00     0.031 C 
ATOM     56  C   UNL A   1      45.891  28.406  33.513  1.00  0.00     0.029 A 
ATOM     57  C   UNL A   1      45.285  27.705  32.482  1.00  0.00     0.049 A 
ATOM     58  H   UNL A   1      43.451  28.082  31.515  1.00  0.00     0.167 HD
ATOM     59  C   UNL A   1      45.142  25.933  30.755  1.00  0.00     0.074 A 
ATOM     60  C   UNL A   1      45.681  24.811  30.015  1.00  0.00     0.031 C 
ATOM     61  C   UNL A   1      45.773  26.542  31.787  1.00  0.00     0.034 A 
BRANCH  48  62
ATOM     62  C   UNL A   1      42.820  31.489  34.010  1.00  0.00     0.023 A 
ATOM     63  C   UNL A   1      43.383  32.716  33.607  1.00  0.00     0.012 A 
ATOM     64  C   UNL A   1      42.221  31.386  35.281  1.00  0.00     0.148 A 
ATOM     65  C   UNL A   1      43.378  33.815  34.463  1.00  0.00     0.002 A 
ATOM     66  C   UNL A   1      42.185  32.499  36.114  1.00  0.00     0.091 A 
ATOM     67  F   UNL A   1      41.714  30.204  35.658  1.00  0.00    -0.205 F 
ATOM     68  C   UNL A   1      42.771  33.710  35.712  1.00  0.00     0.022 A 
BRANCH  66  69
ATOM     69  S   UNL A   1      41.358  32.477  37.710  1.00  0.00     0.127 S 
ATOM     70  O   UNL A   1      41.363  33.894  38.065  1.00  0.00    -0.237 OA
ATOM     71  O   UNL A   1      40.040  31.939  37.370  1.00  0.00    -0.237 OA
ATOM     72  O   UNL A   1      42.161  31.610  38.560  1.00  0.00    -0.744 OA
ENDBRANCH  66  69
ENDBRANCH  48  62
BRANCH  49  73
ATOM     73  C   UNL A   1      42.554  24.141  27.246  1.00  0.00     0.023 A 
ATOM     74  C   UNL A   1      43.097  24.420  25.977  1.00  0.00     0.012 A 
ATOM     75  C   UNL A   1      42.054  22.852  27.510  1.00  0.00     0.148 A 
ATOM     76  C   UNL A   1      43.121  23.442  24.982  1.00  0.00     0.002 A 
ATOM     77  C   UNL A   1      42.127  21.867  26.530  1.00  0.00     0.091 A 
ATOM     78  F   UNL A   1      41.527  22.609  28.718  1.00  0.00    -0.205 F 
ATOM     79  C   UNL A   1      42.647  22.164  25.261  1.00  0.00     0.022 A 
BRANCH  77  80
ATOM     80  S   UNL A   1      41.657  20.162  26.847  1.00  0.00     0.127 S 
ATOM     81  O   UNL A   1      42.656  19.754  27.832  1.00  0.00    -0.237 OA
ATOM     82  O   UNL A   1      40.299  20.311  27.373  1.00  0.00    -0.237 OA
ATOM     83  O   UNL A   1      41.726  19.494  25.555  1.00  0.00    -0.744 OA
ENDBRANCH  77  80
ENDBRANCH  49  73
BRANCH  61  84
ATOM     84  C   UNL A   1      47.100  25.989  32.230  1.00  0.00     0.023 A 
ATOM     85  C   UNL A   1      48.288  26.487  31.660  1.00  0.00     0.012 A 
ATOM     86  C   UNL A   1      47.172  25.071  33.296  1.00  0.00     0.148 A 
ATOM     87  C   UNL A   1      49.528  26.071  32.138  1.00  0.00     0.002 A 
ATOM     88  C   UNL A   1      48.412  24.692  33.795  1.00  0.00     0.091 A 
ATOM     89  F   UNL A   1      46.028  24.599  33.810  1.00  0.00    -0.205 F 
ATOM     90  C   UNL A   1      49.591  25.185  33.213  1.00  0.00     0.022 A 
BRANCH  88  91
ATOM     91  S   UNL A   1      48.590  23.632  35.235  1.00  0.00     0.127 S 
ATOM     92  O   UNL A   1      48.219  22.327  34.692  1.00  0.00    -0.237 OA
ATOM     93  O   UNL A   1      50.010  23.779  35.555  1.00  0.00    -0.237 OA
ATOM     94  O   UNL A   1      47.685  24.167  36.244  1.00  0.00    -0.744 OA
ENDBRANCH  88  91
ENDBRANCH  61  84
ENDBRANCH  35  36
ENDBRANCH  27  30
ENDBRANCH  25  26
ENDBRANCH  24  25
ENDBRANCH   1  24
TORSDOF 19
ENDMDL
