MODEL 1
REMARK VINA RESULT:     -12.8      0.000      0.000
REMARK SMILES NS(=O)(=O)c1ccc(-n2nc(C(=O)NCCCCNC(=O)c3ccc(-c4c5nc(c(-c6cccc(S(=O)(=O)[O-])c6F)c6ccc([nH]6)c(-c6cccc(S(=O)(=O)[O-])c6F)c6nc(c(-c7cccc(S(=O)(=O)[O-])c7F)c7ccc4[nH]7)C=C6)C=C5)cc3)c(Cl)c2-c2ccc(Cl)cc2)cc1
REMARK SMILES IDX 16 1 15 2 14 3 12 4 13 5 11 7 9 8 10 9 87 10 85 11 86 12
REMARK SMILES IDX 8 13 5 14 6 15 96 16 7 17 95 18 2 19 3 20 4 21 1 22 88 25
REMARK SMILES IDX 89 26 94 27 90 28 93 29 91 30 92 31 17 32 18 33 19 34 20 35
REMARK SMILES IDX 21 37 22 38 23 39 84 40 24 41 83 42 25 43 26 44 27 45 77 46
REMARK SMILES IDX 28 47 82 48 76 49 78 50 29 51 81 52 75 53 74 54 30 56 62 57
REMARK SMILES IDX 42 58 61 59 43 60 46 61 60 62 79 63 44 64 45 65 59 67 80 68
REMARK SMILES IDX 47 69 31 70 32 71 40 72 33 73 35 74 41 75 34 76 36 77 37 78
REMARK SMILES IDX 38 79 39 80 63 81 64 82 72 83 65 84 67 85 73 86 66 87 68 88
REMARK SMILES IDX 69 89 70 90 71 91 48 92 49 93 57 94 50 95 52 96 58 97 51 98
REMARK SMILES IDX 53 99 54 100 55 101 56 102
REMARK H PARENT 14 6 1 23 1 24 19 36 78 55 46 66
REMARK Flexibility Score: inf
ROOT
ATOM      1  C   UNL A   1      32.302  29.285  25.832  1.00  0.00     0.023 C 
ENDROOT
BRANCH   1   2
ATOM      2  C   UNL A   1      31.430  28.096  26.275  1.00  0.00     0.116 C 
BRANCH   2   3
ATOM      3  N   UNL A   1      30.571  27.637  25.194  1.00  0.00    -0.351 N 
ATOM      4  C   UNL A   1      30.602  26.552  24.338  1.00  0.00     0.273 C 
ATOM      5  O   UNL A   1      29.676  26.500  23.522  1.00  0.00    -0.267 OA
ATOM      6  H   UNL A   1      29.799  28.227  25.039  1.00  0.00     0.163 HD
BRANCH   4   7
ATOM      7  C   UNL A   1      31.627  25.485  24.400  1.00  0.00     0.169 A 
ATOM      8  N   UNL A   1      32.363  23.459  24.621  1.00  0.00    -0.231 N 
ATOM      9  N   UNL A   1      31.235  24.184  24.440  1.00  0.00    -0.160 NA
ATOM     10  C   UNL A   1      33.485  24.260  24.684  1.00  0.00     0.094 A 
ATOM     11  C   UNL A   1      33.035  25.510  24.304  1.00  0.00     0.100 A 
ATOM     12  Cl  UNL A   1      34.086  26.708  23.712  1.00  0.00    -0.079 Cl
BRANCH   8  13
ATOM     13  C   UNL A   1      32.364  22.046  24.502  1.00  0.00     0.065 A 
ATOM     14  C   UNL A   1      32.844  19.330  24.122  1.00  0.00     0.082 A 
ATOM     15  C   UNL A   1      32.387  20.109  23.052  1.00  0.00     0.024 A 
ATOM     16  C   UNL A   1      33.005  19.890  25.393  1.00  0.00     0.024 A 
ATOM     17  C   UNL A   1      32.112  21.467  23.248  1.00  0.00     0.030 A 
ATOM     18  C   UNL A   1      32.783  21.254  25.578  1.00  0.00     0.030 A 
BRANCH  14  19
ATOM     19  S   UNL A   1      33.334  17.659  23.808  1.00  0.00     0.238 S 
ATOM     20  O   UNL A   1      34.609  17.425  24.442  1.00  0.00    -0.207 OA
ATOM     21  O   UNL A   1      33.081  17.348  22.418  1.00  0.00    -0.207 OA
BRANCH  19  22
ATOM     22  N   UNL A   1      32.241  16.730  24.689  1.00  0.00    -0.225 NA
ATOM     23  H   UNL A   1      31.294  16.921  24.365  1.00  0.00     0.137 HD
ATOM     24  H   UNL A   1      32.315  16.964  25.679  1.00  0.00     0.137 HD
ENDBRANCH  19  22
ENDBRANCH  14  19
ENDBRANCH   8  13
BRANCH  10  25
ATOM     25  C   UNL A   1      34.886  23.859  24.751  1.00  0.00     0.002 A 
ATOM     26  C   UNL A   1      35.406  23.073  23.714  1.00  0.00     0.012 A 
ATOM     27  C   UNL A   1      35.597  23.993  25.949  1.00  0.00     0.012 A 
ATOM     28  C   UNL A   1      36.600  22.375  23.897  1.00  0.00     0.021 A 
ATOM     29  C   UNL A   1      36.790  23.292  26.131  1.00  0.00     0.021 A 
ATOM     30  C   UNL A   1      37.274  22.470  25.112  1.00  0.00     0.041 A 
ATOM     31  Cl  UNL A   1      38.685  21.525  25.382  1.00  0.00    -0.084 Cl
ENDBRANCH  10  25
ENDBRANCH   4   7
ENDBRANCH   2   3
ENDBRANCH   1   2
BRANCH   1  32
ATOM     32  C   UNL A   1      31.785  30.690  26.148  1.00  0.00     0.023 C 
BRANCH  32  33
ATOM     33  C   UNL A   1      32.564  31.409  27.241  1.00  0.00     0.116 C 
BRANCH  33  34
ATOM     34  N   UNL A   1      32.269  32.845  27.308  1.00  0.00    -0.352 N 
ATOM     35  C   UNL A   1      32.879  33.789  28.112  1.00  0.00     0.251 C 
ATOM     36  H   UNL A   1      31.556  33.172  26.713  1.00  0.00     0.163 HD
ATOM     37  O   UNL A   1      32.326  34.850  28.378  1.00  0.00    -0.269 OA
BRANCH  35  38
ATOM     38  C   UNL A   1      34.222  33.493  28.635  1.00  0.00     0.039 A 
ATOM     39  C   UNL A   1      34.398  32.799  29.834  1.00  0.00     0.014 A 
ATOM     40  C   UNL A   1      35.313  33.867  27.851  1.00  0.00     0.014 A 
ATOM     41  C   UNL A   1      35.682  32.397  30.192  1.00  0.00     0.010 A 
ATOM     42  C   UNL A   1      36.555  33.359  28.136  1.00  0.00     0.010 A 
ATOM     43  C   UNL A   1      36.754  32.654  29.322  1.00  0.00    -0.014 A 
BRANCH  43  44
ATOM     44  C   UNL A   1      38.061  32.044  29.554  1.00  0.00     0.031 A 
ATOM     45  C   UNL A   1      38.173  30.641  29.065  1.00  0.00     0.074 A 
ATOM     46  C   UNL A   1      39.138  32.755  29.953  1.00  0.00     0.049 A 
ATOM     47  N   UNL A   1      38.314  29.568  29.772  1.00  0.00    -0.248 NA
ATOM     48  C   UNL A   1      37.938  30.379  27.635  1.00  0.00     0.031 C 
ATOM     49  C   UNL A   1      39.225  34.209  30.149  1.00  0.00     0.029 A 
ATOM     50  N   UNL A   1      40.430  32.355  30.119  1.00  0.00    -0.354 N 
ATOM     51  C   UNL A   1      38.450  28.528  28.852  1.00  0.00     0.074 A 
ATOM     52  C   UNL A   1      37.979  29.045  27.597  1.00  0.00     0.031 C 
ATOM     53  C   UNL A   1      40.521  34.588  30.141  1.00  0.00     0.029 A 
ATOM     54  C   UNL A   1      41.352  33.401  30.115  1.00  0.00     0.049 A 
ATOM     55  H   UNL A   1      40.689  31.412  30.230  1.00  0.00     0.167 HD
ATOM     56  C   UNL A   1      39.206  27.431  29.143  1.00  0.00     0.034 A 
ATOM     57  C   UNL A   1      42.703  33.302  30.048  1.00  0.00     0.034 A 
ATOM     58  C   UNL A   1      39.491  27.367  30.556  1.00  0.00     0.049 A 
ATOM     59  C   UNL A   1      43.057  31.930  30.467  1.00  0.00     0.074 A 
ATOM     60  C   UNL A   1      38.740  27.307  31.713  1.00  0.00     0.029 A 
ATOM     61  N   UNL A   1      40.750  27.761  30.938  1.00  0.00    -0.354 N 
ATOM     62  N   UNL A   1      42.882  31.481  31.677  1.00  0.00    -0.248 NA
ATOM     63  C   UNL A   1      43.219  30.918  29.437  1.00  0.00     0.031 C 
ATOM     64  C   UNL A   1      39.454  28.105  32.654  1.00  0.00     0.029 A 
ATOM     65  C   UNL A   1      40.636  28.543  32.052  1.00  0.00     0.049 A 
ATOM     66  H   UNL A   1      41.592  27.521  30.485  1.00  0.00     0.167 HD
ATOM     67  C   UNL A   1      42.429  30.183  31.491  1.00  0.00     0.074 A 
ATOM     68  C   UNL A   1      42.787  29.851  30.114  1.00  0.00     0.031 C 
ATOM     69  C   UNL A   1      41.546  29.622  32.369  1.00  0.00     0.034 A 
BRANCH  56  70
ATOM     70  C   UNL A   1      40.049  26.645  28.149  1.00  0.00     0.023 A 
ATOM     71  C   UNL A   1      40.026  25.235  28.270  1.00  0.00     0.012 A 
ATOM     72  C   UNL A   1      41.058  27.190  27.323  1.00  0.00     0.148 A 
ATOM     73  C   UNL A   1      41.004  24.424  27.683  1.00  0.00     0.002 A 
ATOM     74  C   UNL A   1      41.984  26.374  26.678  1.00  0.00     0.091 A 
ATOM     75  F   UNL A   1      41.224  28.510  27.239  1.00  0.00    -0.205 F 
ATOM     76  C   UNL A   1      41.986  24.994  26.886  1.00  0.00     0.022 A 
BRANCH  74  77
ATOM     77  S   UNL A   1      43.249  27.053  25.594  1.00  0.00     0.127 S 
ATOM     78  O   UNL A   1      44.072  27.800  26.541  1.00  0.00    -0.237 OA
ATOM     79  O   UNL A   1      43.864  25.838  25.059  1.00  0.00    -0.237 OA
ATOM     80  O   UNL A   1      42.535  27.848  24.603  1.00  0.00    -0.744 OA
ENDBRANCH  74  77
ENDBRANCH  56  70
BRANCH  57  81
ATOM     81  C   UNL A   1      43.707  34.212  29.450  1.00  0.00     0.023 A 
ATOM     82  C   UNL A   1      44.406  35.119  30.272  1.00  0.00     0.012 A 
ATOM     83  C   UNL A   1      44.191  33.991  28.143  1.00  0.00     0.148 A 
ATOM     84  C   UNL A   1      45.572  35.751  29.824  1.00  0.00     0.002 A 
ATOM     85  C   UNL A   1      45.349  34.624  27.699  1.00  0.00     0.091 A 
ATOM     86  F   UNL A   1      43.571  33.088  27.370  1.00  0.00    -0.205 F 
ATOM     87  C   UNL A   1      46.050  35.495  28.543  1.00  0.00     0.022 A 
BRANCH  85  88
ATOM     88  S   UNL A   1      46.042  34.318  26.069  1.00  0.00     0.127 S 
ATOM     89  O   UNL A   1      46.423  32.909  26.163  1.00  0.00    -0.237 OA
ATOM     90  O   UNL A   1      44.898  34.588  25.201  1.00  0.00    -0.237 OA
ATOM     91  O   UNL A   1      47.166  35.237  25.938  1.00  0.00    -0.744 OA
ENDBRANCH  85  88
ENDBRANCH  57  81
BRANCH  69  92
ATOM     92  C   UNL A   1      41.319  30.316  33.688  1.00  0.00     0.023 A 
ATOM     93  C   UNL A   1      42.217  30.216  34.772  1.00  0.00     0.012 A 
ATOM     94  C   UNL A   1      40.255  31.228  33.772  1.00  0.00     0.148 A 
ATOM     95  C   UNL A   1      42.043  30.996  35.920  1.00  0.00     0.002 A 
ATOM     96  C   UNL A   1      40.116  32.039  34.890  1.00  0.00     0.091 A 
ATOM     97  F   UNL A   1      39.409  31.310  32.733  1.00  0.00    -0.205 F 
ATOM     98  C   UNL A   1      41.002  31.919  35.972  1.00  0.00     0.022 A 
BRANCH  96  99
ATOM     99  S   UNL A   1      38.877  33.334  34.953  1.00  0.00     0.127 S 
ATOM    100  O   UNL A   1      37.714  32.618  35.475  1.00  0.00    -0.237 OA
ATOM    101  O   UNL A   1      39.473  34.295  35.882  1.00  0.00    -0.237 OA
ATOM    102  O   UNL A   1      38.748  33.831  33.588  1.00  0.00    -0.744 OA
ENDBRANCH  96  99
ENDBRANCH  69  92
ENDBRANCH  43  44
ENDBRANCH  35  38
ENDBRANCH  33  34
ENDBRANCH  32  33
ENDBRANCH   1  32
TORSDOF 18
ENDMDL
MODEL 2
REMARK VINA RESULT:     -12.8      3.216      7.157
REMARK SMILES NS(=O)(=O)c1ccc(-n2nc(C(=O)NCCCCNC(=O)c3ccc(-c4c5nc(c(-c6cccc(S(=O)(=O)[O-])c6F)c6ccc([nH]6)c(-c6cccc(S(=O)(=O)[O-])c6F)c6nc(c(-c7cccc(S(=O)(=O)[O-])c7F)c7ccc4[nH]7)C=C6)C=C5)cc3)c(Cl)c2-c2ccc(Cl)cc2)cc1
REMARK SMILES IDX 16 1 15 2 14 3 12 4 13 5 11 7 9 8 10 9 87 10 85 11 86 12
REMARK SMILES IDX 8 13 5 14 6 15 96 16 7 17 95 18 2 19 3 20 4 21 1 22 88 25
REMARK SMILES IDX 89 26 94 27 90 28 93 29 91 30 92 31 17 32 18 33 19 34 20 35
REMARK SMILES IDX 21 37 22 38 23 39 84 40 24 41 83 42 25 43 26 44 27 45 77 46
REMARK SMILES IDX 28 47 82 48 76 49 78 50 29 51 81 52 75 53 74 54 30 56 62 57
REMARK SMILES IDX 42 58 61 59 43 60 46 61 60 62 79 63 44 64 45 65 59 67 80 68
REMARK SMILES IDX 47 69 31 70 32 71 40 72 33 73 35 74 41 75 34 76 36 77 37 78
REMARK SMILES IDX 38 79 39 80 63 81 64 82 72 83 65 84 67 85 73 86 66 87 68 88
REMARK SMILES IDX 69 89 70 90 71 91 48 92 49 93 57 94 50 95 52 96 58 97 51 98
REMARK SMILES IDX 53 99 54 100 55 101 56 102
REMARK H PARENT 14 6 1 23 1 24 19 36 78 55 46 66
REMARK Flexibility Score: inf
ROOT
ATOM      1  C   UNL A   1      32.595  29.354  25.174  1.00  0.00     0.023 C 
ENDROOT
BRANCH   1   2
ATOM      2  C   UNL A   1      31.184  28.736  25.217  1.00  0.00     0.116 C 
BRANCH   2   3
ATOM      3  N   UNL A   1      30.706  28.413  23.881  1.00  0.00    -0.351 N 
ATOM      4  C   UNL A   1      30.952  27.381  22.996  1.00  0.00     0.273 C 
ATOM      5  O   UNL A   1      30.349  27.454  21.921  1.00  0.00    -0.267 OA
ATOM      6  H   UNL A   1      30.068  29.075  23.531  1.00  0.00     0.163 HD
BRANCH   4   7
ATOM      7  C   UNL A   1      31.831  26.227  23.303  1.00  0.00     0.169 A 
ATOM      8  N   UNL A   1      32.292  24.180  23.837  1.00  0.00    -0.231 N 
ATOM      9  N   UNL A   1      31.285  24.990  23.440  1.00  0.00    -0.160 NA
ATOM     10  C   UNL A   1      33.487  24.860  23.947  1.00  0.00     0.094 A 
ATOM     11  C   UNL A   1      33.234  26.093  23.377  1.00  0.00     0.100 A 
ATOM     12  Cl  UNL A   1      34.478  27.089  22.786  1.00  0.00    -0.079 Cl
BRANCH   8  13
ATOM     13  C   UNL A   1      32.138  22.770  23.879  1.00  0.00     0.065 A 
ATOM     14  C   UNL A   1      32.334  19.993  23.891  1.00  0.00     0.082 A 
ATOM     15  C   UNL A   1      32.150  20.669  22.679  1.00  0.00     0.024 A 
ATOM     16  C   UNL A   1      32.362  20.694  25.101  1.00  0.00     0.024 A 
ATOM     17  C   UNL A   1      32.016  22.062  22.673  1.00  0.00     0.030 A 
ATOM     18  C   UNL A   1      32.283  22.086  25.091  1.00  0.00     0.030 A 
BRANCH  14  19
ATOM     19  S   UNL A   1      32.658  18.254  23.854  1.00  0.00     0.238 S 
ATOM     20  O   UNL A   1      31.891  17.618  24.897  1.00  0.00    -0.207 OA
ATOM     21  O   UNL A   1      34.080  18.044  23.689  1.00  0.00    -0.207 OA
BRANCH  19  22
ATOM     22  N   UNL A   1      31.950  17.728  22.420  1.00  0.00    -0.225 NA
ATOM     23  H   UNL A   1      30.943  17.636  22.552  1.00  0.00     0.137 HD
ATOM     24  H   UNL A   1      32.343  16.824  22.158  1.00  0.00     0.137 HD
ENDBRANCH  19  22
ENDBRANCH  14  19
ENDBRANCH   8  13
BRANCH  10  25
ATOM     25  C   UNL A   1      34.816  24.325  24.228  1.00  0.00     0.002 A 
ATOM     26  C   UNL A   1      35.411  23.481  23.281  1.00  0.00     0.012 A 
ATOM     27  C   UNL A   1      35.342  24.402  25.523  1.00  0.00     0.012 A 
ATOM     28  C   UNL A   1      36.488  22.672  23.644  1.00  0.00     0.021 A 
ATOM     29  C   UNL A   1      36.418  23.591  25.885  1.00  0.00     0.021 A 
ATOM     30  C   UNL A   1      36.972  22.715  24.950  1.00  0.00     0.041 A 
ATOM     31  Cl  UNL A   1      38.225  21.640  25.431  1.00  0.00    -0.084 Cl
ENDBRANCH  10  25
ENDBRANCH   4   7
ENDBRANCH   2   3
ENDBRANCH   1   2
BRANCH   1  32
ATOM     32  C   UNL A   1      33.664  28.719  26.064  1.00  0.00     0.023 C 
BRANCH  32  33
ATOM     33  C   UNL A   1      33.570  29.115  27.531  1.00  0.00     0.116 C 
BRANCH  33  34
ATOM     34  N   UNL A   1      33.861  30.533  27.765  1.00  0.00    -0.352 N 
ATOM     35  C   UNL A   1      34.929  31.067  28.459  1.00  0.00     0.251 C 
ATOM     36  H   UNL A   1      33.220  31.178  27.385  1.00  0.00     0.163 HD
ATOM     37  O   UNL A   1      34.885  32.200  28.923  1.00  0.00    -0.269 OA
BRANCH  35  38
ATOM     38  C   UNL A   1      36.137  30.240  28.618  1.00  0.00     0.039 A 
ATOM     39  C   UNL A   1      37.091  30.146  27.602  1.00  0.00     0.014 A 
ATOM     40  C   UNL A   1      36.329  29.613  29.849  1.00  0.00     0.014 A 
ATOM     41  C   UNL A   1      38.292  29.494  27.871  1.00  0.00     0.010 A 
ATOM     42  C   UNL A   1      37.558  29.087  30.154  1.00  0.00     0.010 A 
ATOM     43  C   UNL A   1      38.531  28.992  29.160  1.00  0.00    -0.014 A 
BRANCH  43  44
ATOM     44  C   UNL A   1      39.861  28.517  29.536  1.00  0.00     0.031 A 
ATOM     45  C   UNL A   1      40.195  28.717  30.974  1.00  0.00     0.074 A 
ATOM     46  C   UNL A   1      40.620  27.752  28.720  1.00  0.00     0.049 A 
ATOM     47  N   UNL A   1      41.091  29.504  31.473  1.00  0.00    -0.248 NA
ATOM     48  C   UNL A   1      39.326  28.095  31.987  1.00  0.00     0.031 C 
ATOM     49  C   UNL A   1      40.252  27.216  27.402  1.00  0.00     0.029 A 
ATOM     50  N   UNL A   1      41.822  27.158  28.957  1.00  0.00    -0.354 N 
ATOM     51  C   UNL A   1      41.071  29.272  32.848  1.00  0.00     0.074 A 
ATOM     52  C   UNL A   1      39.832  28.594  33.116  1.00  0.00     0.031 C 
ATOM     53  C   UNL A   1      41.072  26.190  27.088  1.00  0.00     0.029 A 
ATOM     54  C   UNL A   1      42.119  26.110  28.087  1.00  0.00     0.049 A 
ATOM     55  H   UNL A   1      42.428  27.444  29.679  1.00  0.00     0.167 HD
ATOM     56  C   UNL A   1      42.203  29.401  33.597  1.00  0.00     0.034 A 
ATOM     57  C   UNL A   1      43.125  25.208  28.204  1.00  0.00     0.034 A 
ATOM     58  C   UNL A   1      43.221  30.114  32.864  1.00  0.00     0.049 A 
ATOM     59  C   UNL A   1      44.131  25.798  29.111  1.00  0.00     0.074 A 
ATOM     60  C   UNL A   1      43.324  31.357  32.274  1.00  0.00     0.029 A 
ATOM     61  N   UNL A   1      44.224  29.348  32.322  1.00  0.00    -0.354 N 
ATOM     62  N   UNL A   1      44.838  26.851  28.812  1.00  0.00    -0.248 NA
ATOM     63  C   UNL A   1      44.058  25.468  30.524  1.00  0.00     0.031 C 
ATOM     64  C   UNL A   1      44.080  31.136  31.085  1.00  0.00     0.029 A 
ATOM     65  C   UNL A   1      44.464  29.793  31.053  1.00  0.00     0.049 A 
ATOM     66  H   UNL A   1      44.690  28.605  32.770  1.00  0.00     0.167 HD
ATOM     67  C   UNL A   1      44.880  27.573  29.996  1.00  0.00     0.074 A 
ATOM     68  C   UNL A   1      44.508  26.616  31.036  1.00  0.00     0.031 C 
ATOM     69  C   UNL A   1      44.916  28.938  29.977  1.00  0.00     0.034 A 
BRANCH  56  70
ATOM     70  C   UNL A   1      42.572  28.546  34.800  1.00  0.00     0.023 A 
ATOM     71  C   UNL A   1      43.072  29.228  35.936  1.00  0.00     0.012 A 
ATOM     72  C   UNL A   1      42.736  27.143  34.787  1.00  0.00     0.148 A 
ATOM     73  C   UNL A   1      43.776  28.567  36.949  1.00  0.00     0.002 A 
ATOM     74  C   UNL A   1      43.370  26.477  35.833  1.00  0.00     0.091 A 
ATOM     75  F   UNL A   1      42.397  26.432  33.710  1.00  0.00    -0.205 F 
ATOM     76  C   UNL A   1      43.925  27.188  36.898  1.00  0.00     0.022 A 
BRANCH  74  77
ATOM     77  S   UNL A   1      43.550  24.688  35.844  1.00  0.00     0.127 S 
ATOM     78  O   UNL A   1      42.179  24.259  36.104  1.00  0.00    -0.237 OA
ATOM     79  O   UNL A   1      44.035  24.431  34.488  1.00  0.00    -0.237 OA
ATOM     80  O   UNL A   1      44.521  24.395  36.891  1.00  0.00    -0.744 OA
ENDBRANCH  74  77
ENDBRANCH  56  70
BRANCH  57  81
ATOM     81  C   UNL A   1      43.203  23.792  27.777  1.00  0.00     0.023 A 
ATOM     82  C   UNL A   1      42.260  22.863  28.263  1.00  0.00     0.012 A 
ATOM     83  C   UNL A   1      44.005  23.413  26.679  1.00  0.00     0.148 A 
ATOM     84  C   UNL A   1      42.089  21.617  27.647  1.00  0.00     0.002 A 
ATOM     85  C   UNL A   1      43.836  22.171  26.073  1.00  0.00     0.091 A 
ATOM     86  F   UNL A   1      44.865  24.307  26.171  1.00  0.00    -0.205 F 
ATOM     87  C   UNL A   1      42.868  21.276  26.546  1.00  0.00     0.022 A 
BRANCH  85  88
ATOM     88  S   UNL A   1      44.783  21.675  24.629  1.00  0.00     0.127 S 
ATOM     89  O   UNL A   1      44.353  20.290  24.446  1.00  0.00    -0.237 OA
ATOM     90  O   UNL A   1      44.297  22.608  23.615  1.00  0.00    -0.237 OA
ATOM     91  O   UNL A   1      46.184  21.824  25.003  1.00  0.00    -0.744 OA
ENDBRANCH  85  88
ENDBRANCH  57  81
BRANCH  69  92
ATOM     92  C   UNL A   1      45.220  29.621  28.668  1.00  0.00     0.023 A 
ATOM     93  C   UNL A   1      44.229  29.909  27.705  1.00  0.00     0.012 A 
ATOM     94  C   UNL A   1      46.513  30.137  28.484  1.00  0.00     0.148 A 
ATOM     95  C   UNL A   1      44.531  30.677  26.576  1.00  0.00     0.002 A 
ATOM     96  C   UNL A   1      46.795  30.944  27.390  1.00  0.00     0.091 A 
ATOM     97  F   UNL A   1      47.443  29.853  29.409  1.00  0.00    -0.205 F 
ATOM     98  C   UNL A   1      45.810  31.208  26.427  1.00  0.00     0.022 A 
BRANCH  96  99
ATOM     99  S   UNL A   1      48.383  31.760  27.220  1.00  0.00     0.127 S 
ATOM    100  O   UNL A   1      48.101  32.766  26.199  1.00  0.00    -0.237 OA
ATOM    101  O   UNL A   1      48.607  32.295  28.563  1.00  0.00    -0.237 OA
ATOM    102  O   UNL A   1      49.328  30.719  26.832  1.00  0.00    -0.744 OA
ENDBRANCH  96  99
ENDBRANCH  69  92
ENDBRANCH  43  44
ENDBRANCH  35  38
ENDBRANCH  33  34
ENDBRANCH  32  33
ENDBRANCH   1  32
TORSDOF 18
ENDMDL
MODEL 3
REMARK VINA RESULT:     -11.8      5.364     10.075
REMARK SMILES NS(=O)(=O)c1ccc(-n2nc(C(=O)NCCCCNC(=O)c3ccc(-c4c5nc(c(-c6cccc(S(=O)(=O)[O-])c6F)c6ccc([nH]6)c(-c6cccc(S(=O)(=O)[O-])c6F)c6nc(c(-c7cccc(S(=O)(=O)[O-])c7F)c7ccc4[nH]7)C=C6)C=C5)cc3)c(Cl)c2-c2ccc(Cl)cc2)cc1
REMARK SMILES IDX 16 1 15 2 14 3 12 4 13 5 11 7 9 8 10 9 87 10 85 11 86 12
REMARK SMILES IDX 8 13 5 14 6 15 96 16 7 17 95 18 2 19 3 20 4 21 1 22 88 25
REMARK SMILES IDX 89 26 94 27 90 28 93 29 91 30 92 31 17 32 18 33 19 34 20 35
REMARK SMILES IDX 21 37 22 38 23 39 84 40 24 41 83 42 25 43 26 44 27 45 77 46
REMARK SMILES IDX 28 47 82 48 76 49 78 50 29 51 81 52 75 53 74 54 30 56 62 57
REMARK SMILES IDX 42 58 61 59 43 60 46 61 60 62 79 63 44 64 45 65 59 67 80 68
REMARK SMILES IDX 47 69 31 70 32 71 40 72 33 73 35 74 41 75 34 76 36 77 37 78
REMARK SMILES IDX 38 79 39 80 63 81 64 82 72 83 65 84 67 85 73 86 66 87 68 88
REMARK SMILES IDX 69 89 70 90 71 91 48 92 49 93 57 94 50 95 52 96 58 97 51 98
REMARK SMILES IDX 53 99 54 100 55 101 56 102
REMARK H PARENT 14 6 1 23 1 24 19 36 78 55 46 66
REMARK Flexibility Score: inf
ROOT
ATOM      1  C   UNL A   1      48.383  27.232  27.605  1.00  0.00     0.023 C 
ENDROOT
BRANCH   1   2
ATOM      2  C   UNL A   1      47.607  28.492  27.177  1.00  0.00     0.116 C 
BRANCH   2   3
ATOM      3  N   UNL A   1      47.526  28.597  25.728  1.00  0.00    -0.351 N 
ATOM      4  C   UNL A   1      46.800  27.937  24.755  1.00  0.00     0.273 C 
ATOM      5  O   UNL A   1      47.011  28.309  23.597  1.00  0.00    -0.267 OA
ATOM      6  H   UNL A   1      48.119  29.291  25.359  1.00  0.00     0.163 HD
BRANCH   4   7
ATOM      7  C   UNL A   1      45.794  26.889  25.050  1.00  0.00     0.169 A 
ATOM      8  N   UNL A   1      44.953  24.893  25.028  1.00  0.00    -0.231 N 
ATOM      9  N   UNL A   1      46.086  25.589  24.780  1.00  0.00    -0.160 NA
ATOM     10  C   UNL A   1      43.933  25.710  25.471  1.00  0.00     0.094 A 
ATOM     11  C   UNL A   1      44.547  26.925  25.709  1.00  0.00     0.100 A 
ATOM     12  Cl  UNL A   1      43.871  28.091  26.745  1.00  0.00    -0.079 Cl
BRANCH   8  13
ATOM     13  C   UNL A   1      44.944  23.474  25.054  1.00  0.00     0.065 A 
ATOM     14  C   UNL A   1      45.389  20.730  24.916  1.00  0.00     0.082 A 
ATOM     15  C   UNL A   1      44.848  21.401  23.812  1.00  0.00     0.024 A 
ATOM     16  C   UNL A   1      45.653  21.415  26.107  1.00  0.00     0.024 A 
ATOM     17  C   UNL A   1      44.591  22.774  23.891  1.00  0.00     0.030 A 
ATOM     18  C   UNL A   1      45.447  22.793  26.168  1.00  0.00     0.030 A 
BRANCH  14  19
ATOM     19  S   UNL A   1      45.851  19.032  24.736  1.00  0.00     0.238 S 
ATOM     20  O   UNL A   1      47.149  18.840  25.335  1.00  0.00    -0.207 OA
ATOM     21  O   UNL A   1      45.536  18.599  23.392  1.00  0.00    -0.207 OA
BRANCH  19  22
ATOM     22  N   UNL A   1      44.788  18.201  25.744  1.00  0.00    -0.225 NA
ATOM     23  H   UNL A   1      44.947  17.198  25.652  1.00  0.00     0.137 HD
ATOM     24  H   UNL A   1      43.828  18.418  25.479  1.00  0.00     0.137 HD
ENDBRANCH  19  22
ENDBRANCH  14  19
ENDBRANCH   8  13
BRANCH  10  25
ATOM     25  C   UNL A   1      42.609  25.331  25.953  1.00  0.00     0.002 A 
ATOM     26  C   UNL A   1      41.531  26.185  25.685  1.00  0.00     0.012 A 
ATOM     27  C   UNL A   1      42.475  24.315  26.906  1.00  0.00     0.012 A 
ATOM     28  C   UNL A   1      40.346  26.064  26.411  1.00  0.00     0.021 A 
ATOM     29  C   UNL A   1      41.290  24.197  27.633  1.00  0.00     0.021 A 
ATOM     30  C   UNL A   1      40.239  25.085  27.396  1.00  0.00     0.041 A 
ATOM     31  Cl  UNL A   1      38.823  25.003  28.369  1.00  0.00    -0.084 Cl
ENDBRANCH  10  25
ENDBRANCH   4   7
ENDBRANCH   2   3
ENDBRANCH   1   2
BRANCH   1  32
ATOM     32  C   UNL A   1      47.560  26.005  28.002  1.00  0.00     0.023 C 
BRANCH  32  33
ATOM     33  C   UNL A   1      46.356  26.319  28.880  1.00  0.00     0.116 C 
BRANCH  33  34
ATOM     34  N   UNL A   1      45.649  25.118  29.338  1.00  0.00    -0.352 N 
ATOM     35  C   UNL A   1      44.670  25.041  30.309  1.00  0.00     0.251 C 
ATOM     36  H   UNL A   1      45.902  24.271  28.904  1.00  0.00     0.163 HD
ATOM     37  O   UNL A   1      44.423  23.986  30.882  1.00  0.00    -0.269 OA
BRANCH  35  38
ATOM     38  C   UNL A   1      43.916  26.262  30.634  1.00  0.00     0.039 A 
ATOM     39  C   UNL A   1      44.281  27.076  31.709  1.00  0.00     0.014 A 
ATOM     40  C   UNL A   1      42.868  26.615  29.785  1.00  0.00     0.014 A 
ATOM     41  C   UNL A   1      43.643  28.305  31.864  1.00  0.00     0.010 A 
ATOM     42  C   UNL A   1      42.333  27.877  29.860  1.00  0.00     0.010 A 
ATOM     43  C   UNL A   1      42.690  28.712  30.917  1.00  0.00    -0.014 A 
BRANCH  43  44
ATOM     44  C   UNL A   1      42.180  30.081  30.920  1.00  0.00     0.031 A 
ATOM     45  C   UNL A   1      43.209  31.115  30.614  1.00  0.00     0.074 A 
ATOM     46  C   UNL A   1      40.860  30.369  30.957  1.00  0.00     0.049 A 
ATOM     47  N   UNL A   1      43.677  32.020  31.408  1.00  0.00    -0.248 NA
ATOM     48  C   UNL A   1      43.920  31.032  29.327  1.00  0.00     0.031 C 
ATOM     49  C   UNL A   1      39.739  29.419  30.927  1.00  0.00     0.029 A 
ATOM     50  N   UNL A   1      40.231  31.574  30.870  1.00  0.00    -0.354 N 
ATOM     51  C   UNL A   1      44.549  32.785  30.633  1.00  0.00     0.074 A 
ATOM     52  C   UNL A   1      44.831  31.999  29.463  1.00  0.00     0.031 C 
ATOM     53  C   UNL A   1      38.610  30.066  30.565  1.00  0.00     0.029 A 
ATOM     54  C   UNL A   1      38.887  31.487  30.510  1.00  0.00     0.049 A 
ATOM     55  H   UNL A   1      40.685  32.429  31.045  1.00  0.00     0.167 HD
ATOM     56  C   UNL A   1      44.732  34.112  30.886  1.00  0.00     0.034 A 
ATOM     57  C   UNL A   1      38.069  32.506  30.144  1.00  0.00     0.034 A 
ATOM     58  C   UNL A   1      44.218  34.458  32.190  1.00  0.00     0.049 A 
ATOM     59  C   UNL A   1      38.679  33.752  30.652  1.00  0.00     0.074 A 
ATOM     60  C   UNL A   1      44.461  34.052  33.486  1.00  0.00     0.029 A 
ATOM     61  N   UNL A   1      43.002  35.096  32.211  1.00  0.00    -0.354 N 
ATOM     62  N   UNL A   1      38.793  34.031  31.920  1.00  0.00    -0.248 NA
ATOM     63  C   UNL A   1      39.542  34.507  29.761  1.00  0.00     0.031 C 
ATOM     64  C   UNL A   1      43.182  34.060  34.118  1.00  0.00     0.029 A 
ATOM     65  C   UNL A   1      42.244  34.543  33.203  1.00  0.00     0.049 A 
ATOM     66  H   UNL A   1      42.723  35.827  31.612  1.00  0.00     0.167 HD
ATOM     67  C   UNL A   1      40.048  34.613  32.023  1.00  0.00     0.074 A 
ATOM     68  C   UNL A   1      40.398  35.002  30.659  1.00  0.00     0.031 C 
ATOM     69  C   UNL A   1      40.801  34.447  33.150  1.00  0.00     0.034 A 
BRANCH  56  70
ATOM     70  C   UNL A   1      44.973  35.190  29.840  1.00  0.00     0.023 A 
ATOM     71  C   UNL A   1      46.177  35.927  29.951  1.00  0.00     0.012 A 
ATOM     72  C   UNL A   1      43.996  35.712  28.963  1.00  0.00     0.148 A 
ATOM     73  C   UNL A   1      46.360  37.154  29.304  1.00  0.00     0.002 A 
ATOM     74  C   UNL A   1      44.210  36.894  28.260  1.00  0.00     0.091 A 
ATOM     75  F   UNL A   1      42.791  35.146  28.880  1.00  0.00    -0.205 F 
ATOM     76  C   UNL A   1      45.374  37.639  28.457  1.00  0.00     0.022 A 
BRANCH  74  77
ATOM     77  S   UNL A   1      42.989  37.547  27.113  1.00  0.00     0.127 S 
ATOM     78  O   UNL A   1      41.897  37.895  28.017  1.00  0.00    -0.237 OA
ATOM     79  O   UNL A   1      43.705  38.685  26.535  1.00  0.00    -0.237 OA
ATOM     80  O   UNL A   1      42.719  36.471  26.168  1.00  0.00    -0.744 OA
ENDBRANCH  74  77
ENDBRANCH  56  70
BRANCH  57  81
ATOM     81  C   UNL A   1      36.920  32.531  29.210  1.00  0.00     0.023 A 
ATOM     82  C   UNL A   1      36.636  31.397  28.421  1.00  0.00     0.012 A 
ATOM     83  C   UNL A   1      35.935  33.538  29.306  1.00  0.00     0.148 A 
ATOM     84  C   UNL A   1      35.398  31.250  27.786  1.00  0.00     0.002 A 
ATOM     85  C   UNL A   1      34.707  33.390  28.668  1.00  0.00     0.091 A 
ATOM     86  F   UNL A   1      36.168  34.593  30.099  1.00  0.00    -0.205 F 
ATOM     87  C   UNL A   1      34.429  32.240  27.918  1.00  0.00     0.022 A 
BRANCH  85  88
ATOM     88  S   UNL A   1      33.397  34.612  28.821  1.00  0.00     0.127 S 
ATOM     89  O   UNL A   1      32.378  34.076  27.920  1.00  0.00    -0.237 OA
ATOM     90  O   UNL A   1      33.068  34.524  30.242  1.00  0.00    -0.237 OA
ATOM     91  O   UNL A   1      33.981  35.874  28.385  1.00  0.00    -0.744 OA
ENDBRANCH  85  88
ENDBRANCH  57  81
BRANCH  69  92
ATOM     92  C   UNL A   1      40.127  33.891  34.379  1.00  0.00     0.023 A 
ATOM     93  C   UNL A   1      39.389  34.691  35.277  1.00  0.00     0.012 A 
ATOM     94  C   UNL A   1      40.098  32.496  34.533  1.00  0.00     0.148 A 
ATOM     95  C   UNL A   1      38.656  34.109  36.317  1.00  0.00     0.002 A 
ATOM     96  C   UNL A   1      39.327  31.919  35.533  1.00  0.00     0.091 A 
ATOM     97  F   UNL A   1      40.807  31.750  33.671  1.00  0.00    -0.205 F 
ATOM     98  C   UNL A   1      38.613  32.723  36.435  1.00  0.00     0.022 A 
BRANCH  96  99
ATOM     99  S   UNL A   1      39.130  30.140  35.648  1.00  0.00     0.127 S 
ATOM    100  O   UNL A   1      38.166  30.010  36.739  1.00  0.00    -0.237 OA
ATOM    101  O   UNL A   1      38.608  29.796  34.325  1.00  0.00    -0.237 OA
ATOM    102  O   UNL A   1      40.460  29.607  35.917  1.00  0.00    -0.744 OA
ENDBRANCH  96  99
ENDBRANCH  69  92
ENDBRANCH  43  44
ENDBRANCH  35  38
ENDBRANCH  33  34
ENDBRANCH  32  33
ENDBRANCH   1  32
TORSDOF 18
ENDMDL
