MODEL 1
REMARK VINA RESULT:     -12.9      0.000      0.000
REMARK SMILES O=C(NCCCCNC(=O)[C@@H]1Nc2c(cccc2C(F)(F)F)[C@@H]2C=CC[C@@H]12)c1ccc(-c2c3nc(c(-c4cccc(S(=O)(=O)[O-])c4F)c4ccc([nH]4)c(-c4cccc(S(=O)(=O)[O-])c4F)c4nc(c(-c5cccc(S(=O)(=O)[O-])c5F)c5ccc2[nH]5)C=C4)C=C3)cc1
REMARK SMILES IDX 4 1 3 2 1 3 2 4 28 6 29 7 90 8 30 9 89 10 31 11 32 12 33 13
REMARK SMILES IDX 83 14 34 15 88 16 82 17 84 18 35 19 87 20 81 21 80 22 36 24
REMARK SMILES IDX 68 25 48 26 67 27 49 28 52 29 66 30 85 31 50 32 51 33 65 35
REMARK SMILES IDX 86 36 53 37 37 38 38 39 46 40 39 41 41 42 47 43 40 44 42 45
REMARK SMILES IDX 43 46 44 47 45 48 69 49 70 50 78 51 71 52 73 53 79 54 72 55
REMARK SMILES IDX 74 56 75 57 76 58 77 59 54 60 55 61 63 62 56 63 58 64 64 65
REMARK SMILES IDX 57 66 59 67 60 68 61 69 62 70 5 71 6 72 7 73 8 74 9 75 10 77
REMARK SMILES IDX 11 78 12 79 27 80 13 81 23 83 26 84 14 85 18 86 24 87 25 88
REMARK SMILES IDX 15 89 17 90 16 91 19 92 20 93 21 94 22 95
REMARK H PARENT 3 5 84 23 52 34 8 76 12 82
REMARK Flexibility Score: inf
ROOT
ATOM      1  C   UNL A   1      36.490  21.983  25.753  1.00  0.00     0.116 C 
ENDROOT
BRANCH   1   2
ATOM      2  N   UNL A   1      37.497  20.933  25.739  1.00  0.00    -0.352 N 
ATOM      3  O   UNL A   1      39.568  20.049  25.779  1.00  0.00    -0.269 OA
ATOM      4  C   UNL A   1      38.847  21.025  25.972  1.00  0.00     0.251 C 
ATOM      5  H   UNL A   1      37.164  20.030  25.534  1.00  0.00     0.163 HD
BRANCH   4   6
ATOM      6  C   UNL A   1      39.424  22.302  26.437  1.00  0.00     0.039 A 
ATOM      7  C   UNL A   1      38.866  23.503  25.992  1.00  0.00     0.014 A 
ATOM      8  C   UNL A   1      40.518  22.317  27.306  1.00  0.00     0.014 A 
ATOM      9  C   UNL A   1      39.398  24.714  26.437  1.00  0.00     0.010 A 
ATOM     10  C   UNL A   1      40.960  23.514  27.845  1.00  0.00     0.010 A 
ATOM     11  C   UNL A   1      40.447  24.727  27.370  1.00  0.00    -0.014 A 
BRANCH  11  12
ATOM     12  C   UNL A   1      41.105  25.992  27.771  1.00  0.00     0.031 A 
ATOM     13  C   UNL A   1      42.521  26.257  27.326  1.00  0.00     0.074 A 
ATOM     14  C   UNL A   1      40.459  26.877  28.553  1.00  0.00     0.049 A 
ATOM     15  N   UNL A   1      43.279  27.294  27.570  1.00  0.00    -0.248 NA
ATOM     16  C   UNL A   1      43.192  25.209  26.531  1.00  0.00     0.031 C 
ATOM     17  C   UNL A   1      39.116  26.699  29.108  1.00  0.00     0.029 A 
ATOM     18  N   UNL A   1      40.849  28.109  29.014  1.00  0.00    -0.354 N 
ATOM     19  C   UNL A   1      44.514  26.997  27.011  1.00  0.00     0.074 A 
ATOM     20  C   UNL A   1      44.430  25.670  26.451  1.00  0.00     0.031 C 
ATOM     21  C   UNL A   1      38.775  27.801  29.795  1.00  0.00     0.029 A 
ATOM     22  C   UNL A   1      39.881  28.754  29.747  1.00  0.00     0.049 A 
ATOM     23  H   UNL A   1      41.737  28.495  28.836  1.00  0.00     0.167 HD
ATOM     24  C   UNL A   1      45.611  27.780  26.921  1.00  0.00     0.034 A 
ATOM     25  C   UNL A   1      39.880  29.985  30.297  1.00  0.00     0.034 A 
ATOM     26  C   UNL A   1      45.655  29.139  27.371  1.00  0.00     0.049 A 
ATOM     27  C   UNL A   1      41.085  30.867  30.124  1.00  0.00     0.074 A 
ATOM     28  C   UNL A   1      46.669  30.062  27.203  1.00  0.00     0.029 A 
ATOM     29  N   UNL A   1      44.636  29.771  28.062  1.00  0.00    -0.354 N 
ATOM     30  N   UNL A   1      42.192  30.623  29.464  1.00  0.00    -0.248 NA
ATOM     31  C   UNL A   1      41.038  32.199  30.746  1.00  0.00     0.031 C 
ATOM     32  C   UNL A   1      46.266  31.254  27.805  1.00  0.00     0.029 A 
ATOM     33  C   UNL A   1      45.001  31.072  28.341  1.00  0.00     0.049 A 
ATOM     34  H   UNL A   1      43.780  29.354  28.316  1.00  0.00     0.167 HD
ATOM     35  C   UNL A   1      42.962  31.774  29.571  1.00  0.00     0.074 A 
ATOM     36  C   UNL A   1      42.195  32.721  30.353  1.00  0.00     0.031 C 
ATOM     37  C   UNL A   1      44.200  32.015  29.076  1.00  0.00     0.034 A 
BRANCH  24  38
ATOM     38  C   UNL A   1      46.826  27.220  26.239  1.00  0.00     0.023 A 
ATOM     39  C   UNL A   1      46.995  27.420  24.855  1.00  0.00     0.012 A 
ATOM     40  C   UNL A   1      47.830  26.566  26.978  1.00  0.00     0.148 A 
ATOM     41  C   UNL A   1      48.141  26.960  24.209  1.00  0.00     0.002 A 
ATOM     42  C   UNL A   1      48.984  26.141  26.334  1.00  0.00     0.091 A 
ATOM     43  F   UNL A   1      47.633  26.372  28.290  1.00  0.00    -0.205 F 
ATOM     44  C   UNL A   1      49.138  26.331  24.950  1.00  0.00     0.022 A 
BRANCH  42  45
ATOM     45  S   UNL A   1      50.353  25.369  27.202  1.00  0.00     0.127 S 
ATOM     46  O   UNL A   1      50.729  26.419  28.151  1.00  0.00    -0.237 OA
ATOM     47  O   UNL A   1      49.712  24.202  27.808  1.00  0.00    -0.237 OA
ATOM     48  O   UNL A   1      51.354  25.064  26.191  1.00  0.00    -0.744 OA
ENDBRANCH  42  45
ENDBRANCH  24  38
BRANCH  25  49
ATOM     49  C   UNL A   1      38.645  30.482  30.962  1.00  0.00     0.023 A 
ATOM     50  C   UNL A   1      38.538  30.372  32.361  1.00  0.00     0.012 A 
ATOM     51  C   UNL A   1      37.629  31.134  30.239  1.00  0.00     0.148 A 
ATOM     52  C   UNL A   1      37.434  30.898  33.032  1.00  0.00     0.002 A 
ATOM     53  C   UNL A   1      36.548  31.686  30.917  1.00  0.00     0.091 A 
ATOM     54  F   UNL A   1      37.761  31.229  28.909  1.00  0.00    -0.205 F 
ATOM     55  C   UNL A   1      36.445  31.563  32.313  1.00  0.00     0.022 A 
BRANCH  53  56
ATOM     56  S   UNL A   1      35.267  32.641  30.095  1.00  0.00     0.127 S 
ATOM     57  O   UNL A   1      34.770  31.686  29.107  1.00  0.00    -0.237 OA
ATOM     58  O   UNL A   1      34.349  32.918  31.200  1.00  0.00    -0.237 OA
ATOM     59  O   UNL A   1      35.934  33.814  29.548  1.00  0.00    -0.744 OA
ENDBRANCH  53  56
ENDBRANCH  25  49
BRANCH  37  60
ATOM     60  C   UNL A   1      44.836  33.349  29.340  1.00  0.00     0.023 A 
ATOM     61  C   UNL A   1      45.628  33.508  30.492  1.00  0.00     0.012 A 
ATOM     62  C   UNL A   1      44.828  34.351  28.351  1.00  0.00     0.148 A 
ATOM     63  C   UNL A   1      46.416  34.646  30.652  1.00  0.00     0.002 A 
ATOM     64  C   UNL A   1      45.643  35.466  28.500  1.00  0.00     0.091 A 
ATOM     65  F   UNL A   1      44.068  34.164  27.262  1.00  0.00    -0.205 F 
ATOM     66  C   UNL A   1      46.436  35.615  29.650  1.00  0.00     0.022 A 
BRANCH  64  67
ATOM     67  S   UNL A   1      45.810  36.722  27.227  1.00  0.00     0.127 S 
ATOM     68  O   UNL A   1      44.482  37.334  27.236  1.00  0.00    -0.237 OA
ATOM     69  O   UNL A   1      46.875  37.566  27.768  1.00  0.00    -0.237 OA
ATOM     70  O   UNL A   1      46.150  36.016  26.000  1.00  0.00    -0.744 OA
ENDBRANCH  64  67
ENDBRANCH  37  60
ENDBRANCH  11  12
ENDBRANCH   4   6
ENDBRANCH   1   2
BRANCH   1  71
ATOM     71  C   UNL A   1      35.125  21.501  25.304  1.00  0.00     0.023 C 
BRANCH  71  72
ATOM     72  C   UNL A   1      34.214  21.050  26.436  1.00  0.00     0.023 C 
BRANCH  72  73
ATOM     73  C   UNL A   1      33.934  22.106  27.505  1.00  0.00     0.116 C 
BRANCH  73  74
ATOM     74  N   UNL A   1      32.533  22.473  27.498  1.00  0.00    -0.354 N 
ATOM     75  C   UNL A   1      31.925  23.559  26.930  1.00  0.00     0.242 C 
ATOM     76  H   UNL A   1      31.932  21.851  27.968  1.00  0.00     0.163 HD
ATOM     77  O   UNL A   1      30.719  23.703  27.138  1.00  0.00    -0.273 OA
BRANCH  75  78
ATOM     78  C   UNL A   1      32.732  24.487  25.992  1.00  0.00     0.173 C 
ATOM     79  N   UNL A   1      32.518  25.921  26.298  1.00  0.00    -0.373 N 
ATOM     80  C   UNL A   1      32.366  24.290  24.529  1.00  0.00     0.036 C 
ATOM     81  C   UNL A   1      32.746  26.938  25.374  1.00  0.00     0.051 A 
ATOM     82  H   UNL A   1      32.200  26.165  27.197  1.00  0.00     0.161 HD
ATOM     83  C   UNL A   1      33.328  25.158  23.708  1.00  0.00     0.049 C 
ATOM     84  C   UNL A   1      32.476  22.917  23.873  1.00  0.00     0.034 C 
ATOM     85  C   UNL A   1      33.114  26.610  24.041  1.00  0.00    -0.017 A 
ATOM     86  C   UNL A   1      32.691  28.298  25.742  1.00  0.00     0.079 A 
ATOM     87  C   UNL A   1      33.064  24.606  22.341  1.00  0.00    -0.023 C 
ATOM     88  C   UNL A   1      32.638  23.335  22.435  1.00  0.00    -0.030 C 
ATOM     89  C   UNL A   1      33.390  27.620  23.109  1.00  0.00     0.006 A 
ATOM     90  C   UNL A   1      32.952  29.292  24.776  1.00  0.00     0.015 A 
ATOM     91  C   UNL A   1      33.294  28.957  23.471  1.00  0.00     0.001 A 
BRANCH  86  92
ATOM     92  C   UNL A   1      32.386  28.792  27.133  1.00  0.00     0.418 C 
ATOM     93  F   UNL A   1      31.248  28.236  27.644  1.00  0.00    -0.166 F 
ATOM     94  F   UNL A   1      33.372  28.484  28.022  1.00  0.00    -0.166 F 
ATOM     95  F   UNL A   1      32.208  30.134  27.240  1.00  0.00    -0.166 F 
ENDBRANCH  86  92
ENDBRANCH  75  78
ENDBRANCH  73  74
ENDBRANCH  72  73
ENDBRANCH  71  72
ENDBRANCH   1  71
TORSDOF 15
ENDMDL
MODEL 2
REMARK VINA RESULT:     -12.9      4.889      9.955
REMARK SMILES O=C(NCCCCNC(=O)[C@@H]1Nc2c(cccc2C(F)(F)F)[C@@H]2C=CC[C@@H]12)c1ccc(-c2c3nc(c(-c4cccc(S(=O)(=O)[O-])c4F)c4ccc([nH]4)c(-c4cccc(S(=O)(=O)[O-])c4F)c4nc(c(-c5cccc(S(=O)(=O)[O-])c5F)c5ccc2[nH]5)C=C4)C=C3)cc1
REMARK SMILES IDX 4 1 3 2 1 3 2 4 28 6 29 7 90 8 30 9 89 10 31 11 32 12 33 13
REMARK SMILES IDX 83 14 34 15 88 16 82 17 84 18 35 19 87 20 81 21 80 22 36 24
REMARK SMILES IDX 68 25 48 26 67 27 49 28 52 29 66 30 85 31 50 32 51 33 65 35
REMARK SMILES IDX 86 36 53 37 37 38 38 39 46 40 39 41 41 42 47 43 40 44 42 45
REMARK SMILES IDX 43 46 44 47 45 48 69 49 70 50 78 51 71 52 73 53 79 54 72 55
REMARK SMILES IDX 74 56 75 57 76 58 77 59 54 60 55 61 63 62 56 63 58 64 64 65
REMARK SMILES IDX 57 66 59 67 60 68 61 69 62 70 5 71 6 72 7 73 8 74 9 75 10 77
REMARK SMILES IDX 11 78 12 79 27 80 13 81 23 83 26 84 14 85 18 86 24 87 25 88
REMARK SMILES IDX 15 89 17 90 16 91 19 92 20 93 21 94 22 95
REMARK H PARENT 3 5 84 23 52 34 8 76 12 82
REMARK Flexibility Score: inf
ROOT
ATOM      1  C   UNL A   1      32.820  29.827  25.800  1.00  0.00     0.116 C 
ENDROOT
BRANCH   1   2
ATOM      2  N   UNL A   1      32.498  31.178  26.235  1.00  0.00    -0.352 N 
ATOM      3  O   UNL A   1      32.624  33.028  27.512  1.00  0.00    -0.269 OA
ATOM      4  C   UNL A   1      33.123  31.957  27.176  1.00  0.00     0.251 C 
ATOM      5  H   UNL A   1      31.723  31.591  25.790  1.00  0.00     0.163 HD
BRANCH   4   6
ATOM      6  C   UNL A   1      34.384  31.493  27.790  1.00  0.00     0.039 A 
ATOM      7  C   UNL A   1      34.504  30.154  28.167  1.00  0.00     0.014 A 
ATOM      8  C   UNL A   1      35.444  32.378  27.998  1.00  0.00     0.014 A 
ATOM      9  C   UNL A   1      35.696  29.706  28.737  1.00  0.00     0.010 A 
ATOM     10  C   UNL A   1      36.667  31.904  28.443  1.00  0.00     0.010 A 
ATOM     11  C   UNL A   1      36.788  30.578  28.874  1.00  0.00    -0.014 A 
BRANCH  11  12
ATOM     12  C   UNL A   1      38.023  30.161  29.578  1.00  0.00     0.031 A 
ATOM     13  C   UNL A   1      38.256  30.627  30.992  1.00  0.00     0.074 A 
ATOM     14  C   UNL A   1      38.942  29.404  28.949  1.00  0.00     0.049 A 
ATOM     15  N   UNL A   1      39.269  30.382  31.781  1.00  0.00    -0.248 NA
ATOM     16  C   UNL A   1      37.240  31.514  31.593  1.00  0.00     0.031 C 
ATOM     17  C   UNL A   1      38.863  28.953  27.558  1.00  0.00     0.029 A 
ATOM     18  N   UNL A   1      40.123  28.877  29.403  1.00  0.00    -0.354 N 
ATOM     19  C   UNL A   1      39.035  31.120  32.934  1.00  0.00     0.074 A 
ATOM     20  C   UNL A   1      37.812  31.859  32.735  1.00  0.00     0.031 C 
ATOM     21  C   UNL A   1      39.927  28.179  27.286  1.00  0.00     0.029 A 
ATOM     22  C   UNL A   1      40.772  28.095  28.475  1.00  0.00     0.049 A 
ATOM     23  H   UNL A   1      40.475  29.042  30.308  1.00  0.00     0.167 HD
ATOM     24  C   UNL A   1      39.747  31.143  34.082  1.00  0.00     0.034 A 
ATOM     25  C   UNL A   1      41.905  27.375  28.582  1.00  0.00     0.034 A 
ATOM     26  C   UNL A   1      40.893  30.318  34.321  1.00  0.00     0.049 A 
ATOM     27  C   UNL A   1      42.643  27.357  29.892  1.00  0.00     0.074 A 
ATOM     28  C   UNL A   1      41.602  30.162  35.496  1.00  0.00     0.029 A 
ATOM     29  N   UNL A   1      41.485  29.502  33.373  1.00  0.00    -0.354 N 
ATOM     30  N   UNL A   1      42.326  27.948  31.019  1.00  0.00    -0.248 NA
ATOM     31  C   UNL A   1      43.877  26.560  29.958  1.00  0.00     0.031 C 
ATOM     32  C   UNL A   1      42.636  29.256  35.255  1.00  0.00     0.029 A 
ATOM     33  C   UNL A   1      42.563  28.847  33.933  1.00  0.00     0.049 A 
ATOM     34  H   UNL A   1      41.183  29.405  32.441  1.00  0.00     0.167 HD
ATOM     35  C   UNL A   1      43.305  27.577  31.933  1.00  0.00     0.074 A 
ATOM     36  C   UNL A   1      44.225  26.705  31.232  1.00  0.00     0.031 C 
ATOM     37  C   UNL A   1      43.435  27.942  33.231  1.00  0.00     0.034 A 
BRANCH  24  38
ATOM     38  C   UNL A   1      39.261  32.021  35.197  1.00  0.00     0.023 A 
ATOM     39  C   UNL A   1      38.311  31.519  36.110  1.00  0.00     0.012 A 
ATOM     40  C   UNL A   1      39.795  33.310  35.386  1.00  0.00     0.148 A 
ATOM     41  C   UNL A   1      37.887  32.294  37.187  1.00  0.00     0.002 A 
ATOM     42  C   UNL A   1      39.394  34.063  36.481  1.00  0.00     0.091 A 
ATOM     43  F   UNL A   1      40.682  33.769  34.491  1.00  0.00    -0.205 F 
ATOM     44  C   UNL A   1      38.436  33.560  37.378  1.00  0.00     0.022 A 
BRANCH  42  45
ATOM     45  S   UNL A   1      40.077  35.682  36.851  1.00  0.00     0.127 S 
ATOM     46  O   UNL A   1      39.647  36.455  35.685  1.00  0.00    -0.237 OA
ATOM     47  O   UNL A   1      39.391  36.025  38.096  1.00  0.00    -0.237 OA
ATOM     48  O   UNL A   1      41.515  35.496  36.973  1.00  0.00    -0.744 OA
ENDBRANCH  42  45
ENDBRANCH  24  38
BRANCH  25  49
ATOM     49  C   UNL A   1      42.336  26.525  27.439  1.00  0.00     0.023 A 
ATOM     50  C   UNL A   1      43.194  27.077  26.469  1.00  0.00     0.012 A 
ATOM     51  C   UNL A   1      41.979  25.166  27.353  1.00  0.00     0.148 A 
ATOM     52  C   UNL A   1      43.686  26.292  25.426  1.00  0.00     0.002 A 
ATOM     53  C   UNL A   1      42.500  24.381  26.331  1.00  0.00     0.091 A 
ATOM     54  F   UNL A   1      41.166  24.666  28.294  1.00  0.00    -0.205 F 
ATOM     55  C   UNL A   1      43.347  24.944  25.362  1.00  0.00     0.022 A 
BRANCH  53  56
ATOM     56  S   UNL A   1      42.200  22.613  26.211  1.00  0.00     0.127 S 
ATOM     57  O   UNL A   1      42.812  22.122  27.443  1.00  0.00    -0.237 OA
ATOM     58  O   UNL A   1      40.738  22.562  26.186  1.00  0.00    -0.237 OA
ATOM     59  O   UNL A   1      42.845  22.183  24.979  1.00  0.00    -0.744 OA
ENDBRANCH  53  56
ENDBRANCH  25  49
BRANCH  37  60
ATOM     60  C   UNL A   1      44.600  27.413  34.017  1.00  0.00     0.023 A 
ATOM     61  C   UNL A   1      45.761  28.200  34.121  1.00  0.00     0.012 A 
ATOM     62  C   UNL A   1      44.458  26.262  34.815  1.00  0.00     0.148 A 
ATOM     63  C   UNL A   1      46.766  27.854  35.023  1.00  0.00     0.002 A 
ATOM     64  C   UNL A   1      45.448  25.942  35.736  1.00  0.00     0.091 A 
ATOM     65  F   UNL A   1      43.335  25.539  34.695  1.00  0.00    -0.205 F 
ATOM     66  C   UNL A   1      46.602  26.737  35.840  1.00  0.00     0.022 A 
BRANCH  64  67
ATOM     67  S   UNL A   1      45.289  24.581  36.896  1.00  0.00     0.127 S 
ATOM     68  O   UNL A   1      45.140  23.438  35.996  1.00  0.00    -0.237 OA
ATOM     69  O   UNL A   1      46.565  24.635  37.608  1.00  0.00    -0.237 OA
ATOM     70  O   UNL A   1      44.118  24.875  37.711  1.00  0.00    -0.744 OA
ENDBRANCH  64  67
ENDBRANCH  37  60
ENDBRANCH  11  12
ENDBRANCH   4   6
ENDBRANCH   1   2
BRANCH   1  71
ATOM     71  C   UNL A   1      31.769  29.232  24.885  1.00  0.00     0.023 C 
BRANCH  71  72
ATOM     72  C   UNL A   1      32.125  29.280  23.406  1.00  0.00     0.023 C 
BRANCH  72  73
ATOM     73  C   UNL A   1      33.495  28.706  23.048  1.00  0.00     0.116 C 
BRANCH  73  74
ATOM     74  N   UNL A   1      33.357  27.629  22.089  1.00  0.00    -0.354 N 
ATOM     75  C   UNL A   1      33.444  26.278  22.286  1.00  0.00     0.242 C 
ATOM     76  H   UNL A   1      33.174  27.910  21.163  1.00  0.00     0.163 HD
ATOM     77  O   UNL A   1      33.380  25.558  21.288  1.00  0.00    -0.273 OA
BRANCH  75  78
ATOM     78  C   UNL A   1      33.518  25.715  23.725  1.00  0.00     0.173 C 
ATOM     79  N   UNL A   1      34.522  24.633  23.855  1.00  0.00    -0.373 N 
ATOM     80  C   UNL A   1      32.190  25.141  24.190  1.00  0.00     0.036 C 
ATOM     81  C   UNL A   1      34.485  23.679  24.869  1.00  0.00     0.051 A 
ATOM     82  H   UNL A   1      35.248  24.585  23.192  1.00  0.00     0.161 HD
ATOM     83  C   UNL A   1      32.363  24.752  25.663  1.00  0.00     0.049 C 
ATOM     84  C   UNL A   1      30.926  25.997  24.193  1.00  0.00     0.034 C 
ATOM     85  C   UNL A   1      33.397  23.665  25.784  1.00  0.00    -0.017 A 
ATOM     86  C   UNL A   1      35.539  22.763  25.064  1.00  0.00     0.079 A 
ATOM     87  C   UNL A   1      30.929  24.534  26.039  1.00  0.00    -0.023 C 
ATOM     88  C   UNL A   1      30.133  25.273  25.249  1.00  0.00    -0.030 C 
ATOM     89  C   UNL A   1      33.364  22.742  26.838  1.00  0.00     0.006 A 
ATOM     90  C   UNL A   1      35.467  21.832  26.120  1.00  0.00     0.015 A 
ATOM     91  C   UNL A   1      34.389  21.818  26.996  1.00  0.00     0.001 A 
BRANCH  86  92
ATOM     92  C   UNL A   1      36.787  22.710  24.219  1.00  0.00     0.418 C 
ATOM     93  F   UNL A   1      37.564  21.625  24.507  1.00  0.00    -0.166 F 
ATOM     94  F   UNL A   1      36.510  22.616  22.888  1.00  0.00    -0.166 F 
ATOM     95  F   UNL A   1      37.610  23.783  24.342  1.00  0.00    -0.166 F 
ENDBRANCH  86  92
ENDBRANCH  75  78
ENDBRANCH  73  74
ENDBRANCH  72  73
ENDBRANCH  71  72
ENDBRANCH   1  71
TORSDOF 15
ENDMDL
MODEL 3
REMARK VINA RESULT:     -12.7      5.593      8.794
REMARK SMILES O=C(NCCCCNC(=O)[C@@H]1Nc2c(cccc2C(F)(F)F)[C@@H]2C=CC[C@@H]12)c1ccc(-c2c3nc(c(-c4cccc(S(=O)(=O)[O-])c4F)c4ccc([nH]4)c(-c4cccc(S(=O)(=O)[O-])c4F)c4nc(c(-c5cccc(S(=O)(=O)[O-])c5F)c5ccc2[nH]5)C=C4)C=C3)cc1
REMARK SMILES IDX 4 1 3 2 1 3 2 4 28 6 29 7 90 8 30 9 89 10 31 11 32 12 33 13
REMARK SMILES IDX 83 14 34 15 88 16 82 17 84 18 35 19 87 20 81 21 80 22 36 24
REMARK SMILES IDX 68 25 48 26 67 27 49 28 52 29 66 30 85 31 50 32 51 33 65 35
REMARK SMILES IDX 86 36 53 37 37 38 38 39 46 40 39 41 41 42 47 43 40 44 42 45
REMARK SMILES IDX 43 46 44 47 45 48 69 49 70 50 78 51 71 52 73 53 79 54 72 55
REMARK SMILES IDX 74 56 75 57 76 58 77 59 54 60 55 61 63 62 56 63 58 64 64 65
REMARK SMILES IDX 57 66 59 67 60 68 61 69 62 70 5 71 6 72 7 73 8 74 9 75 10 77
REMARK SMILES IDX 11 78 12 79 27 80 13 81 23 83 26 84 14 85 18 86 24 87 25 88
REMARK SMILES IDX 15 89 17 90 16 91 19 92 20 93 21 94 22 95
REMARK H PARENT 3 5 84 23 52 34 8 76 12 82
REMARK Flexibility Score: inf
ROOT
ATOM      1  C   UNL A   1      32.885  32.316  27.170  1.00  0.00     0.116 C 
ENDROOT
BRANCH   1   2
ATOM      2  N   UNL A   1      32.637  33.705  27.525  1.00  0.00    -0.352 N 
ATOM      3  O   UNL A   1      32.766  35.581  28.764  1.00  0.00    -0.269 OA
ATOM      4  C   UNL A   1      33.202  34.458  28.524  1.00  0.00     0.251 C 
ATOM      5  H   UNL A   1      31.972  34.171  26.969  1.00  0.00     0.163 HD
BRANCH   4   6
ATOM      6  C   UNL A   1      34.320  33.904  29.315  1.00  0.00     0.039 A 
ATOM      7  C   UNL A   1      35.626  34.290  29.011  1.00  0.00     0.014 A 
ATOM      8  C   UNL A   1      34.080  32.999  30.352  1.00  0.00     0.014 A 
ATOM      9  C   UNL A   1      36.686  33.780  29.762  1.00  0.00     0.010 A 
ATOM     10  C   UNL A   1      35.117  32.596  31.177  1.00  0.00     0.010 A 
ATOM     11  C   UNL A   1      36.437  32.932  30.853  1.00  0.00    -0.014 A 
BRANCH  11  12
ATOM     12  C   UNL A   1      37.545  32.287  31.595  1.00  0.00     0.031 A 
ATOM     13  C   UNL A   1      38.323  31.177  30.935  1.00  0.00     0.074 A 
ATOM     14  C   UNL A   1      37.830  32.663  32.856  1.00  0.00     0.049 A 
ATOM     15  N   UNL A   1      39.322  30.479  31.409  1.00  0.00    -0.248 NA
ATOM     16  C   UNL A   1      37.908  30.768  29.578  1.00  0.00     0.031 C 
ATOM     17  C   UNL A   1      37.102  33.672  33.627  1.00  0.00     0.029 A 
ATOM     18  N   UNL A   1      38.815  32.239  33.711  1.00  0.00    -0.354 N 
ATOM     19  C   UNL A   1      39.610  29.528  30.439  1.00  0.00     0.074 A 
ATOM     20  C   UNL A   1      38.660  29.700  29.366  1.00  0.00     0.031 C 
ATOM     21  C   UNL A   1      37.693  33.822  34.823  1.00  0.00     0.029 A 
ATOM     22  C   UNL A   1      38.829  32.908  34.912  1.00  0.00     0.049 A 
ATOM     23  H   UNL A   1      39.454  31.523  33.485  1.00  0.00     0.167 HD
ATOM     24  C   UNL A   1      40.612  28.622  30.415  1.00  0.00     0.034 A 
ATOM     25  C   UNL A   1      39.676  32.809  35.955  1.00  0.00     0.034 A 
ATOM     26  C   UNL A   1      41.625  28.532  31.423  1.00  0.00     0.049 A 
ATOM     27  C   UNL A   1      40.827  31.845  35.877  1.00  0.00     0.074 A 
ATOM     28  C   UNL A   1      42.760  27.746  31.425  1.00  0.00     0.029 A 
ATOM     29  N   UNL A   1      41.630  29.264  32.598  1.00  0.00    -0.354 N 
ATOM     30  N   UNL A   1      41.170  31.056  34.887  1.00  0.00    -0.248 NA
ATOM     31  C   UNL A   1      41.722  31.771  37.042  1.00  0.00     0.031 C 
ATOM     32  C   UNL A   1      43.450  27.994  32.613  1.00  0.00     0.029 A 
ATOM     33  C   UNL A   1      42.745  28.938  33.343  1.00  0.00     0.049 A 
ATOM     34  H   UNL A   1      40.942  29.918  32.862  1.00  0.00     0.167 HD
ATOM     35  C   UNL A   1      42.329  30.409  35.299  1.00  0.00     0.074 A 
ATOM     36  C   UNL A   1      42.636  30.901  36.625  1.00  0.00     0.031 C 
ATOM     37  C   UNL A   1      43.061  29.479  34.638  1.00  0.00     0.034 A 
BRANCH  24  38
ATOM     38  C   UNL A   1      40.715  27.714  29.224  1.00  0.00     0.023 A 
ATOM     39  C   UNL A   1      39.892  26.573  29.151  1.00  0.00     0.012 A 
ATOM     40  C   UNL A   1      41.568  28.029  28.149  1.00  0.00     0.148 A 
ATOM     41  C   UNL A   1      39.927  25.746  28.030  1.00  0.00     0.002 A 
ATOM     42  C   UNL A   1      41.573  27.220  27.021  1.00  0.00     0.091 A 
ATOM     43  F   UNL A   1      42.354  29.110  28.255  1.00  0.00    -0.205 F 
ATOM     44  C   UNL A   1      40.759  26.075  26.963  1.00  0.00     0.022 A 
BRANCH  42  45
ATOM     45  S   UNL A   1      42.565  27.582  25.569  1.00  0.00     0.127 S 
ATOM     46  O   UNL A   1      43.913  27.626  26.137  1.00  0.00    -0.237 OA
ATOM     47  O   UNL A   1      42.298  26.422  24.720  1.00  0.00    -0.237 OA
ATOM     48  O   UNL A   1      42.073  28.849  25.049  1.00  0.00    -0.744 OA
ENDBRANCH  42  45
ENDBRANCH  24  38
BRANCH  25  49
ATOM     49  C   UNL A   1      39.520  33.737  37.108  1.00  0.00     0.023 A 
ATOM     50  C   UNL A   1      39.905  35.082  36.951  1.00  0.00     0.012 A 
ATOM     51  C   UNL A   1      38.919  33.326  38.312  1.00  0.00     0.148 A 
ATOM     52  C   UNL A   1      39.701  36.004  37.978  1.00  0.00     0.002 A 
ATOM     53  C   UNL A   1      38.687  34.257  39.319  1.00  0.00     0.091 A 
ATOM     54  F   UNL A   1      38.557  32.041  38.431  1.00  0.00    -0.205 F 
ATOM     55  C   UNL A   1      39.084  35.594  39.157  1.00  0.00     0.022 A 
BRANCH  53  56
ATOM     56  S   UNL A   1      37.817  33.852  40.838  1.00  0.00     0.127 S 
ATOM     57  O   UNL A   1      36.583  33.261  40.327  1.00  0.00    -0.237 OA
ATOM     58  O   UNL A   1      38.741  32.906  41.464  1.00  0.00    -0.237 OA
ATOM     59  O   UNL A   1      37.657  35.110  41.552  1.00  0.00    -0.744 OA
ENDBRANCH  53  56
ENDBRANCH  25  49
BRANCH  37  60
ATOM     60  C   UNL A   1      44.280  28.912  35.307  1.00  0.00     0.023 A 
ATOM     61  C   UNL A   1      45.508  29.583  35.161  1.00  0.00     0.012 A 
ATOM     62  C   UNL A   1      44.158  27.863  36.238  1.00  0.00     0.148 A 
ATOM     63  C   UNL A   1      46.601  29.223  35.946  1.00  0.00     0.002 A 
ATOM     64  C   UNL A   1      45.242  27.534  37.042  1.00  0.00     0.091 A 
ATOM     65  F   UNL A   1      42.971  27.251  36.356  1.00  0.00    -0.205 F 
ATOM     66  C   UNL A   1      46.464  28.213  36.896  1.00  0.00     0.022 A 
BRANCH  64  67
ATOM     67  S   UNL A   1      45.140  26.314  38.355  1.00  0.00     0.127 S 
ATOM     68  O   UNL A   1      44.814  25.099  37.609  1.00  0.00    -0.237 OA
ATOM     69  O   UNL A   1      46.494  26.346  38.909  1.00  0.00    -0.237 OA
ATOM     70  O   UNL A   1      44.096  26.775  39.260  1.00  0.00    -0.744 OA
ENDBRANCH  64  67
ENDBRANCH  37  60
ENDBRANCH  11  12
ENDBRANCH   4   6
ENDBRANCH   1   2
BRANCH   1  71
ATOM     71  C   UNL A   1      31.675  31.634  26.565  1.00  0.00     0.023 C 
BRANCH  71  72
ATOM     72  C   UNL A   1      31.866  30.152  26.279  1.00  0.00     0.023 C 
BRANCH  72  73
ATOM     73  C   UNL A   1      33.320  29.691  26.178  1.00  0.00     0.116 C 
BRANCH  73  74
ATOM     74  N   UNL A   1      33.582  29.130  24.868  1.00  0.00    -0.354 N 
ATOM     75  C   UNL A   1      33.742  27.821  24.504  1.00  0.00     0.242 C 
ATOM     76  H   UNL A   1      33.654  29.785  24.136  1.00  0.00     0.163 HD
ATOM     77  O   UNL A   1      34.050  27.596  23.332  1.00  0.00    -0.273 OA
BRANCH  75  78
ATOM     78  C   UNL A   1      33.443  26.698  25.524  1.00  0.00     0.173 C 
ATOM     79  N   UNL A   1      34.448  25.610  25.475  1.00  0.00    -0.373 N 
ATOM     80  C   UNL A   1      32.086  26.053  25.292  1.00  0.00     0.036 C 
ATOM     81  C   UNL A   1      34.196  24.320  25.935  1.00  0.00     0.051 A 
ATOM     82  H   UNL A   1      35.336  25.810  25.100  1.00  0.00     0.161 HD
ATOM     83  C   UNL A   1      31.858  25.067  26.444  1.00  0.00     0.049 C 
ATOM     84  C   UNL A   1      30.812  26.893  25.284  1.00  0.00     0.034 C 
ATOM     85  C   UNL A   1      32.895  23.978  26.395  1.00  0.00    -0.017 A 
ATOM     86  C   UNL A   1      35.218  23.353  26.026  1.00  0.00     0.079 A 
ATOM     87  C   UNL A   1      30.398  24.787  26.254  1.00  0.00    -0.023 C 
ATOM     88  C   UNL A   1      29.807  25.833  25.653  1.00  0.00    -0.030 C 
ATOM     89  C   UNL A   1      32.633  22.698  26.902  1.00  0.00     0.006 A 
ATOM     90  C   UNL A   1      34.918  22.067  26.520  1.00  0.00     0.015 A 
ATOM     91  C   UNL A   1      33.638  21.741  26.950  1.00  0.00     0.001 A 
BRANCH  86  92
ATOM     92  C   UNL A   1      36.656  23.597  25.645  1.00  0.00     0.418 C 
ATOM     93  F   UNL A   1      36.785  24.039  24.359  1.00  0.00    -0.166 F 
ATOM     94  F   UNL A   1      37.244  24.552  26.419  1.00  0.00    -0.166 F 
ATOM     95  F   UNL A   1      37.466  22.510  25.733  1.00  0.00    -0.166 F 
ENDBRANCH  86  92
ENDBRANCH  75  78
ENDBRANCH  73  74
ENDBRANCH  72  73
ENDBRANCH  71  72
ENDBRANCH   1  71
TORSDOF 15
ENDMDL
