MODEL 1
REMARK VINA RESULT:     -13.3      0.000      0.000
REMARK SMILES NS(=O)(=O)c1ccc(-n2nc(C(=O)NCCCC(=O)NCCCCNC(=O)c3ccc(-c4c5nc(c(-c6cccc(S(=O)(=O)[O-])c6F)c6ccc([nH]6)c(-c6cccc(S(=O)(=O)[O-])c6F)c6nc(c(-c7cccc(S(=O)(=O)[O-])c7F)c7ccc4[nH]7)C=C6)C=C5)cc3)cc2-c2ccccc2)cc1
REMARK SMILES IDX 18 1 19 2 20 3 17 5 16 6 15 7 14 8 12 9 13 10 11 12 9 13
REMARK SMILES IDX 10 14 92 15 91 16 8 17 5 18 6 19 100 20 7 21 99 22 2 23 3 24
REMARK SMILES IDX 4 25 1 26 93 29 94 30 98 31 95 32 97 33 96 34 21 35 22 36
REMARK SMILES IDX 23 37 24 38 25 39 26 40 27 42 28 43 29 44 90 45 30 46 89 47
REMARK SMILES IDX 31 48 32 49 33 50 83 51 34 52 88 53 82 54 84 55 35 56 87 57
REMARK SMILES IDX 81 58 80 59 36 61 68 62 48 63 67 64 49 65 52 66 66 67 85 68
REMARK SMILES IDX 50 69 51 70 65 72 86 73 53 74 37 75 38 76 46 77 39 78 41 79
REMARK SMILES IDX 47 80 40 81 42 82 43 83 44 84 45 85 69 86 70 87 78 88 71 89
REMARK SMILES IDX 73 90 79 91 72 92 74 93 75 94 76 95 77 96 54 97 55 98 63 99
REMARK SMILES IDX 56 100 58 101 64 102 57 103 59 104 60 105 61 106 62 107
REMARK H PARENT 20 4 14 11 1 27 1 28 25 41 84 60 52 71
REMARK Flexibility Score: inf
ROOT
ATOM      1  C   UNL A   1      34.313  21.305  26.153  1.00  0.00     0.220 C 
ATOM      2  O   UNL A   1      33.983  21.454  27.332  1.00  0.00    -0.275 OA
ATOM      3  N   UNL A   1      35.167  22.209  25.601  1.00  0.00    -0.356 N 
ATOM      4  H   UNL A   1      35.611  22.804  26.248  1.00  0.00     0.163 HD
ENDROOT
BRANCH   1   5
ATOM      5  C   UNL A   1      33.756  20.155  25.338  1.00  0.00     0.102 C 
BRANCH   5   6
ATOM      6  C   UNL A   1      32.348  20.414  24.796  1.00  0.00     0.031 C 
BRANCH   6   7
ATOM      7  C   UNL A   1      31.796  21.809  25.061  1.00  0.00     0.116 C 
BRANCH   7   8
ATOM      8  N   UNL A   1      30.910  21.898  26.207  1.00  0.00    -0.351 N 
ATOM      9  C   UNL A   1      30.445  23.006  26.887  1.00  0.00     0.271 C 
ATOM     10  O   UNL A   1      29.739  22.807  27.875  1.00  0.00    -0.267 OA
ATOM     11  H   UNL A   1      30.590  21.033  26.553  1.00  0.00     0.163 HD
BRANCH   9  12
ATOM     12  C   UNL A   1      30.812  24.366  26.439  1.00  0.00     0.151 A 
ATOM     13  N   UNL A   1      30.618  26.258  25.447  1.00  0.00    -0.232 N 
ATOM     14  N   UNL A   1      29.932  25.138  25.766  1.00  0.00    -0.162 NA
ATOM     15  C   UNL A   1      31.805  26.346  26.161  1.00  0.00     0.075 A 
ATOM     16  C   UNL A   1      32.028  25.071  26.632  1.00  0.00     0.065 A 
BRANCH  13  17
ATOM     17  C   UNL A   1      30.104  27.212  24.528  1.00  0.00     0.065 A 
ATOM     18  C   UNL A   1      29.013  29.221  22.941  1.00  0.00     0.082 A 
ATOM     19  C   UNL A   1      30.297  29.382  23.462  1.00  0.00     0.024 A 
ATOM     20  C   UNL A   1      28.294  28.040  23.156  1.00  0.00     0.024 A 
ATOM     21  C   UNL A   1      30.839  28.379  24.259  1.00  0.00     0.030 A 
ATOM     22  C   UNL A   1      28.854  27.016  23.930  1.00  0.00     0.030 A 
BRANCH  18  23
ATOM     23  S   UNL A   1      28.292  30.566  22.052  1.00  0.00     0.238 S 
ATOM     24  O   UNL A   1      27.294  31.214  22.888  1.00  0.00    -0.207 OA
ATOM     25  O   UNL A   1      28.034  30.161  20.702  1.00  0.00    -0.207 OA
BRANCH  23  26
ATOM     26  N   UNL A   1      29.560  31.674  21.979  1.00  0.00    -0.225 NA
ATOM     27  H   UNL A   1      29.818  31.830  21.004  1.00  0.00     0.137 HD
ATOM     28  H   UNL A   1      30.364  31.304  22.489  1.00  0.00     0.137 HD
ENDBRANCH  23  26
ENDBRANCH  18  23
ENDBRANCH  13  17
BRANCH  15  29
ATOM     29  C   UNL A   1      32.539  27.577  26.445  1.00  0.00     0.000 A 
ATOM     30  C   UNL A   1      31.945  28.572  27.238  1.00  0.00     0.010 A 
ATOM     31  C   UNL A   1      33.839  27.768  25.972  1.00  0.00     0.010 A 
ATOM     32  C   UNL A   1      32.623  29.755  27.522  1.00  0.00     0.001 A 
ATOM     33  C   UNL A   1      34.518  28.955  26.258  1.00  0.00     0.001 A 
ATOM     34  C   UNL A   1      33.910  29.948  27.026  1.00  0.00     0.000 A 
ENDBRANCH  15  29
ENDBRANCH   9  12
ENDBRANCH   7   8
ENDBRANCH   6   7
ENDBRANCH   5   6
ENDBRANCH   1   5
BRANCH   3  35
ATOM     35  C   UNL A   1      35.532  22.439  24.215  1.00  0.00     0.116 C 
BRANCH  35  36
ATOM     36  C   UNL A   1      37.015  22.110  23.986  1.00  0.00     0.023 C 
BRANCH  36  37
ATOM     37  C   UNL A   1      37.492  20.770  24.554  1.00  0.00     0.023 C 
BRANCH  37  38
ATOM     38  C   UNL A   1      38.569  20.894  25.621  1.00  0.00     0.116 C 
BRANCH  38  39
ATOM     39  N   UNL A   1      39.421  19.707  25.700  1.00  0.00    -0.352 N 
ATOM     40  C   UNL A   1      40.786  19.675  25.904  1.00  0.00     0.251 C 
ATOM     41  H   UNL A   1      38.972  18.838  25.594  1.00  0.00     0.163 HD
ATOM     42  O   UNL A   1      41.458  18.709  25.564  1.00  0.00    -0.269 OA
BRANCH  40  43
ATOM     43  C   UNL A   1      41.411  20.840  26.546  1.00  0.00     0.039 A 
ATOM     44  C   UNL A   1      42.034  21.829  25.781  1.00  0.00     0.014 A 
ATOM     45  C   UNL A   1      41.263  20.969  27.927  1.00  0.00     0.014 A 
ATOM     46  C   UNL A   1      42.421  23.010  26.406  1.00  0.00     0.010 A 
ATOM     47  C   UNL A   1      41.553  22.175  28.521  1.00  0.00     0.010 A 
ATOM     48  C   UNL A   1      42.149  23.190  27.771  1.00  0.00    -0.014 A 
BRANCH  48  49
ATOM     49  C   UNL A   1      42.308  24.510  28.382  1.00  0.00     0.031 A 
ATOM     50  C   UNL A   1      41.146  25.425  28.184  1.00  0.00     0.074 A 
ATOM     51  C   UNL A   1      43.281  24.780  29.279  1.00  0.00     0.049 A 
ATOM     52  N   UNL A   1      41.116  26.545  27.537  1.00  0.00    -0.248 NA
ATOM     53  C   UNL A   1      39.820  24.970  28.637  1.00  0.00     0.031 C 
ATOM     54  C   UNL A   1      44.278  23.841  29.809  1.00  0.00     0.029 A 
ATOM     55  N   UNL A   1      43.478  25.893  30.041  1.00  0.00    -0.354 N 
ATOM     56  C   UNL A   1      39.832  27.058  27.741  1.00  0.00     0.074 A 
ATOM     57  C   UNL A   1      39.034  25.954  28.198  1.00  0.00     0.031 C 
ATOM     58  C   UNL A   1      44.768  24.320  30.972  1.00  0.00     0.029 A 
ATOM     59  C   UNL A   1      44.254  25.660  31.177  1.00  0.00     0.049 A 
ATOM     60  H   UNL A   1      43.108  26.776  29.813  1.00  0.00     0.167 HD
ATOM     61  C   UNL A   1      39.616  28.402  27.815  1.00  0.00     0.034 A 
ATOM     62  C   UNL A   1      44.417  26.482  32.240  1.00  0.00     0.034 A 
ATOM     63  C   UNL A   1      40.745  29.137  27.297  1.00  0.00     0.049 A 
ATOM     64  C   UNL A   1      44.042  27.843  31.803  1.00  0.00     0.074 A 
ATOM     65  C   UNL A   1      41.448  29.167  26.109  1.00  0.00     0.029 A 
ATOM     66  N   UNL A   1      41.545  29.756  28.226  1.00  0.00    -0.354 N 
ATOM     67  N   UNL A   1      44.713  28.528  30.920  1.00  0.00    -0.248 NA
ATOM     68  C   UNL A   1      42.687  28.300  32.054  1.00  0.00     0.031 C 
ATOM     69  C   UNL A   1      42.806  29.380  26.492  1.00  0.00     0.029 A 
ATOM     70  C   UNL A   1      42.848  29.539  27.878  1.00  0.00     0.049 A 
ATOM     71  H   UNL A   1      41.234  30.267  29.007  1.00  0.00     0.167 HD
ATOM     72  C   UNL A   1      43.734  29.172  30.176  1.00  0.00     0.074 A 
ATOM     73  C   UNL A   1      42.533  29.114  31.007  1.00  0.00     0.031 C 
ATOM     74  C   UNL A   1      43.916  29.412  28.844  1.00  0.00     0.034 A 
BRANCH  61  75
ATOM     75  C   UNL A   1      38.618  29.083  28.746  1.00  0.00     0.023 A 
ATOM     76  C   UNL A   1      37.844  30.131  28.191  1.00  0.00     0.012 A 
ATOM     77  C   UNL A   1      38.619  28.982  30.157  1.00  0.00     0.148 A 
ATOM     78  C   UNL A   1      37.209  31.088  28.992  1.00  0.00     0.002 A 
ATOM     79  C   UNL A   1      37.922  29.889  30.948  1.00  0.00     0.091 A 
ATOM     80  F   UNL A   1      39.391  28.085  30.772  1.00  0.00    -0.205 F 
ATOM     81  C   UNL A   1      37.251  30.970  30.374  1.00  0.00     0.022 A 
BRANCH  79  82
ATOM     82  S   UNL A   1      37.900  29.753  32.742  1.00  0.00     0.127 S 
ATOM     83  O   UNL A   1      37.009  30.851  33.103  1.00  0.00    -0.237 OA
ATOM     84  O   UNL A   1      37.347  28.413  32.931  1.00  0.00    -0.237 OA
ATOM     85  O   UNL A   1      39.289  29.890  33.163  1.00  0.00    -0.744 OA
ENDBRANCH  79  82
ENDBRANCH  61  75
BRANCH  62  86
ATOM     86  C   UNL A   1      44.677  26.164  33.663  1.00  0.00     0.023 A 
ATOM     87  C   UNL A   1      46.007  26.071  34.122  1.00  0.00     0.012 A 
ATOM     88  C   UNL A   1      43.644  26.226  34.624  1.00  0.00     0.148 A 
ATOM     89  C   UNL A   1      46.301  26.080  35.491  1.00  0.00     0.002 A 
ATOM     90  C   UNL A   1      43.940  26.225  35.984  1.00  0.00     0.091 A 
ATOM     91  F   UNL A   1      42.380  26.381  34.206  1.00  0.00    -0.205 F 
ATOM     92  C   UNL A   1      45.269  26.166  36.421  1.00  0.00     0.022 A 
BRANCH  90  93
ATOM     93  S   UNL A   1      42.661  26.352  37.243  1.00  0.00     0.127 S 
ATOM     94  O   UNL A   1      41.941  27.555  36.824  1.00  0.00    -0.237 OA
ATOM     95  O   UNL A   1      41.927  25.104  37.056  1.00  0.00    -0.237 OA
ATOM     96  O   UNL A   1      43.364  26.488  38.513  1.00  0.00    -0.744 OA
ENDBRANCH  90  93
ENDBRANCH  62  86
BRANCH  74  97
ATOM     97  C   UNL A   1      45.308  29.288  28.281  1.00  0.00     0.023 A 
ATOM     98  C   UNL A   1      46.256  30.331  28.351  1.00  0.00     0.012 A 
ATOM     99  C   UNL A   1      45.717  28.028  27.815  1.00  0.00     0.148 A 
ATOM    100  C   UNL A   1      47.576  30.125  27.940  1.00  0.00     0.002 A 
ATOM    101  C   UNL A   1      47.040  27.813  27.453  1.00  0.00     0.091 A 
ATOM    102  F   UNL A   1      44.802  27.047  27.755  1.00  0.00    -0.205 F 
ATOM    103  C   UNL A   1      47.972  28.862  27.504  1.00  0.00     0.022 A 
BRANCH 101 104
ATOM    104  S   UNL A   1      47.629  26.178  27.009  1.00  0.00     0.127 S 
ATOM    105  O   UNL A   1      49.021  26.225  27.450  1.00  0.00    -0.237 OA
ATOM    106  O   UNL A   1      46.764  25.303  27.802  1.00  0.00    -0.237 OA
ATOM    107  O   UNL A   1      47.428  26.061  25.569  1.00  0.00    -0.744 OA
ENDBRANCH 101 104
ENDBRANCH  74  97
ENDBRANCH  48  49
ENDBRANCH  40  43
ENDBRANCH  38  39
ENDBRANCH  37  38
ENDBRANCH  36  37
ENDBRANCH  35  36
ENDBRANCH   3  35
TORSDOF 22
ENDMDL
MODEL 2
REMARK VINA RESULT:     -12.4      3.373      4.580
REMARK SMILES NS(=O)(=O)c1ccc(-n2nc(C(=O)NCCCC(=O)NCCCCNC(=O)c3ccc(-c4c5nc(c(-c6cccc(S(=O)(=O)[O-])c6F)c6ccc([nH]6)c(-c6cccc(S(=O)(=O)[O-])c6F)c6nc(c(-c7cccc(S(=O)(=O)[O-])c7F)c7ccc4[nH]7)C=C6)C=C5)cc3)cc2-c2ccccc2)cc1
REMARK SMILES IDX 18 1 19 2 20 3 17 5 16 6 15 7 14 8 12 9 13 10 11 12 9 13
REMARK SMILES IDX 10 14 92 15 91 16 8 17 5 18 6 19 100 20 7 21 99 22 2 23 3 24
REMARK SMILES IDX 4 25 1 26 93 29 94 30 98 31 95 32 97 33 96 34 21 35 22 36
REMARK SMILES IDX 23 37 24 38 25 39 26 40 27 42 28 43 29 44 90 45 30 46 89 47
REMARK SMILES IDX 31 48 32 49 33 50 83 51 34 52 88 53 82 54 84 55 35 56 87 57
REMARK SMILES IDX 81 58 80 59 36 61 68 62 48 63 67 64 49 65 52 66 66 67 85 68
REMARK SMILES IDX 50 69 51 70 65 72 86 73 53 74 37 75 38 76 46 77 39 78 41 79
REMARK SMILES IDX 47 80 40 81 42 82 43 83 44 84 45 85 69 86 70 87 78 88 71 89
REMARK SMILES IDX 73 90 79 91 72 92 74 93 75 94 76 95 77 96 54 97 55 98 63 99
REMARK SMILES IDX 56 100 58 101 64 102 57 103 59 104 60 105 61 106 62 107
REMARK H PARENT 20 4 14 11 1 27 1 28 25 41 84 60 52 71
REMARK Flexibility Score: inf
ROOT
ATOM      1  C   UNL A   1      34.401  21.707  26.452  1.00  0.00     0.220 C 
ATOM      2  O   UNL A   1      33.977  21.439  27.578  1.00  0.00    -0.275 OA
ATOM      3  N   UNL A   1      35.070  22.879  26.276  1.00  0.00    -0.356 N 
ATOM      4  H   UNL A   1      35.336  23.331  27.109  1.00  0.00     0.163 HD
ENDROOT
BRANCH   1   5
ATOM      5  C   UNL A   1      34.156  20.763  25.292  1.00  0.00     0.102 C 
BRANCH   5   6
ATOM      6  C   UNL A   1      32.673  20.534  24.991  1.00  0.00     0.031 C 
BRANCH   6   7
ATOM      7  C   UNL A   1      31.805  21.787  25.007  1.00  0.00     0.116 C 
BRANCH   7   8
ATOM      8  N   UNL A   1      30.899  21.877  26.136  1.00  0.00    -0.351 N 
ATOM      9  C   UNL A   1      30.439  22.985  26.820  1.00  0.00     0.271 C 
ATOM     10  O   UNL A   1      29.710  22.786  27.791  1.00  0.00    -0.267 OA
ATOM     11  H   UNL A   1      30.558  21.013  26.466  1.00  0.00     0.163 HD
BRANCH   9  12
ATOM     12  C   UNL A   1      30.835  24.343  26.394  1.00  0.00     0.151 A 
ATOM     13  N   UNL A   1      30.679  26.260  25.443  1.00  0.00    -0.232 N 
ATOM     14  N   UNL A   1      29.967  25.151  25.748  1.00  0.00    -0.162 NA
ATOM     15  C   UNL A   1      31.876  26.302  26.143  1.00  0.00     0.075 A 
ATOM     16  C   UNL A   1      32.071  25.013  26.586  1.00  0.00     0.065 A 
BRANCH  13  17
ATOM     17  C   UNL A   1      30.178  27.245  24.549  1.00  0.00     0.065 A 
ATOM     18  C   UNL A   1      29.067  29.279  23.010  1.00  0.00     0.082 A 
ATOM     19  C   UNL A   1      30.231  29.529  23.736  1.00  0.00     0.024 A 
ATOM     20  C   UNL A   1      28.488  28.005  22.997  1.00  0.00     0.024 A 
ATOM     21  C   UNL A   1      30.782  28.512  24.510  1.00  0.00     0.030 A 
ATOM     22  C   UNL A   1      29.063  26.973  23.748  1.00  0.00     0.030 A 
BRANCH  18  23
ATOM     23  S   UNL A   1      28.308  30.623  22.150  1.00  0.00     0.238 S 
ATOM     24  O   UNL A   1      27.365  31.287  23.036  1.00  0.00    -0.207 OA
ATOM     25  O   UNL A   1      27.969  30.208  20.822  1.00  0.00    -0.207 OA
BRANCH  23  26
ATOM     26  N   UNL A   1      29.579  31.718  21.994  1.00  0.00    -0.225 NA
ATOM     27  H   UNL A   1      29.502  32.202  21.100  1.00  0.00     0.137 HD
ATOM     28  H   UNL A   1      30.467  31.216  22.034  1.00  0.00     0.137 HD
ENDBRANCH  23  26
ENDBRANCH  18  23
ENDBRANCH  13  17
BRANCH  15  29
ATOM     29  C   UNL A   1      32.645  27.508  26.443  1.00  0.00     0.000 A 
ATOM     30  C   UNL A   1      32.115  28.469  27.319  1.00  0.00     0.010 A 
ATOM     31  C   UNL A   1      33.916  27.707  25.901  1.00  0.00     0.010 A 
ATOM     32  C   UNL A   1      32.828  29.628  27.619  1.00  0.00     0.001 A 
ATOM     33  C   UNL A   1      34.631  28.869  26.203  1.00  0.00     0.001 A 
ATOM     34  C   UNL A   1      34.085  29.829  27.055  1.00  0.00     0.000 A 
ENDBRANCH  15  29
ENDBRANCH   9  12
ENDBRANCH   7   8
ENDBRANCH   6   7
ENDBRANCH   5   6
ENDBRANCH   1   5
BRANCH   3  35
ATOM     35  C   UNL A   1      35.459  23.570  25.059  1.00  0.00     0.116 C 
BRANCH  35  36
ATOM     36  C   UNL A   1      36.948  23.340  24.761  1.00  0.00     0.023 C 
BRANCH  36  37
ATOM     37  C   UNL A   1      37.833  23.060  25.980  1.00  0.00     0.023 C 
BRANCH  37  38
ATOM     38  C   UNL A   1      38.602  24.272  26.482  1.00  0.00     0.116 C 
BRANCH  38  39
ATOM     39  N   UNL A   1      40.010  24.246  26.086  1.00  0.00    -0.352 N 
ATOM     40  C   UNL A   1      40.905  25.296  26.124  1.00  0.00     0.251 C 
ATOM     41  H   UNL A   1      40.357  23.386  25.755  1.00  0.00     0.163 HD
ATOM     42  O   UNL A   1      41.910  25.303  25.424  1.00  0.00    -0.269 OA
BRANCH  40  43
ATOM     43  C   UNL A   1      40.614  26.412  27.036  1.00  0.00     0.039 A 
ATOM     44  C   UNL A   1      40.360  26.182  28.390  1.00  0.00     0.014 A 
ATOM     45  C   UNL A   1      40.709  27.705  26.520  1.00  0.00     0.014 A 
ATOM     46  C   UNL A   1      40.302  27.272  29.253  1.00  0.00     0.010 A 
ATOM     47  C   UNL A   1      40.753  28.770  27.390  1.00  0.00     0.010 A 
ATOM     48  C   UNL A   1      40.531  28.562  28.752  1.00  0.00    -0.014 A 
BRANCH  48  49
ATOM     49  C   UNL A   1      40.733  29.681  29.672  1.00  0.00     0.031 A 
ATOM     50  C   UNL A   1      39.473  30.327  30.144  1.00  0.00     0.074 A 
ATOM     51  C   UNL A   1      41.923  29.927  30.262  1.00  0.00     0.049 A 
ATOM     52  N   UNL A   1      39.071  31.538  29.931  1.00  0.00    -0.248 NA
ATOM     53  C   UNL A   1      38.470  29.481  30.813  1.00  0.00     0.031 C 
ATOM     54  C   UNL A   1      43.153  29.137  30.131  1.00  0.00     0.029 A 
ATOM     55  N   UNL A   1      42.241  30.822  31.240  1.00  0.00    -0.354 N 
ATOM     56  C   UNL A   1      37.895  31.675  30.672  1.00  0.00     0.074 A 
ATOM     57  C   UNL A   1      37.461  30.338  30.975  1.00  0.00     0.031 C 
ATOM     58  C   UNL A   1      43.967  29.400  31.175  1.00  0.00     0.029 A 
ATOM     59  C   UNL A   1      43.398  30.489  31.945  1.00  0.00     0.049 A 
ATOM     60  H   UNL A   1      41.706  31.626  31.431  1.00  0.00     0.167 HD
ATOM     61  C   UNL A   1      37.553  32.869  31.234  1.00  0.00     0.034 A 
ATOM     62  C   UNL A   1      43.830  31.026  33.110  1.00  0.00     0.034 A 
ATOM     63  C   UNL A   1      38.316  33.949  30.657  1.00  0.00     0.049 A 
ATOM     64  C   UNL A   1      43.155  32.331  33.268  1.00  0.00     0.074 A 
ATOM     65  C   UNL A   1      38.532  34.442  29.386  1.00  0.00     0.029 A 
ATOM     66  N   UNL A   1      39.314  34.475  31.441  1.00  0.00    -0.354 N 
ATOM     67  N   UNL A   1      43.369  33.354  32.489  1.00  0.00    -0.248 NA
ATOM     68  C   UNL A   1      41.936  32.387  34.057  1.00  0.00     0.031 C 
ATOM     69  C   UNL A   1      39.898  34.854  29.379  1.00  0.00     0.029 A 
ATOM     70  C   UNL A   1      40.418  34.657  30.659  1.00  0.00     0.049 A 
ATOM     71  H   UNL A   1      39.245  34.684  32.400  1.00  0.00     0.167 HD
ATOM     72  C   UNL A   1      42.115  33.926  32.329  1.00  0.00     0.074 A 
ATOM     73  C   UNL A   1      41.313  33.385  33.425  1.00  0.00     0.031 C 
ATOM     74  C   UNL A   1      41.771  34.535  31.155  1.00  0.00     0.034 A 
BRANCH  61  75
ATOM     75  C   UNL A   1      36.883  33.042  32.593  1.00  0.00     0.023 A 
ATOM     76  C   UNL A   1      35.777  33.926  32.649  1.00  0.00     0.012 A 
ATOM     77  C   UNL A   1      37.443  32.659  33.834  1.00  0.00     0.148 A 
ATOM     78  C   UNL A   1      35.335  34.486  33.854  1.00  0.00     0.002 A 
ATOM     79  C   UNL A   1      36.950  33.158  35.036  1.00  0.00     0.091 A 
ATOM     80  F   UNL A   1      38.542  31.905  33.878  1.00  0.00    -0.205 F 
ATOM     81  C   UNL A   1      35.925  34.104  35.050  1.00  0.00     0.022 A 
BRANCH  79  82
ATOM     82  S   UNL A   1      37.644  32.657  36.619  1.00  0.00     0.127 S 
ATOM     83  O   UNL A   1      38.932  33.343  36.597  1.00  0.00    -0.237 OA
ATOM     84  O   UNL A   1      36.664  33.201  37.557  1.00  0.00    -0.237 OA
ATOM     85  O   UNL A   1      37.693  31.201  36.583  1.00  0.00    -0.744 OA
ENDBRANCH  79  82
ENDBRANCH  61  75
BRANCH  62  86
ATOM     86  C   UNL A   1      44.625  30.422  34.204  1.00  0.00     0.023 A 
ATOM     87  C   UNL A   1      45.745  31.112  34.711  1.00  0.00     0.012 A 
ATOM     88  C   UNL A   1      44.136  29.317  34.936  1.00  0.00     0.148 A 
ATOM     89  C   UNL A   1      46.334  30.739  35.925  1.00  0.00     0.002 A 
ATOM     90  C   UNL A   1      44.731  28.944  36.138  1.00  0.00     0.091 A 
ATOM     91  F   UNL A   1      43.034  28.691  34.502  1.00  0.00    -0.205 F 
ATOM     92  C   UNL A   1      45.821  29.662  36.643  1.00  0.00     0.022 A 
BRANCH  90  93
ATOM     93  S   UNL A   1      44.112  27.576  37.128  1.00  0.00     0.127 S 
ATOM     94  O   UNL A   1      44.669  27.878  38.447  1.00  0.00    -0.237 OA
ATOM     95  O   UNL A   1      42.667  27.752  37.019  1.00  0.00    -0.237 OA
ATOM     96  O   UNL A   1      44.649  26.366  36.515  1.00  0.00    -0.744 OA
ENDBRANCH  90  93
ENDBRANCH  62  86
BRANCH  74  97
ATOM     97  C   UNL A   1      42.868  34.880  30.184  1.00  0.00     0.023 A 
ATOM     98  C   UNL A   1      43.600  36.084  30.253  1.00  0.00     0.012 A 
ATOM     99  C   UNL A   1      43.276  33.888  29.277  1.00  0.00     0.148 A 
ATOM    100  C   UNL A   1      44.699  36.301  29.417  1.00  0.00     0.002 A 
ATOM    101  C   UNL A   1      44.398  34.087  28.482  1.00  0.00     0.091 A 
ATOM    102  F   UNL A   1      42.570  32.748  29.223  1.00  0.00    -0.205 F 
ATOM    103  C   UNL A   1      45.107  35.297  28.541  1.00  0.00     0.022 A 
BRANCH 101 104
ATOM    104  S   UNL A   1      45.040  32.780  27.434  1.00  0.00     0.127 S 
ATOM    105  O   UNL A   1      44.008  32.681  26.405  1.00  0.00    -0.237 OA
ATOM    106  O   UNL A   1      46.312  33.339  26.974  1.00  0.00    -0.237 OA
ATOM    107  O   UNL A   1      45.183  31.613  28.297  1.00  0.00    -0.744 OA
ENDBRANCH 101 104
ENDBRANCH  74  97
ENDBRANCH  48  49
ENDBRANCH  40  43
ENDBRANCH  38  39
ENDBRANCH  37  38
ENDBRANCH  36  37
ENDBRANCH  35  36
ENDBRANCH   3  35
TORSDOF 22
ENDMDL
MODEL 3
REMARK VINA RESULT:     -12.2      3.090      8.244
REMARK SMILES NS(=O)(=O)c1ccc(-n2nc(C(=O)NCCCC(=O)NCCCCNC(=O)c3ccc(-c4c5nc(c(-c6cccc(S(=O)(=O)[O-])c6F)c6ccc([nH]6)c(-c6cccc(S(=O)(=O)[O-])c6F)c6nc(c(-c7cccc(S(=O)(=O)[O-])c7F)c7ccc4[nH]7)C=C6)C=C5)cc3)cc2-c2ccccc2)cc1
REMARK SMILES IDX 18 1 19 2 20 3 17 5 16 6 15 7 14 8 12 9 13 10 11 12 9 13
REMARK SMILES IDX 10 14 92 15 91 16 8 17 5 18 6 19 100 20 7 21 99 22 2 23 3 24
REMARK SMILES IDX 4 25 1 26 93 29 94 30 98 31 95 32 97 33 96 34 21 35 22 36
REMARK SMILES IDX 23 37 24 38 25 39 26 40 27 42 28 43 29 44 90 45 30 46 89 47
REMARK SMILES IDX 31 48 32 49 33 50 83 51 34 52 88 53 82 54 84 55 35 56 87 57
REMARK SMILES IDX 81 58 80 59 36 61 68 62 48 63 67 64 49 65 52 66 66 67 85 68
REMARK SMILES IDX 50 69 51 70 65 72 86 73 53 74 37 75 38 76 46 77 39 78 41 79
REMARK SMILES IDX 47 80 40 81 42 82 43 83 44 84 45 85 69 86 70 87 78 88 71 89
REMARK SMILES IDX 73 90 79 91 72 92 74 93 75 94 76 95 77 96 54 97 55 98 63 99
REMARK SMILES IDX 56 100 58 101 64 102 57 103 59 104 60 105 61 106 62 107
REMARK H PARENT 20 4 14 11 1 27 1 28 25 41 84 60 52 71
REMARK Flexibility Score: inf
ROOT
ATOM      1  C   UNL A   1      33.245  28.667  23.496  1.00  0.00     0.220 C 
ATOM      2  O   UNL A   1      34.107  28.799  22.625  1.00  0.00    -0.275 OA
ATOM      3  N   UNL A   1      33.007  29.712  24.335  1.00  0.00    -0.356 N 
ATOM      4  H   UNL A   1      33.409  30.566  24.052  1.00  0.00     0.163 HD
ENDROOT
BRANCH   1   5
ATOM      5  C   UNL A   1      32.490  27.360  23.640  1.00  0.00     0.102 C 
BRANCH   5   6
ATOM      6  C   UNL A   1      31.061  27.416  23.092  1.00  0.00     0.031 C 
BRANCH   6   7
ATOM      7  C   UNL A   1      30.226  26.163  23.326  1.00  0.00     0.116 C 
BRANCH   7   8
ATOM      8  N   UNL A   1      29.681  26.043  24.665  1.00  0.00    -0.351 N 
ATOM      9  C   UNL A   1      30.067  25.230  25.712  1.00  0.00     0.271 C 
ATOM     10  O   UNL A   1      29.396  25.280  26.743  1.00  0.00    -0.267 OA
ATOM     11  H   UNL A   1      28.918  26.635  24.858  1.00  0.00     0.163 HD
BRANCH   9  12
ATOM     12  C   UNL A   1      31.231  24.330  25.569  1.00  0.00     0.151 A 
ATOM     13  N   UNL A   1      32.315  22.520  25.184  1.00  0.00    -0.232 N 
ATOM     14  N   UNL A   1      31.083  23.071  25.104  1.00  0.00    -0.162 NA
ATOM     15  C   UNL A   1      33.289  23.485  25.394  1.00  0.00     0.075 A 
ATOM     16  C   UNL A   1      32.599  24.591  25.835  1.00  0.00     0.065 A 
BRANCH  13  17
ATOM     17  C   UNL A   1      32.521  21.124  25.009  1.00  0.00     0.065 A 
ATOM     18  C   UNL A   1      33.184  18.449  24.625  1.00  0.00     0.082 A 
ATOM     19  C   UNL A   1      33.362  19.024  25.884  1.00  0.00     0.024 A 
ATOM     20  C   UNL A   1      32.621  19.181  23.574  1.00  0.00     0.024 A 
ATOM     21  C   UNL A   1      33.035  20.363  26.072  1.00  0.00     0.030 A 
ATOM     22  C   UNL A   1      32.260  20.519  23.774  1.00  0.00     0.030 A 
BRANCH  18  23
ATOM     23  S   UNL A   1      33.739  16.791  24.373  1.00  0.00     0.238 S 
ATOM     24  O   UNL A   1      32.666  15.869  24.714  1.00  0.00    -0.207 OA
ATOM     25  O   UNL A   1      35.073  16.653  24.876  1.00  0.00    -0.207 OA
BRANCH  23  26
ATOM     26  N   UNL A   1      33.854  16.698  22.695  1.00  0.00    -0.225 NA
ATOM     27  H   UNL A   1      33.069  16.159  22.330  1.00  0.00     0.137 HD
ATOM     28  H   UNL A   1      34.730  16.240  22.439  1.00  0.00     0.137 HD
ENDBRANCH  23  26
ENDBRANCH  18  23
ENDBRANCH  13  17
BRANCH  15  29
ATOM     29  C   UNL A   1      34.706  23.351  25.062  1.00  0.00     0.000 A 
ATOM     30  C   UNL A   1      35.658  23.296  26.092  1.00  0.00     0.010 A 
ATOM     31  C   UNL A   1      35.129  23.242  23.736  1.00  0.00     0.010 A 
ATOM     32  C   UNL A   1      37.015  23.171  25.801  1.00  0.00     0.001 A 
ATOM     33  C   UNL A   1      36.490  23.115  23.445  1.00  0.00     0.001 A 
ATOM     34  C   UNL A   1      37.430  23.086  24.475  1.00  0.00     0.000 A 
ENDBRANCH  15  29
ENDBRANCH   9  12
ENDBRANCH   7   8
ENDBRANCH   6   7
ENDBRANCH   5   6
ENDBRANCH   1   5
BRANCH   3  35
ATOM     35  C   UNL A   1      32.258  29.774  25.577  1.00  0.00     0.116 C 
BRANCH  35  36
ATOM     36  C   UNL A   1      33.209  29.919  26.774  1.00  0.00     0.023 C 
BRANCH  36  37
ATOM     37  C   UNL A   1      34.354  28.903  26.837  1.00  0.00     0.023 C 
BRANCH  37  38
ATOM     38  C   UNL A   1      35.644  29.455  27.424  1.00  0.00     0.116 C 
BRANCH  38  39
ATOM     39  N   UNL A   1      35.468  30.781  28.017  1.00  0.00    -0.352 N 
ATOM     40  C   UNL A   1      36.025  31.249  29.190  1.00  0.00     0.251 C 
ATOM     41  H   UNL A   1      34.886  31.407  27.527  1.00  0.00     0.163 HD
ATOM     42  O   UNL A   1      35.527  32.184  29.804  1.00  0.00    -0.269 OA
BRANCH  40  43
ATOM     43  C   UNL A   1      37.243  30.587  29.682  1.00  0.00     0.039 A 
ATOM     44  C   UNL A   1      37.168  29.376  30.373  1.00  0.00     0.014 A 
ATOM     45  C   UNL A   1      38.468  31.159  29.339  1.00  0.00     0.014 A 
ATOM     46  C   UNL A   1      38.347  28.682  30.631  1.00  0.00     0.010 A 
ATOM     47  C   UNL A   1      39.618  30.424  29.504  1.00  0.00     0.010 A 
ATOM     48  C   UNL A   1      39.567  29.196  30.166  1.00  0.00    -0.014 A 
BRANCH  48  49
ATOM     49  C   UNL A   1      40.771  28.366  30.195  1.00  0.00     0.031 A 
ATOM     50  C   UNL A   1      41.476  28.348  31.510  1.00  0.00     0.074 A 
ATOM     51  C   UNL A   1      41.061  27.477  29.220  1.00  0.00     0.049 A 
ATOM     52  N   UNL A   1      42.664  28.783  31.782  1.00  0.00    -0.248 NA
ATOM     53  C   UNL A   1      40.715  27.929  32.699  1.00  0.00     0.031 C 
ATOM     54  C   UNL A   1      40.246  27.166  28.039  1.00  0.00     0.029 A 
ATOM     55  N   UNL A   1      42.046  26.537  29.165  1.00  0.00    -0.354 N 
ATOM     56  C   UNL A   1      42.890  28.437  33.116  1.00  0.00     0.074 A 
ATOM     57  C   UNL A   1      41.597  28.152  33.675  1.00  0.00     0.031 C 
ATOM     58  C   UNL A   1      40.604  25.957  27.556  1.00  0.00     0.029 A 
ATOM     59  C   UNL A   1      41.772  25.495  28.279  1.00  0.00     0.049 A 
ATOM     60  H   UNL A   1      42.872  26.588  29.698  1.00  0.00     0.167 HD
ATOM     61  C   UNL A   1      44.139  28.115  33.558  1.00  0.00     0.034 A 
ATOM     62  C   UNL A   1      42.420  24.310  28.183  1.00  0.00     0.034 A 
ATOM     63  C   UNL A   1      45.146  28.540  32.615  1.00  0.00     0.049 A 
ATOM     64  C   UNL A   1      43.743  24.480  28.821  1.00  0.00     0.074 A 
ATOM     65  C   UNL A   1      45.505  29.731  32.017  1.00  0.00     0.029 A 
ATOM     66  N   UNL A   1      45.737  27.550  31.868  1.00  0.00    -0.354 N 
ATOM     67  N   UNL A   1      44.678  25.253  28.346  1.00  0.00    -0.248 NA
ATOM     68  C   UNL A   1      43.893  24.094  30.213  1.00  0.00     0.031 C 
ATOM     69  C   UNL A   1      45.897  29.374  30.692  1.00  0.00     0.029 A 
ATOM     70  C   UNL A   1      45.825  27.985  30.577  1.00  0.00     0.049 A 
ATOM     71  H   UNL A   1      46.043  26.677  32.206  1.00  0.00     0.167 HD
ATOM     72  C   UNL A   1      45.246  25.828  29.474  1.00  0.00     0.074 A 
ATOM     73  C   UNL A   1      44.829  24.972  30.582  1.00  0.00     0.031 C 
ATOM     74  C   UNL A   1      45.737  27.103  29.434  1.00  0.00     0.034 A 
BRANCH  61  75
ATOM     75  C   UNL A   1      44.458  27.036  34.587  1.00  0.00     0.023 A 
ATOM     76  C   UNL A   1      45.339  27.398  35.636  1.00  0.00     0.012 A 
ATOM     77  C   UNL A   1      44.215  25.653  34.421  1.00  0.00     0.148 A 
ATOM     78  C   UNL A   1      46.025  26.441  36.392  1.00  0.00     0.002 A 
ATOM     79  C   UNL A   1      44.840  24.706  35.227  1.00  0.00     0.091 A 
ATOM     80  F   UNL A   1      43.475  25.211  33.404  1.00  0.00    -0.205 F 
ATOM     81  C   UNL A   1      45.778  25.091  36.185  1.00  0.00     0.022 A 
BRANCH  79  82
ATOM     82  S   UNL A   1      44.519  22.946  35.035  1.00  0.00     0.127 S 
ATOM     83  O   UNL A   1      45.125  22.409  36.249  1.00  0.00    -0.237 OA
ATOM     84  O   UNL A   1      43.057  22.914  35.002  1.00  0.00    -0.237 OA
ATOM     85  O   UNL A   1      45.153  22.565  33.779  1.00  0.00    -0.744 OA
ENDBRANCH  79  82
ENDBRANCH  61  75
BRANCH  62  86
ATOM     86  C   UNL A   1      41.920  22.979  27.767  1.00  0.00     0.023 A 
ATOM     87  C   UNL A   1      40.532  22.759  27.666  1.00  0.00     0.012 A 
ATOM     88  C   UNL A   1      42.790  22.017  27.206  1.00  0.00     0.148 A 
ATOM     89  C   UNL A   1      40.025  21.640  26.994  1.00  0.00     0.002 A 
ATOM     90  C   UNL A   1      42.282  20.901  26.548  1.00  0.00     0.091 A 
ATOM     91  F   UNL A   1      44.111  22.243  27.237  1.00  0.00    -0.205 F 
ATOM     92  C   UNL A   1      40.899  20.716  26.427  1.00  0.00     0.022 A 
BRANCH  90  93
ATOM     93  S   UNL A   1      43.350  19.676  25.776  1.00  0.00     0.127 S 
ATOM     94  O   UNL A   1      42.518  19.200  24.670  1.00  0.00    -0.237 OA
ATOM     95  O   UNL A   1      44.497  20.485  25.374  1.00  0.00    -0.237 OA
ATOM     96  O   UNL A   1      43.612  18.673  26.802  1.00  0.00    -0.744 OA
ENDBRANCH  90  93
ENDBRANCH  62  86
BRANCH  74  97
ATOM     97  C   UNL A   1      45.968  27.736  28.088  1.00  0.00     0.023 A 
ATOM     98  C   UNL A   1      45.103  28.707  27.541  1.00  0.00     0.012 A 
ATOM     99  C   UNL A   1      47.179  27.459  27.432  1.00  0.00     0.148 A 
ATOM    100  C   UNL A   1      45.428  29.366  26.352  1.00  0.00     0.002 A 
ATOM    101  C   UNL A   1      47.523  28.151  26.279  1.00  0.00     0.091 A 
ATOM    102  F   UNL A   1      47.991  26.533  27.966  1.00  0.00    -0.205 F 
ATOM    103  C   UNL A   1      46.645  29.099  25.728  1.00  0.00     0.022 A 
BRANCH 101 104
ATOM    104  S   UNL A   1      49.129  27.938  25.510  1.00  0.00     0.127 S 
ATOM    105  O   UNL A   1      49.597  26.696  26.120  1.00  0.00    -0.237 OA
ATOM    106  O   UNL A   1      48.789  27.833  24.090  1.00  0.00    -0.237 OA
ATOM    107  O   UNL A   1      49.893  29.133  25.848  1.00  0.00    -0.744 OA
ENDBRANCH 101 104
ENDBRANCH  74  97
ENDBRANCH  48  49
ENDBRANCH  40  43
ENDBRANCH  38  39
ENDBRANCH  37  38
ENDBRANCH  36  37
ENDBRANCH  35  36
ENDBRANCH   3  35
TORSDOF 22
ENDMDL
