MODEL 1
REMARK VINA RESULT:     -10.6      0.000      0.000
REMARK SMILES CC(C)CCOc1ccc(/C=C2\SC(=S)N(CC(=O)NCCCCNC(=O)c3ccc(-c4c5nc(c(-c6cccc(S(=O)(=O)[O-])c6F)c6ccc([nH]6)c(-c6cccc(S(=O)(=O)[O-])c6F)c6nc(c(-c7cccc(S(=O)(=O)[O-])c7F)c7ccc4[nH]7)C=C6)C=C5)cc3)C2=O)cc1
REMARK SMILES IDX 21 1 20 2 18 3 19 4 17 6 16 7 11 8 12 9 13 10 91 11 14 12
REMARK SMILES IDX 92 13 15 14 10 15 7 16 8 17 94 18 9 19 93 20 6 21 5 22 4 23
REMARK SMILES IDX 2 24 1 25 3 26 22 27 23 28 24 29 25 30 26 31 27 33 28 34
REMARK SMILES IDX 29 35 90 36 30 37 89 38 31 39 32 40 33 41 83 42 34 43 88 44
REMARK SMILES IDX 82 45 84 46 35 47 87 48 81 49 80 50 36 52 68 53 48 54 67 55
REMARK SMILES IDX 49 56 52 57 66 58 85 59 50 60 51 61 65 63 86 64 53 65 37 66
REMARK SMILES IDX 38 67 46 68 39 69 41 70 47 71 40 72 42 73 43 74 44 75 45 76
REMARK SMILES IDX 69 77 70 78 78 79 71 80 73 81 79 82 72 83 74 84 75 85 76 86
REMARK SMILES IDX 77 87 54 88 55 89 63 90 56 91 58 92 64 93 57 94 59 95 60 96
REMARK SMILES IDX 61 97 62 98
REMARK H PARENT 20 5 25 32 84 51 52 62
REMARK Flexibility Score: inf
ROOT
ATOM      1  C   UNL A   1      34.630  31.274  27.625  1.00  0.00     0.116 C 
ENDROOT
BRANCH   1   2
ATOM      2  N   UNL A   1      33.242  30.872  27.735  1.00  0.00    -0.355 N 
ATOM      3  C   UNL A   1      32.429  30.217  26.857  1.00  0.00     0.240 C 
ATOM      4  O   UNL A   1      31.400  29.709  27.315  1.00  0.00    -0.273 OA
ATOM      5  H   UNL A   1      32.813  31.113  28.588  1.00  0.00     0.163 HD
BRANCH   3   6
ATOM      6  C   UNL A   1      32.840  29.933  25.408  1.00  0.00     0.227 C 
BRANCH   6   7
ATOM      7  N   UNL A   1      32.789  28.523  25.051  1.00  0.00    -0.283 N 
ATOM      8  C   UNL A   1      34.073  25.204  25.756  1.00  0.00     0.029 C 
ATOM      9  C   UNL A   1      33.371  26.250  25.285  1.00  0.00     0.081 C 
ATOM     10  S   UNL A   1      32.084  26.251  24.138  1.00  0.00    -0.054 SA
ATOM     11  C   UNL A   1      33.636  27.650  25.716  1.00  0.00     0.266 C 
ATOM     12  C   UNL A   1      32.047  27.991  24.024  1.00  0.00     0.148 C 
ATOM     13  O   UNL A   1      34.514  27.966  26.508  1.00  0.00    -0.268 OA
ATOM     14  S   UNL A   1      31.207  28.775  22.814  1.00  0.00    -0.052 S 
BRANCH   8  15
ATOM     15  C   UNL A   1      33.946  23.785  25.365  1.00  0.00    -0.024 A 
ATOM     16  C   UNL A   1      33.815  21.043  24.798  1.00  0.00     0.119 A 
ATOM     17  C   UNL A   1      32.781  21.648  25.505  1.00  0.00     0.047 A 
ATOM     18  C   UNL A   1      34.846  21.805  24.277  1.00  0.00     0.047 A 
ATOM     19  C   UNL A   1      32.842  23.024  25.777  1.00  0.00     0.012 A 
ATOM     20  C   UNL A   1      34.956  23.138  24.645  1.00  0.00     0.012 A 
BRANCH  16  21
ATOM     21  O   UNL A   1      33.868  19.691  24.613  1.00  0.00    -0.494 OA
BRANCH  21  22
ATOM     22  C   UNL A   1      32.887  19.006  25.419  1.00  0.00     0.230 C 
BRANCH  22  23
ATOM     23  C   UNL A   1      32.457  17.624  24.877  1.00  0.00     0.044 C 
BRANCH  23  24
ATOM     24  C   UNL A   1      33.583  16.567  24.770  1.00  0.00    -0.014 C 
ATOM     25  C   UNL A   1      33.173  15.201  25.317  1.00  0.00     0.007 C 
ATOM     26  C   UNL A   1      34.066  16.435  23.322  1.00  0.00     0.007 C 
ENDBRANCH  23  24
ENDBRANCH  22  23
ENDBRANCH  21  22
ENDBRANCH  16  21
ENDBRANCH   8  15
ENDBRANCH   6   7
ENDBRANCH   3   6
ENDBRANCH   1   2
BRANCH   1  27
ATOM     27  C   UNL A   1      34.849  32.743  27.978  1.00  0.00     0.023 C 
BRANCH  27  28
ATOM     28  C   UNL A   1      33.568  33.574  28.061  1.00  0.00     0.023 C 
BRANCH  28  29
ATOM     29  C   UNL A   1      33.766  35.051  28.385  1.00  0.00     0.116 C 
BRANCH  29  30
ATOM     30  N   UNL A   1      33.155  35.450  29.646  1.00  0.00    -0.352 N 
ATOM     31  C   UNL A   1      33.451  35.025  30.920  1.00  0.00     0.251 C 
ATOM     32  H   UNL A   1      32.431  36.113  29.576  1.00  0.00     0.163 HD
ATOM     33  O   UNL A   1      32.750  35.376  31.866  1.00  0.00    -0.269 OA
BRANCH  31  34
ATOM     34  C   UNL A   1      34.594  34.113  31.138  1.00  0.00     0.039 A 
ATOM     35  C   UNL A   1      35.883  34.571  30.858  1.00  0.00     0.014 A 
ATOM     36  C   UNL A   1      34.398  32.836  31.670  1.00  0.00     0.014 A 
ATOM     37  C   UNL A   1      36.984  33.783  31.198  1.00  0.00     0.010 A 
ATOM     38  C   UNL A   1      35.497  32.083  32.076  1.00  0.00     0.010 A 
ATOM     39  C   UNL A   1      36.801  32.557  31.860  1.00  0.00    -0.014 A 
BRANCH  39  40
ATOM     40  C   UNL A   1      37.956  31.801  32.409  1.00  0.00     0.031 A 
ATOM     41  C   UNL A   1      38.592  32.200  33.710  1.00  0.00     0.074 A 
ATOM     42  C   UNL A   1      38.508  30.819  31.669  1.00  0.00     0.049 A 
ATOM     43  N   UNL A   1      39.643  31.692  34.301  1.00  0.00    -0.248 NA
ATOM     44  C   UNL A   1      37.986  33.331  34.429  1.00  0.00     0.031 C 
ATOM     45  C   UNL A   1      38.041  30.401  30.345  1.00  0.00     0.029 A 
ATOM     46  N   UNL A   1      39.602  30.024  31.901  1.00  0.00    -0.354 N 
ATOM     47  C   UNL A   1      39.851  32.464  35.436  1.00  0.00     0.074 A 
ATOM     48  C   UNL A   1      38.827  33.488  35.440  1.00  0.00     0.031 C 
ATOM     49  C   UNL A   1      38.848  29.437  29.878  1.00  0.00     0.029 A 
ATOM     50  C   UNL A   1      39.912  29.195  30.847  1.00  0.00     0.049 A 
ATOM     51  H   UNL A   1      40.116  30.045  32.741  1.00  0.00     0.167 HD
ATOM     52  C   UNL A   1      40.796  32.324  36.397  1.00  0.00     0.034 A 
ATOM     53  C   UNL A   1      40.950  28.357  30.661  1.00  0.00     0.034 A 
ATOM     54  C   UNL A   1      41.799  31.291  36.398  1.00  0.00     0.049 A 
ATOM     55  C   UNL A   1      41.971  28.197  31.751  1.00  0.00     0.074 A 
ATOM     56  C   UNL A   1      42.722  30.992  37.384  1.00  0.00     0.029 A 
ATOM     57  N   UNL A   1      42.038  30.416  35.350  1.00  0.00    -0.354 N 
ATOM     58  N   UNL A   1      42.035  28.800  32.913  1.00  0.00    -0.248 NA
ATOM     59  C   UNL A   1      43.046  27.221  31.520  1.00  0.00     0.031 C 
ATOM     60  C   UNL A   1      43.552  29.969  36.912  1.00  0.00     0.029 A 
ATOM     61  C   UNL A   1      43.119  29.600  35.648  1.00  0.00     0.049 A 
ATOM     62  H   UNL A   1      41.517  30.378  34.516  1.00  0.00     0.167 HD
ATOM     63  C   UNL A   1      43.147  28.271  33.557  1.00  0.00     0.074 A 
ATOM     64  C   UNL A   1      43.708  27.273  32.670  1.00  0.00     0.031 C 
ATOM     65  C   UNL A   1      43.663  28.595  34.770  1.00  0.00     0.034 A 
BRANCH  52  66
ATOM     66  C   UNL A   1      40.781  33.306  37.540  1.00  0.00     0.023 A 
ATOM     67  C   UNL A   1      41.656  34.411  37.533  1.00  0.00     0.012 A 
ATOM     68  C   UNL A   1      39.869  33.156  38.605  1.00  0.00     0.148 A 
ATOM     69  C   UNL A   1      41.659  35.323  38.588  1.00  0.00     0.002 A 
ATOM     70  C   UNL A   1      39.844  34.096  39.627  1.00  0.00     0.091 A 
ATOM     71  F   UNL A   1      39.057  32.089  38.607  1.00  0.00    -0.205 F 
ATOM     72  C   UNL A   1      40.747  35.172  39.629  1.00  0.00     0.022 A 
BRANCH  70  73
ATOM     73  S   UNL A   1      38.651  34.033  40.968  1.00  0.00     0.127 S 
ATOM     74  O   UNL A   1      38.573  35.440  41.359  1.00  0.00    -0.237 OA
ATOM     75  O   UNL A   1      37.456  33.522  40.293  1.00  0.00    -0.237 OA
ATOM     76  O   UNL A   1      39.215  33.135  41.966  1.00  0.00    -0.744 OA
ENDBRANCH  70  73
ENDBRANCH  52  66
BRANCH  53  77
ATOM     77  C   UNL A   1      41.049  27.592  29.387  1.00  0.00     0.023 A 
ATOM     78  C   UNL A   1      40.256  26.447  29.194  1.00  0.00     0.012 A 
ATOM     79  C   UNL A   1      41.876  28.044  28.340  1.00  0.00     0.148 A 
ATOM     80  C   UNL A   1      40.296  25.753  27.983  1.00  0.00     0.002 A 
ATOM     81  C   UNL A   1      41.864  27.385  27.117  1.00  0.00     0.091 A 
ATOM     82  F   UNL A   1      42.628  29.132  28.551  1.00  0.00    -0.205 F 
ATOM     83  C   UNL A   1      41.088  26.229  26.942  1.00  0.00     0.022 A 
BRANCH  81  84
ATOM     84  S   UNL A   1      42.736  28.010  25.676  1.00  0.00     0.127 S 
ATOM     85  O   UNL A   1      42.259  27.115  24.625  1.00  0.00    -0.237 OA
ATOM     86  O   UNL A   1      42.232  29.381  25.595  1.00  0.00    -0.237 OA
ATOM     87  O   UNL A   1      44.154  27.908  25.995  1.00  0.00    -0.744 OA
ENDBRANCH  81  84
ENDBRANCH  53  77
BRANCH  65  88
ATOM     88  C   UNL A   1      44.903  27.865  35.219  1.00  0.00     0.023 A 
ATOM     89  C   UNL A   1      46.174  28.404  34.936  1.00  0.00     0.012 A 
ATOM     90  C   UNL A   1      44.809  26.684  35.982  1.00  0.00     0.148 A 
ATOM     91  C   UNL A   1      47.332  27.764  35.380  1.00  0.00     0.002 A 
ATOM     92  C   UNL A   1      45.964  26.079  36.464  1.00  0.00     0.091 A 
ATOM     93  F   UNL A   1      43.592  26.177  36.227  1.00  0.00    -0.205 F 
ATOM     94  C   UNL A   1      47.227  26.611  36.152  1.00  0.00     0.022 A 
BRANCH  92  95
ATOM     95  S   UNL A   1      45.929  24.644  37.543  1.00  0.00     0.127 S 
ATOM     96  O   UNL A   1      45.369  23.621  36.660  1.00  0.00    -0.237 OA
ATOM     97  O   UNL A   1      47.345  24.465  37.864  1.00  0.00    -0.237 OA
ATOM     98  O   UNL A   1      45.091  25.011  38.677  1.00  0.00    -0.744 OA
ENDBRANCH  92  95
ENDBRANCH  65  88
ENDBRANCH  39  40
ENDBRANCH  31  34
ENDBRANCH  29  30
ENDBRANCH  28  29
ENDBRANCH  27  28
ENDBRANCH   1  27
TORSDOF 20
ENDMDL
MODEL 2
REMARK VINA RESULT:      -9.9      5.081      9.183
REMARK SMILES CC(C)CCOc1ccc(/C=C2\SC(=S)N(CC(=O)NCCCCNC(=O)c3ccc(-c4c5nc(c(-c6cccc(S(=O)(=O)[O-])c6F)c6ccc([nH]6)c(-c6cccc(S(=O)(=O)[O-])c6F)c6nc(c(-c7cccc(S(=O)(=O)[O-])c7F)c7ccc4[nH]7)C=C6)C=C5)cc3)C2=O)cc1
REMARK SMILES IDX 21 1 20 2 18 3 19 4 17 6 16 7 11 8 12 9 13 10 91 11 14 12
REMARK SMILES IDX 92 13 15 14 10 15 7 16 8 17 94 18 9 19 93 20 6 21 5 22 4 23
REMARK SMILES IDX 2 24 1 25 3 26 22 27 23 28 24 29 25 30 26 31 27 33 28 34
REMARK SMILES IDX 29 35 90 36 30 37 89 38 31 39 32 40 33 41 83 42 34 43 88 44
REMARK SMILES IDX 82 45 84 46 35 47 87 48 81 49 80 50 36 52 68 53 48 54 67 55
REMARK SMILES IDX 49 56 52 57 66 58 85 59 50 60 51 61 65 63 86 64 53 65 37 66
REMARK SMILES IDX 38 67 46 68 39 69 41 70 47 71 40 72 42 73 43 74 44 75 45 76
REMARK SMILES IDX 69 77 70 78 78 79 71 80 73 81 79 82 72 83 74 84 75 85 76 86
REMARK SMILES IDX 77 87 54 88 55 89 63 90 56 91 58 92 64 93 57 94 59 95 60 96
REMARK SMILES IDX 61 97 62 98
REMARK H PARENT 20 5 25 32 84 51 52 62
REMARK Flexibility Score: inf
ROOT
ATOM      1  C   UNL A   1      36.899  34.370  32.150  1.00  0.00     0.116 C 
ENDROOT
BRANCH   1   2
ATOM      2  N   UNL A   1      36.318  34.578  30.839  1.00  0.00    -0.355 N 
ATOM      3  C   UNL A   1      35.538  33.767  30.069  1.00  0.00     0.240 C 
ATOM      4  O   UNL A   1      34.909  34.300  29.148  1.00  0.00    -0.273 OA
ATOM      5  H   UNL A   1      36.522  35.452  30.435  1.00  0.00     0.163 HD
BRANCH   3   6
ATOM      6  C   UNL A   1      35.273  32.299  30.423  1.00  0.00     0.227 C 
BRANCH   6   7
ATOM      7  N   UNL A   1      35.940  31.354  29.540  1.00  0.00    -0.283 N 
ATOM      8  C   UNL A   1      39.015  29.559  28.844  1.00  0.00     0.029 C 
ATOM      9  C   UNL A   1      37.749  30.011  28.842  1.00  0.00     0.081 C 
ATOM     10  S   UNL A   1      36.441  29.539  27.823  1.00  0.00    -0.054 SA
ATOM     11  C   UNL A   1      37.273  31.061  29.784  1.00  0.00     0.266 C 
ATOM     12  C   UNL A   1      35.392  30.804  28.406  1.00  0.00     0.148 C 
ATOM     13  O   UNL A   1      37.988  31.609  30.614  1.00  0.00    -0.268 OA
ATOM     14  S   UNL A   1      33.970  31.196  27.626  1.00  0.00    -0.052 S 
BRANCH   8  15
ATOM     15  C   UNL A   1      39.619  28.570  27.928  1.00  0.00    -0.024 A 
ATOM     16  C   UNL A   1      40.926  26.674  26.329  1.00  0.00     0.119 A 
ATOM     17  C   UNL A   1      39.959  26.257  27.238  1.00  0.00     0.047 A 
ATOM     18  C   UNL A   1      41.162  28.023  26.130  1.00  0.00     0.047 A 
ATOM     19  C   UNL A   1      39.296  27.209  28.029  1.00  0.00     0.012 A 
ATOM     20  C   UNL A   1      40.588  28.946  26.991  1.00  0.00     0.012 A 
BRANCH  16  21
ATOM     21  O   UNL A   1      41.686  25.785  25.625  1.00  0.00    -0.494 OA
BRANCH  21  22
ATOM     22  C   UNL A   1      42.915  25.474  26.315  1.00  0.00     0.230 C 
BRANCH  22  23
ATOM     23  C   UNL A   1      42.963  24.065  26.947  1.00  0.00     0.044 C 
BRANCH  23  24
ATOM     24  C   UNL A   1      42.931  24.025  28.495  1.00  0.00    -0.014 C 
ATOM     25  C   UNL A   1      44.022  23.137  29.091  1.00  0.00     0.007 C 
ATOM     26  C   UNL A   1      43.024  25.440  29.074  1.00  0.00     0.007 C 
ENDBRANCH  23  24
ENDBRANCH  22  23
ENDBRANCH  21  22
ENDBRANCH  16  21
ENDBRANCH   8  15
ENDBRANCH   6   7
ENDBRANCH   3   6
ENDBRANCH   1   2
BRANCH   1  27
ATOM     27  C   UNL A   1      35.992  34.848  33.281  1.00  0.00     0.023 C 
BRANCH  27  28
ATOM     28  C   UNL A   1      35.997  33.953  34.521  1.00  0.00     0.023 C 
BRANCH  28  29
ATOM     29  C   UNL A   1      37.347  33.801  35.213  1.00  0.00     0.116 C 
BRANCH  29  30
ATOM     30  N   UNL A   1      37.374  32.720  36.190  1.00  0.00    -0.352 N 
ATOM     31  C   UNL A   1      38.155  31.588  36.201  1.00  0.00     0.251 C 
ATOM     32  H   UNL A   1      36.748  32.811  36.943  1.00  0.00     0.163 HD
ATOM     33  O   UNL A   1      37.962  30.713  37.041  1.00  0.00    -0.269 OA
BRANCH  31  34
ATOM     34  C   UNL A   1      39.202  31.413  35.171  1.00  0.00     0.039 A 
ATOM     35  C   UNL A   1      40.484  31.906  35.425  1.00  0.00     0.014 A 
ATOM     36  C   UNL A   1      38.934  30.718  33.989  1.00  0.00     0.014 A 
ATOM     37  C   UNL A   1      41.521  31.620  34.535  1.00  0.00     0.010 A 
ATOM     38  C   UNL A   1      39.982  30.371  33.141  1.00  0.00     0.010 A 
ATOM     39  C   UNL A   1      41.290  30.804  33.415  1.00  0.00    -0.014 A 
BRANCH  39  40
ATOM     40  C   UNL A   1      42.413  30.323  32.570  1.00  0.00     0.031 A 
ATOM     41  C   UNL A   1      42.869  31.104  31.371  1.00  0.00     0.074 A 
ATOM     42  C   UNL A   1      42.949  29.112  32.823  1.00  0.00     0.049 A 
ATOM     43  N   UNL A   1      43.787  30.799  30.492  1.00  0.00    -0.248 NA
ATOM     44  C   UNL A   1      42.187  32.381  31.111  1.00  0.00     0.031 C 
ATOM     45  C   UNL A   1      42.529  28.213  33.900  1.00  0.00     0.029 A 
ATOM     46  N   UNL A   1      43.931  28.409  32.169  1.00  0.00    -0.354 N 
ATOM     47  C   UNL A   1      43.768  31.820  29.552  1.00  0.00     0.074 A 
ATOM     48  C   UNL A   1      42.730  32.745  29.959  1.00  0.00     0.031 C 
ATOM     49  C   UNL A   1      43.237  27.077  33.828  1.00  0.00     0.029 A 
ATOM     50  C   UNL A   1      44.133  27.146  32.677  1.00  0.00     0.049 A 
ATOM     51  H   UNL A   1      44.441  28.773  31.409  1.00  0.00     0.167 HD
ATOM     52  C   UNL A   1      44.552  31.984  28.459  1.00  0.00     0.034 A 
ATOM     53  C   UNL A   1      44.924  26.142  32.252  1.00  0.00     0.034 A 
ATOM     54  C   UNL A   1      45.596  31.071  28.071  1.00  0.00     0.049 A 
ATOM     55  C   UNL A   1      45.805  26.355  31.055  1.00  0.00     0.074 A 
ATOM     56  C   UNL A   1      46.523  31.210  27.054  1.00  0.00     0.029 A 
ATOM     57  N   UNL A   1      45.828  29.835  28.654  1.00  0.00    -0.354 N 
ATOM     58  N   UNL A   1      45.914  27.416  30.293  1.00  0.00    -0.248 NA
ATOM     59  C   UNL A   1      46.694  25.247  30.676  1.00  0.00     0.031 C 
ATOM     60  C   UNL A   1      47.282  30.036  26.989  1.00  0.00     0.029 A 
ATOM     61  C   UNL A   1      46.858  29.183  27.994  1.00  0.00     0.049 A 
ATOM     62  H   UNL A   1      45.334  29.474  29.425  1.00  0.00     0.167 HD
ATOM     63  C   UNL A   1      46.890  27.110  29.351  1.00  0.00     0.074 A 
ATOM     64  C   UNL A   1      47.365  25.777  29.660  1.00  0.00     0.031 C 
ATOM     65  C   UNL A   1      47.340  27.863  28.317  1.00  0.00     0.034 A 
BRANCH  52  66
ATOM     66  C   UNL A   1      44.322  33.208  27.610  1.00  0.00     0.023 A 
ATOM     67  C   UNL A   1      43.763  33.078  26.323  1.00  0.00     0.012 A 
ATOM     68  C   UNL A   1      44.622  34.493  28.105  1.00  0.00     0.148 A 
ATOM     69  C   UNL A   1      43.551  34.200  25.523  1.00  0.00     0.002 A 
ATOM     70  C   UNL A   1      44.361  35.611  27.321  1.00  0.00     0.091 A 
ATOM     71  F   UNL A   1      45.171  34.598  29.323  1.00  0.00    -0.205 F 
ATOM     72  C   UNL A   1      43.841  35.466  26.025  1.00  0.00     0.022 A 
BRANCH  70  73
ATOM     73  S   UNL A   1      44.622  37.286  27.912  1.00  0.00     0.127 S 
ATOM     74  O   UNL A   1      43.998  38.073  26.849  1.00  0.00    -0.237 OA
ATOM     75  O   UNL A   1      43.889  37.284  29.179  1.00  0.00    -0.237 OA
ATOM     76  O   UNL A   1      46.064  37.445  28.046  1.00  0.00    -0.744 OA
ENDBRANCH  70  73
ENDBRANCH  52  66
BRANCH  53  77
ATOM     77  C   UNL A   1      44.920  24.849  32.993  1.00  0.00     0.023 A 
ATOM     78  C   UNL A   1      44.062  23.812  32.587  1.00  0.00     0.012 A 
ATOM     79  C   UNL A   1      45.820  24.626  34.053  1.00  0.00     0.148 A 
ATOM     80  C   UNL A   1      44.088  22.576  33.236  1.00  0.00     0.002 A 
ATOM     81  C   UNL A   1      45.884  23.375  34.654  1.00  0.00     0.091 A 
ATOM     82  F   UNL A   1      46.622  25.633  34.426  1.00  0.00    -0.205 F 
ATOM     83  C   UNL A   1      45.008  22.354  34.259  1.00  0.00     0.022 A 
BRANCH  81  84
ATOM     84  S   UNL A   1      47.134  22.953  35.874  1.00  0.00     0.127 S 
ATOM     85  O   UNL A   1      48.367  23.117  35.108  1.00  0.00    -0.237 OA
ATOM     86  O   UNL A   1      46.903  23.972  36.899  1.00  0.00    -0.237 OA
ATOM     87  O   UNL A   1      46.832  21.593  36.297  1.00  0.00    -0.744 OA
ENDBRANCH  81  84
ENDBRANCH  53  77
BRANCH  65  88
ATOM     88  C   UNL A   1      48.406  27.269  27.431  1.00  0.00     0.023 A 
ATOM     89  C   UNL A   1      48.036  26.552  26.275  1.00  0.00     0.012 A 
ATOM     90  C   UNL A   1      49.772  27.480  27.704  1.00  0.00     0.148 A 
ATOM     91  C   UNL A   1      49.008  26.030  25.422  1.00  0.00     0.002 A 
ATOM     92  C   UNL A   1      50.734  27.001  26.823  1.00  0.00     0.091 A 
ATOM     93  F   UNL A   1      50.105  28.150  28.817  1.00  0.00    -0.205 F 
ATOM     94  C   UNL A   1      50.354  26.265  25.689  1.00  0.00     0.022 A 
BRANCH  92  95
ATOM     95  S   UNL A   1      52.488  27.331  27.030  1.00  0.00     0.127 S 
ATOM     96  O   UNL A   1      52.478  28.722  27.482  1.00  0.00    -0.237 OA
ATOM     97  O   UNL A   1      52.865  26.358  28.056  1.00  0.00    -0.237 OA
ATOM     98  O   UNL A   1      53.099  27.106  25.727  1.00  0.00    -0.744 OA
ENDBRANCH  92  95
ENDBRANCH  65  88
ENDBRANCH  39  40
ENDBRANCH  31  34
ENDBRANCH  29  30
ENDBRANCH  28  29
ENDBRANCH  27  28
ENDBRANCH   1  27
TORSDOF 20
ENDMDL
MODEL 3
REMARK VINA RESULT:      -9.9      6.467      8.005
REMARK SMILES CC(C)CCOc1ccc(/C=C2\SC(=S)N(CC(=O)NCCCCNC(=O)c3ccc(-c4c5nc(c(-c6cccc(S(=O)(=O)[O-])c6F)c6ccc([nH]6)c(-c6cccc(S(=O)(=O)[O-])c6F)c6nc(c(-c7cccc(S(=O)(=O)[O-])c7F)c7ccc4[nH]7)C=C6)C=C5)cc3)C2=O)cc1
REMARK SMILES IDX 21 1 20 2 18 3 19 4 17 6 16 7 11 8 12 9 13 10 91 11 14 12
REMARK SMILES IDX 92 13 15 14 10 15 7 16 8 17 94 18 9 19 93 20 6 21 5 22 4 23
REMARK SMILES IDX 2 24 1 25 3 26 22 27 23 28 24 29 25 30 26 31 27 33 28 34
REMARK SMILES IDX 29 35 90 36 30 37 89 38 31 39 32 40 33 41 83 42 34 43 88 44
REMARK SMILES IDX 82 45 84 46 35 47 87 48 81 49 80 50 36 52 68 53 48 54 67 55
REMARK SMILES IDX 49 56 52 57 66 58 85 59 50 60 51 61 65 63 86 64 53 65 37 66
REMARK SMILES IDX 38 67 46 68 39 69 41 70 47 71 40 72 42 73 43 74 44 75 45 76
REMARK SMILES IDX 69 77 70 78 78 79 71 80 73 81 79 82 72 83 74 84 75 85 76 86
REMARK SMILES IDX 77 87 54 88 55 89 63 90 56 91 58 92 64 93 57 94 59 95 60 96
REMARK SMILES IDX 61 97 62 98
REMARK H PARENT 20 5 25 32 84 51 52 62
REMARK Flexibility Score: inf
ROOT
ATOM      1  C   UNL A   1      34.704  31.330  27.592  1.00  0.00     0.116 C 
ENDROOT
BRANCH   1   2
ATOM      2  N   UNL A   1      33.320  30.938  27.771  1.00  0.00    -0.355 N 
ATOM      3  C   UNL A   1      32.463  30.279  26.940  1.00  0.00     0.240 C 
ATOM      4  O   UNL A   1      31.453  29.783  27.450  1.00  0.00    -0.273 OA
ATOM      5  H   UNL A   1      32.932  31.192  28.639  1.00  0.00     0.163 HD
BRANCH   3   6
ATOM      6  C   UNL A   1      32.805  29.976  25.476  1.00  0.00     0.227 C 
BRANCH   6   7
ATOM      7  N   UNL A   1      32.902  28.554  25.180  1.00  0.00    -0.283 N 
ATOM      8  C   UNL A   1      34.500  25.414  26.045  1.00  0.00     0.029 C 
ATOM      9  C   UNL A   1      33.705  26.363  25.520  1.00  0.00     0.081 C 
ATOM     10  S   UNL A   1      32.443  26.186  24.360  1.00  0.00    -0.054 SA
ATOM     11  C   UNL A   1      33.821  27.800  25.893  1.00  0.00     0.266 C 
ATOM     12  C   UNL A   1      32.233  27.906  24.169  1.00  0.00     0.148 C 
ATOM     13  O   UNL A   1      34.650  28.236  26.681  1.00  0.00    -0.268 OA
ATOM     14  S   UNL A   1      31.338  28.550  22.916  1.00  0.00    -0.052 S 
BRANCH   8  15
ATOM     15  C   UNL A   1      34.523  23.975  25.715  1.00  0.00    -0.024 A 
ATOM     16  C   UNL A   1      34.390  21.274  24.975  1.00  0.00     0.119 A 
ATOM     17  C   UNL A   1      35.143  22.159  24.211  1.00  0.00     0.047 A 
ATOM     18  C   UNL A   1      33.804  21.695  26.156  1.00  0.00     0.047 A 
ATOM     19  C   UNL A   1      35.220  23.509  24.590  1.00  0.00     0.012 A 
ATOM     20  C   UNL A   1      33.790  23.047  26.461  1.00  0.00     0.012 A 
BRANCH  16  21
ATOM     21  O   UNL A   1      34.180  19.983  24.586  1.00  0.00    -0.494 OA
BRANCH  21  22
ATOM     22  C   UNL A   1      32.934  19.467  25.100  1.00  0.00     0.230 C 
BRANCH  22  23
ATOM     23  C   UNL A   1      32.517  18.093  24.528  1.00  0.00     0.044 C 
BRANCH  23  24
ATOM     24  C   UNL A   1      33.623  17.009  24.520  1.00  0.00    -0.014 C 
ATOM     25  C   UNL A   1      33.236  15.757  25.304  1.00  0.00     0.007 C 
ATOM     26  C   UNL A   1      34.005  16.638  23.083  1.00  0.00     0.007 C 
ENDBRANCH  23  24
ENDBRANCH  22  23
ENDBRANCH  21  22
ENDBRANCH  16  21
ENDBRANCH   8  15
ENDBRANCH   6   7
ENDBRANCH   3   6
ENDBRANCH   1   2
BRANCH   1  27
ATOM     27  C   UNL A   1      34.967  32.775  28.006  1.00  0.00     0.023 C 
BRANCH  27  28
ATOM     28  C   UNL A   1      34.788  33.050  29.500  1.00  0.00     0.023 C 
BRANCH  28  29
ATOM     29  C   UNL A   1      35.999  32.739  30.372  1.00  0.00     0.116 C 
BRANCH  29  30
ATOM     30  N   UNL A   1      35.792  31.600  31.257  1.00  0.00    -0.352 N 
ATOM     31  C   UNL A   1      36.698  30.649  31.665  1.00  0.00     0.251 C 
ATOM     32  H   UNL A   1      34.879  31.496  31.611  1.00  0.00     0.163 HD
ATOM     33  O   UNL A   1      36.323  29.680  32.321  1.00  0.00    -0.269 OA
BRANCH  31  34
ATOM     34  C   UNL A   1      38.118  30.780  31.276  1.00  0.00     0.039 A 
ATOM     35  C   UNL A   1      38.474  30.559  29.943  1.00  0.00     0.014 A 
ATOM     36  C   UNL A   1      39.082  31.174  32.208  1.00  0.00     0.014 A 
ATOM     37  C   UNL A   1      39.779  30.824  29.526  1.00  0.00     0.010 A 
ATOM     38  C   UNL A   1      40.362  31.509  31.775  1.00  0.00     0.010 A 
ATOM     39  C   UNL A   1      40.719  31.353  30.426  1.00  0.00    -0.014 A 
BRANCH  39  40
ATOM     40  C   UNL A   1      42.046  31.830  29.959  1.00  0.00     0.031 A 
ATOM     41  C   UNL A   1      42.279  33.279  29.641  1.00  0.00     0.074 A 
ATOM     42  C   UNL A   1      43.015  30.927  29.709  1.00  0.00     0.049 A 
ATOM     43  N   UNL A   1      43.352  33.854  29.163  1.00  0.00    -0.248 NA
ATOM     44  C   UNL A   1      41.153  34.199  29.863  1.00  0.00     0.031 C 
ATOM     45  C   UNL A   1      42.882  29.479  29.887  1.00  0.00     0.029 A 
ATOM     46  N   UNL A   1      44.286  31.085  29.215  1.00  0.00    -0.354 N 
ATOM     47  C   UNL A   1      43.021  35.191  28.988  1.00  0.00     0.074 A 
ATOM     48  C   UNL A   1      41.638  35.338  29.392  1.00  0.00     0.031 C 
ATOM     49  C   UNL A   1      44.017  28.881  29.497  1.00  0.00     0.029 A 
ATOM     50  C   UNL A   1      44.945  29.895  29.005  1.00  0.00     0.049 A 
ATOM     51  H   UNL A   1      44.687  31.964  29.028  1.00  0.00     0.167 HD
ATOM     52  C   UNL A   1      43.801  36.208  28.546  1.00  0.00     0.034 A 
ATOM     53  C   UNL A   1      46.146  29.639  28.450  1.00  0.00     0.034 A 
ATOM     54  C   UNL A   1      45.181  36.060  28.165  1.00  0.00     0.049 A 
ATOM     55  C   UNL A   1      47.004  30.783  27.993  1.00  0.00     0.074 A 
ATOM     56  C   UNL A   1      46.087  37.047  27.822  1.00  0.00     0.029 A 
ATOM     57  N   UNL A   1      45.844  34.849  28.037  1.00  0.00    -0.354 N 
ATOM     58  N   UNL A   1      46.746  32.068  28.022  1.00  0.00    -0.248 NA
ATOM     59  C   UNL A   1      48.331  30.448  27.455  1.00  0.00     0.031 C 
ATOM     60  C   UNL A   1      47.283  36.430  27.437  1.00  0.00     0.029 A 
ATOM     61  C   UNL A   1      47.137  35.060  27.583  1.00  0.00     0.049 A 
ATOM     62  H   UNL A   1      45.454  33.968  28.239  1.00  0.00     0.167 HD
ATOM     63  C   UNL A   1      47.878  32.697  27.519  1.00  0.00     0.074 A 
ATOM     64  C   UNL A   1      48.839  31.653  27.224  1.00  0.00     0.031 C 
ATOM     65  C   UNL A   1      48.096  34.019  27.308  1.00  0.00     0.034 A 
BRANCH  52  66
ATOM     66  C   UNL A   1      43.181  37.580  28.468  1.00  0.00     0.023 A 
ATOM     67  C   UNL A   1      42.389  37.933  27.356  1.00  0.00     0.012 A 
ATOM     68  C   UNL A   1      43.351  38.507  29.516  1.00  0.00     0.148 A 
ATOM     69  C   UNL A   1      41.815  39.200  27.266  1.00  0.00     0.002 A 
ATOM     70  C   UNL A   1      42.735  39.750  29.441  1.00  0.00     0.091 A 
ATOM     71  F   UNL A   1      44.123  38.163  30.555  1.00  0.00    -0.205 F 
ATOM     72  C   UNL A   1      41.980  40.105  28.311  1.00  0.00     0.022 A 
BRANCH  70  73
ATOM     73  S   UNL A   1      42.820  40.951  30.773  1.00  0.00     0.127 S 
ATOM     74  O   UNL A   1      41.682  41.816  30.463  1.00  0.00    -0.237 OA
ATOM     75  O   UNL A   1      42.641  40.110  31.958  1.00  0.00    -0.237 OA
ATOM     76  O   UNL A   1      44.131  41.577  30.667  1.00  0.00    -0.744 OA
ENDBRANCH  70  73
ENDBRANCH  52  66
BRANCH  53  77
ATOM     77  C   UNL A   1      46.602  28.227  28.321  1.00  0.00     0.023 A 
ATOM     78  C   UNL A   1      47.280  27.610  29.389  1.00  0.00     0.012 A 
ATOM     79  C   UNL A   1      46.298  27.475  27.170  1.00  0.00     0.148 A 
ATOM     80  C   UNL A   1      47.663  26.270  29.305  1.00  0.00     0.002 A 
ATOM     81  C   UNL A   1      46.627  26.126  27.118  1.00  0.00     0.091 A 
ATOM     82  F   UNL A   1      45.659  28.087  26.164  1.00  0.00    -0.205 F 
ATOM     83  C   UNL A   1      47.325  25.526  28.177  1.00  0.00     0.022 A 
BRANCH  81  84
ATOM     84  S   UNL A   1      46.103  25.056  25.774  1.00  0.00     0.127 S 
ATOM     85  O   UNL A   1      44.653  25.046  25.947  1.00  0.00    -0.237 OA
ATOM     86  O   UNL A   1      46.580  25.794  24.603  1.00  0.00    -0.237 OA
ATOM     87  O   UNL A   1      46.773  23.782  25.996  1.00  0.00    -0.744 OA
ENDBRANCH  81  84
ENDBRANCH  53  77
BRANCH  65  88
ATOM     88  C   UNL A   1      49.427  34.425  26.727  1.00  0.00     0.023 A 
ATOM     89  C   UNL A   1      49.548  34.645  25.340  1.00  0.00     0.012 A 
ATOM     90  C   UNL A   1      50.537  34.658  27.563  1.00  0.00     0.148 A 
ATOM     91  C   UNL A   1      50.761  35.060  24.791  1.00  0.00     0.002 A 
ATOM     92  C   UNL A   1      51.728  35.122  27.014  1.00  0.00     0.091 A 
ATOM     93  F   UNL A   1      50.408  34.429  28.877  1.00  0.00    -0.205 F 
ATOM     94  C   UNL A   1      51.845  35.310  25.627  1.00  0.00     0.022 A 
BRANCH  92  95
ATOM     95  S   UNL A   1      53.152  35.560  28.019  1.00  0.00     0.127 S 
ATOM     96  O   UNL A   1      52.723  36.830  28.604  1.00  0.00    -0.237 OA
ATOM     97  O   UNL A   1      53.217  34.444  28.963  1.00  0.00    -0.237 OA
ATOM     98  O   UNL A   1      54.281  35.648  27.104  1.00  0.00    -0.744 OA
ENDBRANCH  92  95
ENDBRANCH  65  88
ENDBRANCH  39  40
ENDBRANCH  31  34
ENDBRANCH  29  30
ENDBRANCH  28  29
ENDBRANCH  27  28
ENDBRANCH   1  27
TORSDOF 20
ENDMDL
