MODEL 1
REMARK VINA RESULT:     -12.9      0.000      0.000
REMARK SMILES O=C(NCCCCNC(=O)[C@H]1CC2(CCN(C(=O)c3cccc(O)c3)CC2)CN1C(=O)C1CC1)c1ccc(-c2c3nc(c(-c4cccc(S(=O)(=O)[O-])c4F)c4ccc([nH]4)c(-c4cccc(S(=O)(=O)[O-])c4F)c4nc(c(-c5cccc(S(=O)(=O)[O-])c5F)c5ccc2[nH]5)C=C4)C=C3)cc1
REMARK SMILES IDX 5 1 4 2 3 3 1 4 2 5 35 7 36 8 97 9 37 10 96 11 38 12 39 13
REMARK SMILES IDX 40 14 90 15 41 16 95 17 89 18 91 19 42 20 94 21 88 22 87 23
REMARK SMILES IDX 43 25 75 26 55 27 74 28 56 29 59 30 73 31 92 32 57 33 58 34
REMARK SMILES IDX 72 36 93 37 60 38 44 39 45 40 53 41 46 42 48 43 54 44 47 45
REMARK SMILES IDX 49 46 50 47 51 48 52 49 76 50 77 51 85 52 78 53 80 54 86 55
REMARK SMILES IDX 79 56 81 57 82 58 83 59 84 60 61 61 62 62 70 63 63 64 65 65
REMARK SMILES IDX 71 66 64 67 66 68 67 69 68 70 69 71 6 72 7 73 8 74 9 75
REMARK SMILES IDX 10 77 11 78 12 79 29 80 13 81 28 82 14 83 27 84 15 85 26 86
REMARK SMILES IDX 16 87 17 88 18 89 30 90 31 91 32 92 33 93 34 94 19 95 20 96
REMARK SMILES IDX 25 97 21 98 23 99 22 100 24 101
REMARK H PARENT 3 6 91 24 59 35 8 76 24 102
REMARK Flexibility Score: inf
ROOT
ATOM      1  C   UNL A   1      31.676  31.770  26.750  1.00  0.00     0.023 C 
ENDROOT
BRANCH   1   2
ATOM      2  C   UNL A   1      32.882  32.527  27.289  1.00  0.00     0.116 C 
BRANCH   2   3
ATOM      3  N   UNL A   1      32.576  33.896  27.671  1.00  0.00    -0.352 N 
ATOM      4  O   UNL A   1      32.684  35.758  28.941  1.00  0.00    -0.269 OA
ATOM      5  C   UNL A   1      33.149  34.655  28.665  1.00  0.00     0.251 C 
ATOM      6  H   UNL A   1      31.867  34.337  27.150  1.00  0.00     0.163 HD
BRANCH   5   7
ATOM      7  C   UNL A   1      34.296  34.107  29.418  1.00  0.00     0.039 A 
ATOM      8  C   UNL A   1      35.603  34.355  28.989  1.00  0.00     0.014 A 
ATOM      9  C   UNL A   1      34.059  33.294  30.529  1.00  0.00     0.014 A 
ATOM     10  C   UNL A   1      36.657  33.660  29.566  1.00  0.00     0.010 A 
ATOM     11  C   UNL A   1      35.134  32.672  31.169  1.00  0.00     0.010 A 
ATOM     12  C   UNL A   1      36.437  32.821  30.671  1.00  0.00    -0.014 A 
BRANCH  12  13
ATOM     13  C   UNL A   1      37.598  32.179  31.339  1.00  0.00     0.031 A 
ATOM     14  C   UNL A   1      38.353  31.051  30.693  1.00  0.00     0.074 A 
ATOM     15  C   UNL A   1      37.959  32.629  32.556  1.00  0.00     0.049 A 
ATOM     16  N   UNL A   1      39.386  30.390  31.149  1.00  0.00    -0.248 NA
ATOM     17  C   UNL A   1      37.891  30.597  29.371  1.00  0.00     0.031 C 
ATOM     18  C   UNL A   1      37.271  33.691  33.297  1.00  0.00     0.029 A 
ATOM     19  N   UNL A   1      38.984  32.257  33.387  1.00  0.00    -0.354 N 
ATOM     20  C   UNL A   1      39.672  29.419  30.197  1.00  0.00     0.074 A 
ATOM     21  C   UNL A   1      38.702  29.574  29.135  1.00  0.00     0.031 C 
ATOM     22  C   UNL A   1      37.904  33.898  34.459  1.00  0.00     0.029 A 
ATOM     23  C   UNL A   1      39.004  32.950  34.574  1.00  0.00     0.049 A 
ATOM     24  H   UNL A   1      39.640  31.560  33.157  1.00  0.00     0.167 HD
ATOM     25  C   UNL A   1      40.664  28.495  30.203  1.00  0.00     0.034 A 
ATOM     26  C   UNL A   1      39.805  32.825  35.648  1.00  0.00     0.034 A 
ATOM     27  C   UNL A   1      41.648  28.374  31.248  1.00  0.00     0.049 A 
ATOM     28  C   UNL A   1      40.904  31.805  35.617  1.00  0.00     0.074 A 
ATOM     29  C   UNL A   1      42.733  27.516  31.311  1.00  0.00     0.029 A 
ATOM     30  N   UNL A   1      41.665  29.124  32.414  1.00  0.00    -0.354 N 
ATOM     31  N   UNL A   1      41.238  30.986  34.650  1.00  0.00    -0.248 NA
ATOM     32  C   UNL A   1      41.752  31.708  36.812  1.00  0.00     0.031 C 
ATOM     33  C   UNL A   1      43.394  27.735  32.525  1.00  0.00     0.029 A 
ATOM     34  C   UNL A   1      42.732  28.741  33.210  1.00  0.00     0.049 A 
ATOM     35  H   UNL A   1      41.013  29.825  32.643  1.00  0.00     0.167 HD
ATOM     36  C   UNL A   1      42.346  30.289  35.110  1.00  0.00     0.074 A 
ATOM     37  C   UNL A   1      42.645  30.804  36.431  1.00  0.00     0.031 C 
ATOM     38  C   UNL A   1      43.042  29.296  34.503  1.00  0.00     0.034 A 
BRANCH  25  39
ATOM     39  C   UNL A   1      40.768  27.561  29.026  1.00  0.00     0.023 A 
ATOM     40  C   UNL A   1      39.885  26.467  28.927  1.00  0.00     0.012 A 
ATOM     41  C   UNL A   1      41.680  27.808  27.980  1.00  0.00     0.148 A 
ATOM     42  C   UNL A   1      39.923  25.620  27.819  1.00  0.00     0.002 A 
ATOM     43  C   UNL A   1      41.687  26.981  26.861  1.00  0.00     0.091 A 
ATOM     44  F   UNL A   1      42.528  28.840  28.100  1.00  0.00    -0.205 F 
ATOM     45  C   UNL A   1      40.815  25.883  26.783  1.00  0.00     0.022 A 
BRANCH  43  46
ATOM     46  S   UNL A   1      42.749  27.281  25.442  1.00  0.00     0.127 S 
ATOM     47  O   UNL A   1      44.047  27.484  26.084  1.00  0.00    -0.237 OA
ATOM     48  O   UNL A   1      42.629  26.029  24.695  1.00  0.00    -0.237 OA
ATOM     49  O   UNL A   1      42.193  28.444  24.767  1.00  0.00    -0.744 OA
ENDBRANCH  43  46
ENDBRANCH  25  39
BRANCH  26  50
ATOM     50  C   UNL A   1      39.607  33.725  36.818  1.00  0.00     0.023 A 
ATOM     51  C   UNL A   1      39.942  35.087  36.706  1.00  0.00     0.012 A 
ATOM     52  C   UNL A   1      39.029  33.254  38.013  1.00  0.00     0.148 A 
ATOM     53  C   UNL A   1      39.721  35.961  37.771  1.00  0.00     0.002 A 
ATOM     54  C   UNL A   1      38.755  34.141  39.047  1.00  0.00     0.091 A 
ATOM     55  F   UNL A   1      38.733  31.949  38.104  1.00  0.00    -0.205 F 
ATOM     56  C   UNL A   1      39.116  35.492  38.934  1.00  0.00     0.022 A 
BRANCH  54  57
ATOM     57  S   UNL A   1      37.842  33.646  40.512  1.00  0.00     0.127 S 
ATOM     58  O   UNL A   1      38.761  32.694  41.130  1.00  0.00    -0.237 OA
ATOM     59  O   UNL A   1      37.695  34.916  41.224  1.00  0.00    -0.237 OA
ATOM     60  O   UNL A   1      36.588  33.092  40.017  1.00  0.00    -0.744 OA
ENDBRANCH  54  57
ENDBRANCH  26  50
BRANCH  38  61
ATOM     61  C   UNL A   1      44.206  28.709  35.255  1.00  0.00     0.023 A 
ATOM     62  C   UNL A   1      45.498  29.236  35.054  1.00  0.00     0.012 A 
ATOM     63  C   UNL A   1      44.014  27.685  36.201  1.00  0.00     0.148 A 
ATOM     64  C   UNL A   1      46.585  28.732  35.764  1.00  0.00     0.002 A 
ATOM     65  C   UNL A   1      45.095  27.218  36.937  1.00  0.00     0.091 A 
ATOM     66  F   UNL A   1      42.780  27.183  36.360  1.00  0.00    -0.205 F 
ATOM     67  C   UNL A   1      46.383  27.733  36.714  1.00  0.00     0.022 A 
BRANCH  65  68
ATOM     68  S   UNL A   1      44.913  25.997  38.242  1.00  0.00     0.127 S 
ATOM     69  O   UNL A   1      44.292  24.886  37.526  1.00  0.00    -0.237 OA
ATOM     70  O   UNL A   1      46.300  25.763  38.646  1.00  0.00    -0.237 OA
ATOM     71  O   UNL A   1      44.087  26.624  39.264  1.00  0.00    -0.744 OA
ENDBRANCH  65  68
ENDBRANCH  38  61
ENDBRANCH  12  13
ENDBRANCH   5   7
ENDBRANCH   2   3
ENDBRANCH   1   2
BRANCH   1  72
ATOM     72  C   UNL A   1      31.996  30.661  25.758  1.00  0.00     0.023 C 
BRANCH  72  73
ATOM     73  C   UNL A   1      32.490  29.362  26.378  1.00  0.00     0.116 C 
BRANCH  73  74
ATOM     74  N   UNL A   1      31.429  28.430  26.742  1.00  0.00    -0.354 N 
ATOM     75  C   UNL A   1      31.291  27.117  26.342  1.00  0.00     0.242 C 
ATOM     76  H   UNL A   1      30.731  28.777  27.342  1.00  0.00     0.163 HD
ATOM     77  O   UNL A   1      30.509  26.380  26.938  1.00  0.00    -0.273 OA
BRANCH  75  78
ATOM     78  C   UNL A   1      32.208  26.644  25.206  1.00  0.00     0.175 C 
ATOM     79  C   UNL A   1      32.345  25.137  25.444  1.00  0.00     0.044 C 
ATOM     80  N   UNL A   1      31.865  26.714  23.796  1.00  0.00    -0.330 N 
ATOM     81  C   UNL A   1      32.828  24.526  24.124  1.00  0.00    -0.006 C 
ATOM     82  C   UNL A   1      32.461  25.593  23.079  1.00  0.00     0.127 C 
ATOM     83  C   UNL A   1      32.085  23.205  23.851  1.00  0.00     0.030 C 
ATOM     84  C   UNL A   1      34.348  24.240  24.161  1.00  0.00     0.030 C 
ATOM     85  C   UNL A   1      32.436  22.164  24.907  1.00  0.00     0.120 C 
ATOM     86  C   UNL A   1      34.725  23.086  25.104  1.00  0.00     0.120 C 
ATOM     87  N   UNL A   1      33.877  21.914  24.903  1.00  0.00    -0.339 N 
ATOM     88  C   UNL A   1      34.456  20.646  24.952  1.00  0.00     0.253 C 
ATOM     89  O   UNL A   1      35.644  20.441  25.176  1.00  0.00    -0.269 OA
BRANCH  80  90
ATOM     90  C   UNL A   1      31.567  27.851  23.059  1.00  0.00     0.226 C 
ATOM     91  O   UNL A   1      32.454  28.601  22.655  1.00  0.00    -0.275 OA
BRANCH  90  92
ATOM     92  C   UNL A   1      30.185  28.122  22.587  1.00  0.00     0.079 C 
ATOM     93  C   UNL A   1      28.867  27.920  23.282  1.00  0.00     0.014 C 
ATOM     94  C   UNL A   1      29.453  29.290  23.233  1.00  0.00     0.014 C 
ENDBRANCH  90  92
ENDBRANCH  80  90
BRANCH  88  95
ATOM     95  C   UNL A   1      33.584  19.477  24.710  1.00  0.00     0.043 A 
ATOM     96  C   UNL A   1      33.246  18.625  25.771  1.00  0.00     0.014 A 
ATOM     97  C   UNL A   1      33.137  19.215  23.415  1.00  0.00     0.060 A 
ATOM     98  C   UNL A   1      32.507  17.471  25.519  1.00  0.00     0.005 A 
ATOM     99  C   UNL A   1      32.394  18.065  23.182  1.00  0.00     0.116 A 
ATOM    100  C   UNL A   1      32.084  17.185  24.219  1.00  0.00     0.046 A 
BRANCH  99 101
ATOM    101  O   UNL A   1      31.991  17.820  21.903  1.00  0.00    -0.508 OA
ATOM    102  H   UNL A   1      31.856  18.532  21.309  1.00  0.00     0.293 HD
ENDBRANCH  99 101
ENDBRANCH  88  95
ENDBRANCH  75  78
ENDBRANCH  73  74
ENDBRANCH  72  73
ENDBRANCH   1  72
TORSDOF 18
ENDMDL
MODEL 2
REMARK VINA RESULT:     -12.6      2.487      8.867
REMARK SMILES O=C(NCCCCNC(=O)[C@H]1CC2(CCN(C(=O)c3cccc(O)c3)CC2)CN1C(=O)C1CC1)c1ccc(-c2c3nc(c(-c4cccc(S(=O)(=O)[O-])c4F)c4ccc([nH]4)c(-c4cccc(S(=O)(=O)[O-])c4F)c4nc(c(-c5cccc(S(=O)(=O)[O-])c5F)c5ccc2[nH]5)C=C4)C=C3)cc1
REMARK SMILES IDX 5 1 4 2 3 3 1 4 2 5 35 7 36 8 97 9 37 10 96 11 38 12 39 13
REMARK SMILES IDX 40 14 90 15 41 16 95 17 89 18 91 19 42 20 94 21 88 22 87 23
REMARK SMILES IDX 43 25 75 26 55 27 74 28 56 29 59 30 73 31 92 32 57 33 58 34
REMARK SMILES IDX 72 36 93 37 60 38 44 39 45 40 53 41 46 42 48 43 54 44 47 45
REMARK SMILES IDX 49 46 50 47 51 48 52 49 76 50 77 51 85 52 78 53 80 54 86 55
REMARK SMILES IDX 79 56 81 57 82 58 83 59 84 60 61 61 62 62 70 63 63 64 65 65
REMARK SMILES IDX 71 66 64 67 66 68 67 69 68 70 69 71 6 72 7 73 8 74 9 75
REMARK SMILES IDX 10 77 11 78 12 79 29 80 13 81 28 82 14 83 27 84 15 85 26 86
REMARK SMILES IDX 16 87 17 88 18 89 30 90 31 91 32 92 33 93 34 94 19 95 20 96
REMARK SMILES IDX 25 97 21 98 23 99 22 100 24 101
REMARK H PARENT 3 6 91 24 59 35 8 76 24 102
REMARK Flexibility Score: inf
ROOT
ATOM      1  C   UNL A   1      32.734  29.367  25.358  1.00  0.00     0.023 C 
ENDROOT
BRANCH   1   2
ATOM      2  C   UNL A   1      32.218  29.891  26.690  1.00  0.00     0.116 C 
BRANCH   2   3
ATOM      3  N   UNL A   1      32.090  31.339  26.726  1.00  0.00    -0.352 N 
ATOM      4  O   UNL A   1      32.614  33.444  27.348  1.00  0.00    -0.269 OA
ATOM      5  C   UNL A   1      32.937  32.260  27.297  1.00  0.00     0.251 C 
ATOM      6  H   UNL A   1      31.292  31.709  26.284  1.00  0.00     0.163 HD
BRANCH   5   7
ATOM      7  C   UNL A   1      34.213  31.797  27.882  1.00  0.00     0.039 A 
ATOM      8  C   UNL A   1      34.364  30.466  28.279  1.00  0.00     0.014 A 
ATOM      9  C   UNL A   1      35.245  32.716  28.085  1.00  0.00     0.014 A 
ATOM     10  C   UNL A   1      35.474  30.095  29.025  1.00  0.00     0.010 A 
ATOM     11  C   UNL A   1      36.405  32.314  28.751  1.00  0.00     0.010 A 
ATOM     12  C   UNL A   1      36.514  31.010  29.258  1.00  0.00    -0.014 A 
BRANCH  12  13
ATOM     13  C   UNL A   1      37.740  30.554  29.960  1.00  0.00     0.031 A 
ATOM     14  C   UNL A   1      38.060  31.004  31.359  1.00  0.00     0.074 A 
ATOM     15  C   UNL A   1      38.575  29.724  29.306  1.00  0.00     0.049 A 
ATOM     16  N   UNL A   1      39.090  30.692  32.104  1.00  0.00    -0.248 NA
ATOM     17  C   UNL A   1      37.112  31.926  32.006  1.00  0.00     0.031 C 
ATOM     18  C   UNL A   1      38.387  29.257  27.929  1.00  0.00     0.029 A 
ATOM     19  N   UNL A   1      39.746  29.130  29.700  1.00  0.00    -0.354 N 
ATOM     20  C   UNL A   1      38.939  31.408  33.286  1.00  0.00     0.074 A 
ATOM     21  C   UNL A   1      37.717  32.174  33.161  1.00  0.00     0.031 C 
ATOM     22  C   UNL A   1      39.391  28.434  27.602  1.00  0.00     0.029 A 
ATOM     23  C   UNL A   1      40.324  28.359  28.719  1.00  0.00     0.049 A 
ATOM     24  H   UNL A   1      40.136  29.245  30.596  1.00  0.00     0.167 HD
ATOM     25  C   UNL A   1      39.739  31.411  34.380  1.00  0.00     0.034 A 
ATOM     26  C   UNL A   1      41.487  27.681  28.708  1.00  0.00     0.034 A 
ATOM     27  C   UNL A   1      40.933  30.616  34.509  1.00  0.00     0.049 A 
ATOM     28  C   UNL A   1      42.342  27.690  29.941  1.00  0.00     0.074 A 
ATOM     29  C   UNL A   1      41.773  30.498  35.604  1.00  0.00     0.029 A 
ATOM     30  N   UNL A   1      41.464  29.811  33.512  1.00  0.00    -0.354 N 
ATOM     31  N   UNL A   1      42.114  28.268  31.094  1.00  0.00    -0.248 NA
ATOM     32  C   UNL A   1      43.600  26.935  29.880  1.00  0.00     0.031 C 
ATOM     33  C   UNL A   1      42.820  29.636  35.261  1.00  0.00     0.029 A 
ATOM     34  C   UNL A   1      42.625  29.203  33.959  1.00  0.00     0.049 A 
ATOM     35  H   UNL A   1      41.072  29.691  32.617  1.00  0.00     0.167 HD
ATOM     36  C   UNL A   1      43.189  27.933  31.905  1.00  0.00     0.074 A 
ATOM     37  C   UNL A   1      44.053  27.075  31.119  1.00  0.00     0.031 C 
ATOM     38  C   UNL A   1      43.449  28.317  33.179  1.00  0.00     0.034 A 
BRANCH  25  39
ATOM     39  C   UNL A   1      39.335  32.270  35.550  1.00  0.00     0.023 A 
ATOM     40  C   UNL A   1      38.532  31.721  36.569  1.00  0.00     0.012 A 
ATOM     41  C   UNL A   1      39.812  33.590  35.681  1.00  0.00     0.148 A 
ATOM     42  C   UNL A   1      38.190  32.478  37.691  1.00  0.00     0.002 A 
ATOM     43  C   UNL A   1      39.497  34.326  36.820  1.00  0.00     0.091 A 
ATOM     44  F   UNL A   1      40.556  34.104  34.692  1.00  0.00    -0.205 F 
ATOM     45  C   UNL A   1      38.681  33.774  37.821  1.00  0.00     0.022 A 
BRANCH  43  46
ATOM     46  S   UNL A   1      40.142  35.978  37.113  1.00  0.00     0.127 S 
ATOM     47  O   UNL A   1      41.576  35.719  37.226  1.00  0.00    -0.237 OA
ATOM     48  O   UNL A   1      39.745  36.687  35.895  1.00  0.00    -0.237 OA
ATOM     49  O   UNL A   1      39.491  36.450  38.326  1.00  0.00    -0.744 OA
ENDBRANCH  43  46
ENDBRANCH  25  39
BRANCH  26  50
ATOM     50  C   UNL A   1      41.874  26.910  27.494  1.00  0.00     0.023 A 
ATOM     51  C   UNL A   1      42.489  27.578  26.419  1.00  0.00     0.012 A 
ATOM     52  C   UNL A   1      41.698  25.515  27.428  1.00  0.00     0.148 A 
ATOM     53  C   UNL A   1      42.905  26.870  25.290  1.00  0.00     0.002 A 
ATOM     54  C   UNL A   1      42.169  24.808  26.329  1.00  0.00     0.091 A 
ATOM     55  F   UNL A   1      41.095  24.901  28.457  1.00  0.00    -0.205 F 
ATOM     56  C   UNL A   1      42.759  25.486  25.251  1.00  0.00     0.022 A 
BRANCH  54  57
ATOM     57  S   UNL A   1      42.156  23.013  26.272  1.00  0.00     0.127 S 
ATOM     58  O   UNL A   1      42.973  22.670  27.432  1.00  0.00    -0.237 OA
ATOM     59  O   UNL A   1      40.731  22.713  26.409  1.00  0.00    -0.237 OA
ATOM     60  O   UNL A   1      42.716  22.663  24.973  1.00  0.00    -0.744 OA
ENDBRANCH  54  57
ENDBRANCH  26  50
BRANCH  38  61
ATOM     61  C   UNL A   1      44.714  27.800  33.811  1.00  0.00     0.023 A 
ATOM     62  C   UNL A   1      45.893  28.566  33.731  1.00  0.00     0.012 A 
ATOM     63  C   UNL A   1      44.719  26.591  34.534  1.00  0.00     0.148 A 
ATOM     64  C   UNL A   1      47.066  28.123  34.339  1.00  0.00     0.002 A 
ATOM     65  C   UNL A   1      45.880  26.179  35.174  1.00  0.00     0.091 A 
ATOM     66  F   UNL A   1      43.591  25.867  34.578  1.00  0.00    -0.205 F 
ATOM     67  C   UNL A   1      47.057  26.937  35.069  1.00  0.00     0.022 A 
BRANCH  65  68
ATOM     68  S   UNL A   1      45.937  24.712  36.209  1.00  0.00     0.127 S 
ATOM     69  O   UNL A   1      45.696  23.650  35.235  1.00  0.00    -0.237 OA
ATOM     70  O   UNL A   1      47.301  24.756  36.739  1.00  0.00    -0.237 OA
ATOM     71  O   UNL A   1      44.896  24.890  37.213  1.00  0.00    -0.744 OA
ENDBRANCH  65  68
ENDBRANCH  38  61
ENDBRANCH  12  13
ENDBRANCH   5   7
ENDBRANCH   2   3
ENDBRANCH   1   2
BRANCH   1  72
ATOM     72  C   UNL A   1      34.018  28.553  25.434  1.00  0.00     0.023 C 
BRANCH  72  73
ATOM     73  C   UNL A   1      33.903  27.118  24.941  1.00  0.00     0.116 C 
BRANCH  73  74
ATOM     74  N   UNL A   1      33.788  26.126  26.004  1.00  0.00    -0.354 N 
ATOM     75  C   UNL A   1      33.115  24.922  25.961  1.00  0.00     0.242 C 
ATOM     76  H   UNL A   1      34.243  26.340  26.849  1.00  0.00     0.163 HD
ATOM     77  O   UNL A   1      33.331  24.076  26.824  1.00  0.00    -0.273 OA
BRANCH  75  78
ATOM     78  C   UNL A   1      32.187  24.697  24.760  1.00  0.00     0.175 C 
ATOM     79  C   UNL A   1      31.397  26.005  24.652  1.00  0.00     0.044 C 
ATOM     80  N   UNL A   1      32.648  24.489  23.398  1.00  0.00    -0.330 N 
ATOM     81  C   UNL A   1      30.816  26.051  23.235  1.00  0.00    -0.006 C 
ATOM     82  C   UNL A   1      31.693  25.058  22.454  1.00  0.00     0.127 C 
ATOM     83  C   UNL A   1      30.942  27.474  22.659  1.00  0.00     0.030 C 
ATOM     84  C   UNL A   1      29.323  25.645  23.227  1.00  0.00     0.030 C 
ATOM     85  C   UNL A   1      30.089  28.453  23.456  1.00  0.00     0.120 C 
ATOM     86  C   UNL A   1      28.408  26.688  23.889  1.00  0.00     0.120 C 
ATOM     87  N   UNL A   1      28.686  28.041  23.415  1.00  0.00    -0.339 N 
ATOM     88  C   UNL A   1      27.618  28.908  23.184  1.00  0.00     0.253 C 
ATOM     89  O   UNL A   1      26.441  28.615  23.372  1.00  0.00    -0.269 OA
BRANCH  80  90
ATOM     90  C   UNL A   1      33.467  23.470  22.934  1.00  0.00     0.226 C 
ATOM     91  O   UNL A   1      34.477  23.712  22.275  1.00  0.00    -0.275 OA
BRANCH  90  92
ATOM     92  C   UNL A   1      33.252  22.060  23.350  1.00  0.00     0.079 C 
ATOM     93  C   UNL A   1      32.130  21.443  24.137  1.00  0.00     0.014 C 
ATOM     94  C   UNL A   1      32.133  21.300  22.654  1.00  0.00     0.014 C 
ENDBRANCH  90  92
ENDBRANCH  80  90
BRANCH  88  95
ATOM     95  C   UNL A   1      27.922  30.260  22.671  1.00  0.00     0.043 A 
ATOM     96  C   UNL A   1      28.294  31.278  23.560  1.00  0.00     0.014 A 
ATOM     97  C   UNL A   1      27.799  30.516  21.305  1.00  0.00     0.060 A 
ATOM     98  C   UNL A   1      28.483  32.575  23.083  1.00  0.00     0.005 A 
ATOM     99  C   UNL A   1      27.998  31.811  20.845  1.00  0.00     0.116 A 
ATOM    100  C   UNL A   1      28.328  32.844  21.721  1.00  0.00     0.046 A 
BRANCH  99 101
ATOM    101  O   UNL A   1      27.846  32.039  19.509  1.00  0.00    -0.508 OA
ATOM    102  H   UNL A   1      28.462  31.682  18.900  1.00  0.00     0.293 HD
ENDBRANCH  99 101
ENDBRANCH  88  95
ENDBRANCH  75  78
ENDBRANCH  73  74
ENDBRANCH  72  73
ENDBRANCH   1  72
TORSDOF 18
ENDMDL
MODEL 3
REMARK VINA RESULT:     -12.6      2.356      7.768
REMARK SMILES O=C(NCCCCNC(=O)[C@H]1CC2(CCN(C(=O)c3cccc(O)c3)CC2)CN1C(=O)C1CC1)c1ccc(-c2c3nc(c(-c4cccc(S(=O)(=O)[O-])c4F)c4ccc([nH]4)c(-c4cccc(S(=O)(=O)[O-])c4F)c4nc(c(-c5cccc(S(=O)(=O)[O-])c5F)c5ccc2[nH]5)C=C4)C=C3)cc1
REMARK SMILES IDX 5 1 4 2 3 3 1 4 2 5 35 7 36 8 97 9 37 10 96 11 38 12 39 13
REMARK SMILES IDX 40 14 90 15 41 16 95 17 89 18 91 19 42 20 94 21 88 22 87 23
REMARK SMILES IDX 43 25 75 26 55 27 74 28 56 29 59 30 73 31 92 32 57 33 58 34
REMARK SMILES IDX 72 36 93 37 60 38 44 39 45 40 53 41 46 42 48 43 54 44 47 45
REMARK SMILES IDX 49 46 50 47 51 48 52 49 76 50 77 51 85 52 78 53 80 54 86 55
REMARK SMILES IDX 79 56 81 57 82 58 83 59 84 60 61 61 62 62 70 63 63 64 65 65
REMARK SMILES IDX 71 66 64 67 66 68 67 69 68 70 69 71 6 72 7 73 8 74 9 75
REMARK SMILES IDX 10 77 11 78 12 79 29 80 13 81 28 82 14 83 27 84 15 85 26 86
REMARK SMILES IDX 16 87 17 88 18 89 30 90 31 91 32 92 33 93 34 94 19 95 20 96
REMARK SMILES IDX 25 97 21 98 23 99 22 100 24 101
REMARK H PARENT 3 6 91 24 59 35 8 76 24 102
REMARK Flexibility Score: inf
ROOT
ATOM      1  C   UNL A   1      32.497  29.107  23.943  1.00  0.00     0.023 C 
ENDROOT
BRANCH   1   2
ATOM      2  C   UNL A   1      33.297  29.626  25.129  1.00  0.00     0.116 C 
BRANCH   2   3
ATOM      3  N   UNL A   1      32.676  30.766  25.785  1.00  0.00    -0.352 N 
ATOM      4  O   UNL A   1      32.373  32.298  27.413  1.00  0.00    -0.269 OA
ATOM      5  C   UNL A   1      33.086  31.429  26.918  1.00  0.00     0.251 C 
ATOM      6  H   UNL A   1      31.855  31.108  25.362  1.00  0.00     0.163 HD
BRANCH   5   7
ATOM      7  C   UNL A   1      34.368  31.051  27.549  1.00  0.00     0.039 A 
ATOM      8  C   UNL A   1      34.572  29.744  27.999  1.00  0.00     0.014 A 
ATOM      9  C   UNL A   1      35.349  32.026  27.740  1.00  0.00     0.014 A 
ATOM     10  C   UNL A   1      35.681  29.455  28.783  1.00  0.00     0.010 A 
ATOM     11  C   UNL A   1      36.510  31.706  28.447  1.00  0.00     0.010 A 
ATOM     12  C   UNL A   1      36.669  30.428  29.005  1.00  0.00    -0.014 A 
BRANCH  12  13
ATOM     13  C   UNL A   1      37.899  30.059  29.752  1.00  0.00     0.031 A 
ATOM     14  C   UNL A   1      38.163  30.577  31.138  1.00  0.00     0.074 A 
ATOM     15  C   UNL A   1      38.787  29.246  29.149  1.00  0.00     0.049 A 
ATOM     16  N   UNL A   1      39.189  30.344  31.917  1.00  0.00    -0.248 NA
ATOM     17  C   UNL A   1      37.158  31.476  31.727  1.00  0.00     0.031 C 
ATOM     18  C   UNL A   1      38.655  28.718  27.788  1.00  0.00     0.029 A 
ATOM     19  N   UNL A   1      39.975  28.724  29.592  1.00  0.00    -0.354 N 
ATOM     20  C   UNL A   1      38.977  31.096  33.066  1.00  0.00     0.074 A 
ATOM     21  C   UNL A   1      37.723  31.797  32.884  1.00  0.00     0.031 C 
ATOM     22  C   UNL A   1      39.704  27.932  27.516  1.00  0.00     0.029 A 
ATOM     23  C   UNL A   1      40.612  27.944  28.655  1.00  0.00     0.049 A 
ATOM     24  H   UNL A   1      40.337  28.891  30.491  1.00  0.00     0.167 HD
ATOM     25  C   UNL A   1      39.749  31.180  34.177  1.00  0.00     0.034 A 
ATOM     26  C   UNL A   1      41.806  27.323  28.696  1.00  0.00     0.034 A 
ATOM     27  C   UNL A   1      40.976  30.449  34.364  1.00  0.00     0.049 A 
ATOM     28  C   UNL A   1      42.629  27.421  29.946  1.00  0.00     0.074 A 
ATOM     29  C   UNL A   1      41.793  30.413  35.481  1.00  0.00     0.029 A 
ATOM     30  N   UNL A   1      41.567  29.632  33.411  1.00  0.00    -0.354 N 
ATOM     31  N   UNL A   1      42.347  28.031  31.071  1.00  0.00    -0.248 NA
ATOM     32  C   UNL A   1      43.922  26.725  29.943  1.00  0.00     0.031 C 
ATOM     33  C   UNL A   1      42.888  29.590  35.195  1.00  0.00     0.029 A 
ATOM     34  C   UNL A   1      42.745  29.098  33.907  1.00  0.00     0.049 A 
ATOM     35  H   UNL A   1      41.203  29.459  32.513  1.00  0.00     0.167 HD
ATOM     36  C   UNL A   1      43.417  27.779  31.918  1.00  0.00     0.074 A 
ATOM     37  C   UNL A   1      44.339  26.933  31.185  1.00  0.00     0.031 C 
ATOM     38  C   UNL A   1      43.628  28.223  33.181  1.00  0.00     0.034 A 
BRANCH  25  39
ATOM     39  C   UNL A   1      39.277  32.063  35.303  1.00  0.00     0.023 A 
ATOM     40  C   UNL A   1      38.376  31.549  36.257  1.00  0.00     0.012 A 
ATOM     41  C   UNL A   1      39.782  33.369  35.463  1.00  0.00     0.148 A 
ATOM     42  C   UNL A   1      37.967  32.327  37.341  1.00  0.00     0.002 A 
ATOM     43  C   UNL A   1      39.398  34.125  36.566  1.00  0.00     0.091 A 
ATOM     44  F   UNL A   1      40.621  33.849  34.535  1.00  0.00    -0.205 F 
ATOM     45  C   UNL A   1      38.485  33.609  37.501  1.00  0.00     0.022 A 
BRANCH  43  46
ATOM     46  S   UNL A   1      40.067  35.760  36.899  1.00  0.00     0.127 S 
ATOM     47  O   UNL A   1      39.401  36.101  38.154  1.00  0.00    -0.237 OA
ATOM     48  O   UNL A   1      41.500  35.490  37.023  1.00  0.00    -0.237 OA
ATOM     49  O   UNL A   1      39.704  36.580  35.752  1.00  0.00    -0.744 OA
ENDBRANCH  43  46
ENDBRANCH  25  39
BRANCH  26  50
ATOM     50  C   UNL A   1      42.257  26.526  27.523  1.00  0.00     0.023 A 
ATOM     51  C   UNL A   1      43.115  27.115  26.576  1.00  0.00     0.012 A 
ATOM     52  C   UNL A   1      41.897  25.173  27.376  1.00  0.00     0.148 A 
ATOM     53  C   UNL A   1      43.592  26.375  25.493  1.00  0.00     0.002 A 
ATOM     54  C   UNL A   1      42.422  24.424  26.331  1.00  0.00     0.091 A 
ATOM     55  F   UNL A   1      41.064  24.635  28.281  1.00  0.00    -0.205 F 
ATOM     56  C   UNL A   1      43.258  25.028  25.379  1.00  0.00     0.022 A 
BRANCH  54  57
ATOM     57  S   UNL A   1      42.163  22.652  26.201  1.00  0.00     0.127 S 
ATOM     58  O   UNL A   1      42.915  22.327  24.992  1.00  0.00    -0.237 OA
ATOM     59  O   UNL A   1      42.755  22.164  27.447  1.00  0.00    -0.237 OA
ATOM     60  O   UNL A   1      40.719  22.477  26.120  1.00  0.00    -0.744 OA
ENDBRANCH  54  57
ENDBRANCH  26  50
BRANCH  38  61
ATOM     61  C   UNL A   1      44.900  27.792  33.861  1.00  0.00     0.023 A 
ATOM     62  C   UNL A   1      46.042  28.614  33.783  1.00  0.00     0.012 A 
ATOM     63  C   UNL A   1      44.947  26.610  34.624  1.00  0.00     0.148 A 
ATOM     64  C   UNL A   1      47.219  28.252  34.434  1.00  0.00     0.002 A 
ATOM     65  C   UNL A   1      46.111  26.278  35.306  1.00  0.00     0.091 A 
ATOM     66  F   UNL A   1      43.856  25.831  34.666  1.00  0.00    -0.205 F 
ATOM     67  C   UNL A   1      47.251  27.092  35.204  1.00  0.00     0.022 A 
BRANCH  65  68
ATOM     68  S   UNL A   1      46.214  24.850  36.391  1.00  0.00     0.127 S 
ATOM     69  O   UNL A   1      45.119  25.105  37.324  1.00  0.00    -0.237 OA
ATOM     70  O   UNL A   1      45.983  23.739  35.468  1.00  0.00    -0.237 OA
ATOM     71  O   UNL A   1      47.550  24.884  36.969  1.00  0.00    -0.744 OA
ENDBRANCH  65  68
ENDBRANCH  38  61
ENDBRANCH  12  13
ENDBRANCH   5   7
ENDBRANCH   2   3
ENDBRANCH   1   2
BRANCH   1  72
ATOM     72  C   UNL A   1      33.328  28.552  22.793  1.00  0.00     0.023 C 
BRANCH  72  73
ATOM     73  C   UNL A   1      33.508  27.041  22.799  1.00  0.00     0.116 C 
BRANCH  73  74
ATOM     74  N   UNL A   1      34.206  26.524  23.971  1.00  0.00    -0.354 N 
ATOM     75  C   UNL A   1      33.961  25.344  24.642  1.00  0.00     0.242 C 
ATOM     76  H   UNL A   1      34.935  27.082  24.324  1.00  0.00     0.163 HD
ATOM     77  O   UNL A   1      34.795  24.913  25.434  1.00  0.00    -0.273 OA
BRANCH  75  78
ATOM     78  C   UNL A   1      32.670  24.600  24.276  1.00  0.00     0.175 C 
ATOM     79  C   UNL A   1      33.095  23.130  24.211  1.00  0.00     0.044 C 
ATOM     80  N   UNL A   1      31.488  24.552  25.120  1.00  0.00    -0.330 N 
ATOM     81  C   UNL A   1      31.814  22.297  24.328  1.00  0.00    -0.006 C 
ATOM     82  C   UNL A   1      30.806  23.275  24.955  1.00  0.00     0.127 C 
ATOM     83  C   UNL A   1      32.056  21.085  25.248  1.00  0.00     0.030 C 
ATOM     84  C   UNL A   1      31.350  21.783  22.945  1.00  0.00     0.030 C 
ATOM     85  C   UNL A   1      33.075  20.136  24.630  1.00  0.00     0.120 C 
ATOM     86  C   UNL A   1      32.275  20.706  22.357  1.00  0.00     0.120 C 
ATOM     87  N   UNL A   1      32.596  19.666  23.330  1.00  0.00    -0.339 N 
ATOM     88  C   UNL A   1      32.648  18.338  22.907  1.00  0.00     0.253 C 
ATOM     89  O   UNL A   1      32.461  17.978  21.749  1.00  0.00    -0.269 OA
BRANCH  80  90
ATOM     90  C   UNL A   1      30.725  25.625  25.559  1.00  0.00     0.226 C 
ATOM     91  O   UNL A   1      30.515  25.811  26.757  1.00  0.00    -0.275 OA
BRANCH  90  92
ATOM     92  C   UNL A   1      30.271  26.683  24.621  1.00  0.00     0.079 C 
ATOM     93  C   UNL A   1      29.902  26.593  23.166  1.00  0.00     0.014 C 
ATOM     94  C   UNL A   1      28.814  26.635  24.183  1.00  0.00     0.014 C 
ENDBRANCH  90  92
ENDBRANCH  80  90
BRANCH  88  95
ATOM     95  C   UNL A   1      32.939  17.299  23.917  1.00  0.00     0.043 A 
ATOM     96  C   UNL A   1      31.952  16.925  24.840  1.00  0.00     0.014 A 
ATOM     97  C   UNL A   1      34.210  16.726  23.960  1.00  0.00     0.060 A 
ATOM     98  C   UNL A   1      32.263  16.017  25.851  1.00  0.00     0.005 A 
ATOM     99  C   UNL A   1      34.501  15.817  24.969  1.00  0.00     0.116 A 
ATOM    100  C   UNL A   1      33.544  15.466  25.921  1.00  0.00     0.046 A 
BRANCH  99 101
ATOM    101  O   UNL A   1      35.759  15.292  25.005  1.00  0.00    -0.508 OA
ATOM    102  H   UNL A   1      36.040  14.800  25.751  1.00  0.00     0.293 HD
ENDBRANCH  99 101
ENDBRANCH  88  95
ENDBRANCH  75  78
ENDBRANCH  73  74
ENDBRANCH  72  73
ENDBRANCH   1  72
TORSDOF 18
ENDMDL
