MODEL 1
REMARK VINA RESULT:     -11.1      0.000      0.000
REMARK SMILES Cc1ccc(F)c(NC(=O)NC(=O)CCCCC(=O)NCCCCNC(=O)c2ccc(-c3c4nc(c(-c5cccc(S(=O)(=O)[O-])c5F)c5ccc([nH]5)c(-c5cccc(S(=O)(=O)[O-])c5F)c5nc(c(-c6cccc(S(=O)(=O)[O-])c6F)c6ccc3[nH]6)C=C5)C=C4)cc2)c1
REMARK SMILES IDX 21 1 20 2 18 3 19 4 17 6 16 7 15 8 14 9 12 10 8 11 9 12
REMARK SMILES IDX 10 14 11 15 13 17 7 18 1 19 2 20 3 21 91 22 4 23 5 24 6 25
REMARK SMILES IDX 22 26 23 27 24 28 25 29 26 30 27 32 28 33 29 34 90 35 30 36
REMARK SMILES IDX 89 37 31 38 32 39 33 40 83 41 34 42 88 43 82 44 84 45 35 46
REMARK SMILES IDX 87 47 81 48 80 49 36 51 68 52 48 53 67 54 49 55 52 56 66 57
REMARK SMILES IDX 85 58 50 59 51 60 65 62 86 63 53 64 37 65 38 66 46 67 39 68
REMARK SMILES IDX 41 69 47 70 40 71 42 72 43 73 44 74 45 75 69 76 70 77 78 78
REMARK SMILES IDX 71 79 73 80 79 81 72 82 74 83 75 84 76 85 77 86 54 87 55 88
REMARK SMILES IDX 63 89 56 90 58 91 64 92 57 93 59 94 60 95 61 96 62 97
REMARK H PARENT 20 5 8 13 11 16 25 31 84 50 52 61
REMARK Flexibility Score: inf
ROOT
ATOM      1  C   UNL A   1      31.386  27.322  23.958  1.00  0.00     0.116 C 
ENDROOT
BRANCH   1   2
ATOM      2  N   UNL A   1      32.549  27.082  23.130  1.00  0.00    -0.356 N 
ATOM      3  C   UNL A   1      33.035  25.916  22.623  1.00  0.00     0.219 C 
ATOM      4  O   UNL A   1      34.032  25.950  21.902  1.00  0.00    -0.275 OA
ATOM      5  H   UNL A   1      33.069  27.886  22.899  1.00  0.00     0.163 HD
BRANCH   3   6
ATOM      6  C   UNL A   1      32.344  24.600  22.920  1.00  0.00     0.100 C 
BRANCH   6   7
ATOM      7  C   UNL A   1      32.829  23.422  22.077  1.00  0.00     0.010 C 
BRANCH   7   8
ATOM      8  C   UNL A   1      33.272  22.167  22.838  1.00  0.00     0.010 C 
BRANCH   8   9
ATOM      9  C   UNL A   1      32.149  21.237  23.291  1.00  0.00     0.100 C 
BRANCH   9  10
ATOM     10  C   UNL A   1      32.473  19.763  23.216  1.00  0.00     0.227 C 
ATOM     11  N   UNL A   1      33.433  20.261  26.294  1.00  0.00    -0.305 N 
ATOM     12  C   UNL A   1      33.060  19.218  25.520  1.00  0.00     0.325 C 
ATOM     13  H   UNL A   1      33.059  20.209  27.203  1.00  0.00     0.171 HD
ATOM     14  O   UNL A   1      32.519  18.255  26.069  1.00  0.00    -0.248 OA
ATOM     15  N   UNL A   1      33.265  19.184  24.181  1.00  0.00    -0.278 N 
ATOM     16  H   UNL A   1      34.060  18.696  23.867  1.00  0.00     0.174 HD
ATOM     17  O   UNL A   1      32.064  19.068  22.283  1.00  0.00    -0.275 OA
BRANCH  11  18
ATOM     18  C   UNL A   1      34.233  21.406  26.103  1.00  0.00     0.079 A 
ATOM     19  C   UNL A   1      33.542  25.164  26.324  1.00  0.00     0.044 C 
ATOM     20  C   UNL A   1      34.256  23.858  26.115  1.00  0.00    -0.049 A 
ATOM     21  C   UNL A   1      35.551  23.839  25.586  1.00  0.00     0.006 A 
ATOM     22  C   UNL A   1      33.610  22.639  26.374  1.00  0.00     0.032 A 
ATOM     23  C   UNL A   1      36.200  22.624  25.367  1.00  0.00     0.042 A 
ATOM     24  C   UNL A   1      35.549  21.421  25.638  1.00  0.00     0.146 A 
ATOM     25  F   UNL A   1      36.231  20.287  25.428  1.00  0.00    -0.205 F 
ENDBRANCH  11  18
ENDBRANCH   9  10
ENDBRANCH   8   9
ENDBRANCH   7   8
ENDBRANCH   6   7
ENDBRANCH   3   6
ENDBRANCH   1   2
BRANCH   1  26
ATOM     26  C   UNL A   1      31.741  28.023  25.266  1.00  0.00     0.023 C 
BRANCH  26  27
ATOM     27  C   UNL A   1      32.776  29.136  25.103  1.00  0.00     0.023 C 
BRANCH  27  28
ATOM     28  C   UNL A   1      33.728  29.312  26.285  1.00  0.00     0.116 C 
BRANCH  28  29
ATOM     29  N   UNL A   1      33.762  30.668  26.814  1.00  0.00    -0.352 N 
ATOM     30  C   UNL A   1      34.712  31.225  27.644  1.00  0.00     0.251 C 
ATOM     31  H   UNL A   1      33.018  31.257  26.548  1.00  0.00     0.163 HD
ATOM     32  O   UNL A   1      34.592  32.366  28.062  1.00  0.00    -0.269 OA
BRANCH  30  33
ATOM     33  C   UNL A   1      35.864  30.390  28.045  1.00  0.00     0.039 A 
ATOM     34  C   UNL A   1      37.027  30.432  27.274  1.00  0.00     0.014 A 
ATOM     35  C   UNL A   1      35.817  29.654  29.232  1.00  0.00     0.014 A 
ATOM     36  C   UNL A   1      38.179  29.794  27.738  1.00  0.00     0.010 A 
ATOM     37  C   UNL A   1      36.981  29.061  29.716  1.00  0.00     0.010 A 
ATOM     38  C   UNL A   1      38.174  29.138  28.982  1.00  0.00    -0.014 A 
BRANCH  38  39
ATOM     39  C   UNL A   1      39.427  28.582  29.554  1.00  0.00     0.031 A 
ATOM     40  C   UNL A   1      40.061  29.210  30.762  1.00  0.00     0.074 A 
ATOM     41  C   UNL A   1      40.040  27.557  28.928  1.00  0.00     0.049 A 
ATOM     42  N   UNL A   1      41.152  28.861  31.392  1.00  0.00    -0.248 NA
ATOM     43  C   UNL A   1      39.396  30.397  31.323  1.00  0.00     0.031 C 
ATOM     44  C   UNL A   1      39.575  26.919  27.694  1.00  0.00     0.029 A 
ATOM     45  N   UNL A   1      41.200  26.888  29.228  1.00  0.00    -0.354 N 
ATOM     46  C   UNL A   1      41.322  29.795  32.404  1.00  0.00     0.074 A 
ATOM     47  C   UNL A   1      40.237  30.746  32.287  1.00  0.00     0.031 C 
ATOM     48  C   UNL A   1      40.437  25.950  27.347  1.00  0.00     0.029 A 
ATOM     49  C   UNL A   1      41.523  25.904  28.322  1.00  0.00     0.049 A 
ATOM     50  H   UNL A   1      41.750  27.092  30.019  1.00  0.00     0.167 HD
ATOM     51  C   UNL A   1      42.275  29.839  33.365  1.00  0.00     0.034 A 
ATOM     52  C   UNL A   1      42.570  25.055  28.285  1.00  0.00     0.034 A 
ATOM     53  C   UNL A   1      43.325  28.867  33.509  1.00  0.00     0.049 A 
ATOM     54  C   UNL A   1      43.584  25.093  29.396  1.00  0.00     0.074 A 
ATOM     55  C   UNL A   1      44.277  28.771  34.508  1.00  0.00     0.029 A 
ATOM     56  N   UNL A   1      43.566  27.827  32.626  1.00  0.00    -0.354 N 
ATOM     57  N   UNL A   1      43.619  25.868  30.454  1.00  0.00    -0.248 NA
ATOM     58  C   UNL A   1      44.681  24.116  29.332  1.00  0.00     0.031 C 
ATOM     59  C   UNL A   1      45.103  27.678  34.223  1.00  0.00     0.029 A 
ATOM     60  C   UNL A   1      44.657  27.087  33.052  1.00  0.00     0.049 A 
ATOM     61  H   UNL A   1      43.039  27.640  31.815  1.00  0.00     0.167 HD
ATOM     62  C   UNL A   1      44.715  25.447  31.198  1.00  0.00     0.074 A 
ATOM     63  C   UNL A   1      45.307  24.336  30.480  1.00  0.00     0.031 C 
ATOM     64  C   UNL A   1      45.199  25.946  32.362  1.00  0.00     0.034 A 
BRANCH  51  65
ATOM     65  C   UNL A   1      42.186  30.943  34.384  1.00  0.00     0.023 A 
ATOM     66  C   UNL A   1      41.466  30.723  35.576  1.00  0.00     0.012 A 
ATOM     67  C   UNL A   1      42.861  32.165  34.198  1.00  0.00     0.148 A 
ATOM     68  C   UNL A   1      41.395  31.711  36.556  1.00  0.00     0.002 A 
ATOM     69  C   UNL A   1      42.817  33.132  35.196  1.00  0.00     0.091 A 
ATOM     70  F   UNL A   1      43.519  32.364  33.048  1.00  0.00    -0.205 F 
ATOM     71  C   UNL A   1      42.077  32.910  36.371  1.00  0.00     0.022 A 
BRANCH  69  72
ATOM     72  S   UNL A   1      43.718  34.681  35.081  1.00  0.00     0.127 S 
ATOM     73  O   UNL A   1      43.368  35.320  36.349  1.00  0.00    -0.237 OA
ATOM     74  O   UNL A   1      45.106  34.227  34.990  1.00  0.00    -0.237 OA
ATOM     75  O   UNL A   1      43.219  35.344  33.885  1.00  0.00    -0.744 OA
ENDBRANCH  69  72
ENDBRANCH  51  65
BRANCH  52  76
ATOM     76  C   UNL A   1      42.662  24.034  27.203  1.00  0.00     0.023 A 
ATOM     77  C   UNL A   1      43.417  24.322  26.049  1.00  0.00     0.012 A 
ATOM     78  C   UNL A   1      42.037  22.779  27.320  1.00  0.00     0.148 A 
ATOM     79  C   UNL A   1      43.523  23.390  25.017  1.00  0.00     0.002 A 
ATOM     80  C   UNL A   1      42.189  21.834  26.310  1.00  0.00     0.091 A 
ATOM     81  F   UNL A   1      41.309  22.529  28.417  1.00  0.00    -0.205 F 
ATOM     82  C   UNL A   1      42.918  22.143  25.151  1.00  0.00     0.022 A 
BRANCH  80  83
ATOM     83  S   UNL A   1      41.554  20.161  26.466  1.00  0.00     0.127 S 
ATOM     84  O   UNL A   1      42.077  19.762  27.770  1.00  0.00    -0.237 OA
ATOM     85  O   UNL A   1      40.108  20.376  26.419  1.00  0.00    -0.237 OA
ATOM     86  O   UNL A   1      42.085  19.440  25.316  1.00  0.00    -0.744 OA
ENDBRANCH  80  83
ENDBRANCH  52  76
BRANCH  64  87
ATOM     87  C   UNL A   1      46.414  25.287  32.956  1.00  0.00     0.023 A 
ATOM     88  C   UNL A   1      47.692  25.821  32.699  1.00  0.00     0.012 A 
ATOM     89  C   UNL A   1      46.286  24.191  33.832  1.00  0.00     0.148 A 
ATOM     90  C   UNL A   1      48.826  25.260  33.285  1.00  0.00     0.002 A 
ATOM     91  C   UNL A   1      47.417  23.664  34.447  1.00  0.00     0.091 A 
ATOM     92  F   UNL A   1      45.064  23.682  34.047  1.00  0.00    -0.205 F 
ATOM     93  C   UNL A   1      48.687  24.191  34.168  1.00  0.00     0.022 A 
BRANCH  91  94
ATOM     94  S   UNL A   1      47.316  22.350  35.668  1.00  0.00     0.127 S 
ATOM     95  O   UNL A   1      46.622  21.302  34.921  1.00  0.00    -0.237 OA
ATOM     96  O   UNL A   1      48.726  22.071  35.945  1.00  0.00    -0.237 OA
ATOM     97  O   UNL A   1      46.583  22.910  36.795  1.00  0.00    -0.744 OA
ENDBRANCH  91  94
ENDBRANCH  64  87
ENDBRANCH  38  39
ENDBRANCH  30  33
ENDBRANCH  28  29
ENDBRANCH  27  28
ENDBRANCH  26  27
ENDBRANCH   1  26
TORSDOF 19
ENDMDL
MODEL 2
REMARK VINA RESULT:     -10.8      3.128      4.216
REMARK SMILES Cc1ccc(F)c(NC(=O)NC(=O)CCCCC(=O)NCCCCNC(=O)c2ccc(-c3c4nc(c(-c5cccc(S(=O)(=O)[O-])c5F)c5ccc([nH]5)c(-c5cccc(S(=O)(=O)[O-])c5F)c5nc(c(-c6cccc(S(=O)(=O)[O-])c6F)c6ccc3[nH]6)C=C5)C=C4)cc2)c1
REMARK SMILES IDX 21 1 20 2 18 3 19 4 17 6 16 7 15 8 14 9 12 10 8 11 9 12
REMARK SMILES IDX 10 14 11 15 13 17 7 18 1 19 2 20 3 21 91 22 4 23 5 24 6 25
REMARK SMILES IDX 22 26 23 27 24 28 25 29 26 30 27 32 28 33 29 34 90 35 30 36
REMARK SMILES IDX 89 37 31 38 32 39 33 40 83 41 34 42 88 43 82 44 84 45 35 46
REMARK SMILES IDX 87 47 81 48 80 49 36 51 68 52 48 53 67 54 49 55 52 56 66 57
REMARK SMILES IDX 85 58 50 59 51 60 65 62 86 63 53 64 37 65 38 66 46 67 39 68
REMARK SMILES IDX 41 69 47 70 40 71 42 72 43 73 44 74 45 75 69 76 70 77 78 78
REMARK SMILES IDX 71 79 73 80 79 81 72 82 74 83 75 84 76 85 77 86 54 87 55 88
REMARK SMILES IDX 63 89 56 90 58 91 64 92 57 93 59 94 60 95 61 96 62 97
REMARK H PARENT 20 5 8 13 11 16 25 31 84 50 52 61
REMARK Flexibility Score: inf
ROOT
ATOM      1  C   UNL A   1      32.277  29.256  25.000  1.00  0.00     0.116 C 
ENDROOT
BRANCH   1   2
ATOM      2  N   UNL A   1      31.109  29.755  24.306  1.00  0.00    -0.356 N 
ATOM      3  C   UNL A   1      30.183  29.088  23.563  1.00  0.00     0.219 C 
ATOM      4  O   UNL A   1      29.236  29.715  23.089  1.00  0.00    -0.275 OA
ATOM      5  H   UNL A   1      30.961  30.726  24.382  1.00  0.00     0.163 HD
BRANCH   3   6
ATOM      6  C   UNL A   1      30.303  27.593  23.346  1.00  0.00     0.100 C 
BRANCH   6   7
ATOM      7  C   UNL A   1      29.617  26.738  24.410  1.00  0.00     0.010 C 
BRANCH   7   8
ATOM      8  C   UNL A   1      30.238  25.366  24.696  1.00  0.00     0.010 C 
BRANCH   8   9
ATOM      9  C   UNL A   1      30.799  25.173  26.104  1.00  0.00     0.100 C 
BRANCH   9  10
ATOM     10  C   UNL A   1      30.397  23.882  26.778  1.00  0.00     0.227 C 
ATOM     11  N   UNL A   1      33.506  23.103  26.171  1.00  0.00    -0.305 N 
ATOM     12  C   UNL A   1      32.520  22.704  27.004  1.00  0.00     0.325 C 
ATOM     13  H   UNL A   1      34.382  23.152  26.618  1.00  0.00     0.171 HD
ATOM     14  O   UNL A   1      32.843  22.246  28.103  1.00  0.00    -0.248 OA
ATOM     15  N   UNL A   1      31.207  22.774  26.679  1.00  0.00    -0.278 N 
ATOM     16  H   UNL A   1      30.790  21.950  26.338  1.00  0.00     0.174 HD
ATOM     17  O   UNL A   1      29.334  23.791  27.396  1.00  0.00    -0.275 OA
BRANCH  11  18
ATOM     18  C   UNL A   1      33.572  23.467  24.810  1.00  0.00     0.079 A 
ATOM     19  C   UNL A   1      33.858  26.825  22.996  1.00  0.00     0.044 C 
ATOM     20  C   UNL A   1      33.738  25.347  23.245  1.00  0.00    -0.049 A 
ATOM     21  C   UNL A   1      33.518  24.469  22.180  1.00  0.00     0.006 A 
ATOM     22  C   UNL A   1      33.769  24.837  24.552  1.00  0.00     0.032 A 
ATOM     23  C   UNL A   1      33.380  23.101  22.418  1.00  0.00     0.042 A 
ATOM     24  C   UNL A   1      33.422  22.606  23.721  1.00  0.00     0.146 A 
ATOM     25  F   UNL A   1      33.304  21.282  23.885  1.00  0.00    -0.205 F 
ENDBRANCH  11  18
ENDBRANCH   9  10
ENDBRANCH   8   9
ENDBRANCH   7   8
ENDBRANCH   6   7
ENDBRANCH   3   6
ENDBRANCH   1   2
BRANCH   1  26
ATOM     26  C   UNL A   1      32.308  29.686  26.464  1.00  0.00     0.023 C 
BRANCH  26  27
ATOM     27  C   UNL A   1      31.959  31.159  26.678  1.00  0.00     0.023 C 
BRANCH  27  28
ATOM     28  C   UNL A   1      33.084  32.011  27.265  1.00  0.00     0.116 C 
BRANCH  28  29
ATOM     29  N   UNL A   1      32.691  33.384  27.551  1.00  0.00    -0.352 N 
ATOM     30  C   UNL A   1      33.271  34.256  28.448  1.00  0.00     0.251 C 
ATOM     31  H   UNL A   1      31.921  33.730  27.043  1.00  0.00     0.163 HD
ATOM     32  O   UNL A   1      32.806  35.370  28.633  1.00  0.00    -0.269 OA
BRANCH  30  33
ATOM     33  C   UNL A   1      34.449  33.792  29.210  1.00  0.00     0.039 A 
ATOM     34  C   UNL A   1      34.257  32.913  30.278  1.00  0.00     0.014 A 
ATOM     35  C   UNL A   1      35.735  34.149  28.798  1.00  0.00     0.014 A 
ATOM     36  C   UNL A   1      35.367  32.326  30.888  1.00  0.00     0.010 A 
ATOM     37  C   UNL A   1      36.837  33.523  29.377  1.00  0.00     0.010 A 
ATOM     38  C   UNL A   1      36.662  32.596  30.415  1.00  0.00    -0.014 A 
BRANCH  38  39
ATOM     39  C   UNL A   1      37.838  31.868  30.957  1.00  0.00     0.031 A 
ATOM     40  C   UNL A   1      38.422  32.243  32.289  1.00  0.00     0.074 A 
ATOM     41  C   UNL A   1      38.432  30.921  30.205  1.00  0.00     0.049 A 
ATOM     42  N   UNL A   1      39.444  31.721  32.914  1.00  0.00    -0.248 NA
ATOM     43  C   UNL A   1      37.790  33.365  33.003  1.00  0.00     0.031 C 
ATOM     44  C   UNL A   1      38.018  30.528  28.855  1.00  0.00     0.029 A 
ATOM     45  N   UNL A   1      39.528  30.132  30.456  1.00  0.00    -0.354 N 
ATOM     46  C   UNL A   1      39.598  32.462  34.078  1.00  0.00     0.074 A 
ATOM     47  C   UNL A   1      38.581  33.492  34.060  1.00  0.00     0.031 C 
ATOM     48  C   UNL A   1      38.844  29.572  28.402  1.00  0.00     0.029 A 
ATOM     49  C   UNL A   1      39.855  29.292  29.417  1.00  0.00     0.049 A 
ATOM     50  H   UNL A   1      40.032  30.165  31.301  1.00  0.00     0.167 HD
ATOM     51  C   UNL A   1      40.482  32.281  35.087  1.00  0.00     0.034 A 
ATOM     52  C   UNL A   1      40.851  28.391  29.298  1.00  0.00     0.034 A 
ATOM     53  C   UNL A   1      41.462  31.229  35.126  1.00  0.00     0.049 A 
ATOM     54  C   UNL A   1      41.786  28.175  30.458  1.00  0.00     0.074 A 
ATOM     55  C   UNL A   1      42.334  30.904  36.149  1.00  0.00     0.029 A 
ATOM     56  N   UNL A   1      41.702  30.334  34.096  1.00  0.00    -0.354 N 
ATOM     57  N   UNL A   1      41.792  28.760  31.632  1.00  0.00    -0.248 NA
ATOM     58  C   UNL A   1      42.826  27.149  30.294  1.00  0.00     0.031 C 
ATOM     59  C   UNL A   1      43.113  29.819  35.733  1.00  0.00     0.029 A 
ATOM     60  C   UNL A   1      42.716  29.461  34.455  1.00  0.00     0.049 A 
ATOM     61  H   UNL A   1      41.224  30.320  33.236  1.00  0.00     0.167 HD
ATOM     62  C   UNL A   1      42.808  28.148  32.356  1.00  0.00     0.074 A 
ATOM     63  C   UNL A   1      43.383  27.133  31.498  1.00  0.00     0.031 C 
ATOM     64  C   UNL A   1      43.238  28.414  33.614  1.00  0.00     0.034 A 
BRANCH  51  65
ATOM     65  C   UNL A   1      40.388  33.206  36.271  1.00  0.00     0.023 A 
ATOM     66  C   UNL A   1      41.050  34.450  36.227  1.00  0.00     0.012 A 
ATOM     67  C   UNL A   1      39.600  32.879  37.391  1.00  0.00     0.148 A 
ATOM     68  C   UNL A   1      40.952  35.344  37.291  1.00  0.00     0.002 A 
ATOM     69  C   UNL A   1      39.477  33.792  38.433  1.00  0.00     0.091 A 
ATOM     70  F   UNL A   1      38.999  31.681  37.425  1.00  0.00    -0.205 F 
ATOM     71  C   UNL A   1      40.159  35.019  38.389  1.00  0.00     0.022 A 
BRANCH  69  72
ATOM     72  S   UNL A   1      38.425  33.495  39.858  1.00  0.00     0.127 S 
ATOM     73  O   UNL A   1      38.435  34.804  40.509  1.00  0.00    -0.237 OA
ATOM     74  O   UNL A   1      37.151  33.134  39.234  1.00  0.00    -0.237 OA
ATOM     75  O   UNL A   1      39.060  32.418  40.604  1.00  0.00    -0.744 OA
ENDBRANCH  69  72
ENDBRANCH  51  65
BRANCH  52  76
ATOM     76  C   UNL A   1      40.959  27.557  28.068  1.00  0.00     0.023 A 
ATOM     77  C   UNL A   1      41.611  28.085  26.936  1.00  0.00     0.012 A 
ATOM     78  C   UNL A   1      40.450  26.246  28.018  1.00  0.00     0.148 A 
ATOM     79  C   UNL A   1      41.727  27.333  25.766  1.00  0.00     0.002 A 
ATOM     80  C   UNL A   1      40.615  25.483  26.867  1.00  0.00     0.091 A 
ATOM     81  F   UNL A   1      39.818  25.767  29.099  1.00  0.00    -0.205 F 
ATOM     82  C   UNL A   1      41.239  26.030  25.735  1.00  0.00     0.022 A 
BRANCH  80  83
ATOM     83  S   UNL A   1      40.134  23.754  26.792  1.00  0.00     0.127 S 
ATOM     84  O   UNL A   1      41.008  23.245  25.740  1.00  0.00    -0.237 OA
ATOM     85  O   UNL A   1      40.453  23.288  28.141  1.00  0.00    -0.237 OA
ATOM     86  O   UNL A   1      38.708  23.765  26.490  1.00  0.00    -0.744 OA
ENDBRANCH  80  83
ENDBRANCH  52  76
BRANCH  64  87
ATOM     87  C   UNL A   1      44.369  27.584  34.159  1.00  0.00     0.023 A 
ATOM     88  C   UNL A   1      45.697  28.024  33.996  1.00  0.00     0.012 A 
ATOM     89  C   UNL A   1      44.113  26.415  34.902  1.00  0.00     0.148 A 
ATOM     90  C   UNL A   1      46.756  27.299  34.541  1.00  0.00     0.002 A 
ATOM     91  C   UNL A   1      45.171  25.721  35.481  1.00  0.00     0.091 A 
ATOM     92  F   UNL A   1      42.845  25.999  35.028  1.00  0.00    -0.205 F 
ATOM     93  C   UNL A   1      46.492  26.156  35.294  1.00  0.00     0.022 A 
BRANCH  91  94
ATOM     94  S   UNL A   1      44.912  24.294  36.542  1.00  0.00     0.127 S 
ATOM     95  O   UNL A   1      44.091  24.862  37.610  1.00  0.00    -0.237 OA
ATOM     96  O   UNL A   1      44.205  23.369  35.655  1.00  0.00    -0.237 OA
ATOM     97  O   UNL A   1      46.241  23.847  36.938  1.00  0.00    -0.744 OA
ENDBRANCH  91  94
ENDBRANCH  64  87
ENDBRANCH  38  39
ENDBRANCH  30  33
ENDBRANCH  28  29
ENDBRANCH  27  28
ENDBRANCH  26  27
ENDBRANCH   1  26
TORSDOF 19
ENDMDL
MODEL 3
REMARK VINA RESULT:     -10.8      3.482      4.924
REMARK SMILES Cc1ccc(F)c(NC(=O)NC(=O)CCCCC(=O)NCCCCNC(=O)c2ccc(-c3c4nc(c(-c5cccc(S(=O)(=O)[O-])c5F)c5ccc([nH]5)c(-c5cccc(S(=O)(=O)[O-])c5F)c5nc(c(-c6cccc(S(=O)(=O)[O-])c6F)c6ccc3[nH]6)C=C5)C=C4)cc2)c1
REMARK SMILES IDX 21 1 20 2 18 3 19 4 17 6 16 7 15 8 14 9 12 10 8 11 9 12
REMARK SMILES IDX 10 14 11 15 13 17 7 18 1 19 2 20 3 21 91 22 4 23 5 24 6 25
REMARK SMILES IDX 22 26 23 27 24 28 25 29 26 30 27 32 28 33 29 34 90 35 30 36
REMARK SMILES IDX 89 37 31 38 32 39 33 40 83 41 34 42 88 43 82 44 84 45 35 46
REMARK SMILES IDX 87 47 81 48 80 49 36 51 68 52 48 53 67 54 49 55 52 56 66 57
REMARK SMILES IDX 85 58 50 59 51 60 65 62 86 63 53 64 37 65 38 66 46 67 39 68
REMARK SMILES IDX 41 69 47 70 40 71 42 72 43 73 44 74 45 75 69 76 70 77 78 78
REMARK SMILES IDX 71 79 73 80 79 81 72 82 74 83 75 84 76 85 77 86 54 87 55 88
REMARK SMILES IDX 63 89 56 90 58 91 64 92 57 93 59 94 60 95 61 96 62 97
REMARK H PARENT 20 5 8 13 11 16 25 31 84 50 52 61
REMARK Flexibility Score: inf
ROOT
ATOM      1  C   UNL A   1      34.899  29.554  27.325  1.00  0.00     0.116 C 
ENDROOT
BRANCH   1   2
ATOM      2  N   UNL A   1      34.181  29.708  26.077  1.00  0.00    -0.356 N 
ATOM      3  C   UNL A   1      33.597  28.767  25.285  1.00  0.00     0.219 C 
ATOM      4  O   UNL A   1      32.998  29.130  24.273  1.00  0.00    -0.275 OA
ATOM      5  H   UNL A   1      34.104  30.633  25.751  1.00  0.00     0.163 HD
BRANCH   3   6
ATOM      6  C   UNL A   1      33.661  27.299  25.657  1.00  0.00     0.100 C 
BRANCH   6   7
ATOM      7  C   UNL A   1      33.993  26.362  24.497  1.00  0.00     0.010 C 
BRANCH   7   8
ATOM      8  C   UNL A   1      34.281  24.899  24.855  1.00  0.00     0.010 C 
BRANCH   8   9
ATOM      9  C   UNL A   1      34.397  23.939  23.672  1.00  0.00     0.100 C 
BRANCH   9  10
ATOM     10  C   UNL A   1      34.337  22.474  24.034  1.00  0.00     0.227 C 
ATOM     11  N   UNL A   1      31.284  22.769  22.922  1.00  0.00    -0.305 N 
ATOM     12  C   UNL A   1      32.179  21.780  23.133  1.00  0.00     0.325 C 
ATOM     13  H   UNL A   1      30.790  22.658  22.078  1.00  0.00     0.171 HD
ATOM     14  O   UNL A   1      32.120  20.783  22.408  1.00  0.00    -0.248 OA
ATOM     15  N   UNL A   1      33.121  21.833  24.105  1.00  0.00    -0.278 N 
ATOM     16  H   UNL A   1      32.916  21.366  24.947  1.00  0.00     0.174 HD
ATOM     17  O   UNL A   1      35.362  21.841  24.299  1.00  0.00    -0.275 OA
BRANCH  11  18
ATOM     18  C   UNL A   1      30.893  23.925  23.629  1.00  0.00     0.079 A 
ATOM     19  C   UNL A   1      30.461  27.596  22.638  1.00  0.00     0.044 C 
ATOM     20  C   UNL A   1      30.499  26.339  23.462  1.00  0.00    -0.049 A 
ATOM     21  C   UNL A   1      30.340  26.401  24.849  1.00  0.00     0.006 A 
ATOM     22  C   UNL A   1      30.769  25.099  22.863  1.00  0.00     0.032 A 
ATOM     23  C   UNL A   1      30.404  25.235  25.614  1.00  0.00     0.042 A 
ATOM     24  C   UNL A   1      30.664  24.008  25.004  1.00  0.00     0.146 A 
ATOM     25  F   UNL A   1      30.692  22.922  25.786  1.00  0.00    -0.205 F 
ENDBRANCH  11  18
ENDBRANCH   9  10
ENDBRANCH   8   9
ENDBRANCH   7   8
ENDBRANCH   6   7
ENDBRANCH   3   6
ENDBRANCH   1   2
BRANCH   1  26
ATOM     26  C   UNL A   1      35.103  30.886  28.043  1.00  0.00     0.023 C 
BRANCH  26  27
ATOM     27  C   UNL A   1      33.849  31.759  28.081  1.00  0.00     0.023 C 
BRANCH  27  28
ATOM     28  C   UNL A   1      34.079  33.236  27.761  1.00  0.00     0.116 C 
BRANCH  28  29
ATOM     29  N   UNL A   1      33.236  34.141  28.529  1.00  0.00    -0.352 N 
ATOM     30  C   UNL A   1      33.406  34.544  29.837  1.00  0.00     0.251 C 
ATOM     31  H   UNL A   1      32.452  34.508  28.059  1.00  0.00     0.163 HD
ATOM     32  O   UNL A   1      32.590  35.268  30.383  1.00  0.00    -0.269 OA
BRANCH  30  33
ATOM     33  C   UNL A   1      34.586  34.044  30.573  1.00  0.00     0.039 A 
ATOM     34  C   UNL A   1      34.414  33.017  31.503  1.00  0.00     0.014 A 
ATOM     35  C   UNL A   1      35.861  34.524  30.264  1.00  0.00     0.014 A 
ATOM     36  C   UNL A   1      35.537  32.411  32.070  1.00  0.00     0.010 A 
ATOM     37  C   UNL A   1      36.980  33.884  30.793  1.00  0.00     0.010 A 
ATOM     38  C   UNL A   1      36.828  32.814  31.688  1.00  0.00    -0.014 A 
BRANCH  38  39
ATOM     39  C   UNL A   1      38.027  32.083  32.171  1.00  0.00     0.031 A 
ATOM     40  C   UNL A   1      38.694  32.473  33.459  1.00  0.00     0.074 A 
ATOM     41  C   UNL A   1      38.567  31.118  31.399  1.00  0.00     0.049 A 
ATOM     42  N   UNL A   1      39.747  31.950  34.030  1.00  0.00    -0.248 NA
ATOM     43  C   UNL A   1      38.116  33.612  34.191  1.00  0.00     0.031 C 
ATOM     44  C   UNL A   1      38.069  30.709  30.084  1.00  0.00     0.029 A 
ATOM     45  N   UNL A   1      39.669  30.323  31.597  1.00  0.00    -0.354 N 
ATOM     46  C   UNL A   1      39.977  32.707  35.171  1.00  0.00     0.074 A 
ATOM     47  C   UNL A   1      38.970  33.747  35.197  1.00  0.00     0.031 C 
ATOM     48  C   UNL A   1      38.858  29.738  29.597  1.00  0.00     0.029 A 
ATOM     49  C   UNL A   1      39.925  29.463  30.554  1.00  0.00     0.049 A 
ATOM     50  H   UNL A   1      40.223  30.364  32.410  1.00  0.00     0.167 HD
ATOM     51  C   UNL A   1      40.918  32.534  36.128  1.00  0.00     0.034 A 
ATOM     52  C   UNL A   1      40.904  28.550  30.391  1.00  0.00     0.034 A 
ATOM     53  C   UNL A   1      41.889  31.472  36.125  1.00  0.00     0.049 A 
ATOM     54  C   UNL A   1      41.905  28.343  31.496  1.00  0.00     0.074 A 
ATOM     55  C   UNL A   1      42.818  31.155  37.100  1.00  0.00     0.029 A 
ATOM     56  N   UNL A   1      42.059  30.559  35.098  1.00  0.00    -0.354 N 
ATOM     57  N   UNL A   1      41.987  28.947  32.657  1.00  0.00    -0.248 NA
ATOM     58  C   UNL A   1      42.924  27.304  31.286  1.00  0.00     0.031 C 
ATOM     59  C   UNL A   1      43.561  30.055  36.655  1.00  0.00     0.029 A 
ATOM     60  C   UNL A   1      43.085  29.682  35.408  1.00  0.00     0.049 A 
ATOM     61  H   UNL A   1      41.530  30.537  34.268  1.00  0.00     0.167 HD
ATOM     62  C   UNL A   1      43.039  28.336  33.330  1.00  0.00     0.074 A 
ATOM     63  C   UNL A   1      43.552  27.302  32.455  1.00  0.00     0.031 C 
ATOM     64  C   UNL A   1      43.545  28.617  34.556  1.00  0.00     0.034 A 
BRANCH  51  65
ATOM     65  C   UNL A   1      40.903  33.477  37.300  1.00  0.00     0.023 A 
ATOM     66  C   UNL A   1      41.756  34.601  37.290  1.00  0.00     0.012 A 
ATOM     67  C   UNL A   1      40.010  33.294  38.373  1.00  0.00     0.148 A 
ATOM     68  C   UNL A   1      41.740  35.513  38.343  1.00  0.00     0.002 A 
ATOM     69  C   UNL A   1      39.974  34.229  39.402  1.00  0.00     0.091 A 
ATOM     70  F   UNL A   1      39.227  32.207  38.376  1.00  0.00    -0.205 F 
ATOM     71  C   UNL A   1      40.844  35.333  39.393  1.00  0.00     0.022 A 
BRANCH  69  72
ATOM     72  S   UNL A   1      38.808  34.121  40.764  1.00  0.00     0.127 S 
ATOM     73  O   UNL A   1      39.499  33.207  41.672  1.00  0.00    -0.237 OA
ATOM     74  O   UNL A   1      38.743  35.508  41.228  1.00  0.00    -0.237 OA
ATOM     75  O   UNL A   1      37.569  33.617  40.189  1.00  0.00    -0.744 OA
ENDBRANCH  69  72
ENDBRANCH  51  65
BRANCH  52  76
ATOM     76  C   UNL A   1      40.931  27.697  29.169  1.00  0.00     0.023 A 
ATOM     77  C   UNL A   1      40.048  26.604  29.076  1.00  0.00     0.012 A 
ATOM     78  C   UNL A   1      41.797  27.974  28.096  1.00  0.00     0.148 A 
ATOM     79  C   UNL A   1      40.048  25.783  27.948  1.00  0.00     0.002 A 
ATOM     80  C   UNL A   1      41.757  27.183  26.952  1.00  0.00     0.091 A 
ATOM     81  F   UNL A   1      42.642  29.008  28.209  1.00  0.00    -0.205 F 
ATOM     82  C   UNL A   1      40.894  26.077  26.883  1.00  0.00     0.022 A 
BRANCH  80  83
ATOM     83  S   UNL A   1      42.717  27.576  25.486  1.00  0.00     0.127 S 
ATOM     84  O   UNL A   1      42.065  28.794  25.018  1.00  0.00    -0.237 OA
ATOM     85  O   UNL A   1      44.058  27.765  26.040  1.00  0.00    -0.237 OA
ATOM     86  O   UNL A   1      42.592  26.409  24.621  1.00  0.00    -0.744 OA
ENDBRANCH  80  83
ENDBRANCH  52  76
BRANCH  64  87
ATOM     87  C   UNL A   1      44.700  27.784  35.045  1.00  0.00     0.023 A 
ATOM     88  C   UNL A   1      46.019  28.243  34.858  1.00  0.00     0.012 A 
ATOM     89  C   UNL A   1      44.477  26.591  35.761  1.00  0.00     0.148 A 
ATOM     90  C   UNL A   1      47.099  27.514  35.353  1.00  0.00     0.002 A 
ATOM     91  C   UNL A   1      45.557  25.893  36.290  1.00  0.00     0.091 A 
ATOM     92  F   UNL A   1      43.216  26.159  35.910  1.00  0.00    -0.205 F 
ATOM     93  C   UNL A   1      46.868  26.348  36.080  1.00  0.00     0.022 A 
BRANCH  91  94
ATOM     94  S   UNL A   1      45.342  24.434  37.316  1.00  0.00     0.127 S 
ATOM     95  O   UNL A   1      44.732  23.495  36.376  1.00  0.00    -0.237 OA
ATOM     96  O   UNL A   1      46.719  24.111  37.694  1.00  0.00    -0.237 OA
ATOM     97  O   UNL A   1      44.497  24.851  38.428  1.00  0.00    -0.744 OA
ENDBRANCH  91  94
ENDBRANCH  64  87
ENDBRANCH  38  39
ENDBRANCH  30  33
ENDBRANCH  28  29
ENDBRANCH  27  28
ENDBRANCH  26  27
ENDBRANCH   1  26
TORSDOF 19
ENDMDL
