MODEL 1
REMARK VINA RESULT:     -12.3      0.000      0.000
REMARK SMILES CC(C)(C)NS(=O)(=O)c1csc(C(=O)Nc2ccccc2C(=O)NCCCCNC(=O)c2ccc(-c3c4nc(c(-c5cccc(S(=O)(=O)[O-])c5F)c5ccc([nH]5)c(-c5cccc(S(=O)(=O)[O-])c5F)c5nc(c(-c6cccc(S(=O)(=O)[O-])c6F)c6ccc3[nH]6)C=C5)C=C4)cc2)c1
REMARK SMILES IDX 25 1 24 2 22 3 23 4 21 6 16 7 17 8 18 9 20 10 19 11 15 12
REMARK SMILES IDX 13 13 14 14 12 16 9 17 10 18 95 19 11 20 6 21 7 22 8 23 5 24
REMARK SMILES IDX 2 26 1 27 3 28 4 29 26 30 27 31 28 32 29 33 30 34 31 36
REMARK SMILES IDX 32 37 33 38 94 39 34 40 93 41 35 42 36 43 37 44 87 45 38 46
REMARK SMILES IDX 92 47 86 48 88 49 39 50 91 51 85 52 84 53 40 55 72 56 52 57
REMARK SMILES IDX 71 58 53 59 56 60 70 61 89 62 54 63 55 64 69 66 90 67 57 68
REMARK SMILES IDX 41 69 42 70 50 71 43 72 45 73 51 74 44 75 46 76 47 77 48 78
REMARK SMILES IDX 49 79 73 80 74 81 82 82 75 83 77 84 83 85 76 86 78 87 79 88
REMARK SMILES IDX 80 89 81 90 58 91 59 92 67 93 60 94 62 95 68 96 61 97 63 98
REMARK SMILES IDX 64 99 65 100 66 101
REMARK H PARENT 24 5 15 15 5 25 29 35 88 54 56 65
REMARK Flexibility Score: inf
ROOT
ATOM      1  C   UNL A   1      32.157  29.728  26.166  1.00  0.00     0.116 C 
ENDROOT
BRANCH   1   2
ATOM      2  N   UNL A   1      33.020  29.219  25.128  1.00  0.00    -0.352 N 
ATOM      3  C   UNL A   1      33.014  28.025  24.455  1.00  0.00     0.253 C 
ATOM      4  O   UNL A   1      33.975  27.820  23.709  1.00  0.00    -0.269 OA
ATOM      5  H   UNL A   1      33.737  29.837  24.855  1.00  0.00     0.163 HD
BRANCH   3   6
ATOM      6  C   UNL A   1      32.011  26.923  24.630  1.00  0.00     0.063 A 
ATOM      7  C   UNL A   1      31.481  26.033  23.676  1.00  0.00     0.054 A 
ATOM      8  C   UNL A   1      30.349  25.262  24.008  1.00  0.00     0.027 A 
ATOM      9  C   UNL A   1      29.874  25.202  25.317  1.00  0.00     0.002 A 
ATOM     10  C   UNL A   1      31.533  26.812  25.959  1.00  0.00     0.016 A 
ATOM     11  C   UNL A   1      30.501  25.940  26.306  1.00  0.00     0.001 A 
BRANCH   7  12
ATOM     12  N   UNL A   1      32.011  25.703  22.415  1.00  0.00    -0.321 N 
ATOM     13  C   UNL A   1      33.002  24.806  22.049  1.00  0.00     0.265 C 
ATOM     14  O   UNL A   1      33.341  24.841  20.864  1.00  0.00    -0.268 OA
ATOM     15  H   UNL A   1      31.608  26.192  21.662  1.00  0.00     0.170 HD
BRANCH  13  16
ATOM     16  C   UNL A   1      33.535  23.859  23.012  1.00  0.00     0.094 A 
ATOM     17  C   UNL A   1      33.776  22.091  24.507  1.00  0.00     0.093 A 
ATOM     18  C   UNL A   1      34.918  22.810  24.775  1.00  0.00     0.087 A 
ATOM     19  C   UNL A   1      33.075  22.612  23.386  1.00  0.00     0.047 A 
ATOM     20  S   UNL A   1      35.008  24.224  23.817  1.00  0.00    -0.137 S 
BRANCH  17  21
ATOM     21  S   UNL A   1      33.214  20.734  25.416  1.00  0.00     0.241 S 
ATOM     22  O   UNL A   1      31.808  20.633  25.133  1.00  0.00    -0.207 OA
ATOM     23  O   UNL A   1      33.698  20.993  26.760  1.00  0.00    -0.207 OA
BRANCH  21  24
ATOM     24  N   UNL A   1      34.031  19.366  24.908  1.00  0.00    -0.206 NA
ATOM     25  H   UNL A   1      34.609  19.676  24.127  1.00  0.00     0.141 HD
BRANCH  24  26
ATOM     26  C   UNL A   1      33.418  18.093  24.455  1.00  0.00     0.025 C 
ATOM     27  C   UNL A   1      32.572  18.261  23.194  1.00  0.00     0.028 C 
ATOM     28  C   UNL A   1      32.575  17.460  25.563  1.00  0.00     0.028 C 
ATOM     29  C   UNL A   1      34.588  17.139  24.134  1.00  0.00     0.028 C 
ENDBRANCH  24  26
ENDBRANCH  21  24
ENDBRANCH  17  21
ENDBRANCH  13  16
ENDBRANCH   7  12
ENDBRANCH   3   6
ENDBRANCH   1   2
BRANCH   1  30
ATOM     30  C   UNL A   1      31.192  30.812  25.706  1.00  0.00     0.023 C 
BRANCH  30  31
ATOM     31  C   UNL A   1      31.310  32.154  26.427  1.00  0.00     0.023 C 
BRANCH  31  32
ATOM     32  C   UNL A   1      32.590  32.386  27.228  1.00  0.00     0.116 C 
BRANCH  32  33
ATOM     33  N   UNL A   1      32.756  33.761  27.684  1.00  0.00    -0.352 N 
ATOM     34  C   UNL A   1      33.718  34.306  28.503  1.00  0.00     0.251 C 
ATOM     35  H   UNL A   1      32.076  34.394  27.358  1.00  0.00     0.163 HD
ATOM     36  O   UNL A   1      33.613  35.467  28.888  1.00  0.00    -0.269 OA
BRANCH  34  37
ATOM     37  C   UNL A   1      34.864  33.482  28.942  1.00  0.00     0.039 A 
ATOM     38  C   UNL A   1      36.160  33.885  28.610  1.00  0.00     0.014 A 
ATOM     39  C   UNL A   1      34.663  32.326  29.700  1.00  0.00     0.014 A 
ATOM     40  C   UNL A   1      37.253  33.170  29.108  1.00  0.00     0.010 A 
ATOM     41  C   UNL A   1      35.751  31.680  30.278  1.00  0.00     0.010 A 
ATOM     42  C   UNL A   1      37.059  32.086  29.981  1.00  0.00    -0.014 A 
BRANCH  42  43
ATOM     43  C   UNL A   1      38.216  31.372  30.586  1.00  0.00     0.031 A 
ATOM     44  C   UNL A   1      38.639  31.669  32.001  1.00  0.00     0.074 A 
ATOM     45  C   UNL A   1      38.929  30.502  29.841  1.00  0.00     0.049 A 
ATOM     46  N   UNL A   1      39.620  31.148  32.694  1.00  0.00    -0.248 NA
ATOM     47  C   UNL A   1      37.883  32.704  32.726  1.00  0.00     0.031 C 
ATOM     48  C   UNL A   1      38.682  30.194  28.430  1.00  0.00     0.029 A 
ATOM     49  N   UNL A   1      40.017  29.728  30.163  1.00  0.00    -0.354 N 
ATOM     50  C   UNL A   1      39.620  31.813  33.914  1.00  0.00     0.074 A 
ATOM     51  C   UNL A   1      38.572  32.806  33.853  1.00  0.00     0.031 C 
ATOM     52  C   UNL A   1      39.577  29.283  28.015  1.00  0.00     0.029 A 
ATOM     53  C   UNL A   1      40.481  28.965  29.115  1.00  0.00     0.049 A 
ATOM     54  H   UNL A   1      40.426  29.719  31.058  1.00  0.00     0.167 HD
ATOM     55  C   UNL A   1      40.395  31.595  35.003  1.00  0.00     0.034 A 
ATOM     56  C   UNL A   1      41.517  28.107  29.048  1.00  0.00     0.034 A 
ATOM     57  C   UNL A   1      41.413  30.582  35.076  1.00  0.00     0.049 A 
ATOM     58  C   UNL A   1      42.339  27.854  30.283  1.00  0.00     0.074 A 
ATOM     59  C   UNL A   1      42.190  30.221  36.162  1.00  0.00     0.029 A 
ATOM     60  N   UNL A   1      41.806  29.777  34.019  1.00  0.00    -0.354 N 
ATOM     61  N   UNL A   1      42.211  28.372  31.481  1.00  0.00    -0.248 NA
ATOM     62  C   UNL A   1      43.422  26.867  30.169  1.00  0.00     0.031 C 
ATOM     63  C   UNL A   1      43.080  29.223  35.750  1.00  0.00     0.029 A 
ATOM     64  C   UNL A   1      42.826  28.932  34.419  1.00  0.00     0.049 A 
ATOM     65  H   UNL A   1      41.416  29.803  33.114  1.00  0.00     0.167 HD
ATOM     66  C   UNL A   1      43.173  27.751  32.270  1.00  0.00     0.074 A 
ATOM     67  C   UNL A   1      43.856  26.798  31.420  1.00  0.00     0.031 C 
ATOM     68  C   UNL A   1      43.471  27.960  33.576  1.00  0.00     0.034 A 
BRANCH  55  69
ATOM     69  C   UNL A   1      40.142  32.444  36.224  1.00  0.00     0.023 A 
ATOM     70  C   UNL A   1      40.926  33.594  36.452  1.00  0.00     0.012 A 
ATOM     71  C   UNL A   1      39.095  32.135  37.115  1.00  0.00     0.148 A 
ATOM     72  C   UNL A   1      40.700  34.399  37.567  1.00  0.00     0.002 A 
ATOM     73  C   UNL A   1      38.844  32.970  38.196  1.00  0.00     0.091 A 
ATOM     74  F   UNL A   1      38.373  31.028  36.894  1.00  0.00    -0.205 F 
ATOM     75  C   UNL A   1      39.654  34.094  38.433  1.00  0.00     0.022 A 
BRANCH  73  76
ATOM     76  S   UNL A   1      37.467  32.714  39.321  1.00  0.00     0.127 S 
ATOM     77  O   UNL A   1      37.653  33.810  40.270  1.00  0.00    -0.237 OA
ATOM     78  O   UNL A   1      36.314  32.866  38.432  1.00  0.00    -0.237 OA
ATOM     79  O   UNL A   1      37.639  31.377  39.872  1.00  0.00    -0.744 OA
ENDBRANCH  73  76
ENDBRANCH  55  69
BRANCH  56  80
ATOM     80  C   UNL A   1      41.803  27.376  27.779  1.00  0.00     0.023 A 
ATOM     81  C   UNL A   1      42.276  28.086  26.658  1.00  0.00     0.012 A 
ATOM     82  C   UNL A   1      41.622  25.983  27.683  1.00  0.00     0.148 A 
ATOM     83  C   UNL A   1      42.526  27.427  25.452  1.00  0.00     0.002 A 
ATOM     84  C   UNL A   1      41.928  25.325  26.498  1.00  0.00     0.091 A 
ATOM     85  F   UNL A   1      41.163  25.327  28.758  1.00  0.00    -0.205 F 
ATOM     86  C   UNL A   1      42.361  26.047  25.375  1.00  0.00     0.022 A 
BRANCH  84  87
ATOM     87  S   UNL A   1      41.871  23.537  26.346  1.00  0.00     0.127 S 
ATOM     88  O   UNL A   1      42.527  23.324  25.059  1.00  0.00    -0.237 OA
ATOM     89  O   UNL A   1      42.647  23.111  27.511  1.00  0.00    -0.237 OA
ATOM     90  O   UNL A   1      40.460  23.180  26.401  1.00  0.00    -0.744 OA
ENDBRANCH  84  87
ENDBRANCH  56  80
BRANCH  68  91
ATOM     91  C   UNL A   1      44.563  27.116  34.185  1.00  0.00     0.023 A 
ATOM     92  C   UNL A   1      45.868  27.631  34.310  1.00  0.00     0.012 A 
ATOM     93  C   UNL A   1      44.278  25.828  34.684  1.00  0.00     0.148 A 
ATOM     94  C   UNL A   1      46.882  26.864  34.882  1.00  0.00     0.002 A 
ATOM     95  C   UNL A   1      45.280  25.092  35.303  1.00  0.00     0.091 A 
ATOM     96  F   UNL A   1      43.035  25.347  34.542  1.00  0.00    -0.205 F 
ATOM     97  C   UNL A   1      46.586  25.600  35.388  1.00  0.00     0.022 A 
BRANCH  95  98
ATOM     98  S   UNL A   1      44.968  23.499  36.072  1.00  0.00     0.127 S 
ATOM     99  O   UNL A   1      46.180  22.758  35.724  1.00  0.00    -0.237 OA
ATOM    100  O   UNL A   1      44.857  23.855  37.487  1.00  0.00    -0.237 OA
ATOM    101  O   UNL A   1      43.737  22.999  35.476  1.00  0.00    -0.744 OA
ENDBRANCH  95  98
ENDBRANCH  68  91
ENDBRANCH  42  43
ENDBRANCH  34  37
ENDBRANCH  32  33
ENDBRANCH  31  32
ENDBRANCH  30  31
ENDBRANCH   1  30
TORSDOF 19
ENDMDL
MODEL 2
REMARK VINA RESULT:     -12.2      2.235      7.922
REMARK SMILES CC(C)(C)NS(=O)(=O)c1csc(C(=O)Nc2ccccc2C(=O)NCCCCNC(=O)c2ccc(-c3c4nc(c(-c5cccc(S(=O)(=O)[O-])c5F)c5ccc([nH]5)c(-c5cccc(S(=O)(=O)[O-])c5F)c5nc(c(-c6cccc(S(=O)(=O)[O-])c6F)c6ccc3[nH]6)C=C5)C=C4)cc2)c1
REMARK SMILES IDX 25 1 24 2 22 3 23 4 21 6 16 7 17 8 18 9 20 10 19 11 15 12
REMARK SMILES IDX 13 13 14 14 12 16 9 17 10 18 95 19 11 20 6 21 7 22 8 23 5 24
REMARK SMILES IDX 2 26 1 27 3 28 4 29 26 30 27 31 28 32 29 33 30 34 31 36
REMARK SMILES IDX 32 37 33 38 94 39 34 40 93 41 35 42 36 43 37 44 87 45 38 46
REMARK SMILES IDX 92 47 86 48 88 49 39 50 91 51 85 52 84 53 40 55 72 56 52 57
REMARK SMILES IDX 71 58 53 59 56 60 70 61 89 62 54 63 55 64 69 66 90 67 57 68
REMARK SMILES IDX 41 69 42 70 50 71 43 72 45 73 51 74 44 75 46 76 47 77 48 78
REMARK SMILES IDX 49 79 73 80 74 81 82 82 75 83 77 84 83 85 76 86 78 87 79 88
REMARK SMILES IDX 80 89 81 90 58 91 59 92 67 93 60 94 62 95 68 96 61 97 63 98
REMARK SMILES IDX 64 99 65 100 66 101
REMARK H PARENT 24 5 15 15 5 25 29 35 88 54 56 65
REMARK Flexibility Score: inf
ROOT
ATOM      1  C   UNL A   1      32.949  30.116  27.294  1.00  0.00     0.116 C 
ENDROOT
BRANCH   1   2
ATOM      2  N   UNL A   1      32.905  28.677  27.383  1.00  0.00    -0.352 N 
ATOM      3  C   UNL A   1      32.835  27.714  26.410  1.00  0.00     0.253 C 
ATOM      4  O   UNL A   1      32.669  26.557  26.803  1.00  0.00    -0.269 OA
ATOM      5  H   UNL A   1      32.930  28.324  28.303  1.00  0.00     0.163 HD
BRANCH   3   6
ATOM      6  C   UNL A   1      32.834  27.960  24.929  1.00  0.00     0.063 A 
ATOM      7  C   UNL A   1      31.860  27.636  23.966  1.00  0.00     0.054 A 
ATOM      8  C   UNL A   1      32.190  27.713  22.599  1.00  0.00     0.027 A 
ATOM      9  C   UNL A   1      33.380  28.301  22.175  1.00  0.00     0.002 A 
ATOM     10  C   UNL A   1      34.017  28.591  24.470  1.00  0.00     0.016 A 
ATOM     11  C   UNL A   1      34.273  28.789  23.113  1.00  0.00     0.001 A 
BRANCH   7  12
ATOM     12  N   UNL A   1      30.501  27.339  24.180  1.00  0.00    -0.321 N 
ATOM     13  C   UNL A   1      29.859  26.137  24.429  1.00  0.00     0.265 C 
ATOM     14  O   UNL A   1      28.626  26.183  24.439  1.00  0.00    -0.268 OA
ATOM     15  H   UNL A   1      29.903  28.120  24.148  1.00  0.00     0.170 HD
BRANCH  13  16
ATOM     16  C   UNL A   1      30.622  24.937  24.720  1.00  0.00     0.094 A 
ATOM     17  C   UNL A   1      32.020  23.083  24.548  1.00  0.00     0.093 A 
ATOM     18  C   UNL A   1      31.409  22.832  25.756  1.00  0.00     0.087 A 
ATOM     19  C   UNL A   1      31.683  24.368  24.044  1.00  0.00     0.047 A 
ATOM     20  S   UNL A   1      30.272  24.048  26.149  1.00  0.00    -0.137 S 
BRANCH  17  21
ATOM     21  S   UNL A   1      33.054  21.986  23.705  1.00  0.00     0.241 S 
ATOM     22  O   UNL A   1      33.276  22.579  22.413  1.00  0.00    -0.207 OA
ATOM     23  O   UNL A   1      32.386  20.705  23.844  1.00  0.00    -0.207 OA
BRANCH  21  24
ATOM     24  N   UNL A   1      34.488  21.832  24.552  1.00  0.00    -0.206 NA
ATOM     25  H   UNL A   1      34.208  21.668  25.520  1.00  0.00     0.141 HD
BRANCH  24  26
ATOM     26  C   UNL A   1      35.576  22.838  24.629  1.00  0.00     0.025 C 
ATOM     27  C   UNL A   1      36.601  22.518  25.715  1.00  0.00     0.028 C 
ATOM     28  C   UNL A   1      35.015  24.244  24.847  1.00  0.00     0.028 C 
ATOM     29  C   UNL A   1      36.289  22.810  23.261  1.00  0.00     0.028 C 
ENDBRANCH  24  26
ENDBRANCH  21  24
ENDBRANCH  17  21
ENDBRANCH  13  16
ENDBRANCH   7  12
ENDBRANCH   3   6
ENDBRANCH   1   2
BRANCH   1  30
ATOM     30  C   UNL A   1      31.713  30.744  26.666  1.00  0.00     0.023 C 
BRANCH  30  31
ATOM     31  C   UNL A   1      31.608  32.264  26.787  1.00  0.00     0.023 C 
BRANCH  31  32
ATOM     32  C   UNL A   1      32.809  32.982  27.400  1.00  0.00     0.116 C 
BRANCH  32  33
ATOM     33  N   UNL A   1      32.545  34.373  27.749  1.00  0.00    -0.352 N 
ATOM     34  C   UNL A   1      33.114  35.159  28.725  1.00  0.00     0.251 C 
ATOM     35  H   UNL A   1      31.855  34.817  27.205  1.00  0.00     0.163 HD
ATOM     36  O   UNL A   1      32.662  36.276  28.958  1.00  0.00    -0.269 OA
BRANCH  34  37
ATOM     37  C   UNL A   1      34.255  34.644  29.512  1.00  0.00     0.039 A 
ATOM     38  C   UNL A   1      34.023  34.115  30.784  1.00  0.00     0.014 A 
ATOM     39  C   UNL A   1      35.549  34.659  28.986  1.00  0.00     0.014 A 
ATOM     40  C   UNL A   1      35.077  33.532  31.492  1.00  0.00     0.010 A 
ATOM     41  C   UNL A   1      36.572  33.987  29.646  1.00  0.00     0.010 A 
ATOM     42  C   UNL A   1      36.354  33.425  30.912  1.00  0.00    -0.014 A 
BRANCH  42  43
ATOM     43  C   UNL A   1      37.461  32.729  31.620  1.00  0.00     0.031 A 
ATOM     44  C   UNL A   1      38.171  31.569  30.970  1.00  0.00     0.074 A 
ATOM     45  C   UNL A   1      37.788  33.097  32.876  1.00  0.00     0.049 A 
ATOM     46  N   UNL A   1      39.157  30.843  31.434  1.00  0.00    -0.248 NA
ATOM     47  C   UNL A   1      37.698  31.151  29.640  1.00  0.00     0.031 C 
ATOM     48  C   UNL A   1      37.118  34.142  33.654  1.00  0.00     0.029 A 
ATOM     49  N   UNL A   1      38.758  32.623  33.725  1.00  0.00    -0.354 N 
ATOM     50  C   UNL A   1      39.395  29.867  30.473  1.00  0.00     0.074 A 
ATOM     51  C   UNL A   1      38.423  30.064  29.422  1.00  0.00     0.031 C 
ATOM     52  C   UNL A   1      37.708  34.244  34.856  1.00  0.00     0.029 A 
ATOM     53  C   UNL A   1      38.776  33.253  34.949  1.00  0.00     0.049 A 
ATOM     54  H   UNL A   1      39.381  31.901  33.483  1.00  0.00     0.167 HD
ATOM     55  C   UNL A   1      40.357  28.914  30.447  1.00  0.00     0.034 A 
ATOM     56  C   UNL A   1      39.562  33.056  36.025  1.00  0.00     0.034 A 
ATOM     57  C   UNL A   1      41.347  28.743  31.476  1.00  0.00     0.049 A 
ATOM     58  C   UNL A   1      40.649  32.017  35.956  1.00  0.00     0.074 A 
ATOM     59  C   UNL A   1      42.419  27.868  31.501  1.00  0.00     0.029 A 
ATOM     60  N   UNL A   1      41.379  29.448  32.668  1.00  0.00    -0.354 N 
ATOM     61  N   UNL A   1      40.967  31.218  34.966  1.00  0.00    -0.248 NA
ATOM     62  C   UNL A   1      41.513  31.881  37.137  1.00  0.00     0.031 C 
ATOM     63  C   UNL A   1      43.077  28.018  32.726  1.00  0.00     0.029 A 
ATOM     64  C   UNL A   1      42.441  29.018  33.445  1.00  0.00     0.049 A 
ATOM     65  H   UNL A   1      40.740  30.152  32.925  1.00  0.00     0.167 HD
ATOM     66  C   UNL A   1      42.085  30.510  35.390  1.00  0.00     0.074 A 
ATOM     67  C   UNL A   1      42.407  30.996  36.716  1.00  0.00     0.031 C 
ATOM     68  C   UNL A   1      42.776  29.537  34.746  1.00  0.00     0.034 A 
BRANCH  55  69
ATOM     69  C   UNL A   1      40.413  28.009  29.243  1.00  0.00     0.023 A 
ATOM     70  C   UNL A   1      39.511  26.930  29.135  1.00  0.00     0.012 A 
ATOM     71  C   UNL A   1      41.320  28.256  28.193  1.00  0.00     0.148 A 
ATOM     72  C   UNL A   1      39.537  26.088  28.025  1.00  0.00     0.002 A 
ATOM     73  C   UNL A   1      41.307  27.444  27.066  1.00  0.00     0.091 A 
ATOM     74  F   UNL A   1      42.183  29.274  28.321  1.00  0.00    -0.205 F 
ATOM     75  C   UNL A   1      40.427  26.351  26.986  1.00  0.00     0.022 A 
BRANCH  73  76
ATOM     76  S   UNL A   1      42.351  27.749  25.638  1.00  0.00     0.127 S 
ATOM     77  O   UNL A   1      42.045  26.593  24.797  1.00  0.00    -0.237 OA
ATOM     78  O   UNL A   1      41.825  29.021  25.140  1.00  0.00    -0.237 OA
ATOM     79  O   UNL A   1      43.716  27.809  26.140  1.00  0.00    -0.744 OA
ENDBRANCH  73  76
ENDBRANCH  55  69
BRANCH  56  80
ATOM     80  C   UNL A   1      39.391  33.900  37.243  1.00  0.00     0.023 A 
ATOM     81  C   UNL A   1      39.874  35.223  37.248  1.00  0.00     0.012 A 
ATOM     82  C   UNL A   1      38.742  33.402  38.389  1.00  0.00     0.148 A 
ATOM     83  C   UNL A   1      39.748  36.022  38.386  1.00  0.00     0.002 A 
ATOM     84  C   UNL A   1      38.568  34.222  39.498  1.00  0.00     0.091 A 
ATOM     85  F   UNL A   1      38.297  32.137  38.368  1.00  0.00    -0.205 F 
ATOM     86  C   UNL A   1      39.088  35.526  39.506  1.00  0.00     0.022 A 
BRANCH  84  87
ATOM     87  S   UNL A   1      37.618  33.714  40.934  1.00  0.00     0.127 S 
ATOM     88  O   UNL A   1      36.449  33.093  40.316  1.00  0.00    -0.237 OA
ATOM     89  O   UNL A   1      38.537  32.782  41.588  1.00  0.00    -0.237 OA
ATOM     90  O   UNL A   1      37.360  34.932  41.689  1.00  0.00    -0.744 OA
ENDBRANCH  84  87
ENDBRANCH  56  80
BRANCH  68  91
ATOM     91  C   UNL A   1      43.976  28.954  35.448  1.00  0.00     0.023 A 
ATOM     92  C   UNL A   1      45.246  29.541  35.283  1.00  0.00     0.012 A 
ATOM     93  C   UNL A   1      43.832  27.853  36.317  1.00  0.00     0.148 A 
ATOM     94  C   UNL A   1      46.361  29.016  35.936  1.00  0.00     0.002 A 
ATOM     95  C   UNL A   1      44.936  27.371  37.008  1.00  0.00     0.091 A 
ATOM     96  F   UNL A   1      42.620  27.296  36.449  1.00  0.00    -0.205 F 
ATOM     97  C   UNL A   1      46.204  27.940  36.807  1.00  0.00     0.022 A 
BRANCH  95  98
ATOM     98  S   UNL A   1      44.812  26.054  38.223  1.00  0.00     0.127 S 
ATOM     99  O   UNL A   1      43.860  26.619  39.179  1.00  0.00    -0.237 OA
ATOM    100  O   UNL A   1      44.288  24.945  37.424  1.00  0.00    -0.237 OA
ATOM    101  O   UNL A   1      46.160  25.848  38.732  1.00  0.00    -0.744 OA
ENDBRANCH  95  98
ENDBRANCH  68  91
ENDBRANCH  42  43
ENDBRANCH  34  37
ENDBRANCH  32  33
ENDBRANCH  31  32
ENDBRANCH  30  31
ENDBRANCH   1  30
TORSDOF 19
ENDMDL
MODEL 3
REMARK VINA RESULT:     -12.1      1.572      7.596
REMARK SMILES CC(C)(C)NS(=O)(=O)c1csc(C(=O)Nc2ccccc2C(=O)NCCCCNC(=O)c2ccc(-c3c4nc(c(-c5cccc(S(=O)(=O)[O-])c5F)c5ccc([nH]5)c(-c5cccc(S(=O)(=O)[O-])c5F)c5nc(c(-c6cccc(S(=O)(=O)[O-])c6F)c6ccc3[nH]6)C=C5)C=C4)cc2)c1
REMARK SMILES IDX 25 1 24 2 22 3 23 4 21 6 16 7 17 8 18 9 20 10 19 11 15 12
REMARK SMILES IDX 13 13 14 14 12 16 9 17 10 18 95 19 11 20 6 21 7 22 8 23 5 24
REMARK SMILES IDX 2 26 1 27 3 28 4 29 26 30 27 31 28 32 29 33 30 34 31 36
REMARK SMILES IDX 32 37 33 38 94 39 34 40 93 41 35 42 36 43 37 44 87 45 38 46
REMARK SMILES IDX 92 47 86 48 88 49 39 50 91 51 85 52 84 53 40 55 72 56 52 57
REMARK SMILES IDX 71 58 53 59 56 60 70 61 89 62 54 63 55 64 69 66 90 67 57 68
REMARK SMILES IDX 41 69 42 70 50 71 43 72 45 73 51 74 44 75 46 76 47 77 48 78
REMARK SMILES IDX 49 79 73 80 74 81 82 82 75 83 77 84 83 85 76 86 78 87 79 88
REMARK SMILES IDX 80 89 81 90 58 91 59 92 67 93 60 94 62 95 68 96 61 97 63 98
REMARK SMILES IDX 64 99 65 100 66 101
REMARK H PARENT 24 5 15 15 5 25 29 35 88 54 56 65
REMARK Flexibility Score: inf
ROOT
ATOM      1  C   UNL A   1      32.408  29.211  26.420  1.00  0.00     0.116 C 
ENDROOT
BRANCH   1   2
ATOM      2  N   UNL A   1      33.377  28.568  25.565  1.00  0.00    -0.352 N 
ATOM      3  C   UNL A   1      33.352  27.356  24.926  1.00  0.00     0.253 C 
ATOM      4  O   UNL A   1      34.399  27.015  24.371  1.00  0.00    -0.269 OA
ATOM      5  H   UNL A   1      34.198  29.091  25.414  1.00  0.00     0.163 HD
BRANCH   3   6
ATOM      6  C   UNL A   1      32.212  26.380  24.938  1.00  0.00     0.063 A 
ATOM      7  C   UNL A   1      31.579  25.727  23.864  1.00  0.00     0.054 A 
ATOM      8  C   UNL A   1      30.354  25.067  24.084  1.00  0.00     0.027 A 
ATOM      9  C   UNL A   1      29.863  24.866  25.372  1.00  0.00     0.002 A 
ATOM     10  C   UNL A   1      31.712  26.126  26.239  1.00  0.00     0.016 A 
ATOM     11  C   UNL A   1      30.571  25.352  26.457  1.00  0.00     0.001 A 
BRANCH   7  12
ATOM     12  N   UNL A   1      32.073  25.531  22.560  1.00  0.00    -0.321 N 
ATOM     13  C   UNL A   1      33.031  24.660  22.070  1.00  0.00     0.265 C 
ATOM     14  O   UNL A   1      33.346  24.822  20.889  1.00  0.00    -0.268 OA
ATOM     15  H   UNL A   1      31.667  26.114  21.879  1.00  0.00     0.170 HD
BRANCH  13  16
ATOM     16  C   UNL A   1      33.561  23.596  22.905  1.00  0.00     0.094 A 
ATOM     17  C   UNL A   1      33.761  21.783  24.352  1.00  0.00     0.093 A 
ATOM     18  C   UNL A   1      35.064  22.227  24.315  1.00  0.00     0.087 A 
ATOM     19  C   UNL A   1      32.943  22.472  23.416  1.00  0.00     0.047 A 
ATOM     20  S   UNL A   1      35.228  23.609  23.321  1.00  0.00    -0.137 S 
BRANCH  17  21
ATOM     21  S   UNL A   1      33.153  20.561  25.410  1.00  0.00     0.241 S 
ATOM     22  O   UNL A   1      31.748  20.460  25.117  1.00  0.00    -0.207 OA
ATOM     23  O   UNL A   1      33.625  20.971  26.720  1.00  0.00    -0.207 OA
BRANCH  21  24
ATOM     24  N   UNL A   1      33.940  19.122  25.085  1.00  0.00    -0.206 NA
ATOM     25  H   UNL A   1      34.774  19.387  24.561  1.00  0.00     0.141 HD
BRANCH  24  26
ATOM     26  C   UNL A   1      33.379  17.957  24.357  1.00  0.00     0.025 C 
ATOM     27  C   UNL A   1      34.457  16.997  23.858  1.00  0.00     0.028 C 
ATOM     28  C   UNL A   1      32.504  18.406  23.186  1.00  0.00     0.028 C 
ATOM     29  C   UNL A   1      32.485  17.205  25.366  1.00  0.00     0.028 C 
ENDBRANCH  24  26
ENDBRANCH  21  24
ENDBRANCH  17  21
ENDBRANCH  13  16
ENDBRANCH   7  12
ENDBRANCH   3   6
ENDBRANCH   1   2
BRANCH   1  30
ATOM     30  C   UNL A   1      31.809  30.486  25.842  1.00  0.00     0.023 C 
BRANCH  30  31
ATOM     31  C   UNL A   1      31.572  31.619  26.840  1.00  0.00     0.023 C 
BRANCH  31  32
ATOM     32  C   UNL A   1      32.812  32.367  27.326  1.00  0.00     0.116 C 
BRANCH  32  33
ATOM     33  N   UNL A   1      32.578  33.782  27.589  1.00  0.00    -0.352 N 
ATOM     34  C   UNL A   1      33.154  34.611  28.524  1.00  0.00     0.251 C 
ATOM     35  H   UNL A   1      31.905  34.208  27.010  1.00  0.00     0.163 HD
ATOM     36  O   UNL A   1      32.726  35.750  28.684  1.00  0.00    -0.269 OA
BRANCH  34  37
ATOM     37  C   UNL A   1      34.273  34.116  29.355  1.00  0.00     0.039 A 
ATOM     38  C   UNL A   1      34.010  33.198  30.375  1.00  0.00     0.014 A 
ATOM     39  C   UNL A   1      35.582  34.539  29.113  1.00  0.00     0.014 A 
ATOM     40  C   UNL A   1      35.073  32.648  31.097  1.00  0.00     0.010 A 
ATOM     41  C   UNL A   1      36.641  33.913  29.761  1.00  0.00     0.010 A 
ATOM     42  C   UNL A   1      36.402  32.968  30.768  1.00  0.00    -0.014 A 
BRANCH  42  43
ATOM     43  C   UNL A   1      37.542  32.322  31.471  1.00  0.00     0.031 A 
ATOM     44  C   UNL A   1      38.297  31.191  30.821  1.00  0.00     0.074 A 
ATOM     45  C   UNL A   1      37.861  32.708  32.724  1.00  0.00     0.049 A 
ATOM     46  N   UNL A   1      39.315  30.509  31.281  1.00  0.00    -0.248 NA
ATOM     47  C   UNL A   1      37.834  30.749  29.495  1.00  0.00     0.031 C 
ATOM     48  C   UNL A   1      37.152  33.726  33.504  1.00  0.00     0.029 A 
ATOM     49  N   UNL A   1      38.855  32.279  33.569  1.00  0.00    -0.354 N 
ATOM     50  C   UNL A   1      39.589  29.541  30.322  1.00  0.00     0.074 A 
ATOM     51  C   UNL A   1      38.603  29.693  29.276  1.00  0.00     0.031 C 
ATOM     52  C   UNL A   1      37.745  33.857  34.701  1.00  0.00     0.029 A 
ATOM     53  C   UNL A   1      38.854  32.913  34.791  1.00  0.00     0.049 A 
ATOM     54  H   UNL A   1      39.506  31.583  33.325  1.00  0.00     0.167 HD
ATOM     55  C   UNL A   1      40.590  28.630  30.293  1.00  0.00     0.034 A 
ATOM     56  C   UNL A   1      39.654  32.753  35.862  1.00  0.00     0.034 A 
ATOM     57  C   UNL A   1      41.593  28.504  31.316  1.00  0.00     0.049 A 
ATOM     58  C   UNL A   1      40.784  31.761  35.789  1.00  0.00     0.074 A 
ATOM     59  C   UNL A   1      42.701  27.676  31.337  1.00  0.00     0.029 A 
ATOM     60  N   UNL A   1      41.602  29.215  32.506  1.00  0.00    -0.354 N 
ATOM     61  N   UNL A   1      41.129  30.973  34.801  1.00  0.00    -0.248 NA
ATOM     62  C   UNL A   1      41.660  31.666  36.965  1.00  0.00     0.031 C 
ATOM     63  C   UNL A   1      43.359  27.858  32.558  1.00  0.00     0.029 A 
ATOM     64  C   UNL A   1      42.686  28.833  33.277  1.00  0.00     0.049 A 
ATOM     65  H   UNL A   1      40.936  29.892  32.764  1.00  0.00     0.167 HD
ATOM     66  C   UNL A   1      42.279  30.314  35.219  1.00  0.00     0.074 A 
ATOM     67  C   UNL A   1      42.588  30.818  36.542  1.00  0.00     0.031 C 
ATOM     68  C   UNL A   1      43.007  29.369  34.574  1.00  0.00     0.034 A 
BRANCH  55  69
ATOM     69  C   UNL A   1      40.677  27.724  29.091  1.00  0.00     0.023 A 
ATOM     70  C   UNL A   1      39.813  26.614  28.986  1.00  0.00     0.012 A 
ATOM     71  C   UNL A   1      41.575  28.000  28.040  1.00  0.00     0.148 A 
ATOM     72  C   UNL A   1      39.868  25.771  27.878  1.00  0.00     0.002 A 
ATOM     73  C   UNL A   1      41.589  27.184  26.915  1.00  0.00     0.091 A 
ATOM     74  F   UNL A   1      42.402  29.047  28.164  1.00  0.00    -0.205 F 
ATOM     75  C   UNL A   1      40.747  26.061  26.838  1.00  0.00     0.022 A 
BRANCH  73  76
ATOM     76  S   UNL A   1      42.622  27.521  25.486  1.00  0.00     0.127 S 
ATOM     77  O   UNL A   1      42.043  28.769  24.991  1.00  0.00    -0.237 OA
ATOM     78  O   UNL A   1      43.946  27.661  26.092  1.00  0.00    -0.237 OA
ATOM     79  O   UNL A   1      42.475  26.374  24.602  1.00  0.00    -0.744 OA
ENDBRANCH  73  76
ENDBRANCH  55  69
BRANCH  56  80
ATOM     80  C   UNL A   1      39.455  33.593  37.079  1.00  0.00     0.023 A 
ATOM     81  C   UNL A   1      39.958  34.908  37.108  1.00  0.00     0.012 A 
ATOM     82  C   UNL A   1      38.759  33.099  38.199  1.00  0.00     0.148 A 
ATOM     83  C   UNL A   1      39.806  35.703  38.246  1.00  0.00     0.002 A 
ATOM     84  C   UNL A   1      38.560  33.916  39.306  1.00  0.00     0.091 A 
ATOM     85  F   UNL A   1      38.295  31.843  38.155  1.00  0.00    -0.205 F 
ATOM     86  C   UNL A   1      39.100  35.212  39.340  1.00  0.00     0.022 A 
BRANCH  84  87
ATOM     87  S   UNL A   1      37.553  33.415  40.706  1.00  0.00     0.127 S 
ATOM     88  O   UNL A   1      37.497  34.646  41.490  1.00  0.00    -0.237 OA
ATOM     89  O   UNL A   1      36.298  33.041  40.054  1.00  0.00    -0.237 OA
ATOM     90  O   UNL A   1      38.262  32.304  41.325  1.00  0.00    -0.744 OA
ENDBRANCH  84  87
ENDBRANCH  56  80
BRANCH  68  91
ATOM     91  C   UNL A   1      44.235  28.840  35.270  1.00  0.00     0.023 A 
ATOM     92  C   UNL A   1      45.446  29.558  35.211  1.00  0.00     0.012 A 
ATOM     93  C   UNL A   1      44.171  27.654  36.031  1.00  0.00     0.148 A 
ATOM     94  C   UNL A   1      46.585  29.082  35.861  1.00  0.00     0.002 A 
ATOM     95  C   UNL A   1      45.294  27.218  36.722  1.00  0.00     0.091 A 
ATOM     96  F   UNL A   1      43.015  26.976  36.063  1.00  0.00    -0.205 F 
ATOM     97  C   UNL A   1      46.506  27.920  36.625  1.00  0.00     0.022 A 
BRANCH  95  98
ATOM     98  S   UNL A   1      45.260  25.788  37.809  1.00  0.00     0.127 S 
ATOM     99  O   UNL A   1      44.239  26.177  38.781  1.00  0.00    -0.237 OA
ATOM    100  O   UNL A   1      44.857  24.716  36.897  1.00  0.00    -0.237 OA
ATOM    101  O   UNL A   1      46.609  25.654  38.339  1.00  0.00    -0.744 OA
ENDBRANCH  95  98
ENDBRANCH  68  91
ENDBRANCH  42  43
ENDBRANCH  34  37
ENDBRANCH  32  33
ENDBRANCH  31  32
ENDBRANCH  30  31
ENDBRANCH   1  30
TORSDOF 19
ENDMDL
