MODEL 1
REMARK VINA RESULT:     -12.3      0.000      0.000
REMARK SMILES Cc1cc(/C=C2/C(=O)NC(=S)[NH+]=C2NCCCCNC(=O)c2ccc(-c3c4nc(c(-c5cccc(S(=O)(=O)[O-])c5F)c5ccc([nH]5)c(-c5cccc(S(=O)(=O)[O-])c5F)c5nc(c(-c6cccc(S(=O)(=O)[O-])c6F)c6ccc3[nH]6)C=C5)C=C4)cc2)c(C)n1-c1cccc(C(=O)[O-])c1
REMARK SMILES IDX 17 1 16 2 15 3 14 4 5 5 6 6 7 7 13 8 8 9 9 10 12 11 10 12
REMARK SMILES IDX 11 16 4 17 1 18 2 19 3 20 87 21 85 22 86 23 88 24 89 25
REMARK SMILES IDX 96 26 90 27 92 28 91 29 93 30 94 31 95 32 18 33 19 34 20 35
REMARK SMILES IDX 21 37 22 38 23 39 84 40 24 41 83 42 25 43 26 44 27 45 77 46
REMARK SMILES IDX 28 47 82 48 76 49 78 50 29 51 81 52 75 53 74 54 30 56 62 57
REMARK SMILES IDX 42 58 61 59 43 60 46 61 60 62 79 63 44 64 45 65 59 67 80 68
REMARK SMILES IDX 47 69 31 70 32 71 40 72 33 73 35 74 41 75 34 76 36 77 37 78
REMARK SMILES IDX 38 79 39 80 63 81 64 82 72 83 65 84 67 85 73 86 66 87 68 88
REMARK SMILES IDX 69 89 70 90 71 91 48 92 49 93 57 94 50 95 52 96 58 97 51 98
REMARK SMILES IDX 53 99 54 100 55 101 56 102
REMARK H PARENT 9 13 12 14 14 15 19 36 78 55 46 66
REMARK Flexibility Score: inf
ROOT
ATOM      1  C   UNL A   1      47.196  31.043  28.173  1.00  0.00     0.024 C 
ENDROOT
BRANCH   1   2
ATOM      2  C   UNL A   1      46.083  29.703  28.161  1.00  0.00     0.039 C 
BRANCH   2   3
ATOM      3  C   UNL A   1      46.388  28.259  27.648  1.00  0.00     0.194 C 
BRANCH   3   4
ATOM      4  N   UNL A   1      47.244  28.088  26.491  1.00  0.00    -0.305 N 
ATOM      5  C   UNL A   1      47.463  24.893  27.123  1.00  0.00     0.032 C 
ATOM      6  C   UNL A   1      48.436  25.800  26.909  1.00  0.00     0.128 C 
ATOM      7  C   UNL A   1      49.801  25.244  27.027  1.00  0.00     0.319 C 
ATOM      8  C   UNL A   1      48.317  27.208  26.370  1.00  0.00     0.234 C 
ATOM      9  O   UNL A   1      50.101  24.277  27.720  1.00  0.00    -0.250 OA
ATOM     10  N   UNL A   1      50.710  25.873  26.232  1.00  0.00    -0.229 N 
ATOM     11  N   UNL A   1      49.323  27.713  25.696  1.00  0.00    -0.236 N 
ATOM     12  C   UNL A   1      50.487  27.017  25.515  1.00  0.00     0.295 C 
ATOM     13  H   UNL A   1      51.606  25.469  26.168  1.00  0.00     0.268 HD
ATOM     14  H   UNL A   1      49.237  28.615  25.310  1.00  0.00     0.268 HD
ATOM     15  H   UNL A   1      47.048  28.654  25.710  1.00  0.00     0.256 HD
ATOM     16  S   UNL A   1      51.727  27.529  24.507  1.00  0.00    -0.005 S 
BRANCH   5  17
ATOM     17  C   UNL A   1      46.092  25.099  26.867  1.00  0.00    -0.003 A 
ATOM     18  C   UNL A   1      43.098  26.101  24.986  1.00  0.00     0.065 C 
ATOM     19  C   UNL A   1      44.149  25.473  25.829  1.00  0.00     0.020 A 
ATOM     20  C   UNL A   1      45.506  25.760  25.779  1.00  0.00     0.031 A 
ATOM     21  N   UNL A   1      44.012  24.497  26.826  1.00  0.00    -0.318 N 
ATOM     22  C   UNL A   1      45.064  24.717  27.704  1.00  0.00     0.027 A 
ATOM     23  C   UNL A   1      45.095  24.381  29.152  1.00  0.00     0.065 C 
BRANCH  21  24
ATOM     24  C   UNL A   1      43.232  23.300  26.810  1.00  0.00     0.046 A 
ATOM     25  C   UNL A   1      41.619  23.207  27.652  1.00  0.00     0.026 A 
ATOM     26  C   UNL A   1      43.835  21.831  25.937  1.00  0.00     0.036 A 
ATOM     27  C   UNL A   1      40.649  21.658  27.626  1.00  0.00     0.003 A 
ATOM     28  C   UNL A   1      42.885  20.312  25.926  1.00  0.00    -0.001 A 
ATOM     29  C   UNL A   1      41.279  20.244  26.733  1.00  0.00     0.010 A 
BRANCH  28  30
ATOM     30  C   UNL A   1      43.488  19.045  25.475  1.00  0.00     0.072 C 
ATOM     31  O   UNL A   1      43.790  18.097  26.172  1.00  0.00    -0.545 OA
ATOM     32  O   UNL A   1      43.817  19.102  24.172  1.00  0.00    -0.545 OA
ENDBRANCH  28  30
ENDBRANCH  21  24
ENDBRANCH   5  17
ENDBRANCH   3   4
ENDBRANCH   2   3
ENDBRANCH   1   2
BRANCH   1  33
ATOM     33  C   UNL A   1      47.492  32.880  27.009  1.00  0.00     0.116 C 
BRANCH  33  34
ATOM     34  N   UNL A   1      46.634  33.814  26.117  1.00  0.00    -0.352 N 
ATOM     35  C   UNL A   1      45.848  34.841  26.702  1.00  0.00     0.251 C 
ATOM     36  H   UNL A   1      46.634  33.695  25.140  1.00  0.00     0.163 HD
ATOM     37  O   UNL A   1      45.729  35.896  26.086  1.00  0.00    -0.269 OA
BRANCH  35  38
ATOM     38  C   UNL A   1      45.169  34.593  28.045  1.00  0.00     0.039 A 
ATOM     39  C   UNL A   1      44.663  33.319  28.292  1.00  0.00     0.014 A 
ATOM     40  C   UNL A   1      45.021  35.543  29.069  1.00  0.00     0.014 A 
ATOM     41  C   UNL A   1      44.060  32.988  29.534  1.00  0.00     0.010 A 
ATOM     42  C   UNL A   1      44.329  35.227  30.302  1.00  0.00     0.010 A 
ATOM     43  C   UNL A   1      43.781  33.948  30.560  1.00  0.00    -0.014 A 
BRANCH  43  44
ATOM     44  C   UNL A   1      42.387  33.732  31.266  1.00  0.00     0.031 A 
ATOM     45  C   UNL A   1      42.795  33.127  32.568  1.00  0.00     0.074 A 
ATOM     46  C   UNL A   1      41.023  33.851  31.065  1.00  0.00     0.049 A 
ATOM     47  N   UNL A   1      43.641  32.132  32.601  1.00  0.00    -0.248 NA
ATOM     48  C   UNL A   1      42.635  33.817  33.848  1.00  0.00     0.031 C 
ATOM     49  C   UNL A   1      40.306  34.259  29.847  1.00  0.00     0.029 A 
ATOM     50  N   UNL A   1      39.923  33.633  31.941  1.00  0.00    -0.354 N 
ATOM     51  C   UNL A   1      43.769  31.808  33.913  1.00  0.00     0.074 A 
ATOM     52  C   UNL A   1      43.399  33.030  34.613  1.00  0.00     0.031 C 
ATOM     53  C   UNL A   1      38.965  34.376  30.075  1.00  0.00     0.029 A 
ATOM     54  C   UNL A   1      38.631  34.007  31.448  1.00  0.00     0.049 A 
ATOM     55  H   UNL A   1      40.044  33.246  32.839  1.00  0.00     0.167 HD
ATOM     56  C   UNL A   1      43.478  30.514  34.229  1.00  0.00     0.034 A 
ATOM     57  C   UNL A   1      37.386  33.955  32.057  1.00  0.00     0.034 A 
ATOM     58  C   UNL A   1      42.308  30.398  35.048  1.00  0.00     0.049 A 
ATOM     59  C   UNL A   1      37.500  32.990  33.163  1.00  0.00     0.074 A 
ATOM     60  C   UNL A   1      41.828  31.095  36.141  1.00  0.00     0.029 A 
ATOM     61  N   UNL A   1      41.226  29.769  34.473  1.00  0.00    -0.354 N 
ATOM     62  N   UNL A   1      37.450  31.709  32.948  1.00  0.00    -0.248 NA
ATOM     63  C   UNL A   1      37.524  33.391  34.564  1.00  0.00     0.031 C 
ATOM     64  C   UNL A   1      40.441  31.254  35.902  1.00  0.00     0.029 A 
ATOM     65  C   UNL A   1      40.068  30.422  34.856  1.00  0.00     0.049 A 
ATOM     66  H   UNL A   1      41.269  28.982  33.884  1.00  0.00     0.167 HD
ATOM     67  C   UNL A   1      37.924  31.177  34.108  1.00  0.00     0.074 A 
ATOM     68  C   UNL A   1      37.693  32.189  35.119  1.00  0.00     0.031 C 
ATOM     69  C   UNL A   1      38.908  30.253  34.013  1.00  0.00     0.034 A 
BRANCH  56  70
ATOM     70  C   UNL A   1      43.937  29.479  33.221  1.00  0.00     0.023 A 
ATOM     71  C   UNL A   1      42.952  28.911  32.398  1.00  0.00     0.012 A 
ATOM     72  C   UNL A   1      45.255  28.947  33.172  1.00  0.00     0.148 A 
ATOM     73  C   UNL A   1      43.250  27.809  31.591  1.00  0.00     0.002 A 
ATOM     74  C   UNL A   1      45.516  27.785  32.451  1.00  0.00     0.091 A 
ATOM     75  F   UNL A   1      46.238  29.585  33.826  1.00  0.00    -0.205 F 
ATOM     76  C   UNL A   1      44.516  27.224  31.645  1.00  0.00     0.022 A 
BRANCH  74  77
ATOM     77  S   UNL A   1      47.035  26.834  32.649  1.00  0.00     0.127 S 
ATOM     78  O   UNL A   1      46.750  25.626  31.866  1.00  0.00    -0.237 OA
ATOM     79  O   UNL A   1      48.046  27.704  32.058  1.00  0.00    -0.237 OA
ATOM     80  O   UNL A   1      47.187  26.582  34.076  1.00  0.00    -0.744 OA
ENDBRANCH  74  77
ENDBRANCH  56  70
BRANCH  57  81
ATOM     81  C   UNL A   1      35.892  34.330  31.911  1.00  0.00     0.023 A 
ATOM     82  C   UNL A   1      35.310  35.115  32.963  1.00  0.00     0.012 A 
ATOM     83  C   UNL A   1      35.204  34.377  30.677  1.00  0.00     0.148 A 
ATOM     84  C   UNL A   1      34.224  35.985  32.781  1.00  0.00     0.002 A 
ATOM     85  C   UNL A   1      34.075  35.219  30.512  1.00  0.00     0.091 A 
ATOM     86  F   UNL A   1      35.713  33.698  29.640  1.00  0.00    -0.205 F 
ATOM     87  C   UNL A   1      33.612  36.046  31.548  1.00  0.00     0.022 A 
BRANCH  85  88
ATOM     88  S   UNL A   1      33.162  35.381  28.961  1.00  0.00     0.127 S 
ATOM     89  O   UNL A   1      34.227  35.650  27.992  1.00  0.00    -0.237 OA
ATOM     90  O   UNL A   1      32.548  34.061  28.830  1.00  0.00    -0.237 OA
ATOM     91  O   UNL A   1      32.244  36.491  29.170  1.00  0.00    -0.744 OA
ENDBRANCH  85  88
ENDBRANCH  57  81
BRANCH  69  92
ATOM     92  C   UNL A   1      38.860  29.278  32.850  1.00  0.00     0.023 A 
ATOM     93  C   UNL A   1      38.230  28.013  32.872  1.00  0.00     0.012 A 
ATOM     94  C   UNL A   1      39.473  29.677  31.650  1.00  0.00     0.148 A 
ATOM     95  C   UNL A   1      38.242  27.170  31.754  1.00  0.00     0.002 A 
ATOM     96  C   UNL A   1      39.432  28.865  30.521  1.00  0.00     0.091 A 
ATOM     97  F   UNL A   1      40.100  30.863  31.629  1.00  0.00    -0.205 F 
ATOM     98  C   UNL A   1      38.827  27.604  30.569  1.00  0.00     0.022 A 
BRANCH  96  99
ATOM     99  S   UNL A   1      40.116  29.457  28.974  1.00  0.00     0.127 S 
ATOM    100  O   UNL A   1      39.185  30.527  28.620  1.00  0.00    -0.237 OA
ATOM    101  O   UNL A   1      41.454  29.913  29.343  1.00  0.00    -0.237 OA
ATOM    102  O   UNL A   1      40.103  28.294  28.091  1.00  0.00    -0.744 OA
ENDBRANCH  96  99
ENDBRANCH  69  92
ENDBRANCH  43  44
ENDBRANCH  35  38
ENDBRANCH  33  34
ENDBRANCH   1  33
TORSDOF 16
ENDMDL
MODEL 2
REMARK VINA RESULT:     -12.2      4.179      7.585
REMARK SMILES Cc1cc(/C=C2/C(=O)NC(=S)[NH+]=C2NCCCCNC(=O)c2ccc(-c3c4nc(c(-c5cccc(S(=O)(=O)[O-])c5F)c5ccc([nH]5)c(-c5cccc(S(=O)(=O)[O-])c5F)c5nc(c(-c6cccc(S(=O)(=O)[O-])c6F)c6ccc3[nH]6)C=C5)C=C4)cc2)c(C)n1-c1cccc(C(=O)[O-])c1
REMARK SMILES IDX 17 1 16 2 15 3 14 4 5 5 6 6 7 7 13 8 8 9 9 10 12 11 10 12
REMARK SMILES IDX 11 16 4 17 1 18 2 19 3 20 87 21 85 22 86 23 88 24 89 25
REMARK SMILES IDX 96 26 90 27 92 28 91 29 93 30 94 31 95 32 18 33 19 34 20 35
REMARK SMILES IDX 21 37 22 38 23 39 84 40 24 41 83 42 25 43 26 44 27 45 77 46
REMARK SMILES IDX 28 47 82 48 76 49 78 50 29 51 81 52 75 53 74 54 30 56 62 57
REMARK SMILES IDX 42 58 61 59 43 60 46 61 60 62 79 63 44 64 45 65 59 67 80 68
REMARK SMILES IDX 47 69 31 70 32 71 40 72 33 73 35 74 41 75 34 76 36 77 37 78
REMARK SMILES IDX 38 79 39 80 63 81 64 82 72 83 65 84 67 85 73 86 66 87 68 88
REMARK SMILES IDX 69 89 70 90 71 91 48 92 49 93 57 94 50 95 52 96 58 97 51 98
REMARK SMILES IDX 53 99 54 100 55 101 56 102
REMARK H PARENT 9 13 12 14 14 15 19 36 78 55 46 66
REMARK Flexibility Score: inf
ROOT
ATOM      1  C   UNL A   1      43.782  23.234  32.161  1.00  0.00     0.024 C 
ENDROOT
BRANCH   1   2
ATOM      2  C   UNL A   1      44.713  23.817  30.810  1.00  0.00     0.039 C 
BRANCH   2   3
ATOM      3  C   UNL A   1      44.193  24.010  29.349  1.00  0.00     0.194 C 
BRANCH   3   4
ATOM      4  N   UNL A   1      44.411  25.279  28.685  1.00  0.00    -0.305 N 
ATOM      5  C   UNL A   1      43.734  23.893  25.808  1.00  0.00     0.032 C 
ATOM      6  C   UNL A   1      44.795  24.635  26.181  1.00  0.00     0.128 C 
ATOM      7  C   UNL A   1      45.811  24.794  25.119  1.00  0.00     0.319 C 
ATOM      8  C   UNL A   1      44.972  25.477  27.425  1.00  0.00     0.234 C 
ATOM      9  O   UNL A   1      46.002  23.989  24.213  1.00  0.00    -0.250 OA
ATOM     10  N   UNL A   1      46.493  25.969  25.196  1.00  0.00    -0.229 N 
ATOM     11  N   UNL A   1      45.741  26.539  27.366  1.00  0.00    -0.236 N 
ATOM     12  C   UNL A   1      46.420  26.869  26.224  1.00  0.00     0.295 C 
ATOM     13  H   UNL A   1      47.091  26.191  24.446  1.00  0.00     0.268 HD
ATOM     14  H   UNL A   1      45.830  27.112  28.161  1.00  0.00     0.268 HD
ATOM     15  H   UNL A   1      44.134  26.087  29.176  1.00  0.00     0.256 HD
ATOM     16  S   UNL A   1      47.261  28.309  26.029  1.00  0.00    -0.005 S 
BRANCH   5  17
ATOM     17  C   UNL A   1      42.537  23.763  26.542  1.00  0.00    -0.003 A 
ATOM     18  C   UNL A   1      39.451  24.828  28.229  1.00  0.00     0.065 C 
ATOM     19  C   UNL A   1      40.541  24.176  27.457  1.00  0.00     0.020 A 
ATOM     20  C   UNL A   1      41.724  24.782  27.056  1.00  0.00     0.031 A 
ATOM     21  N   UNL A   1      40.621  22.857  26.986  1.00  0.00    -0.318 N 
ATOM     22  C   UNL A   1      41.976  22.566  26.935  1.00  0.00     0.027 A 
ATOM     23  C   UNL A   1      42.598  21.220  27.053  1.00  0.00     0.065 C 
BRANCH  21  24
ATOM     24  C   UNL A   1      39.618  22.074  26.337  1.00  0.00     0.046 A 
ATOM     25  C   UNL A   1      39.781  20.266  26.179  1.00  0.00     0.026 A 
ATOM     26  C   UNL A   1      38.141  22.870  25.653  1.00  0.00     0.036 A 
ATOM     27  C   UNL A   1      38.488  19.290  25.331  1.00  0.00     0.003 A 
ATOM     28  C   UNL A   1      36.883  21.909  24.812  1.00  0.00    -0.001 A 
ATOM     29  C   UNL A   1      37.041  20.121  24.692  1.00  0.00     0.010 A 
BRANCH  28  30
ATOM     30  C   UNL A   1      35.837  22.568  24.009  1.00  0.00     0.072 C 
ATOM     31  O   UNL A   1      34.657  22.651  24.284  1.00  0.00    -0.545 OA
ATOM     32  O   UNL A   1      36.319  22.961  22.817  1.00  0.00    -0.545 OA
ENDBRANCH  28  30
ENDBRANCH  21  24
ENDBRANCH   5  17
ENDBRANCH   3   4
ENDBRANCH   2   3
ENDBRANCH   1   2
BRANCH   1  33
ATOM     33  C   UNL A   1      44.149  22.796  34.280  1.00  0.00     0.116 C 
BRANCH  33  34
ATOM     34  N   UNL A   1      44.865  23.476  35.477  1.00  0.00    -0.352 N 
ATOM     35  C   UNL A   1      44.204  24.480  36.231  1.00  0.00     0.251 C 
ATOM     36  H   UNL A   1      45.782  23.209  35.714  1.00  0.00     0.163 HD
ATOM     37  O   UNL A   1      44.426  24.532  37.438  1.00  0.00    -0.269 OA
BRANCH  35  38
ATOM     38  C   UNL A   1      43.273  25.459  35.524  1.00  0.00     0.039 A 
ATOM     39  C   UNL A   1      43.844  26.391  34.660  1.00  0.00     0.014 A 
ATOM     40  C   UNL A   1      41.876  25.495  35.658  1.00  0.00     0.014 A 
ATOM     41  C   UNL A   1      43.048  27.307  33.924  1.00  0.00     0.010 A 
ATOM     42  C   UNL A   1      41.073  26.486  34.972  1.00  0.00     0.010 A 
ATOM     43  C   UNL A   1      41.637  27.460  34.115  1.00  0.00    -0.014 A 
BRANCH  43  44
ATOM     44  C   UNL A   1      41.153  28.960  34.075  1.00  0.00     0.031 A 
ATOM     45  C   UNL A   1      40.165  28.933  32.957  1.00  0.00     0.074 A 
ATOM     46  C   UNL A   1      41.372  30.202  34.647  1.00  0.00     0.049 A 
ATOM     47  N   UNL A   1      40.468  28.375  31.816  1.00  0.00    -0.248 NA
ATOM     48  C   UNL A   1      38.729  29.128  33.163  1.00  0.00     0.031 C 
ATOM     49  C   UNL A   1      42.377  30.586  35.650  1.00  0.00     0.029 A 
ATOM     50  N   UNL A   1      40.715  31.450  34.461  1.00  0.00    -0.354 N 
ATOM     51  C   UNL A   1      39.379  28.548  31.025  1.00  0.00     0.074 A 
ATOM     52  C   UNL A   1      38.285  28.716  31.970  1.00  0.00     0.031 C 
ATOM     53  C   UNL A   1      42.201  31.876  36.062  1.00  0.00     0.029 A 
ATOM     54  C   UNL A   1      41.100  32.511  35.342  1.00  0.00     0.049 A 
ATOM     55  H   UNL A   1      40.031  31.577  33.764  1.00  0.00     0.167 HD
ATOM     56  C   UNL A   1      39.606  29.195  29.847  1.00  0.00     0.034 A 
ATOM     57  C   UNL A   1      40.633  33.813  35.441  1.00  0.00     0.034 A 
ATOM     58  C   UNL A   1      38.966  30.476  29.792  1.00  0.00     0.049 A 
ATOM     59  C   UNL A   1      39.982  34.124  34.157  1.00  0.00     0.074 A 
ATOM     60  C   UNL A   1      37.719  30.943  30.162  1.00  0.00     0.029 A 
ATOM     61  N   UNL A   1      39.802  31.570  29.750  1.00  0.00    -0.354 N 
ATOM     62  N   UNL A   1      40.678  34.450  33.109  1.00  0.00    -0.248 NA
ATOM     63  C   UNL A   1      38.536  34.233  34.009  1.00  0.00     0.031 C 
ATOM     64  C   UNL A   1      37.959  32.190  30.790  1.00  0.00     0.029 A 
ATOM     65  C   UNL A   1      39.265  32.579  30.530  1.00  0.00     0.049 A 
ATOM     66  H   UNL A   1      40.646  31.625  29.247  1.00  0.00     0.167 HD
ATOM     67  C   UNL A   1      39.788  34.319  32.088  1.00  0.00     0.074 A 
ATOM     68  C   UNL A   1      38.480  34.457  32.695  1.00  0.00     0.031 C 
ATOM     69  C   UNL A   1      40.175  33.590  31.015  1.00  0.00     0.034 A 
BRANCH  56  70
ATOM     70  C   UNL A   1      40.907  28.846  29.151  1.00  0.00     0.023 A 
ATOM     71  C   UNL A   1      42.096  29.179  29.818  1.00  0.00     0.012 A 
ATOM     72  C   UNL A   1      40.989  28.354  27.820  1.00  0.00     0.148 A 
ATOM     73  C   UNL A   1      43.328  29.083  29.165  1.00  0.00     0.002 A 
ATOM     74  C   UNL A   1      42.205  28.364  27.142  1.00  0.00     0.091 A 
ATOM     75  F   UNL A   1      39.880  27.877  27.233  1.00  0.00    -0.205 F 
ATOM     76  C   UNL A   1      43.380  28.714  27.821  1.00  0.00     0.022 A 
BRANCH  74  77
ATOM     77  S   UNL A   1      42.329  28.138  25.357  1.00  0.00     0.127 S 
ATOM     78  O   UNL A   1      43.762  27.882  25.175  1.00  0.00    -0.237 OA
ATOM     79  O   UNL A   1      41.479  26.977  25.114  1.00  0.00    -0.237 OA
ATOM     80  O   UNL A   1      41.876  29.380  24.745  1.00  0.00    -0.744 OA
ENDBRANCH  74  77
ENDBRANCH  56  70
BRANCH  57  81
ATOM     81  C   UNL A   1      40.711  35.125  36.259  1.00  0.00     0.023 A 
ATOM     82  C   UNL A   1      39.597  35.429  37.112  1.00  0.00     0.012 A 
ATOM     83  C   UNL A   1      41.917  35.781  36.591  1.00  0.00     0.148 A 
ATOM     84  C   UNL A   1      39.693  36.201  38.280  1.00  0.00     0.002 A 
ATOM     85  C   UNL A   1      41.997  36.603  37.744  1.00  0.00     0.091 A 
ATOM     86  F   UNL A   1      43.007  35.514  35.859  1.00  0.00    -0.205 F 
ATOM     87  C   UNL A   1      40.901  36.781  38.604  1.00  0.00     0.022 A 
BRANCH  85  88
ATOM     88  S   UNL A   1      43.507  37.441  38.275  1.00  0.00     0.127 S 
ATOM     89  O   UNL A   1      44.419  36.324  38.532  1.00  0.00    -0.237 OA
ATOM     90  O   UNL A   1      43.844  38.236  37.096  1.00  0.00    -0.237 OA
ATOM     91  O   UNL A   1      43.131  38.194  39.463  1.00  0.00    -0.744 OA
ENDBRANCH  85  88
ENDBRANCH  57  81
BRANCH  69  92
ATOM     92  C   UNL A   1      41.626  33.684  30.575  1.00  0.00     0.023 A 
ATOM     93  C   UNL A   1      42.683  32.892  31.078  1.00  0.00     0.012 A 
ATOM     94  C   UNL A   1      41.935  34.619  29.574  1.00  0.00     0.148 A 
ATOM     95  C   UNL A   1      43.997  33.052  30.623  1.00  0.00     0.002 A 
ATOM     96  C   UNL A   1      43.230  34.736  29.079  1.00  0.00     0.091 A 
ATOM     97  F   UNL A   1      40.944  35.397  29.112  1.00  0.00    -0.205 F 
ATOM     98  C   UNL A   1      44.270  33.962  29.608  1.00  0.00     0.022 A 
BRANCH  96  99
ATOM     99  S   UNL A   1      43.565  35.851  27.717  1.00  0.00     0.127 S 
ATOM    100  O   UNL A   1      42.613  35.392  26.708  1.00  0.00    -0.237 OA
ATOM    101  O   UNL A   1      43.273  37.170  28.273  1.00  0.00    -0.237 OA
ATOM    102  O   UNL A   1      44.974  35.636  27.396  1.00  0.00    -0.744 OA
ENDBRANCH  96  99
ENDBRANCH  69  92
ENDBRANCH  43  44
ENDBRANCH  35  38
ENDBRANCH  33  34
ENDBRANCH   1  33
TORSDOF 16
ENDMDL
MODEL 3
REMARK VINA RESULT:     -12.0      5.992     11.611
REMARK SMILES Cc1cc(/C=C2/C(=O)NC(=S)[NH+]=C2NCCCCNC(=O)c2ccc(-c3c4nc(c(-c5cccc(S(=O)(=O)[O-])c5F)c5ccc([nH]5)c(-c5cccc(S(=O)(=O)[O-])c5F)c5nc(c(-c6cccc(S(=O)(=O)[O-])c6F)c6ccc3[nH]6)C=C5)C=C4)cc2)c(C)n1-c1cccc(C(=O)[O-])c1
REMARK SMILES IDX 17 1 16 2 15 3 14 4 5 5 6 6 7 7 13 8 8 9 9 10 12 11 10 12
REMARK SMILES IDX 11 16 4 17 1 18 2 19 3 20 87 21 85 22 86 23 88 24 89 25
REMARK SMILES IDX 96 26 90 27 92 28 91 29 93 30 94 31 95 32 18 33 19 34 20 35
REMARK SMILES IDX 21 37 22 38 23 39 84 40 24 41 83 42 25 43 26 44 27 45 77 46
REMARK SMILES IDX 28 47 82 48 76 49 78 50 29 51 81 52 75 53 74 54 30 56 62 57
REMARK SMILES IDX 42 58 61 59 43 60 46 61 60 62 79 63 44 64 45 65 59 67 80 68
REMARK SMILES IDX 47 69 31 70 32 71 40 72 33 73 35 74 41 75 34 76 36 77 37 78
REMARK SMILES IDX 38 79 39 80 63 81 64 82 72 83 65 84 67 85 73 86 66 87 68 88
REMARK SMILES IDX 69 89 70 90 71 91 48 92 49 93 57 94 50 95 52 96 58 97 51 98
REMARK SMILES IDX 53 99 54 100 55 101 56 102
REMARK H PARENT 9 13 12 14 14 15 19 36 78 55 46 66
REMARK Flexibility Score: inf
ROOT
ATOM      1  C   UNL A   1      32.728  29.158  26.199  1.00  0.00     0.024 C 
ENDROOT
BRANCH   1   2
ATOM      2  C   UNL A   1      31.912  27.702  26.697  1.00  0.00     0.039 C 
BRANCH   2   3
ATOM      3  C   UNL A   1      32.588  26.327  27.005  1.00  0.00     0.194 C 
BRANCH   3   4
ATOM      4  N   UNL A   1      33.596  25.818  26.096  1.00  0.00    -0.305 N 
ATOM      5  C   UNL A   1      32.295  22.833  26.325  1.00  0.00     0.032 C 
ATOM      6  C   UNL A   1      33.570  23.235  26.493  1.00  0.00     0.128 C 
ATOM      7  C   UNL A   1      34.490  22.144  26.881  1.00  0.00     0.319 C 
ATOM      8  C   UNL A   1      34.199  24.564  26.137  1.00  0.00     0.234 C 
ATOM      9  O   UNL A   1      34.152  21.135  27.491  1.00  0.00    -0.250 OA
ATOM     10  N   UNL A   1      35.764  22.330  26.440  1.00  0.00    -0.229 N 
ATOM     11  N   UNL A   1      35.472  24.595  25.818  1.00  0.00    -0.236 N 
ATOM     12  C   UNL A   1      36.247  23.467  25.851  1.00  0.00     0.295 C 
ATOM     13  H   UNL A   1      36.392  21.581  26.555  1.00  0.00     0.268 HD
ATOM     14  H   UNL A   1      35.879  25.450  25.549  1.00  0.00     0.268 HD
ATOM     15  H   UNL A   1      33.884  26.423  25.374  1.00  0.00     0.256 HD
ATOM     16  S   UNL A   1      37.822  23.408  25.275  1.00  0.00    -0.005 S 
BRANCH   5  17
ATOM     17  C   UNL A   1      31.268  23.612  25.755  1.00  0.00    -0.003 A 
ATOM     18  C   UNL A   1      28.280  25.750  25.654  1.00  0.00     0.065 C 
ATOM     19  C   UNL A   1      29.586  25.059  25.490  1.00  0.00     0.020 A 
ATOM     20  C   UNL A   1      30.151  24.169  26.392  1.00  0.00     0.031 A 
ATOM     21  N   UNL A   1      30.499  25.141  24.428  1.00  0.00    -0.318 N 
ATOM     22  C   UNL A   1      31.159  23.921  24.415  1.00  0.00     0.027 A 
ATOM     23  C   UNL A   1      31.785  23.264  23.237  1.00  0.00     0.065 C 
BRANCH  21  24
ATOM     24  C   UNL A   1      30.960  26.297  23.728  1.00  0.00     0.046 A 
ATOM     25  C   UNL A   1      32.716  26.504  23.289  1.00  0.00     0.026 A 
ATOM     26  C   UNL A   1      29.794  27.600  23.250  1.00  0.00     0.036 A 
ATOM     27  C   UNL A   1      33.282  28.001  22.406  1.00  0.00     0.003 A 
ATOM     28  C   UNL A   1      30.356  29.071  22.394  1.00  0.00    -0.001 A 
ATOM     29  C   UNL A   1      32.087  29.246  21.939  1.00  0.00     0.010 A 
BRANCH  28  30
ATOM     30  C   UNL A   1      29.482  30.250  22.261  1.00  0.00     0.072 C 
ATOM     31  O   UNL A   1      29.079  30.959  23.161  1.00  0.00    -0.545 OA
ATOM     32  O   UNL A   1      29.039  30.384  20.998  1.00  0.00    -0.545 OA
ENDBRANCH  28  30
ENDBRANCH  21  24
ENDBRANCH   5  17
ENDBRANCH   3   4
ENDBRANCH   2   3
ENDBRANCH   1   2
BRANCH   1  33
ATOM     33  C   UNL A   1      33.654  30.884  27.187  1.00  0.00     0.116 C 
BRANCH  33  34
ATOM     34  N   UNL A   1      33.192  32.085  28.053  1.00  0.00    -0.352 N 
ATOM     35  C   UNL A   1      34.146  32.941  28.661  1.00  0.00     0.251 C 
ATOM     36  H   UNL A   1      32.230  32.254  28.182  1.00  0.00     0.163 HD
ATOM     37  O   UNL A   1      33.873  34.135  28.751  1.00  0.00    -0.269 OA
BRANCH  35  38
ATOM     38  C   UNL A   1      35.449  32.354  29.193  1.00  0.00     0.039 A 
ATOM     39  C   UNL A   1      36.635  32.727  28.567  1.00  0.00     0.014 A 
ATOM     40  C   UNL A   1      35.559  31.470  30.280  1.00  0.00     0.014 A 
ATOM     41  C   UNL A   1      37.896  32.266  29.028  1.00  0.00     0.010 A 
ATOM     42  C   UNL A   1      36.838  30.933  30.695  1.00  0.00     0.010 A 
ATOM     43  C   UNL A   1      38.051  31.277  30.052  1.00  0.00    -0.014 A 
BRANCH  43  44
ATOM     44  C   UNL A   1      39.197  30.234  29.756  1.00  0.00     0.031 A 
ATOM     45  C   UNL A   1      40.042  30.354  30.980  1.00  0.00     0.074 A 
ATOM     46  C   UNL A   1      39.669  29.365  28.787  1.00  0.00     0.049 A 
ATOM     47  N   UNL A   1      40.404  31.526  31.425  1.00  0.00    -0.248 NA
ATOM     48  C   UNL A   1      40.170  29.277  31.963  1.00  0.00     0.031 C 
ATOM     49  C   UNL A   1      39.158  29.142  27.426  1.00  0.00     0.029 A 
ATOM     50  N   UNL A   1      40.751  28.442  28.802  1.00  0.00    -0.354 N 
ATOM     51  C   UNL A   1      41.175  31.280  32.514  1.00  0.00     0.074 A 
ATOM     52  C   UNL A   1      40.743  29.963  32.958  1.00  0.00     0.031 C 
ATOM     53  C   UNL A   1      39.812  28.112  26.811  1.00  0.00     0.029 A 
ATOM     54  C   UNL A   1      40.866  27.575  27.668  1.00  0.00     0.049 A 
ATOM     55  H   UNL A   1      41.388  28.402  29.552  1.00  0.00     0.167 HD
ATOM     56  C   UNL A   1      42.434  31.804  32.473  1.00  0.00     0.034 A 
ATOM     57  C   UNL A   1      41.773  26.561  27.399  1.00  0.00     0.034 A 
ATOM     58  C   UNL A   1      43.448  30.793  32.410  1.00  0.00     0.049 A 
ATOM     59  C   UNL A   1      42.943  26.805  28.258  1.00  0.00     0.074 A 
ATOM     60  C   UNL A   1      43.640  29.585  33.053  1.00  0.00     0.029 A 
ATOM     61  N   UNL A   1      44.183  30.744  31.246  1.00  0.00    -0.354 N 
ATOM     62  N   UNL A   1      43.838  27.693  27.942  1.00  0.00    -0.248 NA
ATOM     63  C   UNL A   1      43.256  25.985  29.422  1.00  0.00     0.031 C 
ATOM     64  C   UNL A   1      44.076  28.691  32.044  1.00  0.00     0.029 A 
ATOM     65  C   UNL A   1      44.414  29.421  30.913  1.00  0.00     0.049 A 
ATOM     66  H   UNL A   1      44.493  31.524  30.733  1.00  0.00     0.167 HD
ATOM     67  C   UNL A   1      44.533  27.865  29.099  1.00  0.00     0.074 A 
ATOM     68  C   UNL A   1      44.332  26.645  29.855  1.00  0.00     0.031 C 
ATOM     69  C   UNL A   1      44.719  29.134  29.531  1.00  0.00     0.034 A 
BRANCH  56  70
ATOM     70  C   UNL A   1      42.546  33.183  31.854  1.00  0.00     0.023 A 
ATOM     71  C   UNL A   1      42.641  33.249  30.456  1.00  0.00     0.012 A 
ATOM     72  C   UNL A   1      42.715  34.379  32.605  1.00  0.00     0.148 A 
ATOM     73  C   UNL A   1      42.953  34.454  29.821  1.00  0.00     0.002 A 
ATOM     74  C   UNL A   1      43.132  35.549  31.975  1.00  0.00     0.091 A 
ATOM     75  F   UNL A   1      42.462  34.361  33.922  1.00  0.00    -0.205 F 
ATOM     76  C   UNL A   1      43.235  35.591  30.578  1.00  0.00     0.022 A 
BRANCH  74  77
ATOM     77  S   UNL A   1      43.745  36.981  32.884  1.00  0.00     0.127 S 
ATOM     78  O   UNL A   1      44.999  36.474  33.451  1.00  0.00    -0.237 OA
ATOM     79  O   UNL A   1      43.923  37.981  31.838  1.00  0.00    -0.237 OA
ATOM     80  O   UNL A   1      42.738  37.301  33.888  1.00  0.00    -0.744 OA
ENDBRANCH  74  77
ENDBRANCH  56  70
BRANCH  57  81
ATOM     81  C   UNL A   1      42.138  25.420  26.419  1.00  0.00     0.023 A 
ATOM     82  C   UNL A   1      43.288  25.621  25.583  1.00  0.00     0.012 A 
ATOM     83  C   UNL A   1      41.751  24.072  26.593  1.00  0.00     0.148 A 
ATOM     84  C   UNL A   1      44.078  24.578  25.076  1.00  0.00     0.002 A 
ATOM     85  C   UNL A   1      42.524  23.022  26.034  1.00  0.00     0.091 A 
ATOM     86  F   UNL A   1      40.708  23.809  27.392  1.00  0.00    -0.205 F 
ATOM     87  C   UNL A   1      43.701  23.273  25.312  1.00  0.00     0.022 A 
BRANCH  85  88
ATOM     88  S   UNL A   1      42.135  21.270  26.244  1.00  0.00     0.127 S 
ATOM     89  O   UNL A   1      40.732  21.202  25.829  1.00  0.00    -0.237 OA
ATOM     90  O   UNL A   1      43.070  20.638  25.315  1.00  0.00    -0.237 OA
ATOM     91  O   UNL A   1      42.358  20.994  27.656  1.00  0.00    -0.744 OA
ENDBRANCH  85  88
ENDBRANCH  57  81
BRANCH  69  92
ATOM     92  C   UNL A   1      44.957  30.213  28.490  1.00  0.00     0.023 A 
ATOM     93  C   UNL A   1      43.945  30.895  27.776  1.00  0.00     0.012 A 
ATOM     94  C   UNL A   1      46.289  30.576  28.233  1.00  0.00     0.148 A 
ATOM     95  C   UNL A   1      44.255  31.873  26.823  1.00  0.00     0.002 A 
ATOM     96  C   UNL A   1      46.594  31.590  27.330  1.00  0.00     0.091 A 
ATOM     97  F   UNL A   1      47.258  29.913  28.883  1.00  0.00    -0.205 F 
ATOM     98  C   UNL A   1      45.581  32.236  26.612  1.00  0.00     0.022 A 
BRANCH  96  99
ATOM     99  S   UNL A   1      48.295  32.111  27.118  1.00  0.00     0.127 S 
ATOM    100  O   UNL A   1      48.597  32.702  28.420  1.00  0.00    -0.237 OA
ATOM    101  O   UNL A   1      49.004  30.864  26.837  1.00  0.00    -0.237 OA
ATOM    102  O   UNL A   1      48.262  33.045  25.995  1.00  0.00    -0.744 OA
ENDBRANCH  96  99
ENDBRANCH  69  92
ENDBRANCH  43  44
ENDBRANCH  35  38
ENDBRANCH  33  34
ENDBRANCH   1  33
TORSDOF 16
ENDMDL
