MODEL 1
REMARK VINA RESULT:     -12.3      0.000      0.000
REMARK SMILES CC1=C(C)C[C@@H](C(=O)NCCCCNC(=O)c2ccc(-c3c4nc(c(-c5cccc(S(=O)(=O)[O-])c5F)c5ccc([nH]5)c(-c5cccc(S(=O)(=O)[O-])c5F)c5nc(c(-c6cccc(S(=O)(=O)[O-])c6F)c6ccc3[nH]6)C=C5)C=C4)cc2)[C@@H](C(=O)NCC[NH+]2CCOCC2)C1
REMARK SMILES IDX 11 1 10 2 9 3 7 4 8 5 6 7 1 8 2 9 3 10 92 11 4 12 5 13 80 14
REMARK SMILES IDX 81 15 82 16 83 17 84 19 85 20 86 21 87 22 91 23 88 25 90 26
REMARK SMILES IDX 89 27 12 28 13 29 14 30 15 31 16 33 17 34 18 35 79 36 19 37
REMARK SMILES IDX 78 38 20 39 21 40 22 41 72 42 23 43 77 44 71 45 73 46 24 47
REMARK SMILES IDX 76 48 70 49 69 50 25 52 57 53 37 54 56 55 38 56 41 57 55 58
REMARK SMILES IDX 74 59 39 60 40 61 54 63 75 64 42 65 26 66 27 67 35 68 28 69
REMARK SMILES IDX 30 70 36 71 29 72 31 73 32 74 33 75 34 76 58 77 59 78 67 79
REMARK SMILES IDX 60 80 62 81 68 82 61 83 63 84 64 85 65 86 66 87 43 88 44 89
REMARK SMILES IDX 52 90 45 91 47 92 53 93 46 94 48 95 49 96 50 97 51 98
REMARK H PARENT 9 6 83 18 86 24 14 32 73 51 41 62
REMARK Flexibility Score: inf
ROOT
ATOM      1  C   UNL A   1      36.672  20.335  24.806  1.00  0.00     0.023 C 
ENDROOT
BRANCH   1   2
ATOM      2  C   UNL A   1      36.787  21.733  25.402  1.00  0.00     0.116 C 
BRANCH   2   3
ATOM      3  N   UNL A   1      35.836  21.953  26.466  1.00  0.00    -0.356 N 
ATOM      4  C   UNL A   1      34.693  22.673  26.508  1.00  0.00     0.224 C 
ATOM      5  O   UNL A   1      34.084  22.678  27.585  1.00  0.00    -0.275 OA
ATOM      6  H   UNL A   1      36.061  21.499  27.310  1.00  0.00     0.163 HD
BRANCH   4   7
ATOM      7  C   UNL A   1      34.140  23.482  25.329  1.00  0.00     0.095 C 
ATOM      8  C   UNL A   1      30.685  26.200  26.013  1.00  0.00     0.039 C 
ATOM      9  C   UNL A   1      31.924  25.423  25.635  1.00  0.00    -0.074 C 
ATOM     10  C   UNL A   1      33.192  25.878  25.717  1.00  0.00    -0.074 C 
ATOM     11  C   UNL A   1      31.599  23.999  25.247  1.00  0.00     0.045 C 
ATOM     12  C   UNL A   1      33.591  27.261  26.169  1.00  0.00     0.039 C 
ATOM     13  C   UNL A   1      34.387  24.991  25.432  1.00  0.00     0.045 C 
ATOM     14  C   UNL A   1      32.754  23.092  24.805  1.00  0.00     0.095 C 
BRANCH  14  15
ATOM     15  C   UNL A   1      32.381  21.629  25.039  1.00  0.00     0.224 C 
ATOM     16  O   UNL A   1      31.439  21.264  25.735  1.00  0.00    -0.275 OA
ATOM     17  N   UNL A   1      33.080  20.737  24.266  1.00  0.00    -0.350 N 
ATOM     18  H   UNL A   1      34.050  20.619  24.387  1.00  0.00     0.163 HD
BRANCH  17  19
ATOM     19  C   UNL A   1      32.365  19.975  23.271  1.00  0.00     0.177 C 
BRANCH  19  20
ATOM     20  C   UNL A   1      32.487  18.453  23.438  1.00  0.00     0.283 C 
BRANCH  20  21
ATOM     21  N   UNL A   1      33.242  17.916  24.563  1.00  0.00    -0.330 N 
ATOM     22  C   UNL A   1      34.600  17.415  24.349  1.00  0.00     0.291 C 
ATOM     23  C   UNL A   1      32.512  17.159  25.583  1.00  0.00     0.291 C 
ATOM     24  H   UNL A   1      33.405  18.832  24.980  1.00  0.00     0.348 HD
ATOM     25  C   UNL A   1      34.710  15.882  24.303  1.00  0.00     0.221 C 
ATOM     26  C   UNL A   1      32.699  15.636  25.515  1.00  0.00     0.221 C 
ATOM     27  O   UNL A   1      34.080  15.276  25.437  1.00  0.00    -0.370 OA
ENDBRANCH  20  21
ENDBRANCH  19  20
ENDBRANCH  17  19
ENDBRANCH  14  15
ENDBRANCH   4   7
ENDBRANCH   2   3
ENDBRANCH   1   2
BRANCH   1  28
ATOM     28  C   UNL A   1      37.912  19.464  24.997  1.00  0.00     0.023 C 
BRANCH  28  29
ATOM     29  C   UNL A   1      39.036  20.117  25.790  1.00  0.00     0.116 C 
BRANCH  29  30
ATOM     30  N   UNL A   1      40.175  19.235  26.010  1.00  0.00    -0.352 N 
ATOM     31  C   UNL A   1      41.457  19.577  26.378  1.00  0.00     0.251 C 
ATOM     32  H   UNL A   1      40.007  18.273  25.879  1.00  0.00     0.163 HD
ATOM     33  O   UNL A   1      42.341  18.735  26.416  1.00  0.00    -0.269 OA
BRANCH  31  34
ATOM     34  C   UNL A   1      41.745  20.990  26.696  1.00  0.00     0.039 A 
ATOM     35  C   UNL A   1      42.207  21.317  27.972  1.00  0.00     0.014 A 
ATOM     36  C   UNL A   1      41.611  21.971  25.711  1.00  0.00     0.014 A 
ATOM     37  C   UNL A   1      42.591  22.632  28.245  1.00  0.00     0.010 A 
ATOM     38  C   UNL A   1      42.068  23.258  25.960  1.00  0.00     0.010 A 
ATOM     39  C   UNL A   1      42.549  23.604  27.232  1.00  0.00    -0.014 A 
BRANCH  39  40
ATOM     40  C   UNL A   1      42.995  24.997  27.476  1.00  0.00     0.031 A 
ATOM     41  C   UNL A   1      42.053  25.983  28.110  1.00  0.00     0.074 A 
ATOM     42  C   UNL A   1      44.195  25.401  27.019  1.00  0.00     0.049 A 
ATOM     43  N   UNL A   1      42.227  27.256  28.341  1.00  0.00    -0.248 NA
ATOM     44  C   UNL A   1      40.723  25.479  28.493  1.00  0.00     0.031 C 
ATOM     45  C   UNL A   1      45.145  24.566  26.281  1.00  0.00     0.029 A 
ATOM     46  N   UNL A   1      44.805  26.629  27.075  1.00  0.00    -0.354 N 
ATOM     47  C   UNL A   1      41.017  27.717  28.844  1.00  0.00     0.074 A 
ATOM     48  C   UNL A   1      40.106  26.595  28.851  1.00  0.00     0.031 C 
ATOM     49  C   UNL A   1      46.212  25.308  25.944  1.00  0.00     0.029 A 
ATOM     50  C   UNL A   1      46.019  26.671  26.432  1.00  0.00     0.049 A 
ATOM     51  H   UNL A   1      44.410  27.406  27.532  1.00  0.00     0.167 HD
ATOM     52  C   UNL A   1      40.702  28.954  29.296  1.00  0.00     0.034 A 
ATOM     53  C   UNL A   1      46.880  27.692  26.256  1.00  0.00     0.034 A 
ATOM     54  C   UNL A   1      41.638  30.042  29.357  1.00  0.00     0.049 A 
ATOM     55  C   UNL A   1      46.560  29.026  26.874  1.00  0.00     0.074 A 
ATOM     56  C   UNL A   1      41.471  31.291  29.926  1.00  0.00     0.029 A 
ATOM     57  N   UNL A   1      42.920  30.008  28.830  1.00  0.00    -0.354 N 
ATOM     58  N   UNL A   1      45.487  29.390  27.534  1.00  0.00    -0.248 NA
ATOM     59  C   UNL A   1      47.584  30.074  26.766  1.00  0.00     0.031 C 
ATOM     60  C   UNL A   1      42.653  32.018  29.734  1.00  0.00     0.029 A 
ATOM     61  C   UNL A   1      43.557  31.216  29.054  1.00  0.00     0.049 A 
ATOM     62  H   UNL A   1      43.319  29.238  28.364  1.00  0.00     0.167 HD
ATOM     63  C   UNL A   1      45.715  30.699  27.942  1.00  0.00     0.074 A 
ATOM     64  C   UNL A   1      47.040  31.055  27.475  1.00  0.00     0.031 C 
ATOM     65  C   UNL A   1      44.895  31.537  28.625  1.00  0.00     0.034 A 
BRANCH  52  66
ATOM     66  C   UNL A   1      39.307  29.165  29.822  1.00  0.00     0.023 A 
ATOM     67  C   UNL A   1      38.976  28.707  31.115  1.00  0.00     0.012 A 
ATOM     68  C   UNL A   1      38.330  29.826  29.054  1.00  0.00     0.148 A 
ATOM     69  C   UNL A   1      37.685  28.861  31.617  1.00  0.00     0.002 A 
ATOM     70  C   UNL A   1      37.055  30.016  29.579  1.00  0.00     0.091 A 
ATOM     71  F   UNL A   1      38.649  30.231  27.816  1.00  0.00    -0.205 F 
ATOM     72  C   UNL A   1      36.728  29.522  30.853  1.00  0.00     0.022 A 
BRANCH  70  73
ATOM     73  S   UNL A   1      35.782  30.925  28.694  1.00  0.00     0.127 S 
ATOM     74  O   UNL A   1      35.142  29.862  27.921  1.00  0.00    -0.237 OA
ATOM     75  O   UNL A   1      34.965  31.462  29.783  1.00  0.00    -0.237 OA
ATOM     76  O   UNL A   1      36.490  31.935  27.920  1.00  0.00    -0.744 OA
ENDBRANCH  70  73
ENDBRANCH  52  66
BRANCH  53  77
ATOM     77  C   UNL A   1      48.164  27.450  25.542  1.00  0.00     0.023 A 
ATOM     78  C   UNL A   1      49.263  26.934  26.256  1.00  0.00     0.012 A 
ATOM     79  C   UNL A   1      48.278  27.651  24.153  1.00  0.00     0.148 A 
ATOM     80  C   UNL A   1      50.460  26.639  25.602  1.00  0.00     0.002 A 
ATOM     81  C   UNL A   1      49.457  27.306  23.500  1.00  0.00     0.091 A 
ATOM     82  F   UNL A   1      47.222  28.149  23.495  1.00  0.00    -0.205 F 
ATOM     83  C   UNL A   1      50.552  26.812  24.224  1.00  0.00     0.022 A 
BRANCH  81  84
ATOM     84  S   UNL A   1      49.625  27.371  21.712  1.00  0.00     0.127 S 
ATOM     85  O   UNL A   1      48.485  26.569  21.276  1.00  0.00    -0.237 OA
ATOM     86  O   UNL A   1      49.506  28.806  21.451  1.00  0.00    -0.237 OA
ATOM     87  O   UNL A   1      50.938  26.813  21.421  1.00  0.00    -0.744 OA
ENDBRANCH  81  84
ENDBRANCH  53  77
BRANCH  65  88
ATOM     88  C   UNL A   1      45.404  32.921  28.924  1.00  0.00     0.023 A 
ATOM     89  C   UNL A   1      46.241  33.125  30.038  1.00  0.00     0.012 A 
ATOM     90  C   UNL A   1      45.131  33.995  28.055  1.00  0.00     0.148 A 
ATOM     91  C   UNL A   1      46.780  34.384  30.298  1.00  0.00     0.002 A 
ATOM     92  C   UNL A   1      45.707  35.238  28.296  1.00  0.00     0.091 A 
ATOM     93  F   UNL A   1      44.314  33.786  27.013  1.00  0.00    -0.205 F 
ATOM     94  C   UNL A   1      46.524  35.436  29.422  1.00  0.00     0.022 A 
BRANCH  92  95
ATOM     95  S   UNL A   1      45.503  36.619  27.165  1.00  0.00     0.127 S 
ATOM     96  O   UNL A   1      45.984  37.740  27.971  1.00  0.00    -0.237 OA
ATOM     97  O   UNL A   1      46.380  36.247  26.054  1.00  0.00    -0.237 OA
ATOM     98  O   UNL A   1      44.087  36.647  26.827  1.00  0.00    -0.744 OA
ENDBRANCH  92  95
ENDBRANCH  65  88
ENDBRANCH  39  40
ENDBRANCH  31  34
ENDBRANCH  29  30
ENDBRANCH  28  29
ENDBRANCH   1  28
TORSDOF 18
ENDMDL
MODEL 2
REMARK VINA RESULT:     -12.2      6.471     11.987
REMARK SMILES CC1=C(C)C[C@@H](C(=O)NCCCCNC(=O)c2ccc(-c3c4nc(c(-c5cccc(S(=O)(=O)[O-])c5F)c5ccc([nH]5)c(-c5cccc(S(=O)(=O)[O-])c5F)c5nc(c(-c6cccc(S(=O)(=O)[O-])c6F)c6ccc3[nH]6)C=C5)C=C4)cc2)[C@@H](C(=O)NCC[NH+]2CCOCC2)C1
REMARK SMILES IDX 11 1 10 2 9 3 7 4 8 5 6 7 1 8 2 9 3 10 92 11 4 12 5 13 80 14
REMARK SMILES IDX 81 15 82 16 83 17 84 19 85 20 86 21 87 22 91 23 88 25 90 26
REMARK SMILES IDX 89 27 12 28 13 29 14 30 15 31 16 33 17 34 18 35 79 36 19 37
REMARK SMILES IDX 78 38 20 39 21 40 22 41 72 42 23 43 77 44 71 45 73 46 24 47
REMARK SMILES IDX 76 48 70 49 69 50 25 52 57 53 37 54 56 55 38 56 41 57 55 58
REMARK SMILES IDX 74 59 39 60 40 61 54 63 75 64 42 65 26 66 27 67 35 68 28 69
REMARK SMILES IDX 30 70 36 71 29 72 31 73 32 74 33 75 34 76 58 77 59 78 67 79
REMARK SMILES IDX 60 80 62 81 68 82 61 83 63 84 64 85 65 86 66 87 43 88 44 89
REMARK SMILES IDX 52 90 45 91 47 92 53 93 46 94 48 95 49 96 50 97 51 98
REMARK H PARENT 9 6 83 18 86 24 14 32 73 51 41 62
REMARK Flexibility Score: inf
ROOT
ATOM      1  C   UNL A   1      31.554  30.512  26.035  1.00  0.00     0.023 C 
ENDROOT
BRANCH   1   2
ATOM      2  C   UNL A   1      32.906  29.860  26.297  1.00  0.00     0.116 C 
BRANCH   2   3
ATOM      3  N   UNL A   1      33.573  29.476  25.075  1.00  0.00    -0.356 N 
ATOM      4  C   UNL A   1      33.698  28.277  24.464  1.00  0.00     0.224 C 
ATOM      5  O   UNL A   1      34.347  28.259  23.411  1.00  0.00    -0.275 OA
ATOM      6  H   UNL A   1      34.016  30.219  24.604  1.00  0.00     0.163 HD
BRANCH   4   7
ATOM      7  C   UNL A   1      33.113  26.968  25.007  1.00  0.00     0.095 C 
ATOM      8  C   UNL A   1      34.161  23.142  22.994  1.00  0.00     0.039 C 
ATOM      9  C   UNL A   1      33.801  24.325  23.861  1.00  0.00    -0.074 C 
ATOM     10  C   UNL A   1      34.514  24.773  24.916  1.00  0.00    -0.074 C 
ATOM     11  C   UNL A   1      32.579  25.050  23.344  1.00  0.00     0.045 C 
ATOM     12  C   UNL A   1      35.782  24.143  25.436  1.00  0.00     0.039 C 
ATOM     13  C   UNL A   1      34.146  26.041  25.658  1.00  0.00     0.045 C 
ATOM     14  C   UNL A   1      32.069  26.258  24.140  1.00  0.00     0.095 C 
BRANCH  14  15
ATOM     15  C   UNL A   1      31.278  27.186  23.219  1.00  0.00     0.224 C 
ATOM     16  O   UNL A   1      31.368  27.179  21.995  1.00  0.00    -0.275 OA
ATOM     17  N   UNL A   1      30.315  27.927  23.855  1.00  0.00    -0.350 N 
ATOM     18  H   UNL A   1      30.564  28.617  24.512  1.00  0.00     0.163 HD
BRANCH  17  19
ATOM     19  C   UNL A   1      28.929  27.674  23.543  1.00  0.00     0.177 C 
BRANCH  19  20
ATOM     20  C   UNL A   1      28.274  28.759  22.675  1.00  0.00     0.283 C 
BRANCH  20  21
ATOM     21  N   UNL A   1      28.918  30.061  22.550  1.00  0.00    -0.330 N 
ATOM     22  C   UNL A   1      28.761  31.050  23.616  1.00  0.00     0.291 C 
ATOM     23  C   UNL A   1      28.989  30.667  21.218  1.00  0.00     0.291 C 
ATOM     24  H   UNL A   1      29.852  29.691  22.723  1.00  0.00     0.348 HD
ATOM     25  C   UNL A   1      27.760  32.173  23.297  1.00  0.00     0.221 C 
ATOM     26  C   UNL A   1      27.996  31.813  20.976  1.00  0.00     0.221 C 
ATOM     27  O   UNL A   1      28.036  32.778  22.030  1.00  0.00    -0.370 OA
ENDBRANCH  20  21
ENDBRANCH  19  20
ENDBRANCH  17  19
ENDBRANCH  14  15
ENDBRANCH   4   7
ENDBRANCH   2   3
ENDBRANCH   1   2
BRANCH   1  28
ATOM     28  C   UNL A   1      31.398  31.906  26.639  1.00  0.00     0.023 C 
BRANCH  28  29
ATOM     29  C   UNL A   1      32.704  32.584  27.029  1.00  0.00     0.116 C 
BRANCH  29  30
ATOM     30  N   UNL A   1      32.518  33.913  27.597  1.00  0.00    -0.352 N 
ATOM     31  C   UNL A   1      33.227  34.509  28.615  1.00  0.00     0.251 C 
ATOM     32  H   UNL A   1      31.794  34.452  27.203  1.00  0.00     0.163 HD
ATOM     33  O   UNL A   1      32.883  35.592  29.064  1.00  0.00    -0.269 OA
BRANCH  31  34
ATOM     34  C   UNL A   1      34.395  33.796  29.172  1.00  0.00     0.039 A 
ATOM     35  C   UNL A   1      35.677  34.274  28.896  1.00  0.00     0.014 A 
ATOM     36  C   UNL A   1      34.208  32.695  30.011  1.00  0.00     0.014 A 
ATOM     37  C   UNL A   1      36.778  33.676  29.513  1.00  0.00     0.010 A 
ATOM     38  C   UNL A   1      35.295  32.154  30.683  1.00  0.00     0.010 A 
ATOM     39  C   UNL A   1      36.591  32.630  30.431  1.00  0.00    -0.014 A 
BRANCH  39  40
ATOM     40  C   UNL A   1      37.735  32.006  31.137  1.00  0.00     0.031 A 
ATOM     41  C   UNL A   1      38.508  30.899  30.475  1.00  0.00     0.074 A 
ATOM     42  C   UNL A   1      37.998  32.350  32.412  1.00  0.00     0.049 A 
ATOM     43  N   UNL A   1      39.490  30.181  30.952  1.00  0.00    -0.248 NA
ATOM     44  C   UNL A   1      38.093  30.519  29.114  1.00  0.00     0.031 C 
ATOM     45  C   UNL A   1      37.239  33.324  33.199  1.00  0.00     0.029 A 
ATOM     46  N   UNL A   1      38.953  31.890  33.283  1.00  0.00    -0.354 N 
ATOM     47  C   UNL A   1      39.773  29.233  29.976  1.00  0.00     0.074 A 
ATOM     48  C   UNL A   1      38.835  29.445  28.896  1.00  0.00     0.031 C 
ATOM     49  C   UNL A   1      37.751  33.381  34.439  1.00  0.00     0.029 A 
ATOM     50  C   UNL A   1      38.866  32.442  34.538  1.00  0.00     0.049 A 
ATOM     51  H   UNL A   1      39.636  31.227  33.031  1.00  0.00     0.167 HD
ATOM     52  C   UNL A   1      40.749  28.295  29.962  1.00  0.00     0.034 A 
ATOM     53  C   UNL A   1      39.601  32.219  35.644  1.00  0.00     0.034 A 
ATOM     54  C   UNL A   1      41.724  28.145  31.006  1.00  0.00     0.049 A 
ATOM     55  C   UNL A   1      40.758  31.259  35.566  1.00  0.00     0.074 A 
ATOM     56  C   UNL A   1      42.840  27.328  31.032  1.00  0.00     0.029 A 
ATOM     57  N   UNL A   1      41.698  28.829  32.212  1.00  0.00    -0.354 N 
ATOM     58  N   UNL A   1      41.141  30.516  34.557  1.00  0.00    -0.248 NA
ATOM     59  C   UNL A   1      41.609  31.142  36.757  1.00  0.00     0.031 C 
ATOM     60  C   UNL A   1      43.485  27.513  32.261  1.00  0.00     0.029 A 
ATOM     61  C   UNL A   1      42.776  28.451  32.994  1.00  0.00     0.049 A 
ATOM     62  H   UNL A   1      41.014  29.487  32.473  1.00  0.00     0.167 HD
ATOM     63  C   UNL A   1      42.292  29.860  34.979  1.00  0.00     0.074 A 
ATOM     64  C   UNL A   1      42.556  30.316  36.330  1.00  0.00     0.031 C 
ATOM     65  C   UNL A   1      43.050  28.951  34.317  1.00  0.00     0.034 A 
BRANCH  52  66
ATOM     66  C   UNL A   1      40.845  27.413  28.745  1.00  0.00     0.023 A 
ATOM     67  C   UNL A   1      39.942  26.339  28.593  1.00  0.00     0.012 A 
ATOM     68  C   UNL A   1      41.808  27.650  27.747  1.00  0.00     0.148 A 
ATOM     69  C   UNL A   1      40.027  25.488  27.493  1.00  0.00     0.002 A 
ATOM     70  C   UNL A   1      41.858  26.823  26.629  1.00  0.00     0.091 A 
ATOM     71  F   UNL A   1      42.678  28.656  27.917  1.00  0.00    -0.205 F 
ATOM     72  C   UNL A   1      40.978  25.735  26.508  1.00  0.00     0.022 A 
BRANCH  70  73
ATOM     73  S   UNL A   1      43.002  27.113  25.275  1.00  0.00     0.127 S 
ATOM     74  O   UNL A   1      42.960  25.834  24.570  1.00  0.00    -0.237 OA
ATOM     75  O   UNL A   1      42.369  28.223  24.561  1.00  0.00    -0.237 OA
ATOM     76  O   UNL A   1      44.273  27.451  25.902  1.00  0.00    -0.744 OA
ENDBRANCH  70  73
ENDBRANCH  52  66
BRANCH  53  77
ATOM     77  C   UNL A   1      39.314  32.995  36.882  1.00  0.00     0.023 A 
ATOM     78  C   UNL A   1      39.858  34.286  37.028  1.00  0.00     0.012 A 
ATOM     79  C   UNL A   1      38.445  32.497  37.873  1.00  0.00     0.148 A 
ATOM     80  C   UNL A   1      39.556  35.062  38.148  1.00  0.00     0.002 A 
ATOM     81  C   UNL A   1      38.109  33.296  38.961  1.00  0.00     0.091 A 
ATOM     82  F   UNL A   1      37.945  31.264  37.717  1.00  0.00    -0.205 F 
ATOM     83  C   UNL A   1      38.673  34.573  39.106  1.00  0.00     0.022 A 
BRANCH  81  84
ATOM     84  S   UNL A   1      36.880  32.805  40.177  1.00  0.00     0.127 S 
ATOM     85  O   UNL A   1      37.444  31.556  40.683  1.00  0.00    -0.237 OA
ATOM     86  O   UNL A   1      36.923  33.926  41.116  1.00  0.00    -0.237 OA
ATOM     87  O   UNL A   1      35.629  32.682  39.443  1.00  0.00    -0.744 OA
ENDBRANCH  81  84
ENDBRANCH  53  77
BRANCH  65  88
ATOM     88  C   UNL A   1      44.250  28.391  35.033  1.00  0.00     0.023 A 
ATOM     89  C   UNL A   1      45.474  29.085  34.982  1.00  0.00     0.012 A 
ATOM     90  C   UNL A   1      44.142  27.233  35.828  1.00  0.00     0.148 A 
ATOM     91  C   UNL A   1      46.581  28.622  35.691  1.00  0.00     0.002 A 
ATOM     92  C   UNL A   1      45.238  26.801  36.566  1.00  0.00     0.091 A 
ATOM     93  F   UNL A   1      42.974  26.574  35.846  1.00  0.00    -0.205 F 
ATOM     94  C   UNL A   1      46.461  27.489  36.492  1.00  0.00     0.022 A 
BRANCH  92  95
ATOM     95  S   UNL A   1      45.138  25.406  37.695  1.00  0.00     0.127 S 
ATOM     96  O   UNL A   1      44.029  25.801  38.561  1.00  0.00    -0.237 OA
ATOM     97  O   UNL A   1      44.841  24.293  36.793  1.00  0.00    -0.237 OA
ATOM     98  O   UNL A   1      46.443  25.325  38.338  1.00  0.00    -0.744 OA
ENDBRANCH  92  95
ENDBRANCH  65  88
ENDBRANCH  39  40
ENDBRANCH  31  34
ENDBRANCH  29  30
ENDBRANCH  28  29
ENDBRANCH   1  28
TORSDOF 18
ENDMDL
MODEL 3
REMARK VINA RESULT:     -12.0      5.227      8.266
REMARK SMILES CC1=C(C)C[C@@H](C(=O)NCCCCNC(=O)c2ccc(-c3c4nc(c(-c5cccc(S(=O)(=O)[O-])c5F)c5ccc([nH]5)c(-c5cccc(S(=O)(=O)[O-])c5F)c5nc(c(-c6cccc(S(=O)(=O)[O-])c6F)c6ccc3[nH]6)C=C5)C=C4)cc2)[C@@H](C(=O)NCC[NH+]2CCOCC2)C1
REMARK SMILES IDX 11 1 10 2 9 3 7 4 8 5 6 7 1 8 2 9 3 10 92 11 4 12 5 13 80 14
REMARK SMILES IDX 81 15 82 16 83 17 84 19 85 20 86 21 87 22 91 23 88 25 90 26
REMARK SMILES IDX 89 27 12 28 13 29 14 30 15 31 16 33 17 34 18 35 79 36 19 37
REMARK SMILES IDX 78 38 20 39 21 40 22 41 72 42 23 43 77 44 71 45 73 46 24 47
REMARK SMILES IDX 76 48 70 49 69 50 25 52 57 53 37 54 56 55 38 56 41 57 55 58
REMARK SMILES IDX 74 59 39 60 40 61 54 63 75 64 42 65 26 66 27 67 35 68 28 69
REMARK SMILES IDX 30 70 36 71 29 72 31 73 32 74 33 75 34 76 58 77 59 78 67 79
REMARK SMILES IDX 60 80 62 81 68 82 61 83 63 84 64 85 65 86 66 87 43 88 44 89
REMARK SMILES IDX 52 90 45 91 47 92 53 93 46 94 48 95 49 96 50 97 51 98
REMARK H PARENT 9 6 83 18 86 24 14 32 73 51 41 62
REMARK Flexibility Score: inf
ROOT
ATOM      1  C   UNL A   1      32.293  27.617  26.390  1.00  0.00     0.023 C 
ENDROOT
BRANCH   1   2
ATOM      2  C   UNL A   1      32.219  26.096  26.445  1.00  0.00     0.116 C 
BRANCH   2   3
ATOM      3  N   UNL A   1      33.477  25.475  26.102  1.00  0.00    -0.356 N 
ATOM      4  C   UNL A   1      33.933  24.965  24.936  1.00  0.00     0.224 C 
ATOM      5  O   UNL A   1      35.073  24.484  24.954  1.00  0.00    -0.275 OA
ATOM      6  H   UNL A   1      34.114  25.410  26.850  1.00  0.00     0.163 HD
BRANCH   4   7
ATOM      7  C   UNL A   1      33.124  24.932  23.635  1.00  0.00     0.095 C 
ATOM      8  C   UNL A   1      29.106  26.841  23.550  1.00  0.00     0.039 C 
ATOM      9  C   UNL A   1      30.487  26.255  23.372  1.00  0.00    -0.074 C 
ATOM     10  C   UNL A   1      31.589  26.939  22.999  1.00  0.00    -0.074 C 
ATOM     11  C   UNL A   1      30.536  24.799  23.775  1.00  0.00     0.045 C 
ATOM     12  C   UNL A   1      31.624  28.408  22.657  1.00  0.00     0.039 C 
ATOM     13  C   UNL A   1      32.961  26.299  22.961  1.00  0.00     0.045 C 
ATOM     14  C   UNL A   1      31.868  24.054  23.618  1.00  0.00     0.095 C 
BRANCH  14  15
ATOM     15  C   UNL A   1      31.914  22.870  24.583  1.00  0.00     0.224 C 
ATOM     16  O   UNL A   1      31.132  22.714  25.516  1.00  0.00    -0.275 OA
ATOM     17  N   UNL A   1      32.800  21.885  24.227  1.00  0.00    -0.350 N 
ATOM     18  H   UNL A   1      33.769  22.058  24.226  1.00  0.00     0.163 HD
BRANCH  17  19
ATOM     19  C   UNL A   1      32.283  20.591  23.855  1.00  0.00     0.177 C 
BRANCH  19  20
ATOM     20  C   UNL A   1      32.624  19.470  24.846  1.00  0.00     0.283 C 
BRANCH  20  21
ATOM     21  N   UNL A   1      32.420  18.081  24.454  1.00  0.00    -0.330 N 
ATOM     22  C   UNL A   1      32.552  17.021  25.453  1.00  0.00     0.291 C 
ATOM     23  C   UNL A   1      32.876  17.668  23.124  1.00  0.00     0.291 C 
ATOM     24  H   UNL A   1      31.409  18.182  24.368  1.00  0.00     0.348 HD
ATOM     25  C   UNL A   1      33.871  16.233  25.372  1.00  0.00     0.221 C 
ATOM     26  C   UNL A   1      34.172  16.845  23.112  1.00  0.00     0.221 C 
ATOM     27  O   UNL A   1      34.120  15.762  24.043  1.00  0.00    -0.370 OA
ENDBRANCH  20  21
ENDBRANCH  19  20
ENDBRANCH  17  19
ENDBRANCH  14  15
ENDBRANCH   4   7
ENDBRANCH   2   3
ENDBRANCH   1   2
BRANCH   1  28
ATOM     28  C   UNL A   1      33.592  28.205  26.938  1.00  0.00     0.023 C 
BRANCH  28  29
ATOM     29  C   UNL A   1      34.074  29.463  26.228  1.00  0.00     0.116 C 
BRANCH  29  30
ATOM     30  N   UNL A   1      33.847  30.681  26.995  1.00  0.00    -0.352 N 
ATOM     31  C   UNL A   1      34.588  31.175  28.044  1.00  0.00     0.251 C 
ATOM     32  H   UNL A   1      33.066  31.219  26.729  1.00  0.00     0.163 HD
ATOM     33  O   UNL A   1      34.212  32.156  28.667  1.00  0.00    -0.269 OA
BRANCH  31  34
ATOM     34  C   UNL A   1      35.833  30.474  28.419  1.00  0.00     0.039 A 
ATOM     35  C   UNL A   1      36.983  30.675  27.653  1.00  0.00     0.014 A 
ATOM     36  C   UNL A   1      35.867  29.668  29.561  1.00  0.00     0.014 A 
ATOM     37  C   UNL A   1      38.189  30.108  28.067  1.00  0.00     0.010 A 
ATOM     38  C   UNL A   1      37.082  29.173  30.013  1.00  0.00     0.010 A 
ATOM     39  C   UNL A   1      38.252  29.376  29.264  1.00  0.00    -0.014 A 
BRANCH  39  40
ATOM     40  C   UNL A   1      39.527  28.802  29.756  1.00  0.00     0.031 A 
ATOM     41  C   UNL A   1      40.267  29.475  30.878  1.00  0.00     0.074 A 
ATOM     42  C   UNL A   1      40.075  27.752  29.115  1.00  0.00     0.049 A 
ATOM     43  N   UNL A   1      41.425  29.172  31.400  1.00  0.00    -0.248 NA
ATOM     44  C   UNL A   1      39.642  30.675  31.460  1.00  0.00     0.031 C 
ATOM     45  C   UNL A   1      39.510  27.091  27.937  1.00  0.00     0.029 A 
ATOM     46  N   UNL A   1      41.250  27.081  29.341  1.00  0.00    -0.354 N 
ATOM     47  C   UNL A   1      41.692  30.169  32.330  1.00  0.00     0.074 A 
ATOM     48  C   UNL A   1      40.593  31.106  32.275  1.00  0.00     0.031 C 
ATOM     49  C   UNL A   1      40.343  26.117  27.538  1.00  0.00     0.029 A 
ATOM     50  C   UNL A   1      41.504  26.091  28.423  1.00  0.00     0.049 A 
ATOM     51  H   UNL A   1      41.854  27.291  30.090  1.00  0.00     0.167 HD
ATOM     52  C   UNL A   1      42.740  30.276  33.180  1.00  0.00     0.034 A 
ATOM     53  C   UNL A   1      42.554  25.254  28.308  1.00  0.00     0.034 A 
ATOM     54  C   UNL A   1      43.788  29.299  33.281  1.00  0.00     0.049 A 
ATOM     55  C   UNL A   1      43.647  25.315  29.340  1.00  0.00     0.074 A 
ATOM     56  C   UNL A   1      44.818  29.231  34.202  1.00  0.00     0.029 A 
ATOM     57  N   UNL A   1      43.939  28.216  32.429  1.00  0.00    -0.354 N 
ATOM     58  N   UNL A   1      43.781  26.143  30.348  1.00  0.00    -0.248 NA
ATOM     59  C   UNL A   1      44.708  24.302  29.249  1.00  0.00     0.031 C 
ATOM     60  C   UNL A   1      45.598  28.109  33.899  1.00  0.00     0.029 A 
ATOM     61  C   UNL A   1      45.048  27.474  32.797  1.00  0.00     0.049 A 
ATOM     62  H   UNL A   1      43.344  28.005  31.674  1.00  0.00     0.167 HD
ATOM     63  C   UNL A   1      44.924  25.737  31.028  1.00  0.00     0.074 A 
ATOM     64  C   UNL A   1      45.431  24.573  30.328  1.00  0.00     0.031 C 
ATOM     65  C   UNL A   1      45.510  26.289  32.119  1.00  0.00     0.034 A 
BRANCH  52  66
ATOM     66  C   UNL A   1      42.757  31.459  34.113  1.00  0.00     0.023 A 
ATOM     67  C   UNL A   1      43.402  32.649  33.714  1.00  0.00     0.012 A 
ATOM     68  C   UNL A   1      42.127  31.405  35.370  1.00  0.00     0.148 A 
ATOM     69  C   UNL A   1      43.459  33.749  34.568  1.00  0.00     0.002 A 
ATOM     70  C   UNL A   1      42.151  32.522  36.200  1.00  0.00     0.091 A 
ATOM     71  F   UNL A   1      41.544  30.259  35.750  1.00  0.00    -0.205 F 
ATOM     72  C   UNL A   1      42.828  33.688  35.807  1.00  0.00     0.022 A 
BRANCH  70  73
ATOM     73  S   UNL A   1      41.298  32.557  37.781  1.00  0.00     0.127 S 
ATOM     74  O   UNL A   1      42.107  31.635  38.576  1.00  0.00    -0.237 OA
ATOM     75  O   UNL A   1      41.416  33.963  38.171  1.00  0.00    -0.237 OA
ATOM     76  O   UNL A   1      39.935  32.125  37.500  1.00  0.00    -0.744 OA
ENDBRANCH  70  73
ENDBRANCH  52  66
BRANCH  53  77
ATOM     77  C   UNL A   1      42.559  24.231  27.226  1.00  0.00     0.023 A 
ATOM     78  C   UNL A   1      43.250  24.499  26.028  1.00  0.00     0.012 A 
ATOM     79  C   UNL A   1      41.955  22.972  27.406  1.00  0.00     0.148 A 
ATOM     80  C   UNL A   1      43.325  23.536  25.021  1.00  0.00     0.002 A 
ATOM     81  C   UNL A   1      42.078  21.999  26.419  1.00  0.00     0.091 A 
ATOM     82  F   UNL A   1      41.298  22.742  28.551  1.00  0.00    -0.205 F 
ATOM     83  C   UNL A   1      42.751  22.284  25.221  1.00  0.00     0.022 A 
BRANCH  81  84
ATOM     84  S   UNL A   1      41.486  20.317  26.641  1.00  0.00     0.127 S 
ATOM     85  O   UNL A   1      41.932  19.679  25.406  1.00  0.00    -0.237 OA
ATOM     86  O   UNL A   1      42.207  19.902  27.846  1.00  0.00    -0.237 OA
ATOM     87  O   UNL A   1      40.044  20.428  26.810  1.00  0.00    -0.744 OA
ENDBRANCH  81  84
ENDBRANCH  53  77
BRANCH  65  88
ATOM     88  C   UNL A   1      46.763  25.639  32.640  1.00  0.00     0.023 A 
ATOM     89  C   UNL A   1      48.017  26.082  32.178  1.00  0.00     0.012 A 
ATOM     90  C   UNL A   1      46.703  24.658  33.649  1.00  0.00     0.148 A 
ATOM     91  C   UNL A   1      49.194  25.542  32.695  1.00  0.00     0.002 A 
ATOM     92  C   UNL A   1      47.881  24.155  34.190  1.00  0.00     0.091 A 
ATOM     93  F   UNL A   1      45.499  24.233  34.060  1.00  0.00    -0.205 F 
ATOM     94  C   UNL A   1      49.127  24.589  33.708  1.00  0.00     0.022 A 
BRANCH  92  95
ATOM     95  S   UNL A   1      47.881  22.995  35.563  1.00  0.00     0.127 S 
ATOM     96  O   UNL A   1      47.128  23.731  36.577  1.00  0.00    -0.237 OA
ATOM     97  O   UNL A   1      47.178  21.842  34.999  1.00  0.00    -0.237 OA
ATOM     98  O   UNL A   1      49.283  22.749  35.872  1.00  0.00    -0.744 OA
ENDBRANCH  92  95
ENDBRANCH  65  88
ENDBRANCH  39  40
ENDBRANCH  31  34
ENDBRANCH  29  30
ENDBRANCH  28  29
ENDBRANCH   1  28
TORSDOF 18
ENDMDL
