MODEL 1
REMARK VINA RESULT:     -10.0      0.000      0.000
REMARK SMILES COc1ccccc1NC(=O)c1ccc(NC(=O)Cn2nc(C(=O)NCCCCNC(=O)c3ccc(-c4c5nc(c(-c6cccc(S(=O)(=O)[O-])c6F)c6ccc([nH]6)c(-c6cccc(S(=O)(=O)[O-])c6F)c6nc(c(-c7cccc(S(=O)(=O)[O-])c7F)c7ccc4[nH]7)C=C6)C=C5)cc3)c3ccccc3c2=O)cc1
REMARK SMILES IDX 26 1 25 2 23 3 24 4 22 6 20 7 21 8 102 9 101 10 103 11 96 12
REMARK SMILES IDX 100 13 97 14 99 15 98 16 19 17 17 18 16 19 18 21 15 22 12 23
REMARK SMILES IDX 13 24 105 25 14 26 104 27 10 28 9 29 11 31 8 32 3 33 4 34
REMARK SMILES IDX 5 35 7 36 6 37 2 38 1 39 27 40 28 41 29 42 30 43 31 44 32 46
REMARK SMILES IDX 33 47 34 48 95 49 35 50 94 51 36 52 37 53 38 54 88 55 39 56
REMARK SMILES IDX 93 57 87 58 89 59 40 60 92 61 86 62 85 63 41 65 73 66 53 67
REMARK SMILES IDX 72 68 54 69 57 70 71 71 90 72 55 73 56 74 70 76 91 77 58 78
REMARK SMILES IDX 42 79 43 80 51 81 44 82 46 83 52 84 45 85 47 86 48 87 49 88
REMARK SMILES IDX 50 89 74 90 75 91 83 92 76 93 78 94 84 95 77 96 79 97 80 98
REMARK SMILES IDX 81 99 82 100 59 101 60 102 68 103 61 104 63 105 69 106
REMARK SMILES IDX 62 107 64 108 65 109 66 110 67 111
REMARK H PARENT 25 5 16 20 9 30 30 45 89 64 57 75
REMARK Flexibility Score: inf
ROOT
ATOM      1  C   UNL A   1      36.324  34.620  33.877  1.00  0.00     0.116 C 
ENDROOT
BRANCH   1   2
ATOM      2  N   UNL A   1      35.147  33.785  33.970  1.00  0.00    -0.351 N 
ATOM      3  C   UNL A   1      34.356  33.288  32.962  1.00  0.00     0.272 C 
ATOM      4  O   UNL A   1      33.269  32.799  33.254  1.00  0.00    -0.267 OA
ATOM      5  H   UNL A   1      34.873  33.539  34.884  1.00  0.00     0.163 HD
BRANCH   3   6
ATOM      6  C   UNL A   1      34.862  33.273  31.502  1.00  0.00     0.156 A 
ATOM      7  N   UNL A   1      35.948  32.117  29.805  1.00  0.00    -0.219 N 
ATOM      8  N   UNL A   1      35.699  32.338  31.145  1.00  0.00    -0.163 NA
ATOM      9  C   UNL A   1      35.319  32.823  28.784  1.00  0.00     0.275 A 
ATOM     10  C   UNL A   1      34.485  33.966  29.188  1.00  0.00     0.051 A 
ATOM     11  O   UNL A   1      35.457  32.583  27.588  1.00  0.00    -0.267 OA
ATOM     12  C   UNL A   1      34.338  34.268  30.537  1.00  0.00     0.020 A 
ATOM     13  C   UNL A   1      33.950  34.807  28.201  1.00  0.00     0.014 A 
ATOM     14  C   UNL A   1      33.757  35.493  30.889  1.00  0.00     0.011 A 
ATOM     15  C   UNL A   1      33.333  36.002  28.564  1.00  0.00     0.001 A 
ATOM     16  C   UNL A   1      33.266  36.359  29.906  1.00  0.00     0.001 A 
BRANCH   7  17
ATOM     17  C   UNL A   1      37.069  31.229  29.482  1.00  0.00     0.248 C 
BRANCH  17  18
ATOM     18  C   UNL A   1      36.738  29.732  29.402  1.00  0.00     0.246 C 
ATOM     19  N   UNL A   1      37.709  28.788  29.215  1.00  0.00    -0.324 N 
ATOM     20  H   UNL A   1      37.488  27.894  29.563  1.00  0.00     0.169 HD
ATOM     21  O   UNL A   1      35.565  29.347  29.496  1.00  0.00    -0.273 OA
BRANCH  19  22
ATOM     22  C   UNL A   1      38.967  28.887  28.613  1.00  0.00     0.041 A 
ATOM     23  C   UNL A   1      41.495  28.879  27.440  1.00  0.00     0.040 A 
ATOM     24  C   UNL A   1      40.382  29.260  26.696  1.00  0.00     0.016 A 
ATOM     25  C   UNL A   1      41.363  28.491  28.773  1.00  0.00     0.016 A 
ATOM     26  C   UNL A   1      39.118  29.260  27.279  1.00  0.00     0.027 A 
ATOM     27  C   UNL A   1      40.087  28.469  29.347  1.00  0.00     0.027 A 
BRANCH  23  28
ATOM     28  C   UNL A   1      42.782  28.850  26.742  1.00  0.00     0.255 C 
ATOM     29  N   UNL A   1      43.395  27.664  26.433  1.00  0.00    -0.319 N 
ATOM     30  H   UNL A   1      44.240  27.779  25.940  1.00  0.00     0.170 HD
ATOM     31  O   UNL A   1      43.270  29.928  26.409  1.00  0.00    -0.269 OA
BRANCH  29  32
ATOM     32  C   UNL A   1      43.065  26.313  26.674  1.00  0.00     0.084 A 
ATOM     33  C   UNL A   1      43.681  25.692  27.773  1.00  0.00     0.142 A 
ATOM     34  C   UNL A   1      43.343  24.388  28.148  1.00  0.00     0.048 A 
ATOM     35  C   UNL A   1      42.395  23.678  27.415  1.00  0.00     0.004 A 
ATOM     36  C   UNL A   1      42.177  25.554  25.908  1.00  0.00     0.030 A 
ATOM     37  C   UNL A   1      41.834  24.252  26.280  1.00  0.00     0.002 A 
BRANCH  33  38
ATOM     38  O   UNL A   1      44.715  26.307  28.433  1.00  0.00    -0.495 OA
ATOM     39  C   UNL A   1      45.789  25.410  28.719  1.00  0.00     0.278 C 
ENDBRANCH  33  38
ENDBRANCH  29  32
ENDBRANCH  23  28
ENDBRANCH  19  22
ENDBRANCH  17  18
ENDBRANCH   7  17
ENDBRANCH   3   6
ENDBRANCH   1   2
BRANCH   1  40
ATOM     40  C   UNL A   1      37.522  33.920  34.526  1.00  0.00     0.023 C 
BRANCH  40  41
ATOM     41  C   UNL A   1      37.751  32.501  33.993  1.00  0.00     0.023 C 
BRANCH  41  42
ATOM     42  C   UNL A   1      38.721  31.669  34.827  1.00  0.00     0.116 C 
BRANCH  42  43
ATOM     43  N   UNL A   1      38.720  30.258  34.467  1.00  0.00    -0.352 N 
ATOM     44  C   UNL A   1      39.507  29.632  33.532  1.00  0.00     0.251 C 
ATOM     45  H   UNL A   1      38.080  29.686  34.949  1.00  0.00     0.163 HD
ATOM     46  O   UNL A   1      39.383  28.431  33.316  1.00  0.00    -0.269 OA
BRANCH  44  47
ATOM     47  C   UNL A   1      40.459  30.448  32.755  1.00  0.00     0.039 A 
ATOM     48  C   UNL A   1      41.760  30.587  33.241  1.00  0.00     0.014 A 
ATOM     49  C   UNL A   1      40.095  30.990  31.521  1.00  0.00     0.014 A 
ATOM     50  C   UNL A   1      42.717  31.229  32.455  1.00  0.00     0.010 A 
ATOM     51  C   UNL A   1      41.065  31.572  30.713  1.00  0.00     0.010 A 
ATOM     52  C   UNL A   1      42.384  31.700  31.174  1.00  0.00    -0.014 A 
BRANCH  52  53
ATOM     53  C   UNL A   1      43.417  32.322  30.310  1.00  0.00     0.031 A 
ATOM     54  C   UNL A   1      43.374  33.795  30.021  1.00  0.00     0.074 A 
ATOM     55  C   UNL A   1      44.364  31.546  29.747  1.00  0.00     0.049 A 
ATOM     56  N   UNL A   1      44.215  34.521  29.331  1.00  0.00    -0.248 NA
ATOM     57  C   UNL A   1      42.225  34.550  30.551  1.00  0.00     0.031 C 
ATOM     58  C   UNL A   1      44.448  30.089  29.872  1.00  0.00     0.029 A 
ATOM     59  N   UNL A   1      45.428  31.871  28.945  1.00  0.00    -0.354 N 
ATOM     60  C   UNL A   1      43.690  35.807  29.324  1.00  0.00     0.074 A 
ATOM     61  C   UNL A   1      42.434  35.755  30.040  1.00  0.00     0.031 C 
ATOM     62  C   UNL A   1      45.515  29.648  29.184  1.00  0.00     0.029 A 
ATOM     63  C   UNL A   1      46.182  30.787  28.560  1.00  0.00     0.049 A 
ATOM     64  H   UNL A   1      45.632  32.794  28.669  1.00  0.00     0.167 HD
ATOM     65  C   UNL A   1      44.222  36.938  28.801  1.00  0.00     0.034 A 
ATOM     66  C   UNL A   1      47.295  30.722  27.804  1.00  0.00     0.034 A 
ATOM     67  C   UNL A   1      45.488  36.988  28.121  1.00  0.00     0.049 A 
ATOM     68  C   UNL A   1      47.905  32.002  27.298  1.00  0.00     0.074 A 
ATOM     69  C   UNL A   1      46.155  38.093  27.622  1.00  0.00     0.029 A 
ATOM     70  N   UNL A   1      46.278  35.884  27.839  1.00  0.00    -0.354 N 
ATOM     71  N   UNL A   1      47.485  33.235  27.452  1.00  0.00    -0.248 NA
ATOM     72  C   UNL A   1      49.171  31.887  26.560  1.00  0.00     0.031 C 
ATOM     73  C   UNL A   1      47.341  37.654  27.023  1.00  0.00     0.029 A 
ATOM     74  C   UNL A   1      47.427  36.279  27.175  1.00  0.00     0.049 A 
ATOM     75  H   UNL A   1      46.055  34.955  28.076  1.00  0.00     0.167 HD
ATOM     76  C   UNL A   1      48.455  34.043  26.872  1.00  0.00     0.074 A 
ATOM     77  C   UNL A   1      49.493  33.160  26.381  1.00  0.00     0.031 C 
ATOM     78  C   UNL A   1      48.479  35.394  26.745  1.00  0.00     0.034 A 
BRANCH  65  79
ATOM     79  C   UNL A   1      43.458  38.221  28.998  1.00  0.00     0.023 A 
ATOM     80  C   UNL A   1      42.466  38.587  28.064  1.00  0.00     0.012 A 
ATOM     81  C   UNL A   1      43.686  39.040  30.119  1.00  0.00     0.148 A 
ATOM     82  C   UNL A   1      41.739  39.767  28.224  1.00  0.00     0.002 A 
ATOM     83  C   UNL A   1      42.927  40.192  30.295  1.00  0.00     0.091 A 
ATOM     84  F   UNL A   1      44.649  38.690  30.983  1.00  0.00    -0.205 F 
ATOM     85  C   UNL A   1      41.962  40.562  29.342  1.00  0.00     0.022 A 
BRANCH  83  86
ATOM     86  S   UNL A   1      43.087  41.248  31.739  1.00  0.00     0.127 S 
ATOM     87  O   UNL A   1      42.614  40.363  32.803  1.00  0.00    -0.237 OA
ATOM     88  O   UNL A   1      44.525  41.518  31.765  1.00  0.00    -0.237 OA
ATOM     89  O   UNL A   1      42.255  42.414  31.478  1.00  0.00    -0.744 OA
ENDBRANCH  83  86
ENDBRANCH  65  79
BRANCH  66  90
ATOM     90  C   UNL A   1      47.960  29.409  27.564  1.00  0.00     0.023 A 
ATOM     91  C   UNL A   1      48.943  28.955  28.467  1.00  0.00     0.012 A 
ATOM     92  C   UNL A   1      47.614  28.602  26.464  1.00  0.00     0.148 A 
ATOM     93  C   UNL A   1      49.596  27.740  28.256  1.00  0.00     0.002 A 
ATOM     94  C   UNL A   1      48.228  27.367  26.291  1.00  0.00     0.091 A 
ATOM     95  F   UNL A   1      46.682  29.054  25.612  1.00  0.00    -0.205 F 
ATOM     96  C   UNL A   1      49.234  26.942  27.175  1.00  0.00     0.022 A 
BRANCH  94  97
ATOM     97  S   UNL A   1      47.735  26.217  25.002  1.00  0.00     0.127 S 
ATOM     98  O   UNL A   1      47.582  24.974  25.753  1.00  0.00    -0.237 OA
ATOM     99  O   UNL A   1      46.484  26.810  24.530  1.00  0.00    -0.237 OA
ATOM    100  O   UNL A   1      48.815  26.238  24.025  1.00  0.00    -0.744 OA
ENDBRANCH  94  97
ENDBRANCH  66  90
BRANCH  78 101
ATOM    101  C   UNL A   1      49.691  36.009  26.094  1.00  0.00     0.023 A 
ATOM    102  C   UNL A   1      49.908  35.849  24.711  1.00  0.00     0.012 A 
ATOM    103  C   UNL A   1      50.588  36.791  26.848  1.00  0.00     0.148 A 
ATOM    104  C   UNL A   1      51.022  36.421  24.098  1.00  0.00     0.002 A 
ATOM    105  C   UNL A   1      51.668  37.401  26.221  1.00  0.00     0.091 A 
ATOM    106  F   UNL A   1      50.379  36.916  28.167  1.00  0.00    -0.205 F 
ATOM    107  C   UNL A   1      51.894  37.205  24.850  1.00  0.00     0.022 A 
BRANCH 105 108
ATOM    108  S   UNL A   1      52.778  38.508  27.096  1.00  0.00     0.127 S 
ATOM    109  O   UNL A   1      53.479  37.586  27.987  1.00  0.00    -0.237 OA
ATOM    110  O   UNL A   1      53.598  39.051  26.013  1.00  0.00    -0.237 OA
ATOM    111  O   UNL A   1      51.923  39.490  27.750  1.00  0.00    -0.744 OA
ENDBRANCH 105 108
ENDBRANCH  78 101
ENDBRANCH  52  53
ENDBRANCH  44  47
ENDBRANCH  42  43
ENDBRANCH  41  42
ENDBRANCH  40  41
ENDBRANCH   1  40
TORSDOF 20
ENDMDL
MODEL 2
REMARK VINA RESULT:      -9.9      4.081     10.995
REMARK SMILES COc1ccccc1NC(=O)c1ccc(NC(=O)Cn2nc(C(=O)NCCCCNC(=O)c3ccc(-c4c5nc(c(-c6cccc(S(=O)(=O)[O-])c6F)c6ccc([nH]6)c(-c6cccc(S(=O)(=O)[O-])c6F)c6nc(c(-c7cccc(S(=O)(=O)[O-])c7F)c7ccc4[nH]7)C=C6)C=C5)cc3)c3ccccc3c2=O)cc1
REMARK SMILES IDX 26 1 25 2 23 3 24 4 22 6 20 7 21 8 102 9 101 10 103 11 96 12
REMARK SMILES IDX 100 13 97 14 99 15 98 16 19 17 17 18 16 19 18 21 15 22 12 23
REMARK SMILES IDX 13 24 105 25 14 26 104 27 10 28 9 29 11 31 8 32 3 33 4 34
REMARK SMILES IDX 5 35 7 36 6 37 2 38 1 39 27 40 28 41 29 42 30 43 31 44 32 46
REMARK SMILES IDX 33 47 34 48 95 49 35 50 94 51 36 52 37 53 38 54 88 55 39 56
REMARK SMILES IDX 93 57 87 58 89 59 40 60 92 61 86 62 85 63 41 65 73 66 53 67
REMARK SMILES IDX 72 68 54 69 57 70 71 71 90 72 55 73 56 74 70 76 91 77 58 78
REMARK SMILES IDX 42 79 43 80 51 81 44 82 46 83 52 84 45 85 47 86 48 87 49 88
REMARK SMILES IDX 50 89 74 90 75 91 83 92 76 93 78 94 84 95 77 96 79 97 80 98
REMARK SMILES IDX 81 99 82 100 59 101 60 102 68 103 61 104 63 105 69 106
REMARK SMILES IDX 62 107 64 108 65 109 66 110 67 111
REMARK H PARENT 25 5 16 20 9 30 30 45 89 64 57 75
REMARK Flexibility Score: inf
ROOT
ATOM      1  C   UNL A   1      46.609  25.061  24.767  1.00  0.00     0.116 C 
ENDROOT
BRANCH   1   2
ATOM      2  N   UNL A   1      45.894  23.857  24.404  1.00  0.00    -0.351 N 
ATOM      3  C   UNL A   1      44.775  23.308  24.983  1.00  0.00     0.272 C 
ATOM      4  O   UNL A   1      44.460  22.161  24.682  1.00  0.00    -0.267 OA
ATOM      5  H   UNL A   1      46.260  23.362  23.636  1.00  0.00     0.163 HD
BRANCH   3   6
ATOM      6  C   UNL A   1      43.888  24.147  25.930  1.00  0.00     0.156 A 
ATOM      7  N   UNL A   1      42.017  25.497  26.197  1.00  0.00    -0.219 N 
ATOM      8  N   UNL A   1      43.008  24.954  25.404  1.00  0.00    -0.163 NA
ATOM      9  C   UNL A   1      41.872  25.202  27.549  1.00  0.00     0.275 A 
ATOM     10  C   UNL A   1      42.943  24.406  28.170  1.00  0.00     0.051 A 
ATOM     11  O   UNL A   1      40.947  25.601  28.251  1.00  0.00    -0.267 OA
ATOM     12  C   UNL A   1      44.011  23.967  27.396  1.00  0.00     0.020 A 
ATOM     13  C   UNL A   1      42.932  24.206  29.559  1.00  0.00     0.014 A 
ATOM     14  C   UNL A   1      45.133  23.436  28.045  1.00  0.00     0.011 A 
ATOM     15  C   UNL A   1      44.034  23.634  30.189  1.00  0.00     0.001 A 
ATOM     16  C   UNL A   1      45.147  23.280  29.435  1.00  0.00     0.001 A 
BRANCH   7  17
ATOM     17  C   UNL A   1      41.217  26.574  25.606  1.00  0.00     0.248 C 
BRANCH  17  18
ATOM     18  C   UNL A   1      41.831  27.980  25.672  1.00  0.00     0.246 C 
ATOM     19  N   UNL A   1      41.645  28.798  26.752  1.00  0.00    -0.324 N 
ATOM     20  H   UNL A   1      42.355  29.465  26.891  1.00  0.00     0.169 HD
ATOM     21  O   UNL A   1      42.510  28.408  24.729  1.00  0.00    -0.273 OA
BRANCH  19  22
ATOM     22  C   UNL A   1      40.611  28.838  27.691  1.00  0.00     0.041 A 
ATOM     23  C   UNL A   1      38.625  29.101  29.629  1.00  0.00     0.040 A 
ATOM     24  C   UNL A   1      38.281  29.044  28.280  1.00  0.00     0.016 A 
ATOM     25  C   UNL A   1      39.959  29.036  30.028  1.00  0.00     0.016 A 
ATOM     26  C   UNL A   1      39.273  28.917  27.312  1.00  0.00     0.027 A 
ATOM     27  C   UNL A   1      40.953  28.933  29.049  1.00  0.00     0.027 A 
BRANCH  23  28
ATOM     28  C   UNL A   1      37.532  29.292  30.584  1.00  0.00     0.255 C 
ATOM     29  N   UNL A   1      36.743  30.413  30.546  1.00  0.00    -0.319 N 
ATOM     30  H   UNL A   1      36.028  30.410  31.223  1.00  0.00     0.170 HD
ATOM     31  O   UNL A   1      37.324  28.391  31.395  1.00  0.00    -0.269 OA
BRANCH  29  32
ATOM     32  C   UNL A   1      36.746  31.570  29.738  1.00  0.00     0.084 A 
ATOM     33  C   UNL A   1      35.663  31.738  28.860  1.00  0.00     0.142 A 
ATOM     34  C   UNL A   1      35.529  32.898  28.092  1.00  0.00     0.048 A 
ATOM     35  C   UNL A   1      36.491  33.903  28.177  1.00  0.00     0.004 A 
ATOM     36  C   UNL A   1      37.737  32.554  29.747  1.00  0.00     0.030 A 
ATOM     37  C   UNL A   1      37.608  33.717  28.984  1.00  0.00     0.002 A 
BRANCH  33  38
ATOM     38  O   UNL A   1      34.772  30.715  28.647  1.00  0.00    -0.495 OA
ATOM     39  C   UNL A   1      35.008  30.036  27.414  1.00  0.00     0.278 C 
ENDBRANCH  33  38
ENDBRANCH  29  32
ENDBRANCH  23  28
ENDBRANCH  19  22
ENDBRANCH  17  18
ENDBRANCH   7  17
ENDBRANCH   3   6
ENDBRANCH   1   2
BRANCH   1  40
ATOM     40  C   UNL A   1      47.958  25.114  24.043  1.00  0.00     0.023 C 
BRANCH  40  41
ATOM     41  C   UNL A   1      48.387  26.538  23.674  1.00  0.00     0.023 C 
BRANCH  41  42
ATOM     42  C   UNL A   1      49.382  27.162  24.648  1.00  0.00     0.116 C 
BRANCH  42  43
ATOM     43  N   UNL A   1      50.294  26.190  25.236  1.00  0.00    -0.352 N 
ATOM     44  C   UNL A   1      50.291  25.712  26.524  1.00  0.00     0.251 C 
ATOM     45  H   UNL A   1      50.993  25.835  24.642  1.00  0.00     0.163 HD
ATOM     46  O   UNL A   1      51.138  24.904  26.890  1.00  0.00    -0.269 OA
BRANCH  44  47
ATOM     47  C   UNL A   1      49.285  26.237  27.466  1.00  0.00     0.039 A 
ATOM     48  C   UNL A   1      49.635  27.324  28.268  1.00  0.00     0.014 A 
ATOM     49  C   UNL A   1      47.989  25.719  27.491  1.00  0.00     0.014 A 
ATOM     50  C   UNL A   1      48.661  27.930  29.060  1.00  0.00     0.010 A 
ATOM     51  C   UNL A   1      47.004  26.365  28.231  1.00  0.00     0.010 A 
ATOM     52  C   UNL A   1      47.333  27.474  29.026  1.00  0.00    -0.014 A 
BRANCH  52  53
ATOM     53  C   UNL A   1      46.281  28.161  29.814  1.00  0.00     0.031 A 
ATOM     54  C   UNL A   1      45.762  29.502  29.377  1.00  0.00     0.074 A 
ATOM     55  C   UNL A   1      45.830  27.595  30.951  1.00  0.00     0.049 A 
ATOM     56  N   UNL A   1      44.813  30.227  29.909  1.00  0.00    -0.248 NA
ATOM     57  C   UNL A   1      46.408  30.122  28.207  1.00  0.00     0.031 C 
ATOM     58  C   UNL A   1      46.329  26.346  31.531  1.00  0.00     0.029 A 
ATOM     59  N   UNL A   1      44.861  28.004  31.832  1.00  0.00    -0.354 N 
ATOM     60  C   UNL A   1      44.763  31.395  29.158  1.00  0.00     0.074 A 
ATOM     61  C   UNL A   1      45.806  31.302  28.160  1.00  0.00     0.031 C 
ATOM     62  C   UNL A   1      45.653  26.083  32.662  1.00  0.00     0.029 A 
ATOM     63  C   UNL A   1      44.683  27.148  32.894  1.00  0.00     0.049 A 
ATOM     64  H   UNL A   1      44.343  28.833  31.716  1.00  0.00     0.167 HD
ATOM     65  C   UNL A   1      43.902  32.435  29.265  1.00  0.00     0.034 A 
ATOM     66  C   UNL A   1      43.822  27.209  33.928  1.00  0.00     0.034 A 
ATOM     67  C   UNL A   1      42.844  32.505  30.237  1.00  0.00     0.049 A 
ATOM     68  C   UNL A   1      42.827  28.338  33.981  1.00  0.00     0.074 A 
ATOM     69  C   UNL A   1      41.869  33.475  30.381  1.00  0.00     0.029 A 
ATOM     70  N   UNL A   1      42.627  31.568  31.235  1.00  0.00    -0.354 N 
ATOM     71  N   UNL A   1      42.679  29.347  33.157  1.00  0.00    -0.248 NA
ATOM     72  C   UNL A   1      41.847  28.308  35.076  1.00  0.00     0.031 C 
ATOM     73  C   UNL A   1      41.071  33.133  31.479  1.00  0.00     0.029 A 
ATOM     74  C   UNL A   1      41.531  31.934  32.000  1.00  0.00     0.049 A 
ATOM     75  H   UNL A   1      43.171  30.760  31.380  1.00  0.00     0.167 HD
ATOM     76  C   UNL A   1      41.564  30.045  33.605  1.00  0.00     0.074 A 
ATOM     77  C   UNL A   1      41.064  29.331  34.762  1.00  0.00     0.031 C 
ATOM     78  C   UNL A   1      41.011  31.181  33.112  1.00  0.00     0.034 A 
BRANCH  65  79
ATOM     79  C   UNL A   1      44.036  33.554  28.264  1.00  0.00     0.023 A 
ATOM     80  C   UNL A   1      43.601  33.352  26.937  1.00  0.00     0.012 A 
ATOM     81  C   UNL A   1      44.546  34.810  28.640  1.00  0.00     0.148 A 
ATOM     82  C   UNL A   1      43.707  34.371  25.991  1.00  0.00     0.002 A 
ATOM     83  C   UNL A   1      44.608  35.835  27.702  1.00  0.00     0.091 A 
ATOM     84  F   UNL A   1      44.977  34.977  29.898  1.00  0.00    -0.205 F 
ATOM     85  C   UNL A   1      44.200  35.614  26.376  1.00  0.00     0.022 A 
BRANCH  83  86
ATOM     86  S   UNL A   1      45.161  37.493  28.114  1.00  0.00     0.127 S 
ATOM     87  O   UNL A   1      44.299  37.816  29.251  1.00  0.00    -0.237 OA
ATOM     88  O   UNL A   1      46.566  37.274  28.457  1.00  0.00    -0.237 OA
ATOM     89  O   UNL A   1      44.946  38.297  26.919  1.00  0.00    -0.744 OA
ENDBRANCH  83  86
ENDBRANCH  65  79
BRANCH  66  90
ATOM     90  C   UNL A   1      43.796  26.117  34.943  1.00  0.00     0.023 A 
ATOM     91  C   UNL A   1      43.125  24.913  34.648  1.00  0.00     0.012 A 
ATOM     92  C   UNL A   1      44.443  26.254  36.185  1.00  0.00     0.148 A 
ATOM     93  C   UNL A   1      43.067  23.882  35.586  1.00  0.00     0.002 A 
ATOM     94  C   UNL A   1      44.429  25.201  37.094  1.00  0.00     0.091 A 
ATOM     95  F   UNL A   1      45.070  27.410  36.451  1.00  0.00    -0.205 F 
ATOM     96  C   UNL A   1      43.725  24.022  36.804  1.00  0.00     0.022 A 
BRANCH  94  97
ATOM     97  S   UNL A   1      45.356  25.242  38.632  1.00  0.00     0.127 S 
ATOM     98  O   UNL A   1      44.630  26.256  39.392  1.00  0.00    -0.237 OA
ATOM     99  O   UNL A   1      45.195  23.872  39.119  1.00  0.00    -0.237 OA
ATOM    100  O   UNL A   1      46.720  25.589  38.257  1.00  0.00    -0.744 OA
ENDBRANCH  94  97
ENDBRANCH  66  90
BRANCH  78 101
ATOM    101  C   UNL A   1      39.768  31.699  33.789  1.00  0.00     0.023 A 
ATOM    102  C   UNL A   1      38.503  31.478  33.208  1.00  0.00     0.012 A 
ATOM    103  C   UNL A   1      39.853  32.361  35.030  1.00  0.00     0.148 A 
ATOM    104  C   UNL A   1      37.346  31.948  33.830  1.00  0.00     0.002 A 
ATOM    105  C   UNL A   1      38.692  32.780  35.669  1.00  0.00     0.091 A 
ATOM    106  F   UNL A   1      41.065  32.582  35.558  1.00  0.00    -0.205 F 
ATOM    107  C   UNL A   1      37.440  32.587  35.065  1.00  0.00     0.022 A 
BRANCH 105 108
ATOM    108  S   UNL A   1      38.719  33.519  37.306  1.00  0.00     0.127 S 
ATOM    109  O   UNL A   1      37.294  33.618  37.613  1.00  0.00    -0.237 OA
ATOM    110  O   UNL A   1      39.444  32.519  38.090  1.00  0.00    -0.237 OA
ATOM    111  O   UNL A   1      39.421  34.787  37.155  1.00  0.00    -0.744 OA
ENDBRANCH 105 108
ENDBRANCH  78 101
ENDBRANCH  52  53
ENDBRANCH  44  47
ENDBRANCH  42  43
ENDBRANCH  41  42
ENDBRANCH  40  41
ENDBRANCH   1  40
TORSDOF 20
ENDMDL
MODEL 3
REMARK VINA RESULT:      -9.8      3.735      8.556
REMARK SMILES COc1ccccc1NC(=O)c1ccc(NC(=O)Cn2nc(C(=O)NCCCCNC(=O)c3ccc(-c4c5nc(c(-c6cccc(S(=O)(=O)[O-])c6F)c6ccc([nH]6)c(-c6cccc(S(=O)(=O)[O-])c6F)c6nc(c(-c7cccc(S(=O)(=O)[O-])c7F)c7ccc4[nH]7)C=C6)C=C5)cc3)c3ccccc3c2=O)cc1
REMARK SMILES IDX 26 1 25 2 23 3 24 4 22 6 20 7 21 8 102 9 101 10 103 11 96 12
REMARK SMILES IDX 100 13 97 14 99 15 98 16 19 17 17 18 16 19 18 21 15 22 12 23
REMARK SMILES IDX 13 24 105 25 14 26 104 27 10 28 9 29 11 31 8 32 3 33 4 34
REMARK SMILES IDX 5 35 7 36 6 37 2 38 1 39 27 40 28 41 29 42 30 43 31 44 32 46
REMARK SMILES IDX 33 47 34 48 95 49 35 50 94 51 36 52 37 53 38 54 88 55 39 56
REMARK SMILES IDX 93 57 87 58 89 59 40 60 92 61 86 62 85 63 41 65 73 66 53 67
REMARK SMILES IDX 72 68 54 69 57 70 71 71 90 72 55 73 56 74 70 76 91 77 58 78
REMARK SMILES IDX 42 79 43 80 51 81 44 82 46 83 52 84 45 85 47 86 48 87 49 88
REMARK SMILES IDX 50 89 74 90 75 91 83 92 76 93 78 94 84 95 77 96 79 97 80 98
REMARK SMILES IDX 81 99 82 100 59 101 60 102 68 103 61 104 63 105 69 106
REMARK SMILES IDX 62 107 64 108 65 109 66 110 67 111
REMARK H PARENT 25 5 16 20 9 30 30 45 89 64 57 75
REMARK Flexibility Score: inf
ROOT
ATOM      1  C   UNL A   1      38.479  34.007  32.635  1.00  0.00     0.116 C 
ENDROOT
BRANCH   1   2
ATOM      2  N   UNL A   1      37.681  32.879  33.060  1.00  0.00    -0.351 N 
ATOM      3  C   UNL A   1      36.373  32.582  32.759  1.00  0.00     0.272 C 
ATOM      4  O   UNL A   1      35.805  31.708  33.407  1.00  0.00    -0.267 OA
ATOM      5  H   UNL A   1      38.137  32.233  33.647  1.00  0.00     0.163 HD
BRANCH   3   6
ATOM      6  C   UNL A   1      35.661  33.278  31.579  1.00  0.00     0.156 A 
ATOM      7  N   UNL A   1      34.827  33.129  29.416  1.00  0.00    -0.219 N 
ATOM      8  N   UNL A   1      35.679  32.695  30.411  1.00  0.00    -0.163 NA
ATOM      9  C   UNL A   1      33.901  34.153  29.594  1.00  0.00     0.275 A 
ATOM     10  C   UNL A   1      33.978  34.900  30.859  1.00  0.00     0.051 A 
ATOM     11  O   UNL A   1      33.074  34.494  28.753  1.00  0.00    -0.267 OA
ATOM     12  C   UNL A   1      34.925  34.544  31.812  1.00  0.00     0.020 A 
ATOM     13  C   UNL A   1      33.176  36.038  31.034  1.00  0.00     0.014 A 
ATOM     14  C   UNL A   1      35.152  35.413  32.887  1.00  0.00     0.011 A 
ATOM     15  C   UNL A   1      33.378  36.870  32.131  1.00  0.00     0.001 A 
ATOM     16  C   UNL A   1      34.388  36.574  33.040  1.00  0.00     0.001 A 
BRANCH   7  17
ATOM     17  C   UNL A   1      35.065  32.601  28.069  1.00  0.00     0.248 C 
BRANCH  17  18
ATOM     18  C   UNL A   1      34.536  31.184  27.800  1.00  0.00     0.246 C 
ATOM     19  N   UNL A   1      35.128  30.079  28.346  1.00  0.00    -0.324 N 
ATOM     20  H   UNL A   1      34.531  29.304  28.456  1.00  0.00     0.169 HD
ATOM     21  O   UNL A   1      33.555  31.015  27.065  1.00  0.00    -0.273 OA
BRANCH  19  22
ATOM     22  C   UNL A   1      36.442  29.871  28.775  1.00  0.00     0.041 A 
ATOM     23  C   UNL A   1      39.011  29.259  29.665  1.00  0.00     0.040 A 
ATOM     24  C   UNL A   1      38.812  29.710  28.363  1.00  0.00     0.016 A 
ATOM     25  C   UNL A   1      37.934  29.100  30.537  1.00  0.00     0.016 A 
ATOM     26  C   UNL A   1      37.529  30.012  27.917  1.00  0.00     0.027 A 
ATOM     27  C   UNL A   1      36.643  29.381  30.075  1.00  0.00     0.027 A 
BRANCH  23  28
ATOM     28  C   UNL A   1      40.380  28.908  30.044  1.00  0.00     0.255 C 
ATOM     29  N   UNL A   1      41.031  27.853  29.458  1.00  0.00    -0.319 N 
ATOM     30  H   UNL A   1      41.955  27.737  29.779  1.00  0.00     0.170 HD
ATOM     31  O   UNL A   1      40.938  29.619  30.878  1.00  0.00    -0.269 OA
BRANCH  29  32
ATOM     32  C   UNL A   1      40.650  26.900  28.490  1.00  0.00     0.084 A 
ATOM     33  C   UNL A   1      41.327  26.932  27.260  1.00  0.00     0.142 A 
ATOM     34  C   UNL A   1      41.086  25.968  26.277  1.00  0.00     0.048 A 
ATOM     35  C   UNL A   1      40.148  24.963  26.504  1.00  0.00     0.004 A 
ATOM     36  C   UNL A   1      39.658  25.932  28.663  1.00  0.00     0.030 A 
ATOM     37  C   UNL A   1      39.415  24.963  27.686  1.00  0.00     0.002 A 
BRANCH  33  38
ATOM     38  O   UNL A   1      42.155  27.982  26.947  1.00  0.00    -0.495 OA
ATOM     39  C   UNL A   1      41.872  28.532  25.660  1.00  0.00     0.278 C 
ENDBRANCH  33  38
ENDBRANCH  29  32
ENDBRANCH  23  28
ENDBRANCH  19  22
ENDBRANCH  17  18
ENDBRANCH   7  17
ENDBRANCH   3   6
ENDBRANCH   1   2
BRANCH   1  40
ATOM     40  C   UNL A   1      39.438  34.428  33.753  1.00  0.00     0.023 C 
BRANCH  40  41
ATOM     41  C   UNL A   1      38.715  34.891  35.022  1.00  0.00     0.023 C 
BRANCH  41  42
ATOM     42  C   UNL A   1      37.784  33.845  35.628  1.00  0.00     0.116 C 
BRANCH  42  43
ATOM     43  N   UNL A   1      38.026  33.617  37.046  1.00  0.00    -0.352 N 
ATOM     44  C   UNL A   1      39.037  32.883  37.616  1.00  0.00     0.251 C 
ATOM     45  H   UNL A   1      37.389  34.037  37.669  1.00  0.00     0.163 HD
ATOM     46  O   UNL A   1      39.106  32.758  38.834  1.00  0.00    -0.269 OA
BRANCH  44  47
ATOM     47  C   UNL A   1      39.998  32.202  36.728  1.00  0.00     0.039 A 
ATOM     48  C   UNL A   1      39.509  31.254  35.828  1.00  0.00     0.014 A 
ATOM     49  C   UNL A   1      41.347  32.563  36.724  1.00  0.00     0.014 A 
ATOM     50  C   UNL A   1      40.371  30.705  34.880  1.00  0.00     0.010 A 
ATOM     51  C   UNL A   1      42.189  32.062  35.737  1.00  0.00     0.010 A 
ATOM     52  C   UNL A   1      41.710  31.124  34.809  1.00  0.00    -0.014 A 
BRANCH  52  53
ATOM     53  C   UNL A   1      42.611  30.592  33.758  1.00  0.00     0.031 A 
ATOM     54  C   UNL A   1      43.056  29.158  33.801  1.00  0.00     0.074 A 
ATOM     55  C   UNL A   1      43.065  31.417  32.795  1.00  0.00     0.049 A 
ATOM     56  N   UNL A   1      43.800  28.504  32.945  1.00  0.00    -0.248 NA
ATOM     57  C   UNL A   1      42.637  28.358  34.964  1.00  0.00     0.031 C 
ATOM     58  C   UNL A   1      42.784  32.852  32.708  1.00  0.00     0.029 A 
ATOM     59  N   UNL A   1      43.872  31.172  31.713  1.00  0.00    -0.354 N 
ATOM     60  C   UNL A   1      43.956  27.229  33.475  1.00  0.00     0.074 A 
ATOM     61  C   UNL A   1      43.268  27.213  34.749  1.00  0.00     0.031 C 
ATOM     62  C   UNL A   1      43.396  33.356  31.623  1.00  0.00     0.029 A 
ATOM     63  C   UNL A   1      44.121  32.286  30.945  1.00  0.00     0.049 A 
ATOM     64  H   UNL A   1      44.240  30.283  31.506  1.00  0.00     0.167 HD
ATOM     65  C   UNL A   1      44.583  26.157  32.936  1.00  0.00     0.034 A 
ATOM     66  C   UNL A   1      44.839  32.423  29.814  1.00  0.00     0.034 A 
ATOM     67  C   UNL A   1      45.235  26.171  31.654  1.00  0.00     0.049 A 
ATOM     68  C   UNL A   1      45.465  31.201  29.197  1.00  0.00     0.074 A 
ATOM     69  C   UNL A   1      45.832  25.121  30.979  1.00  0.00     0.029 A 
ATOM     70  N   UNL A   1      45.379  27.294  30.853  1.00  0.00    -0.354 N 
ATOM     71  N   UNL A   1      45.453  29.961  29.626  1.00  0.00    -0.248 NA
ATOM     72  C   UNL A   1      46.156  31.385  27.914  1.00  0.00     0.031 C 
ATOM     73  C   UNL A   1      46.353  25.614  29.777  1.00  0.00     0.029 A 
ATOM     74  C   UNL A   1      46.053  26.964  29.689  1.00  0.00     0.049 A 
ATOM     75  H   UNL A   1      45.049  28.194  31.078  1.00  0.00     0.167 HD
ATOM     76  C   UNL A   1      46.092  29.213  28.646  1.00  0.00     0.074 A 
ATOM     77  C   UNL A   1      46.462  30.136  27.592  1.00  0.00     0.031 C 
ATOM     78  C   UNL A   1      46.361  27.883  28.624  1.00  0.00     0.034 A 
BRANCH  65  79
ATOM     79  C   UNL A   1      44.542  24.865  33.709  1.00  0.00     0.023 A 
ATOM     80  C   UNL A   1      43.484  23.958  33.487  1.00  0.00     0.012 A 
ATOM     81  C   UNL A   1      45.562  24.526  34.617  1.00  0.00     0.148 A 
ATOM     82  C   UNL A   1      43.423  22.752  34.183  1.00  0.00     0.002 A 
ATOM     83  C   UNL A   1      45.517  23.302  35.275  1.00  0.00     0.091 A 
ATOM     84  F   UNL A   1      46.546  25.409  34.834  1.00  0.00    -0.205 F 
ATOM     85  C   UNL A   1      44.443  22.420  35.069  1.00  0.00     0.022 A 
BRANCH  83  86
ATOM     86  S   UNL A   1      46.819  22.749  36.382  1.00  0.00     0.127 S 
ATOM     87  O   UNL A   1      46.752  23.755  37.441  1.00  0.00    -0.237 OA
ATOM     88  O   UNL A   1      46.348  21.420  36.773  1.00  0.00    -0.237 OA
ATOM     89  O   UNL A   1      48.044  22.750  35.594  1.00  0.00    -0.744 OA
ENDBRANCH  83  86
ENDBRANCH  65  79
BRANCH  66  90
ATOM     90  C   UNL A   1      44.923  33.750  29.139  1.00  0.00     0.023 A 
ATOM     91  C   UNL A   1      46.135  34.470  29.173  1.00  0.00     0.012 A 
ATOM     92  C   UNL A   1      43.823  34.293  28.449  1.00  0.00     0.148 A 
ATOM     93  C   UNL A   1      46.236  35.722  28.567  1.00  0.00     0.002 A 
ATOM     94  C   UNL A   1      43.947  35.516  27.799  1.00  0.00     0.091 A 
ATOM     95  F   UNL A   1      42.677  33.597  28.434  1.00  0.00    -0.205 F 
ATOM     96  C   UNL A   1      45.147  36.242  27.874  1.00  0.00     0.022 A 
BRANCH  94  97
ATOM     97  S   UNL A   1      42.640  36.201  26.775  1.00  0.00     0.127 S 
ATOM     98  O   UNL A   1      43.127  37.557  26.537  1.00  0.00    -0.237 OA
ATOM     99  O   UNL A   1      42.676  35.318  25.609  1.00  0.00    -0.237 OA
ATOM    100  O   UNL A   1      41.424  36.095  27.570  1.00  0.00    -0.744 OA
ENDBRANCH  94  97
ENDBRANCH  66  90
BRANCH  78 101
ATOM    101  C   UNL A   1      47.046  27.333  27.399  1.00  0.00     0.023 A 
ATOM    102  C   UNL A   1      46.282  26.874  26.308  1.00  0.00     0.012 A 
ATOM    103  C   UNL A   1      48.452  27.320  27.312  1.00  0.00     0.148 A 
ATOM    104  C   UNL A   1      46.906  26.369  25.168  1.00  0.00     0.002 A 
ATOM    105  C   UNL A   1      49.067  26.864  26.151  1.00  0.00     0.091 A 
ATOM    106  F   UNL A   1      49.165  27.740  28.367  1.00  0.00    -0.205 F 
ATOM    107  C   UNL A   1      48.297  26.375  25.085  1.00  0.00     0.022 A 
BRANCH 105 108
ATOM    108  S   UNL A   1      50.847  26.933  25.926  1.00  0.00     0.127 S 
ATOM    109  O   UNL A   1      51.316  26.012  26.959  1.00  0.00    -0.237 OA
ATOM    110  O   UNL A   1      51.009  26.446  24.555  1.00  0.00    -0.237 OA
ATOM    111  O   UNL A   1      51.215  28.331  26.112  1.00  0.00    -0.744 OA
ENDBRANCH 105 108
ENDBRANCH  78 101
ENDBRANCH  52  53
ENDBRANCH  44  47
ENDBRANCH  42  43
ENDBRANCH  41  42
ENDBRANCH  40  41
ENDBRANCH   1  40
TORSDOF 20
ENDMDL
