MODEL 1
REMARK VINA RESULT:     -11.0      0.000      0.000
REMARK SMILES Nc1ccc(SCCn2cc(C(=O)NCCCCNC(=O)c3ccc(-c4c5nc(c(-c6cccc(S(=O)(=O)[O-])c6F)c6ccc([nH]6)c(-c6cccc(S(=O)(=O)[O-])c6F)c6nc(c(-c7cccc(S(=O)(=O)[O-])c7F)c7ccc4[nH]7)C=C6)C=C5)cc3)nn2)cc1Cl
REMARK SMILES IDX 15 1 14 2 12 3 13 4 11 6 9 7 10 8 86 9 85 10 8 11 7 12 6 13
REMARK SMILES IDX 5 14 2 15 3 16 88 17 4 18 87 19 89 20 1 21 16 24 17 25 18 26
REMARK SMILES IDX 19 27 20 28 21 30 22 31 23 32 84 33 24 34 83 35 25 36 26 37
REMARK SMILES IDX 27 38 77 39 28 40 82 41 76 42 78 43 29 44 81 45 75 46 74 47
REMARK SMILES IDX 30 49 62 50 42 51 61 52 43 53 46 54 60 55 79 56 44 57 45 58
REMARK SMILES IDX 59 60 80 61 47 62 31 63 32 64 40 65 33 66 35 67 41 68 34 69
REMARK SMILES IDX 36 70 37 71 38 72 39 73 63 74 64 75 72 76 65 77 67 78 73 79
REMARK SMILES IDX 66 80 68 81 69 82 70 83 71 84 48 85 49 86 57 87 50 88 52 89
REMARK SMILES IDX 58 90 51 91 53 92 54 93 55 94 56 95
REMARK H PARENT 14 5 1 22 1 23 19 29 78 48 46 59
REMARK Flexibility Score: inf
ROOT
ATOM      1  C   UNL A   1      34.955  35.289  33.315  1.00  0.00     0.116 C 
ENDROOT
BRANCH   1   2
ATOM      2  N   UNL A   1      33.648  35.894  33.480  1.00  0.00    -0.351 N 
ATOM      3  C   UNL A   1      32.800  36.463  32.561  1.00  0.00     0.273 C 
ATOM      4  O   UNL A   1      31.859  37.137  33.003  1.00  0.00    -0.267 OA
ATOM      5  H   UNL A   1      33.314  35.900  34.406  1.00  0.00     0.163 HD
BRANCH   3   6
ATOM      6  C   UNL A   1      33.004  36.291  31.128  1.00  0.00     0.170 A 
ATOM      7  N   UNL A   1      33.113  35.563  29.086  1.00  0.00    -0.251 N 
ATOM      8  C   UNL A   1      33.117  35.134  30.380  1.00  0.00     0.145 A 
ATOM      9  N   UNL A   1      33.115  36.901  29.015  1.00  0.00    -0.067 NA
ATOM     10  N   UNL A   1      33.002  37.360  30.255  1.00  0.00    -0.125 NA
BRANCH   7  11
ATOM     11  C   UNL A   1      33.196  34.766  27.886  1.00  0.00     0.157 C 
BRANCH  11  12
ATOM     12  C   UNL A   1      32.912  33.275  28.077  1.00  0.00     0.098 C 
BRANCH  12  13
ATOM     13  S   UNL A   1      31.784  32.528  26.841  1.00  0.00    -0.124 SA
BRANCH  13  14
ATOM     14  C   UNL A   1      32.419  30.873  26.632  1.00  0.00     0.009 A 
ATOM     15  C   UNL A   1      33.261  28.188  26.299  1.00  0.00     0.050 A 
ATOM     16  C   UNL A   1      34.044  29.106  27.001  1.00  0.00     0.028 A 
ATOM     17  C   UNL A   1      32.097  28.663  25.677  1.00  0.00     0.065 A 
ATOM     18  C   UNL A   1      33.635  30.436  27.158  1.00  0.00     0.017 A 
ATOM     19  C   UNL A   1      31.672  29.984  25.852  1.00  0.00     0.037 A 
ATOM     20  Cl  UNL A   1      31.136  27.623  24.677  1.00  0.00    -0.082 Cl
BRANCH  15  21
ATOM     21  N   UNL A   1      33.727  26.891  26.125  1.00  0.00    -0.398 N 
ATOM     22  H   UNL A   1      33.093  26.139  26.098  1.00  0.00     0.156 HD
ATOM     23  H   UNL A   1      34.693  26.724  26.029  1.00  0.00     0.156 HD
ENDBRANCH  15  21
ENDBRANCH  13  14
ENDBRANCH  12  13
ENDBRANCH  11  12
ENDBRANCH   7  11
ENDBRANCH   3   6
ENDBRANCH   1   2
BRANCH   1  24
ATOM     24  C   UNL A   1      34.925  33.768  33.477  1.00  0.00     0.023 C 
BRANCH  24  25
ATOM     25  C   UNL A   1      35.932  32.999  32.609  1.00  0.00     0.023 C 
BRANCH  25  26
ATOM     26  C   UNL A   1      35.314  31.973  31.661  1.00  0.00     0.116 C 
BRANCH  26  27
ATOM     27  N   UNL A   1      35.375  32.383  30.258  1.00  0.00    -0.352 N 
ATOM     28  C   UNL A   1      36.444  32.277  29.392  1.00  0.00     0.251 C 
ATOM     29  H   UNL A   1      34.555  32.784  29.887  1.00  0.00     0.163 HD
ATOM     30  O   UNL A   1      36.488  32.929  28.352  1.00  0.00    -0.269 OA
BRANCH  28  31
ATOM     31  C   UNL A   1      37.540  31.362  29.747  1.00  0.00     0.039 A 
ATOM     32  C   UNL A   1      37.439  29.991  29.502  1.00  0.00     0.014 A 
ATOM     33  C   UNL A   1      38.717  31.919  30.242  1.00  0.00     0.014 A 
ATOM     34  C   UNL A   1      38.570  29.191  29.661  1.00  0.00     0.010 A 
ATOM     35  C   UNL A   1      39.858  31.149  30.289  1.00  0.00     0.010 A 
ATOM     36  C   UNL A   1      39.791  29.777  30.028  1.00  0.00    -0.014 A 
BRANCH  36  37
ATOM     37  C   UNL A   1      41.019  28.975  30.048  1.00  0.00     0.031 A 
ATOM     38  C   UNL A   1      41.544  28.557  31.387  1.00  0.00     0.074 A 
ATOM     39  C   UNL A   1      41.535  28.411  28.934  1.00  0.00     0.049 A 
ATOM     40  N   UNL A   1      42.719  28.773  31.888  1.00  0.00    -0.248 NA
ATOM     41  C   UNL A   1      40.637  27.842  32.297  1.00  0.00     0.031 C 
ATOM     42  C   UNL A   1      40.976  28.416  27.576  1.00  0.00     0.029 A 
ATOM     43  N   UNL A   1      42.592  27.559  28.825  1.00  0.00    -0.354 N 
ATOM     44  C   UNL A   1      42.768  28.073  33.098  1.00  0.00     0.074 A 
ATOM     45  C   UNL A   1      41.423  27.623  33.353  1.00  0.00     0.031 C 
ATOM     46  C   UNL A   1      41.511  27.395  26.873  1.00  0.00     0.029 A 
ATOM     47  C   UNL A   1      42.576  26.805  27.660  1.00  0.00     0.049 A 
ATOM     48  H   UNL A   1      43.299  27.484  29.506  1.00  0.00     0.167 HD
ATOM     49  C   UNL A   1      43.941  27.770  33.724  1.00  0.00     0.034 A 
ATOM     50  C   UNL A   1      43.348  25.734  27.374  1.00  0.00     0.034 A 
ATOM     51  C   UNL A   1      45.047  28.511  33.179  1.00  0.00     0.049 A 
ATOM     52  C   UNL A   1      44.538  25.796  28.248  1.00  0.00     0.074 A 
ATOM     53  C   UNL A   1      45.383  29.844  33.063  1.00  0.00     0.029 A 
ATOM     54  N   UNL A   1      45.899  27.837  32.341  1.00  0.00    -0.354 N 
ATOM     55  N   UNL A   1      45.442  26.732  28.169  1.00  0.00    -0.248 NA
ATOM     56  C   UNL A   1      44.544  25.019  29.474  1.00  0.00     0.031 C 
ATOM     57  C   UNL A   1      46.070  29.939  31.817  1.00  0.00     0.029 A 
ATOM     58  C   UNL A   1      46.133  28.655  31.269  1.00  0.00     0.049 A 
ATOM     59  H   UNL A   1      46.273  26.937  32.483  1.00  0.00     0.167 HD
ATOM     60  C   UNL A   1      45.830  26.952  29.484  1.00  0.00     0.074 A 
ATOM     61  C   UNL A   1      45.354  25.780  30.214  1.00  0.00     0.031 C 
ATOM     62  C   UNL A   1      46.238  28.188  29.904  1.00  0.00     0.034 A 
BRANCH  49  63
ATOM     63  C   UNL A   1      44.190  26.598  34.649  1.00  0.00     0.023 A 
ATOM     64  C   UNL A   1      43.840  25.308  34.182  1.00  0.00     0.012 A 
ATOM     65  C   UNL A   1      44.492  26.716  36.022  1.00  0.00     0.148 A 
ATOM     66  C   UNL A   1      43.747  24.207  35.042  1.00  0.00     0.002 A 
ATOM     67  C   UNL A   1      44.475  25.602  36.860  1.00  0.00     0.091 A 
ATOM     68  F   UNL A   1      44.668  27.926  36.565  1.00  0.00    -0.205 F 
ATOM     69  C   UNL A   1      44.074  24.351  36.383  1.00  0.00     0.022 A 
BRANCH  67  70
ATOM     70  S   UNL A   1      44.957  25.728  38.586  1.00  0.00     0.127 S 
ATOM     71  O   UNL A   1      44.680  24.379  39.068  1.00  0.00    -0.237 OA
ATOM     72  O   UNL A   1      46.376  26.071  38.484  1.00  0.00    -0.237 OA
ATOM     73  O   UNL A   1      44.127  26.797  39.128  1.00  0.00    -0.744 OA
ENDBRANCH  67  70
ENDBRANCH  49  63
BRANCH  50  74
ATOM     74  C   UNL A   1      43.022  24.559  26.542  1.00  0.00     0.023 A 
ATOM     75  C   UNL A   1      43.678  24.364  25.314  1.00  0.00     0.012 A 
ATOM     76  C   UNL A   1      42.245  23.501  27.067  1.00  0.00     0.148 A 
ATOM     77  C   UNL A   1      43.581  23.142  24.637  1.00  0.00     0.002 A 
ATOM     78  C   UNL A   1      42.145  22.292  26.387  1.00  0.00     0.091 A 
ATOM     79  F   UNL A   1      41.680  23.652  28.273  1.00  0.00    -0.205 F 
ATOM     80  C   UNL A   1      42.821  22.106  25.175  1.00  0.00     0.022 A 
BRANCH  78  81
ATOM     81  S   UNL A   1      41.189  20.914  27.031  1.00  0.00     0.127 S 
ATOM     82  O   UNL A   1      40.079  20.843  26.081  1.00  0.00    -0.237 OA
ATOM     83  O   UNL A   1      42.146  19.815  26.942  1.00  0.00    -0.237 OA
ATOM     84  O   UNL A   1      40.792  21.304  28.380  1.00  0.00    -0.744 OA
ENDBRANCH  78  81
ENDBRANCH  50  74
BRANCH  62  85
ATOM     85  C   UNL A   1      46.502  29.249  28.862  1.00  0.00     0.023 A 
ATOM     86  C   UNL A   1      47.747  29.348  28.205  1.00  0.00     0.012 A 
ATOM     87  C   UNL A   1      45.427  30.022  28.389  1.00  0.00     0.148 A 
ATOM     88  C   UNL A   1      47.926  30.213  27.123  1.00  0.00     0.002 A 
ATOM     89  C   UNL A   1      45.596  30.847  27.281  1.00  0.00     0.091 A 
ATOM     90  F   UNL A   1      44.242  29.913  29.011  1.00  0.00    -0.205 F 
ATOM     91  C   UNL A   1      46.846  30.952  26.651  1.00  0.00     0.022 A 
BRANCH  89  92
ATOM     92  S   UNL A   1      44.213  31.718  26.538  1.00  0.00     0.127 S 
ATOM     93  O   UNL A   1      44.838  32.358  25.383  1.00  0.00    -0.237 OA
ATOM     94  O   UNL A   1      43.292  30.628  26.209  1.00  0.00    -0.237 OA
ATOM     95  O   UNL A   1      43.714  32.622  27.568  1.00  0.00    -0.744 OA
ENDBRANCH  89  92
ENDBRANCH  62  85
ENDBRANCH  36  37
ENDBRANCH  28  31
ENDBRANCH  26  27
ENDBRANCH  25  26
ENDBRANCH  24  25
ENDBRANCH   1  24
TORSDOF 19
ENDMDL
MODEL 2
REMARK VINA RESULT:     -10.9      1.783      2.057
REMARK SMILES Nc1ccc(SCCn2cc(C(=O)NCCCCNC(=O)c3ccc(-c4c5nc(c(-c6cccc(S(=O)(=O)[O-])c6F)c6ccc([nH]6)c(-c6cccc(S(=O)(=O)[O-])c6F)c6nc(c(-c7cccc(S(=O)(=O)[O-])c7F)c7ccc4[nH]7)C=C6)C=C5)cc3)nn2)cc1Cl
REMARK SMILES IDX 15 1 14 2 12 3 13 4 11 6 9 7 10 8 86 9 85 10 8 11 7 12 6 13
REMARK SMILES IDX 5 14 2 15 3 16 88 17 4 18 87 19 89 20 1 21 16 24 17 25 18 26
REMARK SMILES IDX 19 27 20 28 21 30 22 31 23 32 84 33 24 34 83 35 25 36 26 37
REMARK SMILES IDX 27 38 77 39 28 40 82 41 76 42 78 43 29 44 81 45 75 46 74 47
REMARK SMILES IDX 30 49 62 50 42 51 61 52 43 53 46 54 60 55 79 56 44 57 45 58
REMARK SMILES IDX 59 60 80 61 47 62 31 63 32 64 40 65 33 66 35 67 41 68 34 69
REMARK SMILES IDX 36 70 37 71 38 72 39 73 63 74 64 75 72 76 65 77 67 78 73 79
REMARK SMILES IDX 66 80 68 81 69 82 70 83 71 84 48 85 49 86 57 87 50 88 52 89
REMARK SMILES IDX 58 90 51 91 53 92 54 93 55 94 56 95
REMARK H PARENT 14 5 1 22 1 23 19 29 78 48 46 59
REMARK Flexibility Score: inf
ROOT
ATOM      1  C   UNL A   1      34.987  35.358  33.352  1.00  0.00     0.116 C 
ENDROOT
BRANCH   1   2
ATOM      2  N   UNL A   1      33.681  35.966  33.514  1.00  0.00    -0.351 N 
ATOM      3  C   UNL A   1      32.825  36.512  32.589  1.00  0.00     0.273 C 
ATOM      4  O   UNL A   1      31.887  37.196  33.023  1.00  0.00    -0.267 OA
ATOM      5  H   UNL A   1      33.355  35.993  34.442  1.00  0.00     0.163 HD
BRANCH   3   6
ATOM      6  C   UNL A   1      33.018  36.307  31.159  1.00  0.00     0.170 A 
ATOM      7  N   UNL A   1      33.148  35.519  29.140  1.00  0.00    -0.251 N 
ATOM      8  C   UNL A   1      33.209  35.137  30.447  1.00  0.00     0.145 A 
ATOM      9  N   UNL A   1      33.043  36.850  29.025  1.00  0.00    -0.067 NA
ATOM     10  N   UNL A   1      32.915  37.342  30.251  1.00  0.00    -0.125 NA
BRANCH   7  11
ATOM     11  C   UNL A   1      33.273  34.689  27.966  1.00  0.00     0.157 C 
BRANCH  11  12
ATOM     12  C   UNL A   1      32.774  33.253  28.131  1.00  0.00     0.098 C 
BRANCH  12  13
ATOM     13  S   UNL A   1      31.826  32.586  26.711  1.00  0.00    -0.124 SA
BRANCH  13  14
ATOM     14  C   UNL A   1      32.404  30.903  26.569  1.00  0.00     0.009 A 
ATOM     15  C   UNL A   1      33.152  28.179  26.336  1.00  0.00     0.050 A 
ATOM     16  C   UNL A   1      33.939  29.083  27.053  1.00  0.00     0.028 A 
ATOM     17  C   UNL A   1      32.037  28.684  25.650  1.00  0.00     0.065 A 
ATOM     18  C   UNL A   1      33.576  30.432  27.160  1.00  0.00     0.017 A 
ATOM     19  C   UNL A   1      31.658  30.025  25.776  1.00  0.00     0.037 A 
ATOM     20  Cl  UNL A   1      31.082  27.659  24.631  1.00  0.00    -0.082 Cl
BRANCH  15  21
ATOM     21  N   UNL A   1      33.574  26.861  26.213  1.00  0.00    -0.398 N 
ATOM     22  H   UNL A   1      34.531  26.642  26.281  1.00  0.00     0.156 HD
ATOM     23  H   UNL A   1      32.915  26.146  26.057  1.00  0.00     0.156 HD
ENDBRANCH  15  21
ENDBRANCH  13  14
ENDBRANCH  12  13
ENDBRANCH  11  12
ENDBRANCH   7  11
ENDBRANCH   3   6
ENDBRANCH   1   2
BRANCH   1  24
ATOM     24  C   UNL A   1      34.934  33.829  33.381  1.00  0.00     0.023 C 
BRANCH  24  25
ATOM     25  C   UNL A   1      35.903  33.123  32.421  1.00  0.00     0.023 C 
BRANCH  25  26
ATOM     26  C   UNL A   1      35.253  32.108  31.483  1.00  0.00     0.116 C 
BRANCH  26  27
ATOM     27  N   UNL A   1      35.293  32.520  30.079  1.00  0.00    -0.352 N 
ATOM     28  C   UNL A   1      36.356  32.431  29.203  1.00  0.00     0.251 C 
ATOM     29  H   UNL A   1      34.464  32.907  29.717  1.00  0.00     0.163 HD
ATOM     30  O   UNL A   1      36.379  33.086  28.164  1.00  0.00    -0.269 OA
BRANCH  28  31
ATOM     31  C   UNL A   1      37.470  31.535  29.547  1.00  0.00     0.039 A 
ATOM     32  C   UNL A   1      37.409  30.170  29.257  1.00  0.00     0.014 A 
ATOM     33  C   UNL A   1      38.624  32.106  30.077  1.00  0.00     0.014 A 
ATOM     34  C   UNL A   1      38.558  29.395  29.409  1.00  0.00     0.010 A 
ATOM     35  C   UNL A   1      39.784  31.365  30.118  1.00  0.00     0.010 A 
ATOM     36  C   UNL A   1      39.758  30.001  29.813  1.00  0.00    -0.014 A 
BRANCH  36  37
ATOM     37  C   UNL A   1      41.006  29.231  29.827  1.00  0.00     0.031 A 
ATOM     38  C   UNL A   1      41.584  28.884  31.165  1.00  0.00     0.074 A 
ATOM     39  C   UNL A   1      41.501  28.631  28.722  1.00  0.00     0.049 A 
ATOM     40  N   UNL A   1      42.768  29.150  31.617  1.00  0.00    -0.248 NA
ATOM     41  C   UNL A   1      40.724  28.188  32.134  1.00  0.00     0.031 C 
ATOM     42  C   UNL A   1      40.899  28.563  27.384  1.00  0.00     0.029 A 
ATOM     43  N   UNL A   1      42.576  27.801  28.615  1.00  0.00    -0.354 N 
ATOM     44  C   UNL A   1      42.873  28.506  32.854  1.00  0.00     0.074 A 
ATOM     45  C   UNL A   1      41.549  28.034  33.172  1.00  0.00     0.031 C 
ATOM     46  C   UNL A   1      41.438  27.526  26.708  1.00  0.00     0.029 A 
ATOM     47  C   UNL A   1      42.542  26.997  27.485  1.00  0.00     0.049 A 
ATOM     48  H   UNL A   1      43.306  27.773  29.275  1.00  0.00     0.167 HD
ATOM     49  C   UNL A   1      44.073  28.259  33.454  1.00  0.00     0.034 A 
ATOM     50  C   UNL A   1      43.332  25.934  27.220  1.00  0.00     0.034 A 
ATOM     51  C   UNL A   1      45.141  29.002  32.842  1.00  0.00     0.049 A 
ATOM     52  C   UNL A   1      44.547  26.063  28.051  1.00  0.00     0.074 A 
ATOM     53  C   UNL A   1      45.439  30.336  32.658  1.00  0.00     0.029 A 
ATOM     54  N   UNL A   1      45.984  28.313  32.006  1.00  0.00    -0.354 N 
ATOM     55  N   UNL A   1      45.424  27.017  27.903  1.00  0.00    -0.248 NA
ATOM     56  C   UNL A   1      44.612  25.341  29.308  1.00  0.00     0.031 C 
ATOM     57  C   UNL A   1      46.084  30.394  31.387  1.00  0.00     0.029 A 
ATOM     58  C   UNL A   1      46.162  29.090  30.894  1.00  0.00     0.049 A 
ATOM     59  H   UNL A   1      46.385  27.430  32.175  1.00  0.00     0.167 HD
ATOM     60  C   UNL A   1      45.847  27.303  29.193  1.00  0.00     0.074 A 
ATOM     61  C   UNL A   1      45.425  26.153  29.988  1.00  0.00     0.031 C 
ATOM     62  C   UNL A   1      46.236  28.566  29.547  1.00  0.00     0.034 A 
BRANCH  49  63
ATOM     63  C   UNL A   1      44.381  27.135  34.419  1.00  0.00     0.023 A 
ATOM     64  C   UNL A   1      45.139  27.449  35.573  1.00  0.00     0.012 A 
ATOM     65  C   UNL A   1      44.203  25.764  34.131  1.00  0.00     0.148 A 
ATOM     66  C   UNL A   1      45.728  26.459  36.368  1.00  0.00     0.002 A 
ATOM     67  C   UNL A   1      44.724  24.780  34.970  1.00  0.00     0.091 A 
ATOM     68  F   UNL A   1      43.643  25.393  32.974  1.00  0.00    -0.205 F 
ATOM     69  C   UNL A   1      45.513  25.121  36.072  1.00  0.00     0.022 A 
BRANCH  67  70
ATOM     70  S   UNL A   1      44.414  23.037  34.665  1.00  0.00     0.127 S 
ATOM     71  O   UNL A   1      42.965  23.020  34.502  1.00  0.00    -0.237 OA
ATOM     72  O   UNL A   1      45.179  22.800  33.439  1.00  0.00    -0.237 OA
ATOM     73  O   UNL A   1      44.947  22.352  35.837  1.00  0.00    -0.744 OA
ENDBRANCH  67  70
ENDBRANCH  49  63
BRANCH  50  74
ATOM     74  C   UNL A   1      43.010  24.716  26.450  1.00  0.00     0.023 A 
ATOM     75  C   UNL A   1      43.870  24.286  25.423  1.00  0.00     0.012 A 
ATOM     76  C   UNL A   1      41.989  23.841  26.885  1.00  0.00     0.148 A 
ATOM     77  C   UNL A   1      43.730  23.012  24.860  1.00  0.00     0.002 A 
ATOM     78  C   UNL A   1      41.849  22.580  26.316  1.00  0.00     0.091 A 
ATOM     79  F   UNL A   1      41.215  24.213  27.914  1.00  0.00    -0.205 F 
ATOM     80  C   UNL A   1      42.726  22.158  25.309  1.00  0.00     0.022 A 
BRANCH  78  81
ATOM     81  S   UNL A   1      40.580  21.427  26.857  1.00  0.00     0.127 S 
ATOM     82  O   UNL A   1      39.353  22.123  26.469  1.00  0.00    -0.237 OA
ATOM     83  O   UNL A   1      40.892  20.242  26.064  1.00  0.00    -0.237 OA
ATOM     84  O   UNL A   1      40.757  21.293  28.298  1.00  0.00    -0.744 OA
ENDBRANCH  78  81
ENDBRANCH  50  74
BRANCH  62  85
ATOM     85  C   UNL A   1      46.439  29.586  28.452  1.00  0.00     0.023 A 
ATOM     86  C   UNL A   1      45.355  30.292  27.888  1.00  0.00     0.012 A 
ATOM     87  C   UNL A   1      47.747  29.990  28.130  1.00  0.00     0.148 A 
ATOM     88  C   UNL A   1      45.566  31.355  27.006  1.00  0.00     0.002 A 
ATOM     89  C   UNL A   1      47.954  31.079  27.289  1.00  0.00     0.091 A 
ATOM     90  F   UNL A   1      48.773  29.321  28.680  1.00  0.00    -0.205 F 
ATOM     91  C   UNL A   1      46.865  31.758  26.718  1.00  0.00     0.022 A 
BRANCH  89  92
ATOM     92  S   UNL A   1      49.597  31.736  26.988  1.00  0.00     0.127 S 
ATOM     93  O   UNL A   1      50.059  32.038  28.341  1.00  0.00    -0.237 OA
ATOM     94  O   UNL A   1      50.277  30.609  26.347  1.00  0.00    -0.237 OA
ATOM     95  O   UNL A   1      49.410  32.888  26.114  1.00  0.00    -0.744 OA
ENDBRANCH  89  92
ENDBRANCH  62  85
ENDBRANCH  36  37
ENDBRANCH  28  31
ENDBRANCH  26  27
ENDBRANCH  25  26
ENDBRANCH  24  25
ENDBRANCH   1  24
TORSDOF 19
ENDMDL
MODEL 3
REMARK VINA RESULT:     -10.8      3.152      4.987
REMARK SMILES Nc1ccc(SCCn2cc(C(=O)NCCCCNC(=O)c3ccc(-c4c5nc(c(-c6cccc(S(=O)(=O)[O-])c6F)c6ccc([nH]6)c(-c6cccc(S(=O)(=O)[O-])c6F)c6nc(c(-c7cccc(S(=O)(=O)[O-])c7F)c7ccc4[nH]7)C=C6)C=C5)cc3)nn2)cc1Cl
REMARK SMILES IDX 15 1 14 2 12 3 13 4 11 6 9 7 10 8 86 9 85 10 8 11 7 12 6 13
REMARK SMILES IDX 5 14 2 15 3 16 88 17 4 18 87 19 89 20 1 21 16 24 17 25 18 26
REMARK SMILES IDX 19 27 20 28 21 30 22 31 23 32 84 33 24 34 83 35 25 36 26 37
REMARK SMILES IDX 27 38 77 39 28 40 82 41 76 42 78 43 29 44 81 45 75 46 74 47
REMARK SMILES IDX 30 49 62 50 42 51 61 52 43 53 46 54 60 55 79 56 44 57 45 58
REMARK SMILES IDX 59 60 80 61 47 62 31 63 32 64 40 65 33 66 35 67 41 68 34 69
REMARK SMILES IDX 36 70 37 71 38 72 39 73 63 74 64 75 72 76 65 77 67 78 73 79
REMARK SMILES IDX 66 80 68 81 69 82 70 83 71 84 48 85 49 86 57 87 50 88 52 89
REMARK SMILES IDX 58 90 51 91 53 92 54 93 55 94 56 95
REMARK H PARENT 14 5 1 22 1 23 19 29 78 48 46 59
REMARK Flexibility Score: inf
ROOT
ATOM      1  C   UNL A   1      33.393  30.430  26.882  1.00  0.00     0.116 C 
ENDROOT
BRANCH   1   2
ATOM      2  N   UNL A   1      32.571  29.518  27.652  1.00  0.00    -0.351 N 
ATOM      3  C   UNL A   1      31.890  28.386  27.275  1.00  0.00     0.273 C 
ATOM      4  O   UNL A   1      31.056  27.936  28.072  1.00  0.00    -0.267 OA
ATOM      5  H   UNL A   1      32.486  29.749  28.605  1.00  0.00     0.163 HD
BRANCH   3   6
ATOM      6  C   UNL A   1      32.131  27.748  25.986  1.00  0.00     0.170 A 
ATOM      7  N   UNL A   1      32.836  26.524  24.338  1.00  0.00    -0.251 N 
ATOM      8  C   UNL A   1      33.230  27.040  25.536  1.00  0.00     0.145 A 
ATOM      9  N   UNL A   1      31.619  26.965  23.992  1.00  0.00    -0.067 NA
ATOM     10  N   UNL A   1      31.155  27.677  25.011  1.00  0.00    -0.125 NA
BRANCH   7  11
ATOM     11  C   UNL A   1      33.595  25.689  23.438  1.00  0.00     0.157 C 
BRANCH  11  12
ATOM     12  C   UNL A   1      33.186  24.215  23.421  1.00  0.00     0.098 C 
BRANCH  12  13
ATOM     13  S   UNL A   1      32.938  23.453  25.070  1.00  0.00    -0.124 SA
BRANCH  13  14
ATOM     14  C   UNL A   1      33.696  21.844  24.911  1.00  0.00     0.009 A 
ATOM     15  C   UNL A   1      34.749  19.220  24.723  1.00  0.00     0.050 A 
ATOM     16  C   UNL A   1      35.579  20.311  24.994  1.00  0.00     0.028 A 
ATOM     17  C   UNL A   1      33.399  19.479  24.444  1.00  0.00     0.065 A 
ATOM     18  C   UNL A   1      35.061  21.609  25.078  1.00  0.00     0.017 A 
ATOM     19  C   UNL A   1      32.874  20.772  24.551  1.00  0.00     0.037 A 
ATOM     20  Cl  UNL A   1      32.330  18.201  23.969  1.00  0.00    -0.082 Cl
BRANCH  15  21
ATOM     21  N   UNL A   1      35.311  17.955  24.600  1.00  0.00    -0.398 N 
ATOM     22  H   UNL A   1      35.308  17.498  23.729  1.00  0.00     0.156 HD
ATOM     23  H   UNL A   1      35.713  17.517  25.385  1.00  0.00     0.156 HD
ENDBRANCH  15  21
ENDBRANCH  13  14
ENDBRANCH  12  13
ENDBRANCH  11  12
ENDBRANCH   7  11
ENDBRANCH   3   6
ENDBRANCH   1   2
BRANCH   1  24
ATOM     24  C   UNL A   1      33.942  31.584  27.723  1.00  0.00     0.023 C 
BRANCH  24  25
ATOM     25  C   UNL A   1      35.465  31.772  27.661  1.00  0.00     0.023 C 
BRANCH  25  26
ATOM     26  C   UNL A   1      35.971  33.105  28.208  1.00  0.00     0.116 C 
BRANCH  26  27
ATOM     27  N   UNL A   1      35.791  33.234  29.655  1.00  0.00    -0.352 N 
ATOM     28  C   UNL A   1      36.410  32.508  30.652  1.00  0.00     0.251 C 
ATOM     29  H   UNL A   1      35.151  33.921  29.952  1.00  0.00     0.163 HD
ATOM     30  O   UNL A   1      35.956  32.481  31.793  1.00  0.00    -0.269 OA
BRANCH  28  31
ATOM     31  C   UNL A   1      37.629  31.757  30.313  1.00  0.00     0.039 A 
ATOM     32  C   UNL A   1      38.876  32.386  30.292  1.00  0.00     0.014 A 
ATOM     33  C   UNL A   1      37.512  30.384  30.114  1.00  0.00     0.014 A 
ATOM     34  C   UNL A   1      40.024  31.604  30.170  1.00  0.00     0.010 A 
ATOM     35  C   UNL A   1      38.649  29.606  30.108  1.00  0.00     0.010 A 
ATOM     36  C   UNL A   1      39.911  30.207  30.107  1.00  0.00    -0.014 A 
BRANCH  36  37
ATOM     37  C   UNL A   1      41.113  29.367  30.135  1.00  0.00     0.031 A 
ATOM     38  C   UNL A   1      41.630  28.953  31.479  1.00  0.00     0.074 A 
ATOM     39  C   UNL A   1      41.607  28.769  29.029  1.00  0.00     0.049 A 
ATOM     40  N   UNL A   1      42.813  29.140  31.972  1.00  0.00    -0.248 NA
ATOM     41  C   UNL A   1      40.704  28.282  32.403  1.00  0.00     0.031 C 
ATOM     42  C   UNL A   1      41.042  28.770  27.673  1.00  0.00     0.029 A 
ATOM     43  N   UNL A   1      42.636  27.882  28.930  1.00  0.00    -0.354 N 
ATOM     44  C   UNL A   1      42.845  28.458  33.193  1.00  0.00     0.074 A 
ATOM     45  C   UNL A   1      41.487  28.055  33.460  1.00  0.00     0.031 C 
ATOM     46  C   UNL A   1      41.542  27.722  26.984  1.00  0.00     0.029 A 
ATOM     47  C   UNL A   1      42.591  27.111  27.777  1.00  0.00     0.049 A 
ATOM     48  H   UNL A   1      43.343  27.796  29.609  1.00  0.00     0.167 HD
ATOM     49  C   UNL A   1      44.010  28.128  33.820  1.00  0.00     0.034 A 
ATOM     50  C   UNL A   1      43.328  26.012  27.505  1.00  0.00     0.034 A 
ATOM     51  C   UNL A   1      45.136  28.825  33.259  1.00  0.00     0.049 A 
ATOM     52  C   UNL A   1      44.523  26.050  28.374  1.00  0.00     0.074 A 
ATOM     53  C   UNL A   1      45.514  30.145  33.121  1.00  0.00     0.029 A 
ATOM     54  N   UNL A   1      45.964  28.111  32.429  1.00  0.00    -0.354 N 
ATOM     55  N   UNL A   1      45.456  26.956  28.278  1.00  0.00    -0.248 NA
ATOM     56  C   UNL A   1      44.510  25.293  29.612  1.00  0.00     0.031 C 
ATOM     57  C   UNL A   1      46.199  30.199  31.872  1.00  0.00     0.029 A 
ATOM     58  C   UNL A   1      46.219  28.905  31.344  1.00  0.00     0.049 A 
ATOM     59  H   UNL A   1      46.309  27.202  32.585  1.00  0.00     0.167 HD
ATOM     60  C   UNL A   1      45.856  27.184  29.587  1.00  0.00     0.074 A 
ATOM     61  C   UNL A   1      45.346  26.039  30.338  1.00  0.00     0.031 C 
ATOM     62  C   UNL A   1      46.304  28.413  29.986  1.00  0.00     0.034 A 
BRANCH  49  63
ATOM     63  C   UNL A   1      44.226  26.964  34.762  1.00  0.00     0.023 A 
ATOM     64  C   UNL A   1      44.705  27.252  36.063  1.00  0.00     0.012 A 
ATOM     65  C   UNL A   1      44.240  25.609  34.366  1.00  0.00     0.148 A 
ATOM     66  C   UNL A   1      45.216  26.256  36.904  1.00  0.00     0.002 A 
ATOM     67  C   UNL A   1      44.675  24.610  35.237  1.00  0.00     0.091 A 
ATOM     68  F   UNL A   1      43.960  25.281  33.100  1.00  0.00    -0.205 F 
ATOM     69  C   UNL A   1      45.193  24.931  36.494  1.00  0.00     0.022 A 
BRANCH  67  70
ATOM     70  S   UNL A   1      44.600  22.876  34.775  1.00  0.00     0.127 S 
ATOM     71  O   UNL A   1      44.931  22.221  36.036  1.00  0.00    -0.237 OA
ATOM     72  O   UNL A   1      43.207  22.732  34.349  1.00  0.00    -0.237 OA
ATOM     73  O   UNL A   1      45.568  22.735  33.694  1.00  0.00    -0.744 OA
ENDBRANCH  67  70
ENDBRANCH  49  63
BRANCH  50  74
ATOM     74  C   UNL A   1      42.962  24.835  26.693  1.00  0.00     0.023 A 
ATOM     75  C   UNL A   1      43.786  24.433  25.627  1.00  0.00     0.012 A 
ATOM     76  C   UNL A   1      41.934  23.961  27.117  1.00  0.00     0.148 A 
ATOM     77  C   UNL A   1      43.606  23.187  25.014  1.00  0.00     0.002 A 
ATOM     78  C   UNL A   1      41.754  22.729  26.499  1.00  0.00     0.091 A 
ATOM     79  F   UNL A   1      41.194  24.304  28.181  1.00  0.00    -0.205 F 
ATOM     80  C   UNL A   1      42.596  22.334  25.453  1.00  0.00     0.022 A 
BRANCH  78  81
ATOM     81  S   UNL A   1      40.475  21.579  27.024  1.00  0.00     0.127 S 
ATOM     82  O   UNL A   1      40.786  21.408  28.443  1.00  0.00    -0.237 OA
ATOM     83  O   UNL A   1      39.258  22.337  26.747  1.00  0.00    -0.237 OA
ATOM     84  O   UNL A   1      40.672  20.377  26.222  1.00  0.00    -0.744 OA
ENDBRANCH  78  81
ENDBRANCH  50  74
BRANCH  62  85
ATOM     85  C   UNL A   1      46.597  29.449  28.926  1.00  0.00     0.023 A 
ATOM     86  C   UNL A   1      47.844  29.501  28.268  1.00  0.00     0.012 A 
ATOM     87  C   UNL A   1      45.544  30.244  28.441  1.00  0.00     0.148 A 
ATOM     88  C   UNL A   1      48.047  30.343  27.172  1.00  0.00     0.002 A 
ATOM     89  C   UNL A   1      45.735  31.045  27.319  1.00  0.00     0.091 A 
ATOM     90  F   UNL A   1      44.358  30.179  29.065  1.00  0.00    -0.205 F 
ATOM     91  C   UNL A   1      46.988  31.104  26.688  1.00  0.00     0.022 A 
BRANCH  89  92
ATOM     92  S   UNL A   1      44.377  31.942  26.562  1.00  0.00     0.127 S 
ATOM     93  O   UNL A   1      44.045  32.922  27.592  1.00  0.00    -0.237 OA
ATOM     94  O   UNL A   1      44.999  32.504  25.361  1.00  0.00    -0.237 OA
ATOM     95  O   UNL A   1      43.350  30.945  26.284  1.00  0.00    -0.744 OA
ENDBRANCH  89  92
ENDBRANCH  62  85
ENDBRANCH  36  37
ENDBRANCH  28  31
ENDBRANCH  26  27
ENDBRANCH  25  26
ENDBRANCH  24  25
ENDBRANCH   1  24
TORSDOF 19
ENDMDL
