MODEL 1
REMARK VINA RESULT:     -12.7      0.000      0.000
REMARK SMILES Cc1cccc(-c2cccc(O)c2)c1C(=O)NCCCCNC(=O)c1ccc(-c2c3nc(c(-c4cccc(S(=O)(=O)[O-])c4F)c4ccc([nH]4)c(-c4cccc(S(=O)(=O)[O-])c4F)c4nc(c(-c5cccc(S(=O)(=O)[O-])c5F)c5ccc2[nH]5)C=C4)C=C3)cc1
REMARK SMILES IDX 20 1 19 2 18 3 17 4 15 5 16 6 14 8 1 9 2 10 3 11 4 12 6 13
REMARK SMILES IDX 5 14 7 15 8 16 13 17 9 18 11 19 10 20 12 21 21 23 22 24
REMARK SMILES IDX 23 25 24 27 25 28 26 29 87 30 27 31 86 32 28 33 29 34 30 35
REMARK SMILES IDX 80 36 31 37 85 38 79 39 81 40 32 41 84 42 78 43 77 44 33 46
REMARK SMILES IDX 65 47 45 48 64 49 46 50 49 51 63 52 82 53 47 54 48 55 62 57
REMARK SMILES IDX 83 58 50 59 34 60 35 61 43 62 36 63 38 64 44 65 37 66 39 67
REMARK SMILES IDX 40 68 41 69 42 70 66 71 67 72 75 73 68 74 70 75 76 76 69 77
REMARK SMILES IDX 71 78 72 79 73 80 74 81 51 82 52 83 60 84 53 85 55 86 61 87
REMARK SMILES IDX 54 88 56 89 57 90 58 91 59 92
REMARK H PARENT 17 7 12 22 22 26 81 45 49 56
REMARK Flexibility Score: inf
ROOT
ATOM      1  C   UNL A   1      37.170  23.147  25.995  1.00  0.00     0.023 C 
ENDROOT
BRANCH   1   2
ATOM      2  C   UNL A   1      36.267  23.544  24.821  1.00  0.00     0.023 C 
BRANCH   2   3
ATOM      3  C   UNL A   1      36.321  22.692  23.552  1.00  0.00     0.116 C 
BRANCH   3   4
ATOM      4  N   UNL A   1      35.160  22.905  22.726  1.00  0.00    -0.352 N 
ATOM      5  C   UNL A   1      33.813  23.081  22.823  1.00  0.00     0.252 C 
ATOM      6  O   UNL A   1      33.355  23.194  21.679  1.00  0.00    -0.269 OA
ATOM      7  H   UNL A   1      35.430  22.933  21.780  1.00  0.00     0.163 HD
BRANCH   5   8
ATOM      8  C   UNL A   1      32.881  23.195  24.039  1.00  0.00     0.050 A 
ATOM      9  C   UNL A   1      32.866  25.789  24.497  1.00  0.00     0.045 C 
ATOM     10  C   UNL A   1      32.387  24.380  24.665  1.00  0.00    -0.038 A 
ATOM     11  C   UNL A   1      31.359  24.304  25.645  1.00  0.00     0.004 A 
ATOM     12  C   UNL A   1      30.879  23.105  26.120  1.00  0.00     0.001 A 
ATOM     13  C   UNL A   1      32.414  21.943  24.604  1.00  0.00    -0.005 A 
ATOM     14  C   UNL A   1      31.433  21.942  25.631  1.00  0.00     0.009 A 
BRANCH  13  15
ATOM     15  C   UNL A   1      32.876  20.575  24.239  1.00  0.00    -0.014 A 
ATOM     16  C   UNL A   1      33.969  19.966  24.883  1.00  0.00     0.009 A 
ATOM     17  C   UNL A   1      32.171  19.818  23.286  1.00  0.00     0.055 A 
ATOM     18  C   UNL A   1      34.392  18.680  24.527  1.00  0.00     0.004 A 
ATOM     19  C   UNL A   1      32.572  18.523  22.970  1.00  0.00     0.116 A 
ATOM     20  C   UNL A   1      33.689  17.953  23.569  1.00  0.00     0.046 A 
BRANCH  19  21
ATOM     21  O   UNL A   1      31.827  17.833  22.058  1.00  0.00    -0.508 OA
ATOM     22  H   UNL A   1      32.251  17.324  21.396  1.00  0.00     0.293 HD
ENDBRANCH  19  21
ENDBRANCH  13  15
ENDBRANCH   5   8
ENDBRANCH   3   4
ENDBRANCH   2   3
ENDBRANCH   1   2
BRANCH   1  23
ATOM     23  C   UNL A   1      38.398  22.316  25.665  1.00  0.00     0.116 C 
BRANCH  23  24
ATOM     24  N   UNL A   1      39.235  22.094  26.838  1.00  0.00    -0.352 N 
ATOM     25  C   UNL A   1      40.206  22.901  27.397  1.00  0.00     0.251 C 
ATOM     26  H   UNL A   1      39.086  21.239  27.302  1.00  0.00     0.163 HD
ATOM     27  O   UNL A   1      41.150  22.363  27.960  1.00  0.00    -0.269 OA
BRANCH  25  28
ATOM     28  C   UNL A   1      40.038  24.369  27.397  1.00  0.00     0.039 A 
ATOM     29  C   UNL A   1      40.622  25.187  26.421  1.00  0.00     0.014 A 
ATOM     30  C   UNL A   1      39.474  24.950  28.521  1.00  0.00     0.014 A 
ATOM     31  C   UNL A   1      40.786  26.546  26.689  1.00  0.00     0.010 A 
ATOM     32  C   UNL A   1      39.355  26.292  28.637  1.00  0.00     0.010 A 
ATOM     33  C   UNL A   1      40.221  27.045  27.855  1.00  0.00    -0.014 A 
BRANCH  33  34
ATOM     34  C   UNL A   1      40.580  28.262  28.555  1.00  0.00     0.031 A 
ATOM     35  C   UNL A   1      39.674  29.406  28.465  1.00  0.00     0.074 A 
ATOM     36  C   UNL A   1      41.359  28.010  29.640  1.00  0.00     0.049 A 
ATOM     37  N   UNL A   1      39.861  30.531  29.058  1.00  0.00    -0.248 NA
ATOM     38  C   UNL A   1      38.449  29.358  27.675  1.00  0.00     0.031 C 
ATOM     39  C   UNL A   1      41.288  28.630  30.955  1.00  0.00     0.029 A 
ATOM     40  N   UNL A   1      42.351  27.033  29.809  1.00  0.00    -0.354 N 
ATOM     41  C   UNL A   1      38.641  31.177  29.049  1.00  0.00     0.074 A 
ATOM     42  C   UNL A   1      37.888  30.522  28.012  1.00  0.00     0.031 C 
ATOM     43  C   UNL A   1      42.357  28.239  31.673  1.00  0.00     0.029 A 
ATOM     44  C   UNL A   1      43.245  27.536  30.759  1.00  0.00     0.049 A 
ATOM     45  H   UNL A   1      42.407  26.164  29.349  1.00  0.00     0.167 HD
ATOM     46  C   UNL A   1      38.356  32.033  30.072  1.00  0.00     0.034 A 
ATOM     47  C   UNL A   1      44.501  27.957  30.411  1.00  0.00     0.034 A 
ATOM     48  C   UNL A   1      39.536  32.173  30.957  1.00  0.00     0.049 A 
ATOM     49  C   UNL A   1      44.657  29.469  30.547  1.00  0.00     0.074 A 
ATOM     50  C   UNL A   1      39.839  31.675  32.215  1.00  0.00     0.029 A 
ATOM     51  N   UNL A   1      40.740  32.637  30.430  1.00  0.00    -0.354 N 
ATOM     52  N   UNL A   1      43.683  30.276  30.874  1.00  0.00    -0.248 NA
ATOM     53  C   UNL A   1      45.903  30.196  30.329  1.00  0.00     0.031 C 
ATOM     54  C   UNL A   1      41.256  31.726  32.378  1.00  0.00     0.029 A 
ATOM     55  C   UNL A   1      41.814  32.292  31.243  1.00  0.00     0.049 A 
ATOM     56  H   UNL A   1      40.820  33.144  29.590  1.00  0.00     0.167 HD
ATOM     57  C   UNL A   1      44.077  31.578  30.765  1.00  0.00     0.074 A 
ATOM     58  C   UNL A   1      45.506  31.471  30.510  1.00  0.00     0.031 C 
ATOM     59  C   UNL A   1      43.184  32.618  30.832  1.00  0.00     0.034 A 
BRANCH  46  60
ATOM     60  C   UNL A   1      36.968  32.540  30.471  1.00  0.00     0.023 A 
ATOM     61  C   UNL A   1      36.494  32.156  31.748  1.00  0.00     0.012 A 
ATOM     62  C   UNL A   1      36.057  33.306  29.699  1.00  0.00     0.148 A 
ATOM     63  C   UNL A   1      35.202  32.455  32.204  1.00  0.00     0.002 A 
ATOM     64  C   UNL A   1      34.768  33.614  30.151  1.00  0.00     0.091 A 
ATOM     65  F   UNL A   1      36.403  33.765  28.501  1.00  0.00    -0.205 F 
ATOM     66  C   UNL A   1      34.333  33.179  31.402  1.00  0.00     0.022 A 
BRANCH  64  67
ATOM     67  S   UNL A   1      33.587  34.562  29.165  1.00  0.00     0.127 S 
ATOM     68  O   UNL A   1      32.570  34.916  30.157  1.00  0.00    -0.237 OA
ATOM     69  O   UNL A   1      34.400  35.686  28.702  1.00  0.00    -0.237 OA
ATOM     70  O   UNL A   1      33.114  33.674  28.109  1.00  0.00    -0.744 OA
ENDBRANCH  64  67
ENDBRANCH  46  60
BRANCH  47  71
ATOM     71  C   UNL A   1      45.127  27.089  29.361  1.00  0.00     0.023 A 
ATOM     72  C   UNL A   1      45.377  25.744  29.729  1.00  0.00     0.012 A 
ATOM     73  C   UNL A   1      44.998  27.402  27.994  1.00  0.00     0.148 A 
ATOM     74  C   UNL A   1      45.321  24.718  28.782  1.00  0.00     0.002 A 
ATOM     75  C   UNL A   1      44.917  26.368  27.058  1.00  0.00     0.091 A 
ATOM     76  F   UNL A   1      44.849  28.686  27.646  1.00  0.00    -0.205 F 
ATOM     77  C   UNL A   1      45.036  25.026  27.457  1.00  0.00     0.022 A 
BRANCH  75  78
ATOM     78  S   UNL A   1      44.479  26.676  25.339  1.00  0.00     0.127 S 
ATOM     79  O   UNL A   1      45.793  26.795  24.717  1.00  0.00    -0.237 OA
ATOM     80  O   UNL A   1      43.738  25.471  24.979  1.00  0.00    -0.237 OA
ATOM     81  O   UNL A   1      43.668  27.888  25.365  1.00  0.00    -0.744 OA
ENDBRANCH  75  78
ENDBRANCH  47  71
BRANCH  59  82
ATOM     82  C   UNL A   1      43.511  34.060  30.489  1.00  0.00     0.023 A 
ATOM     83  C   UNL A   1      43.976  34.979  31.447  1.00  0.00     0.012 A 
ATOM     84  C   UNL A   1      43.508  34.497  29.138  1.00  0.00     0.148 A 
ATOM     85  C   UNL A   1      44.351  36.283  31.101  1.00  0.00     0.002 A 
ATOM     86  C   UNL A   1      44.011  35.744  28.784  1.00  0.00     0.091 A 
ATOM     87  F   UNL A   1      42.996  33.710  28.179  1.00  0.00    -0.205 F 
ATOM     88  C   UNL A   1      44.395  36.657  29.765  1.00  0.00     0.022 A 
BRANCH  86  89
ATOM     89  S   UNL A   1      44.348  36.145  27.064  1.00  0.00     0.127 S 
ATOM     90  O   UNL A   1      45.039  37.426  27.179  1.00  0.00    -0.237 OA
ATOM     91  O   UNL A   1      45.199  35.030  26.642  1.00  0.00    -0.237 OA
ATOM     92  O   UNL A   1      43.042  36.171  26.418  1.00  0.00    -0.744 OA
ENDBRANCH  86  89
ENDBRANCH  59  82
ENDBRANCH  33  34
ENDBRANCH  25  28
ENDBRANCH  23  24
ENDBRANCH   1  23
TORSDOF 16
ENDMDL
MODEL 2
REMARK VINA RESULT:     -12.6      4.538      9.899
REMARK SMILES Cc1cccc(-c2cccc(O)c2)c1C(=O)NCCCCNC(=O)c1ccc(-c2c3nc(c(-c4cccc(S(=O)(=O)[O-])c4F)c4ccc([nH]4)c(-c4cccc(S(=O)(=O)[O-])c4F)c4nc(c(-c5cccc(S(=O)(=O)[O-])c5F)c5ccc2[nH]5)C=C4)C=C3)cc1
REMARK SMILES IDX 20 1 19 2 18 3 17 4 15 5 16 6 14 8 1 9 2 10 3 11 4 12 6 13
REMARK SMILES IDX 5 14 7 15 8 16 13 17 9 18 11 19 10 20 12 21 21 23 22 24
REMARK SMILES IDX 23 25 24 27 25 28 26 29 87 30 27 31 86 32 28 33 29 34 30 35
REMARK SMILES IDX 80 36 31 37 85 38 79 39 81 40 32 41 84 42 78 43 77 44 33 46
REMARK SMILES IDX 65 47 45 48 64 49 46 50 49 51 63 52 82 53 47 54 48 55 62 57
REMARK SMILES IDX 83 58 50 59 34 60 35 61 43 62 36 63 38 64 44 65 37 66 39 67
REMARK SMILES IDX 40 68 41 69 42 70 66 71 67 72 75 73 68 74 70 75 76 76 69 77
REMARK SMILES IDX 71 78 72 79 73 80 74 81 51 82 52 83 60 84 53 85 55 86 61 87
REMARK SMILES IDX 54 88 56 89 57 90 58 91 59 92
REMARK H PARENT 17 7 12 22 22 26 81 45 49 56
REMARK Flexibility Score: inf
ROOT
ATOM      1  C   UNL A   1      33.730  29.595  26.505  1.00  0.00     0.023 C 
ENDROOT
BRANCH   1   2
ATOM      2  C   UNL A   1      32.249  29.248  26.699  1.00  0.00     0.023 C 
BRANCH   2   3
ATOM      3  C   UNL A   1      31.901  28.061  27.600  1.00  0.00     0.116 C 
BRANCH   3   4
ATOM      4  N   UNL A   1      30.944  27.188  26.970  1.00  0.00    -0.352 N 
ATOM      5  C   UNL A   1      30.715  26.548  25.790  1.00  0.00     0.252 C 
ATOM      6  O   UNL A   1      29.643  25.936  25.884  1.00  0.00    -0.269 OA
ATOM      7  H   UNL A   1      30.216  26.986  27.602  1.00  0.00     0.163 HD
BRANCH   5   8
ATOM      8  C   UNL A   1      31.545  26.452  24.500  1.00  0.00     0.050 A 
ATOM      9  C   UNL A   1      33.555  24.918  25.237  1.00  0.00     0.045 C 
ATOM     10  C   UNL A   1      32.695  25.643  24.249  1.00  0.00    -0.038 A 
ATOM     11  C   UNL A   1      33.210  25.511  22.930  1.00  0.00     0.004 A 
ATOM     12  C   UNL A   1      32.714  26.232  21.868  1.00  0.00     0.001 A 
ATOM     13  C   UNL A   1      31.083  27.255  23.384  1.00  0.00    -0.005 A 
ATOM     14  C   UNL A   1      31.690  27.122  22.106  1.00  0.00     0.009 A 
BRANCH  13  15
ATOM     15  C   UNL A   1      30.005  28.282  23.412  1.00  0.00    -0.014 A 
ATOM     16  C   UNL A   1      30.287  29.648  23.597  1.00  0.00     0.009 A 
ATOM     17  C   UNL A   1      28.669  27.915  23.172  1.00  0.00     0.055 A 
ATOM     18  C   UNL A   1      29.262  30.600  23.621  1.00  0.00     0.004 A 
ATOM     19  C   UNL A   1      27.661  28.874  23.155  1.00  0.00     0.116 A 
ATOM     20  C   UNL A   1      27.943  30.214  23.397  1.00  0.00     0.046 A 
BRANCH  19  21
ATOM     21  O   UNL A   1      26.389  28.455  22.887  1.00  0.00    -0.508 OA
ATOM     22  H   UNL A   1      26.003  27.774  23.401  1.00  0.00     0.293 HD
ENDBRANCH  19  21
ENDBRANCH  13  15
ENDBRANCH   5   8
ENDBRANCH   3   4
ENDBRANCH   2   3
ENDBRANCH   1   2
BRANCH   1  23
ATOM     23  C   UNL A   1      34.427  30.296  27.658  1.00  0.00     0.116 C 
BRANCH  23  24
ATOM     24  N   UNL A   1      34.144  31.727  27.675  1.00  0.00    -0.352 N 
ATOM     25  C   UNL A   1      34.466  32.681  28.620  1.00  0.00     0.251 C 
ATOM     26  H   UNL A   1      33.647  32.064  26.895  1.00  0.00     0.163 HD
ATOM     27  O   UNL A   1      33.702  33.625  28.770  1.00  0.00    -0.269 OA
BRANCH  25  28
ATOM     28  C   UNL A   1      35.750  32.600  29.345  1.00  0.00     0.039 A 
ATOM     29  C   UNL A   1      36.947  33.080  28.798  1.00  0.00     0.014 A 
ATOM     30  C   UNL A   1      35.791  31.827  30.494  1.00  0.00     0.014 A 
ATOM     31  C   UNL A   1      38.159  32.618  29.314  1.00  0.00     0.010 A 
ATOM     32  C   UNL A   1      36.943  31.635  31.175  1.00  0.00     0.010 A 
ATOM     33  C   UNL A   1      38.112  31.818  30.447  1.00  0.00    -0.014 A 
BRANCH  33  34
ATOM     34  C   UNL A   1      39.131  30.903  30.920  1.00  0.00     0.031 A 
ATOM     35  C   UNL A   1      39.252  29.601  30.265  1.00  0.00     0.074 A 
ATOM     36  C   UNL A   1      40.186  31.562  31.469  1.00  0.00     0.049 A 
ATOM     37  N   UNL A   1      40.128  28.712  30.569  1.00  0.00    -0.248 NA
ATOM     38  C   UNL A   1      38.361  29.199  29.182  1.00  0.00     0.031 C 
ATOM     39  C   UNL A   1      41.602  31.263  31.322  1.00  0.00     0.029 A 
ATOM     40  N   UNL A   1      40.193  32.743  32.227  1.00  0.00    -0.354 N 
ATOM     41  C   UNL A   1      40.168  27.833  29.505  1.00  0.00     0.074 A 
ATOM     42  C   UNL A   1      38.930  28.051  28.804  1.00  0.00     0.031 C 
ATOM     43  C   UNL A   1      42.295  32.032  32.182  1.00  0.00     0.029 A 
ATOM     44  C   UNL A   1      41.322  32.679  33.049  1.00  0.00     0.049 A 
ATOM     45  H   UNL A   1      39.533  33.473  32.187  1.00  0.00     0.167 HD
ATOM     46  C   UNL A   1      41.344  27.196  29.237  1.00  0.00     0.034 A 
ATOM     47  C   UNL A   1      41.217  32.471  34.399  1.00  0.00     0.034 A 
ATOM     48  C   UNL A   1      42.345  27.524  30.279  1.00  0.00     0.049 A 
ATOM     49  C   UNL A   1      41.750  31.102  34.811  1.00  0.00     0.074 A 
ATOM     50  C   UNL A   1      43.456  28.353  30.296  1.00  0.00     0.029 A 
ATOM     51  N   UNL A   1      42.073  27.222  31.612  1.00  0.00    -0.354 N 
ATOM     52  N   UNL A   1      42.178  30.202  33.967  1.00  0.00    -0.248 NA
ATOM     53  C   UNL A   1      41.848  30.632  36.190  1.00  0.00     0.031 C 
ATOM     54  C   UNL A   1      43.762  28.649  31.657  1.00  0.00     0.029 A 
ATOM     55  C   UNL A   1      42.870  27.970  32.472  1.00  0.00     0.049 A 
ATOM     56  H   UNL A   1      41.403  26.564  31.908  1.00  0.00     0.167 HD
ATOM     57  C   UNL A   1      42.446  29.026  34.608  1.00  0.00     0.074 A 
ATOM     58  C   UNL A   1      42.311  29.378  36.014  1.00  0.00     0.031 C 
ATOM     59  C   UNL A   1      42.691  27.863  33.924  1.00  0.00     0.034 A 
BRANCH  46  60
ATOM     60  C   UNL A   1      41.724  26.507  27.923  1.00  0.00     0.023 A 
ATOM     61  C   UNL A   1      41.852  27.337  26.785  1.00  0.00     0.012 A 
ATOM     62  C   UNL A   1      41.911  25.122  27.680  1.00  0.00     0.148 A 
ATOM     63  C   UNL A   1      42.090  26.834  25.498  1.00  0.00     0.002 A 
ATOM     64  C   UNL A   1      42.156  24.614  26.398  1.00  0.00     0.091 A 
ATOM     65  F   UNL A   1      41.861  24.246  28.678  1.00  0.00    -0.205 F 
ATOM     66  C   UNL A   1      42.235  25.469  25.301  1.00  0.00     0.022 A 
BRANCH  64  67
ATOM     67  S   UNL A   1      42.365  22.849  26.070  1.00  0.00     0.127 S 
ATOM     68  O   UNL A   1      43.316  22.453  27.110  1.00  0.00    -0.237 OA
ATOM     69  O   UNL A   1      41.009  22.335  26.260  1.00  0.00    -0.237 OA
ATOM     70  O   UNL A   1      42.878  22.733  24.709  1.00  0.00    -0.744 OA
ENDBRANCH  64  67
ENDBRANCH  46  60
BRANCH  47  71
ATOM     71  C   UNL A   1      40.044  33.186  35.000  1.00  0.00     0.023 A 
ATOM     72  C   UNL A   1      38.827  32.462  35.047  1.00  0.00     0.012 A 
ATOM     73  C   UNL A   1      40.231  34.251  35.903  1.00  0.00     0.148 A 
ATOM     74  C   UNL A   1      37.905  32.673  36.075  1.00  0.00     0.002 A 
ATOM     75  C   UNL A   1      39.318  34.438  36.942  1.00  0.00     0.091 A 
ATOM     76  F   UNL A   1      41.344  34.988  35.796  1.00  0.00    -0.205 F 
ATOM     77  C   UNL A   1      38.178  33.623  37.053  1.00  0.00     0.022 A 
BRANCH  75  78
ATOM     78  S   UNL A   1      39.632  35.594  38.286  1.00  0.00     0.127 S 
ATOM     79  O   UNL A   1      38.507  35.326  39.174  1.00  0.00    -0.237 OA
ATOM     80  O   UNL A   1      40.929  35.151  38.790  1.00  0.00    -0.237 OA
ATOM     81  O   UNL A   1      39.656  36.909  37.657  1.00  0.00    -0.744 OA
ENDBRANCH  75  78
ENDBRANCH  47  71
BRANCH  59  82
ATOM     82  C   UNL A   1      42.763  26.486  34.560  1.00  0.00     0.023 A 
ATOM     83  C   UNL A   1      41.708  25.946  35.318  1.00  0.00     0.012 A 
ATOM     84  C   UNL A   1      43.851  25.618  34.275  1.00  0.00     0.148 A 
ATOM     85  C   UNL A   1      41.757  24.643  35.829  1.00  0.00     0.002 A 
ATOM     86  C   UNL A   1      43.830  24.285  34.668  1.00  0.00     0.091 A 
ATOM     87  F   UNL A   1      44.933  26.087  33.634  1.00  0.00    -0.205 F 
ATOM     88  C   UNL A   1      42.804  23.803  35.480  1.00  0.00     0.022 A 
BRANCH  86  89
ATOM     89  S   UNL A   1      45.015  23.111  33.998  1.00  0.00     0.127 S 
ATOM     90  O   UNL A   1      44.546  21.848  34.563  1.00  0.00    -0.237 OA
ATOM     91  O   UNL A   1      44.809  23.245  32.555  1.00  0.00    -0.237 OA
ATOM     92  O   UNL A   1      46.315  23.580  34.458  1.00  0.00    -0.744 OA
ENDBRANCH  86  89
ENDBRANCH  59  82
ENDBRANCH  33  34
ENDBRANCH  25  28
ENDBRANCH  23  24
ENDBRANCH   1  23
TORSDOF 16
ENDMDL
MODEL 3
REMARK VINA RESULT:     -12.6      4.262      9.520
REMARK SMILES Cc1cccc(-c2cccc(O)c2)c1C(=O)NCCCCNC(=O)c1ccc(-c2c3nc(c(-c4cccc(S(=O)(=O)[O-])c4F)c4ccc([nH]4)c(-c4cccc(S(=O)(=O)[O-])c4F)c4nc(c(-c5cccc(S(=O)(=O)[O-])c5F)c5ccc2[nH]5)C=C4)C=C3)cc1
REMARK SMILES IDX 20 1 19 2 18 3 17 4 15 5 16 6 14 8 1 9 2 10 3 11 4 12 6 13
REMARK SMILES IDX 5 14 7 15 8 16 13 17 9 18 11 19 10 20 12 21 21 23 22 24
REMARK SMILES IDX 23 25 24 27 25 28 26 29 87 30 27 31 86 32 28 33 29 34 30 35
REMARK SMILES IDX 80 36 31 37 85 38 79 39 81 40 32 41 84 42 78 43 77 44 33 46
REMARK SMILES IDX 65 47 45 48 64 49 46 50 49 51 63 52 82 53 47 54 48 55 62 57
REMARK SMILES IDX 83 58 50 59 34 60 35 61 43 62 36 63 38 64 44 65 37 66 39 67
REMARK SMILES IDX 40 68 41 69 42 70 66 71 67 72 75 73 68 74 70 75 76 76 69 77
REMARK SMILES IDX 71 78 72 79 73 80 74 81 51 82 52 83 60 84 53 85 55 86 61 87
REMARK SMILES IDX 54 88 56 89 57 90 58 91 59 92
REMARK H PARENT 17 7 12 22 22 26 81 45 49 56
REMARK Flexibility Score: inf
ROOT
ATOM      1  C   UNL A   1      34.210  29.161  26.700  1.00  0.00     0.023 C 
ENDROOT
BRANCH   1   2
ATOM      2  C   UNL A   1      33.222  27.989  26.684  1.00  0.00     0.023 C 
BRANCH   2   3
ATOM      3  C   UNL A   1      31.818  28.224  27.247  1.00  0.00     0.116 C 
BRANCH   3   4
ATOM      4  N   UNL A   1      30.908  27.186  26.836  1.00  0.00    -0.352 N 
ATOM      5  C   UNL A   1      30.656  26.356  25.786  1.00  0.00     0.252 C 
ATOM      6  O   UNL A   1      29.659  25.677  26.060  1.00  0.00    -0.269 OA
ATOM      7  H   UNL A   1      30.251  27.022  27.551  1.00  0.00     0.163 HD
BRANCH   5   8
ATOM      8  C   UNL A   1      31.395  26.134  24.457  1.00  0.00     0.050 A 
ATOM      9  C   UNL A   1      33.300  24.451  25.146  1.00  0.00     0.045 C 
ATOM     10  C   UNL A   1      32.451  25.214  24.177  1.00  0.00    -0.038 A 
ATOM     11  C   UNL A   1      32.872  24.984  22.838  1.00  0.00     0.004 A 
ATOM     12  C   UNL A   1      32.380  25.707  21.775  1.00  0.00     0.001 A 
ATOM     13  C   UNL A   1      30.942  26.933  23.335  1.00  0.00    -0.005 A 
ATOM     14  C   UNL A   1      31.456  26.697  22.032  1.00  0.00     0.009 A 
BRANCH  13  15
ATOM     15  C   UNL A   1      29.964  28.055  23.379  1.00  0.00    -0.014 A 
ATOM     16  C   UNL A   1      30.374  29.389  23.560  1.00  0.00     0.009 A 
ATOM     17  C   UNL A   1      28.596  27.815  23.157  1.00  0.00     0.055 A 
ATOM     18  C   UNL A   1      29.442  30.432  23.600  1.00  0.00     0.004 A 
ATOM     19  C   UNL A   1      27.681  28.863  23.155  1.00  0.00     0.116 A 
ATOM     20  C   UNL A   1      28.089  30.170  23.393  1.00  0.00     0.046 A 
BRANCH  19  21
ATOM     21  O   UNL A   1      26.373  28.564  22.904  1.00  0.00    -0.508 OA
ATOM     22  H   UNL A   1      25.707  28.834  23.505  1.00  0.00     0.293 HD
ENDBRANCH  19  21
ENDBRANCH  13  15
ENDBRANCH   5   8
ENDBRANCH   3   4
ENDBRANCH   2   3
ENDBRANCH   1   2
BRANCH   1  23
ATOM     23  C   UNL A   1      33.726  30.457  27.328  1.00  0.00     0.116 C 
BRANCH  23  24
ATOM     24  N   UNL A   1      34.728  31.512  27.236  1.00  0.00    -0.352 N 
ATOM     25  C   UNL A   1      35.904  31.679  27.940  1.00  0.00     0.251 C 
ATOM     26  H   UNL A   1      34.537  32.213  26.571  1.00  0.00     0.163 HD
ATOM     27  O   UNL A   1      36.290  32.820  28.158  1.00  0.00    -0.269 OA
BRANCH  25  28
ATOM     28  C   UNL A   1      36.713  30.502  28.318  1.00  0.00     0.039 A 
ATOM     29  C   UNL A   1      36.618  29.907  29.583  1.00  0.00     0.014 A 
ATOM     30  C   UNL A   1      37.742  30.131  27.469  1.00  0.00     0.014 A 
ATOM     31  C   UNL A   1      37.663  29.096  30.027  1.00  0.00     0.010 A 
ATOM     32  C   UNL A   1      38.580  29.115  27.776  1.00  0.00     0.010 A 
ATOM     33  C   UNL A   1      38.676  28.800  29.126  1.00  0.00    -0.014 A 
BRANCH  33  34
ATOM     34  C   UNL A   1      40.021  28.356  29.431  1.00  0.00     0.031 A 
ATOM     35  C   UNL A   1      40.357  26.951  29.198  1.00  0.00     0.074 A 
ATOM     36  C   UNL A   1      40.924  29.366  29.322  1.00  0.00     0.049 A 
ATOM     37  N   UNL A   1      41.517  26.437  29.401  1.00  0.00    -0.248 NA
ATOM     38  C   UNL A   1      39.372  25.996  28.701  1.00  0.00     0.031 C 
ATOM     39  C   UNL A   1      42.261  29.313  28.752  1.00  0.00     0.029 A 
ATOM     40  N   UNL A   1      40.771  30.726  29.634  1.00  0.00    -0.354 N 
ATOM     41  C   UNL A   1      41.531  25.240  28.714  1.00  0.00     0.074 A 
ATOM     42  C   UNL A   1      40.143  24.926  28.497  1.00  0.00     0.031 C 
ATOM     43  C   UNL A   1      42.889  30.473  29.018  1.00  0.00     0.029 A 
ATOM     44  C   UNL A   1      42.045  31.205  29.951  1.00  0.00     0.049 A 
ATOM     45  H   UNL A   1      39.932  31.241  29.629  1.00  0.00     0.167 HD
ATOM     46  C   UNL A   1      42.723  24.789  28.228  1.00  0.00     0.034 A 
ATOM     47  C   UNL A   1      42.394  31.521  31.238  1.00  0.00     0.034 A 
ATOM     48  C   UNL A   1      43.820  25.682  28.670  1.00  0.00     0.049 A 
ATOM     49  C   UNL A   1      43.424  30.550  31.807  1.00  0.00     0.074 A 
ATOM     50  C   UNL A   1      44.571  26.650  28.022  1.00  0.00     0.029 A 
ATOM     51  N   UNL A   1      44.042  25.875  30.032  1.00  0.00    -0.354 N 
ATOM     52  N   UNL A   1      43.859  29.494  31.174  1.00  0.00    -0.248 NA
ATOM     53  C   UNL A   1      44.047  30.680  33.121  1.00  0.00     0.031 C 
ATOM     54  C   UNL A   1      45.137  27.504  29.014  1.00  0.00     0.029 A 
ATOM     55  C   UNL A   1      44.770  27.036  30.266  1.00  0.00     0.049 A 
ATOM     56  H   UNL A   1      43.724  25.267  30.739  1.00  0.00     0.167 HD
ATOM     57  C   UNL A   1      44.651  28.735  31.986  1.00  0.00     0.074 A 
ATOM     58  C   UNL A   1      44.812  29.571  33.166  1.00  0.00     0.031 C 
ATOM     59  C   UNL A   1      45.048  27.468  31.640  1.00  0.00     0.034 A 
BRANCH  46  60
ATOM     60  C   UNL A   1      42.917  23.732  27.137  1.00  0.00     0.023 A 
ATOM     61  C   UNL A   1      43.489  24.172  25.920  1.00  0.00     0.012 A 
ATOM     62  C   UNL A   1      42.541  22.364  27.163  1.00  0.00     0.148 A 
ATOM     63  C   UNL A   1      43.627  23.343  24.798  1.00  0.00     0.002 A 
ATOM     64  C   UNL A   1      42.683  21.528  26.048  1.00  0.00     0.091 A 
ATOM     65  F   UNL A   1      42.035  21.822  28.265  1.00  0.00    -0.205 F 
ATOM     66  C   UNL A   1      43.217  22.019  24.858  1.00  0.00     0.022 A 
BRANCH  64  67
ATOM     67  S   UNL A   1      42.180  19.792  26.058  1.00  0.00     0.127 S 
ATOM     68  O   UNL A   1      40.724  19.894  25.958  1.00  0.00    -0.237 OA
ATOM     69  O   UNL A   1      42.837  19.272  24.859  1.00  0.00    -0.237 OA
ATOM     70  O   UNL A   1      42.660  19.224  27.313  1.00  0.00    -0.744 OA
ENDBRANCH  64  67
ENDBRANCH  46  60
BRANCH  47  71
ATOM     71  C   UNL A   1      41.273  32.172  31.992  1.00  0.00     0.023 A 
ATOM     72  C   UNL A   1      40.817  33.414  31.484  1.00  0.00     0.012 A 
ATOM     73  C   UNL A   1      40.402  31.410  32.794  1.00  0.00     0.148 A 
ATOM     74  C   UNL A   1      39.480  33.798  31.620  1.00  0.00     0.002 A 
ATOM     75  C   UNL A   1      39.062  31.788  32.903  1.00  0.00     0.091 A 
ATOM     76  F   UNL A   1      40.866  30.281  33.343  1.00  0.00    -0.205 F 
ATOM     77  C   UNL A   1      38.592  32.957  32.282  1.00  0.00     0.022 A 
BRANCH  75  78
ATOM     78  S   UNL A   1      37.835  30.723  33.678  1.00  0.00     0.127 S 
ATOM     79  O   UNL A   1      38.403  29.400  33.446  1.00  0.00    -0.237 OA
ATOM     80  O   UNL A   1      37.862  31.166  35.068  1.00  0.00    -0.237 OA
ATOM     81  O   UNL A   1      36.586  31.016  32.984  1.00  0.00    -0.744 OA
ENDBRANCH  75  78
ENDBRANCH  47  71
BRANCH  59  82
ATOM     82  C   UNL A   1      45.725  26.488  32.581  1.00  0.00     0.023 A 
ATOM     83  C   UNL A   1      47.122  26.434  32.742  1.00  0.00     0.012 A 
ATOM     84  C   UNL A   1      44.952  25.686  33.463  1.00  0.00     0.148 A 
ATOM     85  C   UNL A   1      47.727  25.582  33.673  1.00  0.00     0.002 A 
ATOM     86  C   UNL A   1      45.553  24.947  34.476  1.00  0.00     0.091 A 
ATOM     87  F   UNL A   1      43.621  25.615  33.313  1.00  0.00    -0.205 F 
ATOM     88  C   UNL A   1      46.942  24.859  34.560  1.00  0.00     0.022 A 
BRANCH  86  89
ATOM     89  S   UNL A   1      44.569  24.238  35.803  1.00  0.00     0.127 S 
ATOM     90  O   UNL A   1      43.625  23.400  35.069  1.00  0.00    -0.237 OA
ATOM     91  O   UNL A   1      45.569  23.496  36.574  1.00  0.00    -0.237 OA
ATOM     92  O   UNL A   1      44.005  25.381  36.509  1.00  0.00    -0.744 OA
ENDBRANCH  86  89
ENDBRANCH  59  82
ENDBRANCH  33  34
ENDBRANCH  25  28
ENDBRANCH  23  24
ENDBRANCH   1  23
TORSDOF 16
ENDMDL
