MODEL 1
REMARK VINA RESULT:     -11.8      0.000      0.000
REMARK SMILES O=C(NCCCCNC(=O)c1nc2c(F)cccc2s1)c1ccc(-c2c3nc(c(-c4cccc(S(=O)(=O)[O-])c4F)c4ccc([nH]4)c(-c4cccc(S(=O)(=O)[O-])c4F)c4nc(c(-c5cccc(S(=O)(=O)[O-])c5F)c5ccc2[nH]5)C=C4)C=C3)cc1
REMARK SMILES IDX 4 1 3 2 1 3 2 4 21 6 22 7 83 8 23 9 82 10 24 11 25 12 26 13
REMARK SMILES IDX 76 14 27 15 81 16 75 17 77 18 28 19 80 20 74 21 73 22 29 24
REMARK SMILES IDX 61 25 41 26 60 27 42 28 45 29 59 30 78 31 43 32 44 33 58 35
REMARK SMILES IDX 79 36 46 37 30 38 31 39 39 40 32 41 34 42 40 43 33 44 35 45
REMARK SMILES IDX 36 46 37 47 38 48 62 49 63 50 71 51 64 52 66 53 72 54 65 55
REMARK SMILES IDX 67 56 68 57 69 58 70 59 47 60 48 61 56 62 49 63 51 64 57 65
REMARK SMILES IDX 50 66 52 67 53 68 54 69 55 70 5 71 6 72 7 73 8 74 9 75 10 77
REMARK SMILES IDX 11 78 12 79 20 80 13 81 19 82 14 83 18 84 15 85 16 86 17 87
REMARK H PARENT 3 5 77 23 45 34 8 76
REMARK Flexibility Score: inf
ROOT
ATOM      1  C   UNL A   1      33.922  30.977  27.335  1.00  0.00     0.116 C 
ENDROOT
BRANCH   1   2
ATOM      2  N   UNL A   1      34.037  31.693  28.592  1.00  0.00    -0.352 N 
ATOM      3  O   UNL A   1      34.843  32.700  30.391  1.00  0.00    -0.269 OA
ATOM      4  C   UNL A   1      35.049  31.872  29.501  1.00  0.00     0.251 C 
ATOM      5  H   UNL A   1      33.204  32.153  28.848  1.00  0.00     0.163 HD
BRANCH   4   6
ATOM      6  C   UNL A   1      36.318  31.094  29.518  1.00  0.00     0.039 A 
ATOM      7  C   UNL A   1      36.401  29.709  29.654  1.00  0.00     0.014 A 
ATOM      8  C   UNL A   1      37.513  31.829  29.386  1.00  0.00     0.014 A 
ATOM      9  C   UNL A   1      37.639  29.086  29.758  1.00  0.00     0.010 A 
ATOM     10  C   UNL A   1      38.760  31.206  29.456  1.00  0.00     0.010 A 
ATOM     11  C   UNL A   1      38.817  29.833  29.665  1.00  0.00    -0.014 A 
BRANCH  11  12
ATOM     12  C   UNL A   1      40.062  29.076  29.585  1.00  0.00     0.031 A 
ATOM     13  C   UNL A   1      40.728  28.867  30.900  1.00  0.00     0.074 A 
ATOM     14  C   UNL A   1      40.594  28.535  28.474  1.00  0.00     0.049 A 
ATOM     15  N   UNL A   1      41.807  29.433  31.336  1.00  0.00    -0.248 NA
ATOM     16  C   UNL A   1      40.044  28.023  31.887  1.00  0.00     0.031 C 
ATOM     17  C   UNL A   1      39.974  28.364  27.162  1.00  0.00     0.029 A 
ATOM     18  N   UNL A   1      41.810  27.930  28.331  1.00  0.00    -0.354 N 
ATOM     19  C   UNL A   1      42.062  28.842  32.571  1.00  0.00     0.074 A 
ATOM     20  C   UNL A   1      40.873  28.111  32.928  1.00  0.00     0.031 C 
ATOM     21  C   UNL A   1      40.730  27.516  26.424  1.00  0.00     0.029 A 
ATOM     22  C   UNL A   1      41.948  27.204  27.155  1.00  0.00     0.049 A 
ATOM     23  H   UNL A   1      42.527  28.002  29.003  1.00  0.00     0.167 HD
ATOM     24  C   UNL A   1      43.314  28.805  33.101  1.00  0.00     0.034 A 
ATOM     25  C   UNL A   1      42.972  26.371  26.848  1.00  0.00     0.034 A 
ATOM     26  C   UNL A   1      44.203  29.735  32.462  1.00  0.00     0.049 A 
ATOM     27  C   UNL A   1      44.136  26.802  27.659  1.00  0.00     0.074 A 
ATOM     28  C   UNL A   1      44.253  31.101  32.284  1.00  0.00     0.029 A 
ATOM     29  N   UNL A   1      45.109  29.197  31.584  1.00  0.00    -0.354 N 
ATOM     30  N   UNL A   1      44.768  27.930  27.494  1.00  0.00    -0.248 NA
ATOM     31  C   UNL A   1      44.454  26.078  28.880  1.00  0.00     0.031 C 
ATOM     32  C   UNL A   1      44.877  31.289  31.016  1.00  0.00     0.029 A 
ATOM     33  C   UNL A   1      45.186  30.028  30.501  1.00  0.00     0.049 A 
ATOM     34  H   UNL A   1      45.614  28.362  31.711  1.00  0.00     0.167 HD
ATOM     35  C   UNL A   1      45.231  28.256  28.758  1.00  0.00     0.074 A 
ATOM     36  C   UNL A   1      45.149  27.019  29.522  1.00  0.00     0.031 C 
ATOM     37  C   UNL A   1      45.359  29.558  29.143  1.00  0.00     0.034 A 
BRANCH  24  38
ATOM     38  C   UNL A   1      43.855  27.666  33.937  1.00  0.00     0.023 A 
ATOM     39  C   UNL A   1      44.314  26.515  33.256  1.00  0.00     0.012 A 
ATOM     40  C   UNL A   1      43.660  27.550  35.332  1.00  0.00     0.148 A 
ATOM     41  C   UNL A   1      44.526  25.303  33.921  1.00  0.00     0.002 A 
ATOM     42  C   UNL A   1      43.954  26.367  36.002  1.00  0.00     0.091 A 
ATOM     43  F   UNL A   1      43.056  28.532  36.008  1.00  0.00    -0.205 F 
ATOM     44  C   UNL A   1      44.357  25.231  35.298  1.00  0.00     0.022 A 
BRANCH  42  45
ATOM     45  S   UNL A   1      43.797  26.243  37.786  1.00  0.00     0.127 S 
ATOM     46  O   UNL A   1      42.350  26.288  37.956  1.00  0.00    -0.237 OA
ATOM     47  O   UNL A   1      44.417  24.946  38.054  1.00  0.00    -0.237 OA
ATOM     48  O   UNL A   1      44.547  27.379  38.314  1.00  0.00    -0.744 OA
ENDBRANCH  42  45
ENDBRANCH  24  38
BRANCH  25  49
ATOM     49  C   UNL A   1      43.014  25.117  26.052  1.00  0.00     0.023 A 
ATOM     50  C   UNL A   1      44.048  24.947  25.103  1.00  0.00     0.012 A 
ATOM     51  C   UNL A   1      42.261  23.980  26.413  1.00  0.00     0.148 A 
ATOM     52  C   UNL A   1      44.369  23.683  24.595  1.00  0.00     0.002 A 
ATOM     53  C   UNL A   1      42.574  22.726  25.890  1.00  0.00     0.091 A 
ATOM     54  F   UNL A   1      41.303  24.100  27.342  1.00  0.00    -0.205 F 
ATOM     55  C   UNL A   1      43.641  22.571  24.998  1.00  0.00     0.022 A 
BRANCH  53  56
ATOM     56  S   UNL A   1      41.663  21.250  26.366  1.00  0.00     0.127 S 
ATOM     57  O   UNL A   1      41.937  21.165  27.802  1.00  0.00    -0.237 OA
ATOM     58  O   UNL A   1      40.291  21.614  26.025  1.00  0.00    -0.237 OA
ATOM     59  O   UNL A   1      42.250  20.166  25.586  1.00  0.00    -0.744 OA
ENDBRANCH  53  56
ENDBRANCH  25  49
BRANCH  37  60
ATOM     60  C   UNL A   1      45.373  30.620  28.080  1.00  0.00     0.023 A 
ATOM     61  C   UNL A   1      44.187  31.160  27.546  1.00  0.00     0.012 A 
ATOM     62  C   UNL A   1      46.605  31.226  27.773  1.00  0.00     0.148 A 
ATOM     63  C   UNL A   1      44.229  32.285  26.718  1.00  0.00     0.002 A 
ATOM     64  C   UNL A   1      46.638  32.370  26.988  1.00  0.00     0.091 A 
ATOM     65  F   UNL A   1      47.718  30.697  28.304  1.00  0.00    -0.205 F 
ATOM     66  C   UNL A   1      45.452  32.899  26.452  1.00  0.00     0.022 A 
BRANCH  64  67
ATOM     67  S   UNL A   1      48.154  33.289  26.711  1.00  0.00     0.127 S 
ATOM     68  O   UNL A   1      47.767  34.203  25.639  1.00  0.00    -0.237 OA
ATOM     69  O   UNL A   1      48.369  33.926  28.012  1.00  0.00    -0.237 OA
ATOM     70  O   UNL A   1      49.168  32.306  26.350  1.00  0.00    -0.744 OA
ENDBRANCH  64  67
ENDBRANCH  37  60
ENDBRANCH  11  12
ENDBRANCH   4   6
ENDBRANCH   1   2
BRANCH   1  71
ATOM     71  C   UNL A   1      32.731  30.025  27.232  1.00  0.00     0.023 C 
BRANCH  71  72
ATOM     72  C   UNL A   1      33.073  28.535  27.282  1.00  0.00     0.023 C 
BRANCH  72  73
ATOM     73  C   UNL A   1      32.413  27.663  26.220  1.00  0.00     0.116 C 
BRANCH  73  74
ATOM     74  N   UNL A   1      31.665  26.544  26.771  1.00  0.00    -0.350 N 
ATOM     75  C   UNL A   1      31.884  25.188  26.601  1.00  0.00     0.280 C 
ATOM     76  H   UNL A   1      30.900  26.784  27.343  1.00  0.00     0.163 HD
ATOM     77  O   UNL A   1      31.097  24.416  27.152  1.00  0.00    -0.267 OA
BRANCH  75  78
ATOM     78  C   UNL A   1      33.003  24.745  25.779  1.00  0.00     0.182 A 
ATOM     79  N   UNL A   1      34.241  24.685  26.222  1.00  0.00    -0.228 NA
ATOM     80  S   UNL A   1      32.778  24.313  24.135  1.00  0.00    -0.109 S 
ATOM     81  C   UNL A   1      35.054  24.098  25.262  1.00  0.00     0.118 A 
ATOM     82  C   UNL A   1      34.410  23.770  24.065  1.00  0.00     0.058 A 
ATOM     83  C   UNL A   1      36.424  23.783  25.381  1.00  0.00     0.150 A 
ATOM     84  C   UNL A   1      35.072  23.103  23.019  1.00  0.00     0.021 A 
ATOM     85  F   UNL A   1      37.105  24.097  26.493  1.00  0.00    -0.205 F 
ATOM     86  C   UNL A   1      37.095  23.120  24.351  1.00  0.00     0.041 A 
ATOM     87  C   UNL A   1      36.420  22.772  23.187  1.00  0.00     0.005 A 
ENDBRANCH  75  78
ENDBRANCH  73  74
ENDBRANCH  72  73
ENDBRANCH  71  72
ENDBRANCH   1  71
TORSDOF 14
ENDMDL
MODEL 2
REMARK VINA RESULT:     -11.8      3.562      7.718
REMARK SMILES O=C(NCCCCNC(=O)c1nc2c(F)cccc2s1)c1ccc(-c2c3nc(c(-c4cccc(S(=O)(=O)[O-])c4F)c4ccc([nH]4)c(-c4cccc(S(=O)(=O)[O-])c4F)c4nc(c(-c5cccc(S(=O)(=O)[O-])c5F)c5ccc2[nH]5)C=C4)C=C3)cc1
REMARK SMILES IDX 4 1 3 2 1 3 2 4 21 6 22 7 83 8 23 9 82 10 24 11 25 12 26 13
REMARK SMILES IDX 76 14 27 15 81 16 75 17 77 18 28 19 80 20 74 21 73 22 29 24
REMARK SMILES IDX 61 25 41 26 60 27 42 28 45 29 59 30 78 31 43 32 44 33 58 35
REMARK SMILES IDX 79 36 46 37 30 38 31 39 39 40 32 41 34 42 40 43 33 44 35 45
REMARK SMILES IDX 36 46 37 47 38 48 62 49 63 50 71 51 64 52 66 53 72 54 65 55
REMARK SMILES IDX 67 56 68 57 69 58 70 59 47 60 48 61 56 62 49 63 51 64 57 65
REMARK SMILES IDX 50 66 52 67 53 68 54 69 55 70 5 71 6 72 7 73 8 74 9 75 10 77
REMARK SMILES IDX 11 78 12 79 20 80 13 81 19 82 14 83 18 84 15 85 16 86 17 87
REMARK H PARENT 3 5 77 23 45 34 8 76
REMARK Flexibility Score: inf
ROOT
ATOM      1  C   UNL A   1      36.154  21.196  24.726  1.00  0.00     0.116 C 
ENDROOT
BRANCH   1   2
ATOM      2  N   UNL A   1      37.172  20.163  24.729  1.00  0.00    -0.352 N 
ATOM      3  O   UNL A   1      38.927  18.920  25.253  1.00  0.00    -0.269 OA
ATOM      4  C   UNL A   1      38.394  20.029  25.340  1.00  0.00     0.251 C 
ATOM      5  H   UNL A   1      36.934  19.388  24.170  1.00  0.00     0.163 HD
BRANCH   4   6
ATOM      6  C   UNL A   1      39.127  21.132  26.019  1.00  0.00     0.039 A 
ATOM      7  C   UNL A   1      38.767  22.477  25.966  1.00  0.00     0.014 A 
ATOM      8  C   UNL A   1      40.266  20.770  26.766  1.00  0.00     0.014 A 
ATOM      9  C   UNL A   1      39.574  23.444  26.554  1.00  0.00     0.010 A 
ATOM     10  C   UNL A   1      41.063  21.732  27.387  1.00  0.00     0.010 A 
ATOM     11  C   UNL A   1      40.724  23.074  27.258  1.00  0.00    -0.014 A 
BRANCH  11  12
ATOM     12  C   UNL A   1      41.397  24.131  28.006  1.00  0.00     0.031 A 
ATOM     13  C   UNL A   1      40.621  25.398  28.093  1.00  0.00     0.074 A 
ATOM     14  C   UNL A   1      42.582  24.029  28.635  1.00  0.00     0.049 A 
ATOM     15  N   UNL A   1      40.858  26.512  27.480  1.00  0.00    -0.248 NA
ATOM     16  C   UNL A   1      39.368  25.380  28.858  1.00  0.00     0.031 C 
ATOM     17  C   UNL A   1      43.355  22.823  28.924  1.00  0.00     0.029 A 
ATOM     18  N   UNL A   1      43.304  25.020  29.236  1.00  0.00    -0.354 N 
ATOM     19  C   UNL A   1      39.907  27.409  27.960  1.00  0.00     0.074 A 
ATOM     20  C   UNL A   1      38.929  26.626  28.671  1.00  0.00     0.031 C 
ATOM     21  C   UNL A   1      44.322  23.125  29.824  1.00  0.00     0.029 A 
ATOM     22  C   UNL A   1      44.324  24.559  30.059  1.00  0.00     0.049 A 
ATOM     23  H   UNL A   1      43.118  25.977  29.098  1.00  0.00     0.167 HD
ATOM     24  C   UNL A   1      40.116  28.753  27.938  1.00  0.00     0.034 A 
ATOM     25  C   UNL A   1      45.068  25.314  30.904  1.00  0.00     0.034 A 
ATOM     26  C   UNL A   1      41.189  29.122  27.057  1.00  0.00     0.049 A 
ATOM     27  C   UNL A   1      45.024  26.705  30.392  1.00  0.00     0.074 A 
ATOM     28  C   UNL A   1      41.458  28.996  25.710  1.00  0.00     0.029 A 
ATOM     29  N   UNL A   1      42.375  29.460  27.658  1.00  0.00    -0.354 N 
ATOM     30  N   UNL A   1      45.573  27.094  29.275  1.00  0.00    -0.248 NA
ATOM     31  C   UNL A   1      44.109  27.655  31.005  1.00  0.00     0.031 C 
ATOM     32  C   UNL A   1      42.874  28.851  25.625  1.00  0.00     0.029 A 
ATOM     33  C   UNL A   1      43.388  28.912  26.922  1.00  0.00     0.049 A 
ATOM     34  H   UNL A   1      42.477  30.002  28.474  1.00  0.00     0.167 HD
ATOM     35  C   UNL A   1      44.769  28.132  28.837  1.00  0.00     0.074 A 
ATOM     36  C   UNL A   1      43.995  28.531  30.005  1.00  0.00     0.031 C 
ATOM     37  C   UNL A   1      44.598  28.373  27.505  1.00  0.00     0.034 A 
BRANCH  24  38
ATOM     38  C   UNL A   1      39.617  29.713  28.995  1.00  0.00     0.023 A 
ATOM     39  C   UNL A   1      40.171  29.605  30.292  1.00  0.00     0.012 A 
ATOM     40  C   UNL A   1      38.447  30.495  28.861  1.00  0.00     0.148 A 
ATOM     41  C   UNL A   1      39.568  30.205  31.402  1.00  0.00     0.002 A 
ATOM     42  C   UNL A   1      37.900  31.160  29.953  1.00  0.00     0.091 A 
ATOM     43  F   UNL A   1      37.768  30.492  27.711  1.00  0.00    -0.205 F 
ATOM     44  C   UNL A   1      38.437  30.994  31.231  1.00  0.00     0.022 A 
BRANCH  42  45
ATOM     45  S   UNL A   1      36.469  32.228  29.771  1.00  0.00     0.127 S 
ATOM     46  O   UNL A   1      35.443  31.275  29.361  1.00  0.00    -0.237 OA
ATOM     47  O   UNL A   1      36.317  32.764  31.123  1.00  0.00    -0.237 OA
ATOM     48  O   UNL A   1      36.861  33.224  28.778  1.00  0.00    -0.744 OA
ENDBRANCH  42  45
ENDBRANCH  24  38
BRANCH  25  49
ATOM     49  C   UNL A   1      45.680  25.001  32.221  1.00  0.00     0.023 A 
ATOM     50  C   UNL A   1      46.890  25.638  32.579  1.00  0.00     0.012 A 
ATOM     51  C   UNL A   1      44.961  24.340  33.239  1.00  0.00     0.148 A 
ATOM     52  C   UNL A   1      47.324  25.684  33.908  1.00  0.00     0.002 A 
ATOM     53  C   UNL A   1      45.406  24.373  34.559  1.00  0.00     0.091 A 
ATOM     54  F   UNL A   1      43.789  23.764  32.939  1.00  0.00    -0.205 F 
ATOM     55  C   UNL A   1      46.576  25.063  34.901  1.00  0.00     0.022 A 
BRANCH  53  56
ATOM     56  S   UNL A   1      44.488  23.581  35.887  1.00  0.00     0.127 S 
ATOM     57  O   UNL A   1      43.181  24.237  35.795  1.00  0.00    -0.237 OA
ATOM     58  O   UNL A   1      44.499  22.181  35.473  1.00  0.00    -0.237 OA
ATOM     59  O   UNL A   1      45.223  23.895  37.106  1.00  0.00    -0.744 OA
ENDBRANCH  53  56
ENDBRANCH  25  49
BRANCH  37  60
ATOM     60  C   UNL A   1      45.577  27.769  26.538  1.00  0.00     0.023 A 
ATOM     61  C   UNL A   1      46.820  28.370  26.257  1.00  0.00     0.012 A 
ATOM     62  C   UNL A   1      45.320  26.467  26.070  1.00  0.00     0.148 A 
ATOM     63  C   UNL A   1      47.789  27.684  25.521  1.00  0.00     0.002 A 
ATOM     64  C   UNL A   1      46.303  25.773  25.379  1.00  0.00     0.091 A 
ATOM     65  F   UNL A   1      44.133  25.914  26.362  1.00  0.00    -0.205 F 
ATOM     66  C   UNL A   1      47.537  26.380  25.096  1.00  0.00     0.022 A 
BRANCH  64  67
ATOM     67  S   UNL A   1      46.102  24.050  24.917  1.00  0.00     0.127 S 
ATOM     68  O   UNL A   1      46.333  23.363  26.186  1.00  0.00    -0.237 OA
ATOM     69  O   UNL A   1      44.717  24.019  24.445  1.00  0.00    -0.237 OA
ATOM     70  O   UNL A   1      47.095  23.788  23.882  1.00  0.00    -0.744 OA
ENDBRANCH  64  67
ENDBRANCH  37  60
ENDBRANCH  11  12
ENDBRANCH   4   6
ENDBRANCH   1   2
BRANCH   1  71
ATOM     71  C   UNL A   1      35.223  21.199  25.939  1.00  0.00     0.023 C 
BRANCH  71  72
ATOM     72  C   UNL A   1      35.037  22.554  26.622  1.00  0.00     0.023 C 
BRANCH  72  73
ATOM     73  C   UNL A   1      33.860  22.661  27.584  1.00  0.00     0.116 C 
BRANCH  73  74
ATOM     74  N   UNL A   1      32.592  22.256  26.998  1.00  0.00    -0.350 N 
ATOM     75  C   UNL A   1      31.677  23.024  26.299  1.00  0.00     0.280 C 
ATOM     76  H   UNL A   1      32.352  21.309  27.114  1.00  0.00     0.163 HD
ATOM     77  O   UNL A   1      30.650  22.464  25.912  1.00  0.00    -0.267 OA
BRANCH  75  78
ATOM     78  C   UNL A   1      31.958  24.436  26.071  1.00  0.00     0.182 A 
ATOM     79  N   UNL A   1      31.457  25.398  26.816  1.00  0.00    -0.228 NA
ATOM     80  S   UNL A   1      32.940  24.942  24.760  1.00  0.00    -0.109 S 
ATOM     81  C   UNL A   1      32.012  26.615  26.444  1.00  0.00     0.118 A 
ATOM     82  C   UNL A   1      32.900  26.554  25.366  1.00  0.00     0.058 A 
ATOM     83  C   UNL A   1      31.797  27.872  27.049  1.00  0.00     0.150 A 
ATOM     84  C   UNL A   1      33.604  27.683  24.911  1.00  0.00     0.021 A 
ATOM     85  F   UNL A   1      30.937  28.002  28.071  1.00  0.00    -0.205 F 
ATOM     86  C   UNL A   1      32.489  29.002  26.611  1.00  0.00     0.041 A 
ATOM     87  C   UNL A   1      33.394  28.904  25.560  1.00  0.00     0.005 A 
ENDBRANCH  75  78
ENDBRANCH  73  74
ENDBRANCH  72  73
ENDBRANCH  71  72
ENDBRANCH   1  71
TORSDOF 14
ENDMDL
MODEL 3
REMARK VINA RESULT:     -11.8      2.457      3.436
REMARK SMILES O=C(NCCCCNC(=O)c1nc2c(F)cccc2s1)c1ccc(-c2c3nc(c(-c4cccc(S(=O)(=O)[O-])c4F)c4ccc([nH]4)c(-c4cccc(S(=O)(=O)[O-])c4F)c4nc(c(-c5cccc(S(=O)(=O)[O-])c5F)c5ccc2[nH]5)C=C4)C=C3)cc1
REMARK SMILES IDX 4 1 3 2 1 3 2 4 21 6 22 7 83 8 23 9 82 10 24 11 25 12 26 13
REMARK SMILES IDX 76 14 27 15 81 16 75 17 77 18 28 19 80 20 74 21 73 22 29 24
REMARK SMILES IDX 61 25 41 26 60 27 42 28 45 29 59 30 78 31 43 32 44 33 58 35
REMARK SMILES IDX 79 36 46 37 30 38 31 39 39 40 32 41 34 42 40 43 33 44 35 45
REMARK SMILES IDX 36 46 37 47 38 48 62 49 63 50 71 51 64 52 66 53 72 54 65 55
REMARK SMILES IDX 67 56 68 57 69 58 70 59 47 60 48 61 56 62 49 63 51 64 57 65
REMARK SMILES IDX 50 66 52 67 53 68 54 69 55 70 5 71 6 72 7 73 8 74 9 75 10 77
REMARK SMILES IDX 11 78 12 79 20 80 13 81 19 82 14 83 18 84 15 85 16 86 17 87
REMARK H PARENT 3 5 77 23 45 34 8 76
REMARK Flexibility Score: inf
ROOT
ATOM      1  C   UNL A   1      34.297  31.406  27.515  1.00  0.00     0.116 C 
ENDROOT
BRANCH   1   2
ATOM      2  N   UNL A   1      34.286  31.916  28.872  1.00  0.00    -0.352 N 
ATOM      3  O   UNL A   1      34.908  32.607  30.882  1.00  0.00    -0.269 OA
ATOM      4  C   UNL A   1      35.195  31.918  29.900  1.00  0.00     0.251 C 
ATOM      5  H   UNL A   1      33.439  32.361  29.108  1.00  0.00     0.163 HD
BRANCH   4   6
ATOM      6  C   UNL A   1      36.439  31.101  29.930  1.00  0.00     0.039 A 
ATOM      7  C   UNL A   1      37.729  31.610  29.790  1.00  0.00     0.014 A 
ATOM      8  C   UNL A   1      36.281  29.713  30.115  1.00  0.00     0.014 A 
ATOM      9  C   UNL A   1      38.821  30.752  29.734  1.00  0.00     0.010 A 
ATOM     10  C   UNL A   1      37.375  28.848  30.092  1.00  0.00     0.010 A 
ATOM     11  C   UNL A   1      38.645  29.372  29.879  1.00  0.00    -0.014 A 
BRANCH  11  12
ATOM     12  C   UNL A   1      39.859  28.572  30.005  1.00  0.00     0.031 A 
ATOM     13  C   UNL A   1      40.442  28.570  31.374  1.00  0.00     0.074 A 
ATOM     14  C   UNL A   1      40.427  27.832  29.035  1.00  0.00     0.049 A 
ATOM     15  N   UNL A   1      41.519  29.166  31.773  1.00  0.00    -0.248 NA
ATOM     16  C   UNL A   1      39.670  27.930  32.445  1.00  0.00     0.031 C 
ATOM     17  C   UNL A   1      39.874  27.460  27.736  1.00  0.00     0.029 A 
ATOM     18  N   UNL A   1      41.622  27.172  29.071  1.00  0.00    -0.354 N 
ATOM     19  C   UNL A   1      41.680  28.787  33.104  1.00  0.00     0.074 A 
ATOM     20  C   UNL A   1      40.444  28.167  33.505  1.00  0.00     0.031 C 
ATOM     21  C   UNL A   1      40.632  26.474  27.199  1.00  0.00     0.029 A 
ATOM     22  C   UNL A   1      41.793  26.251  28.045  1.00  0.00     0.049 A 
ATOM     23  H   UNL A   1      42.303  27.334  29.764  1.00  0.00     0.167 HD
ATOM     24  C   UNL A   1      42.899  28.800  33.708  1.00  0.00     0.034 A 
ATOM     25  C   UNL A   1      42.796  25.345  27.947  1.00  0.00     0.034 A 
ATOM     26  C   UNL A   1      43.861  29.578  32.977  1.00  0.00     0.049 A 
ATOM     27  C   UNL A   1      43.931  25.869  28.743  1.00  0.00     0.074 A 
ATOM     28  C   UNL A   1      43.979  30.891  32.574  1.00  0.00     0.029 A 
ATOM     29  N   UNL A   1      44.789  28.868  32.259  1.00  0.00    -0.354 N 
ATOM     30  N   UNL A   1      44.619  26.931  28.429  1.00  0.00    -0.248 NA
ATOM     31  C   UNL A   1      44.150  25.355  30.086  1.00  0.00     0.031 C 
ATOM     32  C   UNL A   1      44.678  30.838  31.333  1.00  0.00     0.029 A 
ATOM     33  C   UNL A   1      44.962  29.498  31.058  1.00  0.00     0.049 A 
ATOM     34  H   UNL A   1      45.251  28.050  32.556  1.00  0.00     0.167 HD
ATOM     35  C   UNL A   1      45.025  27.454  29.646  1.00  0.00     0.074 A 
ATOM     36  C   UNL A   1      44.849  26.369  30.602  1.00  0.00     0.031 C 
ATOM     37  C   UNL A   1      45.188  28.797  29.813  1.00  0.00     0.034 A 
BRANCH  24  38
ATOM     38  C   UNL A   1      43.344  27.804  34.756  1.00  0.00     0.023 A 
ATOM     39  C   UNL A   1      43.888  28.317  35.957  1.00  0.00     0.012 A 
ATOM     40  C   UNL A   1      43.530  26.426  34.506  1.00  0.00     0.148 A 
ATOM     41  C   UNL A   1      44.615  27.509  36.838  1.00  0.00     0.002 A 
ATOM     42  C   UNL A   1      44.179  25.610  35.426  1.00  0.00     0.091 A 
ATOM     43  F   UNL A   1      43.208  25.913  33.315  1.00  0.00    -0.205 F 
ATOM     44  C   UNL A   1      44.751  26.151  36.578  1.00  0.00     0.022 A 
BRANCH  42  45
ATOM     45  S   UNL A   1      44.336  23.843  35.155  1.00  0.00     0.127 S 
ATOM     46  O   UNL A   1      45.202  23.802  33.983  1.00  0.00    -0.237 OA
ATOM     47  O   UNL A   1      44.955  23.400  36.404  1.00  0.00    -0.237 OA
ATOM     48  O   UNL A   1      42.969  23.363  34.968  1.00  0.00    -0.744 OA
ENDBRANCH  42  45
ENDBRANCH  24  38
BRANCH  25  49
ATOM     49  C   UNL A   1      42.828  23.972  27.379  1.00  0.00     0.023 A 
ATOM     50  C   UNL A   1      41.664  23.174  27.459  1.00  0.00     0.012 A 
ATOM     51  C   UNL A   1      43.854  23.550  26.507  1.00  0.00     0.148 A 
ATOM     52  C   UNL A   1      41.496  22.047  26.646  1.00  0.00     0.002 A 
ATOM     53  C   UNL A   1      43.689  22.417  25.713  1.00  0.00     0.091 A 
ATOM     54  F   UNL A   1      44.951  24.309  26.377  1.00  0.00    -0.205 F 
ATOM     55  C   UNL A   1      42.502  21.676  25.764  1.00  0.00     0.022 A 
BRANCH  53  56
ATOM     56  S   UNL A   1      44.958  21.880  24.558  1.00  0.00     0.127 S 
ATOM     57  O   UNL A   1      44.428  20.599  24.086  1.00  0.00    -0.237 OA
ATOM     58  O   UNL A   1      44.940  22.950  23.565  1.00  0.00    -0.237 OA
ATOM     59  O   UNL A   1      46.176  21.761  25.349  1.00  0.00    -0.744 OA
ENDBRANCH  53  56
ENDBRANCH  25  49
BRANCH  37  60
ATOM     60  C   UNL A   1      45.306  29.661  28.588  1.00  0.00     0.023 A 
ATOM     61  C   UNL A   1      44.176  30.107  27.875  1.00  0.00     0.012 A 
ATOM     62  C   UNL A   1      46.569  30.200  28.283  1.00  0.00     0.148 A 
ATOM     63  C   UNL A   1      44.304  31.072  26.874  1.00  0.00     0.002 A 
ATOM     64  C   UNL A   1      46.685  31.191  27.319  1.00  0.00     0.091 A 
ATOM     65  F   UNL A   1      47.627  29.765  28.986  1.00  0.00    -0.205 F 
ATOM     66  C   UNL A   1      45.556  31.626  26.607  1.00  0.00     0.022 A 
BRANCH  64  67
ATOM     67  S   UNL A   1      48.235  32.042  27.014  1.00  0.00     0.127 S 
ATOM     68  O   UNL A   1      47.837  33.066  26.049  1.00  0.00    -0.237 OA
ATOM     69  O   UNL A   1      48.573  32.551  28.344  1.00  0.00    -0.237 OA
ATOM     70  O   UNL A   1      49.159  31.037  26.503  1.00  0.00    -0.744 OA
ENDBRANCH  64  67
ENDBRANCH  37  60
ENDBRANCH  11  12
ENDBRANCH   4   6
ENDBRANCH   1   2
BRANCH   1  71
ATOM     71  C   UNL A   1      33.345  30.240  27.247  1.00  0.00     0.023 C 
BRANCH  71  72
ATOM     72  C   UNL A   1      34.014  28.890  26.987  1.00  0.00     0.023 C 
BRANCH  72  73
ATOM     73  C   UNL A   1      33.079  27.738  26.639  1.00  0.00     0.116 C 
BRANCH  73  74
ATOM     74  N   UNL A   1      33.651  26.791  25.695  1.00  0.00    -0.350 N 
ATOM     75  C   UNL A   1      33.221  26.476  24.417  1.00  0.00     0.280 C 
ATOM     76  H   UNL A   1      34.451  26.309  26.006  1.00  0.00     0.163 HD
ATOM     77  O   UNL A   1      33.856  25.617  23.804  1.00  0.00    -0.267 OA
BRANCH  75  78
ATOM     78  C   UNL A   1      32.050  27.152  23.873  1.00  0.00     0.182 A 
ATOM     79  N   UNL A   1      30.829  26.674  23.981  1.00  0.00    -0.228 NA
ATOM     80  S   UNL A   1      32.202  28.619  22.998  1.00  0.00    -0.109 S 
ATOM     81  C   UNL A   1      29.918  27.600  23.492  1.00  0.00     0.118 A 
ATOM     82  C   UNL A   1      30.486  28.763  22.963  1.00  0.00     0.058 A 
ATOM     83  C   UNL A   1      28.511  27.500  23.501  1.00  0.00     0.150 A 
ATOM     84  C   UNL A   1      29.702  29.832  22.494  1.00  0.00     0.021 A 
ATOM     85  F   UNL A   1      27.905  26.399  23.971  1.00  0.00    -0.205 F 
ATOM     86  C   UNL A   1      27.718  28.554  23.041  1.00  0.00     0.041 A 
ATOM     87  C   UNL A   1      28.310  29.714  22.555  1.00  0.00     0.005 A 
ENDBRANCH  75  78
ENDBRANCH  73  74
ENDBRANCH  72  73
ENDBRANCH  71  72
ENDBRANCH   1  71
TORSDOF 14
ENDMDL
