MODEL 1
REMARK VINA RESULT:     -13.2      0.000      0.000
REMARK SMILES Cc1ccc(C(=O)NC2CC2)cc1NC(=O)[C@@H]1[C@@H](C(=O)NCCCCNC(=O)c2ccc(-c3c4nc(c(-c5cccc(S(=O)(=O)[O-])c5F)c5ccc([nH]5)c(-c5cccc(S(=O)(=O)[O-])c5F)c5nc(c(-c6cccc(S(=O)(=O)[O-])c6F)c6ccc3[nH]6)C=C5)C=C4)cc2)[C@H]2C=C[C@@H]1C2
REMARK SMILES IDX 23 1 22 2 21 3 19 4 20 5 18 7 17 8 95 9 92 10 94 11 96 12
REMARK SMILES IDX 93 13 15 14 14 15 16 17 13 18 1 19 2 20 3 21 4 22 12 23 5 24
REMARK SMILES IDX 6 25 7 26 8 27 9 29 10 30 11 31 24 32 25 33 26 34 27 35
REMARK SMILES IDX 28 37 29 38 30 39 91 40 31 41 90 42 32 43 33 44 34 45 84 46
REMARK SMILES IDX 35 47 89 48 83 49 85 50 36 51 88 52 82 53 81 54 37 56 69 57
REMARK SMILES IDX 49 58 68 59 50 60 53 61 67 62 86 63 51 64 52 65 66 67 87 68
REMARK SMILES IDX 54 69 38 70 39 71 47 72 40 73 42 74 48 75 41 76 43 77 44 78
REMARK SMILES IDX 45 79 46 80 70 81 71 82 79 83 72 84 74 85 80 86 73 87 75 88
REMARK SMILES IDX 76 89 77 90 78 91 55 92 56 93 64 94 57 95 59 96 65 97 58 98
REMARK SMILES IDX 60 99 61 100 62 101 63 102
REMARK H PARENT 21 6 14 16 8 28 26 36 85 55 53 66
REMARK Flexibility Score: inf
ROOT
ATOM      1  C   UNL A   1      34.793  30.586  27.531  1.00  0.00     0.023 C 
ENDROOT
BRANCH   1   2
ATOM      2  C   UNL A   1      33.628  29.818  26.902  1.00  0.00     0.116 C 
BRANCH   2   3
ATOM      3  N   UNL A   1      33.754  29.723  25.461  1.00  0.00    -0.356 N 
ATOM      4  C   UNL A   1      32.953  29.233  24.490  1.00  0.00     0.224 C 
ATOM      5  O   UNL A   1      33.464  29.164  23.364  1.00  0.00    -0.275 OA
ATOM      6  H   UNL A   1      34.601  30.091  25.120  1.00  0.00     0.163 HD
BRANCH   4   7
ATOM      7  C   UNL A   1      31.547  28.683  24.718  1.00  0.00     0.098 C 
ATOM      8  C   UNL A   1      31.658  27.112  24.920  1.00  0.00     0.099 C 
ATOM      9  C   UNL A   1      30.553  26.558  23.983  1.00  0.00     0.025 C 
ATOM     10  C   UNL A   1      30.482  28.762  23.604  1.00  0.00     0.025 C 
ATOM     11  C   UNL A   1      30.992  26.785  22.553  1.00  0.00    -0.027 C 
ATOM     12  C   UNL A   1      29.506  27.665  24.055  1.00  0.00     0.017 C 
ATOM     13  C   UNL A   1      30.981  28.108  22.337  1.00  0.00    -0.027 C 
BRANCH   8  14
ATOM     14  C   UNL A   1      31.488  26.637  26.354  1.00  0.00     0.228 C 
ATOM     15  N   UNL A   1      31.690  25.326  26.714  1.00  0.00    -0.326 N 
ATOM     16  H   UNL A   1      31.513  25.152  27.667  1.00  0.00     0.169 HD
ATOM     17  O   UNL A   1      31.081  27.399  27.238  1.00  0.00    -0.274 OA
BRANCH  15  18
ATOM     18  C   UNL A   1      32.097  24.176  25.999  1.00  0.00     0.044 A 
ATOM     19  C   UNL A   1      30.111  22.825  26.954  1.00  0.00     0.046 C 
ATOM     20  C   UNL A   1      31.298  23.017  26.047  1.00  0.00    -0.027 A 
ATOM     21  C   UNL A   1      31.629  21.933  25.215  1.00  0.00     0.006 A 
ATOM     22  C   UNL A   1      32.732  21.991  24.362  1.00  0.00     0.014 A 
ATOM     23  C   UNL A   1      33.283  24.141  25.246  1.00  0.00     0.040 A 
ATOM     24  C   UNL A   1      33.593  23.094  24.373  1.00  0.00     0.041 A 
BRANCH  24  25
ATOM     25  C   UNL A   1      34.776  23.037  23.445  1.00  0.00     0.251 C 
ATOM     26  O   UNL A   1      34.645  23.498  22.307  1.00  0.00    -0.269 OA
ATOM     27  N   UNL A   1      36.016  22.534  23.783  1.00  0.00    -0.349 N 
ATOM     28  H   UNL A   1      36.687  22.587  23.065  1.00  0.00     0.164 HD
BRANCH  27  29
ATOM     29  C   UNL A   1      36.490  21.953  24.986  1.00  0.00     0.082 C 
ATOM     30  C   UNL A   1      37.339  20.714  24.931  1.00  0.00     0.027 C 
ATOM     31  C   UNL A   1      37.926  22.006  25.417  1.00  0.00     0.027 C 
ENDBRANCH  27  29
ENDBRANCH  24  25
ENDBRANCH  15  18
ENDBRANCH   8  14
ENDBRANCH   4   7
ENDBRANCH   2   3
ENDBRANCH   1   2
BRANCH   1  32
ATOM     32  C   UNL A   1      34.390  31.622  28.582  1.00  0.00     0.023 C 
BRANCH  32  33
ATOM     33  C   UNL A   1      34.371  33.057  28.075  1.00  0.00     0.116 C 
BRANCH  33  34
ATOM     34  N   UNL A   1      33.627  33.972  28.920  1.00  0.00    -0.352 N 
ATOM     35  C   UNL A   1      33.788  34.280  30.259  1.00  0.00     0.251 C 
ATOM     36  H   UNL A   1      32.893  34.449  28.471  1.00  0.00     0.163 HD
ATOM     37  O   UNL A   1      32.887  34.910  30.810  1.00  0.00    -0.269 OA
BRANCH  35  38
ATOM     38  C   UNL A   1      35.060  33.988  30.975  1.00  0.00     0.039 A 
ATOM     39  C   UNL A   1      36.230  34.614  30.513  1.00  0.00     0.014 A 
ATOM     40  C   UNL A   1      35.161  32.984  31.933  1.00  0.00     0.014 A 
ATOM     41  C   UNL A   1      37.478  34.055  30.790  1.00  0.00     0.010 A 
ATOM     42  C   UNL A   1      36.380  32.381  32.152  1.00  0.00     0.010 A 
ATOM     43  C   UNL A   1      37.520  32.867  31.505  1.00  0.00    -0.014 A 
BRANCH  43  44
ATOM     44  C   UNL A   1      38.659  31.966  31.557  1.00  0.00     0.031 A 
ATOM     45  C   UNL A   1      38.628  30.665  30.878  1.00  0.00     0.074 A 
ATOM     46  C   UNL A   1      39.820  32.495  32.004  1.00  0.00     0.049 A 
ATOM     47  N   UNL A   1      39.494  29.728  31.058  1.00  0.00    -0.248 NA
ATOM     48  C   UNL A   1      37.575  30.318  29.937  1.00  0.00     0.031 C 
ATOM     49  C   UNL A   1      41.175  32.034  31.738  1.00  0.00     0.029 A 
ATOM     50  N   UNL A   1      39.980  33.492  32.972  1.00  0.00    -0.354 N 
ATOM     51  C   UNL A   1      39.304  28.801  30.052  1.00  0.00     0.074 A 
ATOM     52  C   UNL A   1      38.035  29.157  29.462  1.00  0.00     0.031 C 
ATOM     53  C   UNL A   1      41.989  32.531  32.682  1.00  0.00     0.029 A 
ATOM     54  C   UNL A   1      41.140  33.152  33.688  1.00  0.00     0.049 A 
ATOM     55  H   UNL A   1      39.398  34.272  33.122  1.00  0.00     0.167 HD
ATOM     56  C   UNL A   1      40.331  27.961  29.730  1.00  0.00     0.034 A 
ATOM     57  C   UNL A   1      41.132  32.844  35.019  1.00  0.00     0.034 A 
ATOM     58  C   UNL A   1      41.457  28.131  30.667  1.00  0.00     0.049 A 
ATOM     59  C   UNL A   1      41.661  31.448  35.305  1.00  0.00     0.074 A 
ATOM     60  C   UNL A   1      42.650  28.830  30.582  1.00  0.00     0.029 A 
ATOM     61  N   UNL A   1      41.307  27.776  32.004  1.00  0.00    -0.354 N 
ATOM     62  N   UNL A   1      41.934  30.566  34.383  1.00  0.00    -0.248 NA
ATOM     63  C   UNL A   1      41.884  30.923  36.650  1.00  0.00     0.031 C 
ATOM     64  C   UNL A   1      43.160  28.992  31.899  1.00  0.00     0.029 A 
ATOM     65  C   UNL A   1      42.298  28.360  32.780  1.00  0.00     0.049 A 
ATOM     66  H   UNL A   1      40.596  27.191  32.352  1.00  0.00     0.167 HD
ATOM     67  C   UNL A   1      42.202  29.357  34.963  1.00  0.00     0.074 A 
ATOM     68  C   UNL A   1      42.246  29.655  36.385  1.00  0.00     0.031 C 
ATOM     69  C   UNL A   1      42.290  28.203  34.232  1.00  0.00     0.034 A 
BRANCH  56  70
ATOM     70  C   UNL A   1      40.487  27.235  28.393  1.00  0.00     0.023 A 
ATOM     71  C   UNL A   1      39.587  26.176  28.124  1.00  0.00     0.012 A 
ATOM     72  C   UNL A   1      41.488  27.441  27.415  1.00  0.00     0.148 A 
ATOM     73  C   UNL A   1      39.737  25.311  27.033  1.00  0.00     0.002 A 
ATOM     74  C   UNL A   1      41.678  26.543  26.358  1.00  0.00     0.091 A 
ATOM     75  F   UNL A   1      42.216  28.557  27.430  1.00  0.00    -0.205 F 
ATOM     76  C   UNL A   1      40.808  25.470  26.169  1.00  0.00     0.022 A 
BRANCH  74  77
ATOM     77  S   UNL A   1      43.081  26.662  25.230  1.00  0.00     0.127 S 
ATOM     78  O   UNL A   1      43.139  25.312  24.666  1.00  0.00    -0.237 OA
ATOM     79  O   UNL A   1      42.644  27.695  24.294  1.00  0.00    -0.237 OA
ATOM     80  O   UNL A   1      44.235  27.009  26.053  1.00  0.00    -0.744 OA
ENDBRANCH  74  77
ENDBRANCH  56  70
BRANCH  57  81
ATOM     81  C   UNL A   1      40.039  33.520  35.781  1.00  0.00     0.023 A 
ATOM     82  C   UNL A   1      38.802  32.836  35.871  1.00  0.00     0.012 A 
ATOM     83  C   UNL A   1      40.316  34.542  36.707  1.00  0.00     0.148 A 
ATOM     84  C   UNL A   1      37.936  33.059  36.943  1.00  0.00     0.002 A 
ATOM     85  C   UNL A   1      39.442  34.762  37.771  1.00  0.00     0.091 A 
ATOM     86  F   UNL A   1      41.462  35.225  36.587  1.00  0.00    -0.205 F 
ATOM     87  C   UNL A   1      38.275  33.993  37.914  1.00  0.00     0.022 A 
BRANCH  85  88
ATOM     88  S   UNL A   1      39.839  35.940  39.072  1.00  0.00     0.127 S 
ATOM     89  O   UNL A   1      38.864  35.583  40.097  1.00  0.00    -0.237 OA
ATOM     90  O   UNL A   1      41.224  35.603  39.397  1.00  0.00    -0.237 OA
ATOM     91  O   UNL A   1      39.677  37.244  38.446  1.00  0.00    -0.744 OA
ENDBRANCH  85  88
ENDBRANCH  57  81
BRANCH  69  92
ATOM     92  C   UNL A   1      42.355  26.811  34.824  1.00  0.00     0.023 A 
ATOM     93  C   UNL A   1      41.261  26.231  35.496  1.00  0.00     0.012 A 
ATOM     94  C   UNL A   1      43.478  25.977  34.587  1.00  0.00     0.148 A 
ATOM     95  C   UNL A   1      41.299  24.917  35.972  1.00  0.00     0.002 A 
ATOM     96  C   UNL A   1      43.469  24.637  34.970  1.00  0.00     0.091 A 
ATOM     97  F   UNL A   1      44.572  26.485  34.002  1.00  0.00    -0.205 F 
ATOM     98  C   UNL A   1      42.395  24.112  35.691  1.00  0.00     0.022 A 
BRANCH  96  99
ATOM     99  S   UNL A   1      44.762  23.513  34.422  1.00  0.00     0.127 S 
ATOM    100  O   UNL A   1      45.956  24.110  35.013  1.00  0.00    -0.237 OA
ATOM    101  O   UNL A   1      44.354  22.242  35.026  1.00  0.00    -0.237 OA
ATOM    102  O   UNL A   1      44.684  23.530  32.968  1.00  0.00    -0.744 OA
ENDBRANCH  96  99
ENDBRANCH  69  92
ENDBRANCH  43  44
ENDBRANCH  35  38
ENDBRANCH  33  34
ENDBRANCH  32  33
ENDBRANCH   1  32
TORSDOF 18
ENDMDL
MODEL 2
REMARK VINA RESULT:     -13.1      2.052      2.579
REMARK SMILES Cc1ccc(C(=O)NC2CC2)cc1NC(=O)[C@@H]1[C@@H](C(=O)NCCCCNC(=O)c2ccc(-c3c4nc(c(-c5cccc(S(=O)(=O)[O-])c5F)c5ccc([nH]5)c(-c5cccc(S(=O)(=O)[O-])c5F)c5nc(c(-c6cccc(S(=O)(=O)[O-])c6F)c6ccc3[nH]6)C=C5)C=C4)cc2)[C@H]2C=C[C@@H]1C2
REMARK SMILES IDX 23 1 22 2 21 3 19 4 20 5 18 7 17 8 95 9 92 10 94 11 96 12
REMARK SMILES IDX 93 13 15 14 14 15 16 17 13 18 1 19 2 20 3 21 4 22 12 23 5 24
REMARK SMILES IDX 6 25 7 26 8 27 9 29 10 30 11 31 24 32 25 33 26 34 27 35
REMARK SMILES IDX 28 37 29 38 30 39 91 40 31 41 90 42 32 43 33 44 34 45 84 46
REMARK SMILES IDX 35 47 89 48 83 49 85 50 36 51 88 52 82 53 81 54 37 56 69 57
REMARK SMILES IDX 49 58 68 59 50 60 53 61 67 62 86 63 51 64 52 65 66 67 87 68
REMARK SMILES IDX 54 69 38 70 39 71 47 72 40 73 42 74 48 75 41 76 43 77 44 78
REMARK SMILES IDX 45 79 46 80 70 81 71 82 79 83 72 84 74 85 80 86 73 87 75 88
REMARK SMILES IDX 76 89 77 90 78 91 55 92 56 93 64 94 57 95 59 96 65 97 58 98
REMARK SMILES IDX 60 99 61 100 62 101 63 102
REMARK H PARENT 21 6 14 16 8 28 26 36 85 55 53 66
REMARK Flexibility Score: inf
ROOT
ATOM      1  C   UNL A   1      33.483  30.080  26.844  1.00  0.00     0.023 C 
ENDROOT
BRANCH   1   2
ATOM      2  C   UNL A   1      32.943  28.675  27.120  1.00  0.00     0.116 C 
BRANCH   2   3
ATOM      3  N   UNL A   1      33.668  27.659  26.384  1.00  0.00    -0.356 N 
ATOM      4  C   UNL A   1      33.288  26.548  25.715  1.00  0.00     0.224 C 
ATOM      5  O   UNL A   1      34.210  25.811  25.342  1.00  0.00    -0.275 OA
ATOM      6  H   UNL A   1      34.641  27.809  26.369  1.00  0.00     0.163 HD
BRANCH   4   7
ATOM      7  C   UNL A   1      31.839  26.118  25.498  1.00  0.00     0.098 C 
ATOM      8  C   UNL A   1      31.823  24.553  25.234  1.00  0.00     0.099 C 
ATOM      9  C   UNL A   1      30.916  24.417  23.983  1.00  0.00     0.025 C 
ATOM     10  C   UNL A   1      31.040  26.631  24.282  1.00  0.00     0.025 C 
ATOM     11  C   UNL A   1      31.659  24.992  22.798  1.00  0.00    -0.027 C 
ATOM     12  C   UNL A   1      29.936  25.567  24.189  1.00  0.00     0.017 C 
ATOM     13  C   UNL A   1      31.762  26.314  22.993  1.00  0.00    -0.027 C 
BRANCH   8  14
ATOM     14  C   UNL A   1      31.329  23.710  26.398  1.00  0.00     0.228 C 
ATOM     15  N   UNL A   1      31.720  22.404  26.568  1.00  0.00    -0.326 N 
ATOM     16  H   UNL A   1      31.298  21.969  27.344  1.00  0.00     0.169 HD
ATOM     17  O   UNL A   1      30.487  24.145  27.192  1.00  0.00    -0.274 OA
BRANCH  15  18
ATOM     18  C   UNL A   1      32.603  21.556  25.860  1.00  0.00     0.044 A 
ATOM     19  C   UNL A   1      34.649  22.810  26.818  1.00  0.00     0.046 C 
ATOM     20  C   UNL A   1      33.991  21.695  26.048  1.00  0.00    -0.027 A 
ATOM     21  C   UNL A   1      34.851  20.751  25.460  1.00  0.00     0.006 A 
ATOM     22  C   UNL A   1      34.349  19.698  24.695  1.00  0.00     0.014 A 
ATOM     23  C   UNL A   1      32.143  20.579  24.962  1.00  0.00     0.040 A 
ATOM     24  C   UNL A   1      32.981  19.600  24.416  1.00  0.00     0.041 A 
BRANCH  24  25
ATOM     25  C   UNL A   1      32.549  18.451  23.547  1.00  0.00     0.251 C 
ATOM     26  O   UNL A   1      32.238  18.692  22.377  1.00  0.00    -0.269 OA
ATOM     27  N   UNL A   1      32.507  17.132  23.952  1.00  0.00    -0.349 N 
ATOM     28  H   UNL A   1      32.219  16.501  23.254  1.00  0.00     0.164 HD
BRANCH  27  29
ATOM     29  C   UNL A   1      32.805  16.530  25.200  1.00  0.00     0.082 C 
ATOM     30  C   UNL A   1      32.471  15.083  25.428  1.00  0.00     0.027 C 
ATOM     31  C   UNL A   1      33.903  15.525  25.389  1.00  0.00     0.027 C 
ENDBRANCH  27  29
ENDBRANCH  24  25
ENDBRANCH  15  18
ENDBRANCH   8  14
ENDBRANCH   4   7
ENDBRANCH   2   3
ENDBRANCH   1   2
BRANCH   1  32
ATOM     32  C   UNL A   1      34.452  30.618  27.899  1.00  0.00     0.023 C 
BRANCH  32  33
ATOM     33  C   UNL A   1      34.948  32.032  27.634  1.00  0.00     0.116 C 
BRANCH  33  34
ATOM     34  N   UNL A   1      34.242  33.055  28.382  1.00  0.00    -0.352 N 
ATOM     35  C   UNL A   1      34.518  33.607  29.619  1.00  0.00     0.251 C 
ATOM     36  H   UNL A   1      33.440  33.414  27.938  1.00  0.00     0.163 HD
ATOM     37  O   UNL A   1      33.642  34.290  30.146  1.00  0.00    -0.269 OA
BRANCH  35  38
ATOM     38  C   UNL A   1      35.870  33.498  30.233  1.00  0.00     0.039 A 
ATOM     39  C   UNL A   1      36.972  33.904  29.463  1.00  0.00     0.014 A 
ATOM     40  C   UNL A   1      36.090  32.836  31.436  1.00  0.00     0.014 A 
ATOM     41  C   UNL A   1      38.245  33.407  29.748  1.00  0.00     0.010 A 
ATOM     42  C   UNL A   1      37.326  32.281  31.684  1.00  0.00     0.010 A 
ATOM     43  C   UNL A   1      38.376  32.497  30.787  1.00  0.00    -0.014 A 
BRANCH  43  44
ATOM     44  C   UNL A   1      39.512  31.611  30.979  1.00  0.00     0.031 A 
ATOM     45  C   UNL A   1      39.581  30.310  30.303  1.00  0.00     0.074 A 
ATOM     46  C   UNL A   1      40.602  32.154  31.565  1.00  0.00     0.049 A 
ATOM     47  N   UNL A   1      40.430  29.384  30.588  1.00  0.00    -0.248 NA
ATOM     48  C   UNL A   1      38.656  29.951  29.239  1.00  0.00     0.031 C 
ATOM     49  C   UNL A   1      41.985  31.711  31.467  1.00  0.00     0.029 A 
ATOM     50  N   UNL A   1      40.628  33.153  32.544  1.00  0.00    -0.354 N 
ATOM     51  C   UNL A   1      40.377  28.456  29.568  1.00  0.00     0.074 A 
ATOM     52  C   UNL A   1      39.186  28.795  28.826  1.00  0.00     0.031 C 
ATOM     53  C   UNL A   1      42.671  32.218  32.505  1.00  0.00     0.029 A 
ATOM     54  C   UNL A   1      41.697  32.827  33.397  1.00  0.00     0.049 A 
ATOM     55  H   UNL A   1      40.023  33.925  32.621  1.00  0.00     0.167 HD
ATOM     56  C   UNL A   1      41.446  27.628  29.375  1.00  0.00     0.034 A 
ATOM     57  C   UNL A   1      41.529  32.518  34.718  1.00  0.00     0.034 A 
ATOM     58  C   UNL A   1      42.446  27.812  30.444  1.00  0.00     0.049 A 
ATOM     59  C   UNL A   1      42.036  31.129  35.068  1.00  0.00     0.074 A 
ATOM     60  C   UNL A   1      43.632  28.527  30.505  1.00  0.00     0.029 A 
ATOM     61  N   UNL A   1      42.138  27.455  31.752  1.00  0.00    -0.354 N 
ATOM     62  N   UNL A   1      42.432  30.251  34.188  1.00  0.00    -0.248 NA
ATOM     63  C   UNL A   1      42.099  30.606  36.431  1.00  0.00     0.031 C 
ATOM     64  C   UNL A   1      43.974  28.694  31.874  1.00  0.00     0.029 A 
ATOM     65  C   UNL A   1      43.018  28.051  32.644  1.00  0.00     0.049 A 
ATOM     66  H   UNL A   1      41.397  26.860  32.010  1.00  0.00     0.167 HD
ATOM     67  C   UNL A   1      42.641  29.045  34.797  1.00  0.00     0.074 A 
ATOM     68  C   UNL A   1      42.507  29.342  36.214  1.00  0.00     0.031 C 
ATOM     69  C   UNL A   1      42.834  27.892  34.083  1.00  0.00     0.034 A 
BRANCH  56  70
ATOM     70  C   UNL A   1      41.774  26.906  28.068  1.00  0.00     0.023 A 
ATOM     71  C   UNL A   1      41.475  27.584  26.863  1.00  0.00     0.012 A 
ATOM     72  C   UNL A   1      42.270  25.589  27.915  1.00  0.00     0.148 A 
ATOM     73  C   UNL A   1      41.547  26.968  25.607  1.00  0.00     0.002 A 
ATOM     74  C   UNL A   1      42.285  24.950  26.669  1.00  0.00     0.091 A 
ATOM     75  F   UNL A   1      42.826  24.960  28.950  1.00  0.00    -0.205 F 
ATOM     76  C   UNL A   1      41.914  25.635  25.512  1.00  0.00     0.022 A 
BRANCH  74  77
ATOM     77  S   UNL A   1      42.701  23.205  26.484  1.00  0.00     0.127 S 
ATOM     78  O   UNL A   1      42.670  23.032  25.031  1.00  0.00    -0.237 OA
ATOM     79  O   UNL A   1      44.035  23.136  27.076  1.00  0.00    -0.237 OA
ATOM     80  O   UNL A   1      41.663  22.463  27.191  1.00  0.00    -0.744 OA
ENDBRANCH  74  77
ENDBRANCH  56  70
BRANCH  57  81
ATOM     81  C   UNL A   1      40.342  33.180  35.339  1.00  0.00     0.023 A 
ATOM     82  C   UNL A   1      39.118  32.467  35.304  1.00  0.00     0.012 A 
ATOM     83  C   UNL A   1      40.489  34.224  36.269  1.00  0.00     0.148 A 
ATOM     84  C   UNL A   1      38.132  32.686  36.268  1.00  0.00     0.002 A 
ATOM     85  C   UNL A   1      39.496  34.441  37.224  1.00  0.00     0.091 A 
ATOM     86  F   UNL A   1      41.625  34.933  36.264  1.00  0.00    -0.205 F 
ATOM     87  C   UNL A   1      38.339  33.645  37.252  1.00  0.00     0.022 A 
BRANCH  85  88
ATOM     88  S   UNL A   1      39.718  35.651  38.538  1.00  0.00     0.127 S 
ATOM     89  O   UNL A   1      39.661  36.905  37.792  1.00  0.00    -0.237 OA
ATOM     90  O   UNL A   1      38.568  35.398  39.404  1.00  0.00    -0.237 OA
ATOM     91  O   UNL A   1      41.000  35.309  39.136  1.00  0.00    -0.744 OA
ENDBRANCH  85  88
ENDBRANCH  57  81
BRANCH  69  92
ATOM     92  C   UNL A   1      42.843  26.501  34.681  1.00  0.00     0.023 A 
ATOM     93  C   UNL A   1      41.742  25.983  35.389  1.00  0.00     0.012 A 
ATOM     94  C   UNL A   1      43.912  25.608  34.413  1.00  0.00     0.148 A 
ATOM     95  C   UNL A   1      41.724  24.670  35.871  1.00  0.00     0.002 A 
ATOM     96  C   UNL A   1      43.843  24.272  34.802  1.00  0.00     0.091 A 
ATOM     97  F   UNL A   1      45.013  26.054  33.790  1.00  0.00    -0.205 F 
ATOM     98  C   UNL A   1      42.766  23.807  35.559  1.00  0.00     0.022 A 
BRANCH  96  99
ATOM     99  S   UNL A   1      45.056  23.078  34.220  1.00  0.00     0.127 S 
ATOM    100  O   UNL A   1      44.554  21.830  34.788  1.00  0.00    -0.237 OA
ATOM    101  O   UNL A   1      44.928  23.178  32.764  1.00  0.00    -0.237 OA
ATOM    102  O   UNL A   1      46.331  23.555  34.737  1.00  0.00    -0.744 OA
ENDBRANCH  96  99
ENDBRANCH  69  92
ENDBRANCH  43  44
ENDBRANCH  35  38
ENDBRANCH  33  34
ENDBRANCH  32  33
ENDBRANCH   1  32
TORSDOF 18
ENDMDL
MODEL 3
REMARK VINA RESULT:     -12.7      3.624      5.084
REMARK SMILES Cc1ccc(C(=O)NC2CC2)cc1NC(=O)[C@@H]1[C@@H](C(=O)NCCCCNC(=O)c2ccc(-c3c4nc(c(-c5cccc(S(=O)(=O)[O-])c5F)c5ccc([nH]5)c(-c5cccc(S(=O)(=O)[O-])c5F)c5nc(c(-c6cccc(S(=O)(=O)[O-])c6F)c6ccc3[nH]6)C=C5)C=C4)cc2)[C@H]2C=C[C@@H]1C2
REMARK SMILES IDX 23 1 22 2 21 3 19 4 20 5 18 7 17 8 95 9 92 10 94 11 96 12
REMARK SMILES IDX 93 13 15 14 14 15 16 17 13 18 1 19 2 20 3 21 4 22 12 23 5 24
REMARK SMILES IDX 6 25 7 26 8 27 9 29 10 30 11 31 24 32 25 33 26 34 27 35
REMARK SMILES IDX 28 37 29 38 30 39 91 40 31 41 90 42 32 43 33 44 34 45 84 46
REMARK SMILES IDX 35 47 89 48 83 49 85 50 36 51 88 52 82 53 81 54 37 56 69 57
REMARK SMILES IDX 49 58 68 59 50 60 53 61 67 62 86 63 51 64 52 65 66 67 87 68
REMARK SMILES IDX 54 69 38 70 39 71 47 72 40 73 42 74 48 75 41 76 43 77 44 78
REMARK SMILES IDX 45 79 46 80 70 81 71 82 79 83 72 84 74 85 80 86 73 87 75 88
REMARK SMILES IDX 76 89 77 90 78 91 55 92 56 93 64 94 57 95 59 96 65 97 58 98
REMARK SMILES IDX 60 99 61 100 62 101 63 102
REMARK H PARENT 21 6 14 16 8 28 26 36 85 55 53 66
REMARK Flexibility Score: inf
ROOT
ATOM      1  C   UNL A   1      32.279  30.722  26.685  1.00  0.00     0.023 C 
ENDROOT
BRANCH   1   2
ATOM      2  C   UNL A   1      31.606  29.485  27.283  1.00  0.00     0.116 C 
BRANCH   2   3
ATOM      3  N   UNL A   1      32.315  28.266  26.950  1.00  0.00    -0.356 N 
ATOM      4  C   UNL A   1      32.192  27.364  25.951  1.00  0.00     0.224 C 
ATOM      5  O   UNL A   1      32.871  26.336  26.077  1.00  0.00    -0.275 OA
ATOM      6  H   UNL A   1      33.037  28.049  27.584  1.00  0.00     0.163 HD
BRANCH   4   7
ATOM      7  C   UNL A   1      31.219  27.491  24.781  1.00  0.00     0.098 C 
ATOM      8  C   UNL A   1      31.603  26.395  23.699  1.00  0.00     0.099 C 
ATOM      9  C   UNL A   1      31.614  27.200  22.372  1.00  0.00     0.025 C 
ATOM     10  C   UNL A   1      31.196  28.767  23.913  1.00  0.00     0.025 C 
ATOM     11  C   UNL A   1      32.802  28.135  22.399  1.00  0.00    -0.027 C 
ATOM     12  C   UNL A   1      30.528  28.238  22.635  1.00  0.00     0.017 C 
ATOM     13  C   UNL A   1      32.566  29.055  23.345  1.00  0.00    -0.027 C 
BRANCH   8  14
ATOM     14  C   UNL A   1      30.669  25.198  23.638  1.00  0.00     0.228 C 
ATOM     15  N   UNL A   1      31.142  23.908  23.613  1.00  0.00    -0.326 N 
ATOM     16  H   UNL A   1      30.428  23.233  23.541  1.00  0.00     0.169 HD
ATOM     17  O   UNL A   1      29.447  25.344  23.525  1.00  0.00    -0.274 OA
BRANCH  15  18
ATOM     18  C   UNL A   1      32.439  23.349  23.669  1.00  0.00     0.044 A 
ATOM     19  C   UNL A   1      32.902  24.064  21.230  1.00  0.00     0.046 C 
ATOM     20  C   UNL A   1      33.302  23.500  22.568  1.00  0.00    -0.027 A 
ATOM     21  C   UNL A   1      34.637  23.076  22.692  1.00  0.00     0.006 A 
ATOM     22  C   UNL A   1      35.105  22.505  23.876  1.00  0.00     0.014 A 
ATOM     23  C   UNL A   1      32.899  22.633  24.788  1.00  0.00     0.040 A 
ATOM     24  C   UNL A   1      34.237  22.256  24.946  1.00  0.00     0.041 A 
BRANCH  24  25
ATOM     25  C   UNL A   1      34.833  21.599  26.160  1.00  0.00     0.251 C 
ATOM     26  O   UNL A   1      34.127  21.485  27.166  1.00  0.00    -0.269 OA
ATOM     27  N   UNL A   1      36.110  21.079  26.224  1.00  0.00    -0.349 N 
ATOM     28  H   UNL A   1      36.339  20.665  27.088  1.00  0.00     0.164 HD
BRANCH  27  29
ATOM     29  C   UNL A   1      37.149  21.037  25.262  1.00  0.00     0.082 C 
ATOM     30  C   UNL A   1      38.497  21.614  25.595  1.00  0.00     0.027 C 
ATOM     31  C   UNL A   1      38.345  20.139  25.378  1.00  0.00     0.027 C 
ENDBRANCH  27  29
ENDBRANCH  24  25
ENDBRANCH  15  18
ENDBRANCH   8  14
ENDBRANCH   4   7
ENDBRANCH   2   3
ENDBRANCH   1   2
BRANCH   1  32
ATOM     32  C   UNL A   1      33.293  31.412  27.602  1.00  0.00     0.023 C 
BRANCH  32  33
ATOM     33  C   UNL A   1      34.673  30.769  27.609  1.00  0.00     0.116 C 
BRANCH  33  34
ATOM     34  N   UNL A   1      35.751  31.690  27.913  1.00  0.00    -0.352 N 
ATOM     35  C   UNL A   1      37.037  31.442  28.359  1.00  0.00     0.251 C 
ATOM     36  H   UNL A   1      35.534  32.641  27.781  1.00  0.00     0.163 HD
ATOM     37  O   UNL A   1      37.691  32.400  28.770  1.00  0.00    -0.269 OA
BRANCH  35  38
ATOM     38  C   UNL A   1      37.661  30.098  28.221  1.00  0.00     0.039 A 
ATOM     39  C   UNL A   1      37.483  29.183  29.271  1.00  0.00     0.014 A 
ATOM     40  C   UNL A   1      38.561  29.797  27.204  1.00  0.00     0.014 A 
ATOM     41  C   UNL A   1      38.388  28.135  29.447  1.00  0.00     0.010 A 
ATOM     42  C   UNL A   1      39.503  28.812  27.408  1.00  0.00     0.010 A 
ATOM     43  C   UNL A   1      39.463  28.045  28.575  1.00  0.00    -0.014 A 
BRANCH  43  44
ATOM     44  C   UNL A   1      40.674  27.280  28.822  1.00  0.00     0.031 A 
ATOM     45  C   UNL A   1      40.697  25.822  28.654  1.00  0.00     0.074 A 
ATOM     46  C   UNL A   1      41.819  27.990  28.930  1.00  0.00     0.049 A 
ATOM     47  N   UNL A   1      41.649  25.056  29.063  1.00  0.00    -0.248 NA
ATOM     48  C   UNL A   1      39.605  25.109  28.011  1.00  0.00     0.031 C 
ATOM     49  C   UNL A   1      43.182  27.532  28.704  1.00  0.00     0.029 A 
ATOM     50  N   UNL A   1      41.972  29.276  29.461  1.00  0.00    -0.354 N 
ATOM     51  C   UNL A   1      41.457  23.822  28.475  1.00  0.00     0.074 A 
ATOM     52  C   UNL A   1      40.120  23.878  27.933  1.00  0.00     0.031 C 
ATOM     53  C   UNL A   1      44.025  28.375  29.322  1.00  0.00     0.029 A 
ATOM     54  C   UNL A   1      43.210  29.273  30.125  1.00  0.00     0.049 A 
ATOM     55  H   UNL A   1      41.341  30.028  29.385  1.00  0.00     0.167 HD
ATOM     56  C   UNL A   1      42.521  22.973  28.366  1.00  0.00     0.034 A 
ATOM     57  C   UNL A   1      43.334  29.465  31.473  1.00  0.00     0.034 A 
ATOM     58  C   UNL A   1      43.701  23.523  29.060  1.00  0.00     0.049 A 
ATOM     59  C   UNL A   1      43.998  28.293  32.177  1.00  0.00     0.074 A 
ATOM     60  C   UNL A   1      44.821  24.203  28.609  1.00  0.00     0.029 A 
ATOM     61  N   UNL A   1      43.688  23.667  30.443  1.00  0.00    -0.354 N 
ATOM     62  N   UNL A   1      44.269  27.153  31.603  1.00  0.00    -0.248 NA
ATOM     63  C   UNL A   1      44.370  28.299  33.590  1.00  0.00     0.031 C 
ATOM     64  C   UNL A   1      45.419  24.852  29.723  1.00  0.00     0.029 A 
ATOM     65  C   UNL A   1      44.686  24.539  30.855  1.00  0.00     0.049 A 
ATOM     66  H   UNL A   1      43.058  23.212  31.047  1.00  0.00     0.167 HD
ATOM     67  C   UNL A   1      44.681  26.248  32.542  1.00  0.00     0.074 A 
ATOM     68  C   UNL A   1      44.814  27.039  33.754  1.00  0.00     0.031 C 
ATOM     69  C   UNL A   1      44.806  24.914  32.261  1.00  0.00     0.034 A 
BRANCH  56  70
ATOM     70  C   UNL A   1      42.630  21.824  27.363  1.00  0.00     0.023 A 
ATOM     71  C   UNL A   1      41.825  20.684  27.598  1.00  0.00     0.012 A 
ATOM     72  C   UNL A   1      43.511  21.724  26.261  1.00  0.00     0.148 A 
ATOM     73  C   UNL A   1      41.964  19.493  26.873  1.00  0.00     0.002 A 
ATOM     74  C   UNL A   1      43.697  20.519  25.574  1.00  0.00     0.091 A 
ATOM     75  F   UNL A   1      44.118  22.815  25.791  1.00  0.00    -0.205 F 
ATOM     76  C   UNL A   1      42.930  19.396  25.885  1.00  0.00     0.022 A 
BRANCH  74  77
ATOM     77  S   UNL A   1      44.972  20.310  24.315  1.00  0.00     0.127 S 
ATOM     78  O   UNL A   1      44.847  18.891  23.981  1.00  0.00    -0.237 OA
ATOM     79  O   UNL A   1      44.528  21.225  23.265  1.00  0.00    -0.237 OA
ATOM     80  O   UNL A   1      46.236  20.658  24.956  1.00  0.00    -0.744 OA
ENDBRANCH  74  77
ENDBRANCH  56  70
BRANCH  57  81
ATOM     81  C   UNL A   1      42.252  30.316  32.056  1.00  0.00     0.023 A 
ATOM     82  C   UNL A   1      42.196  31.664  31.627  1.00  0.00     0.012 A 
ATOM     83  C   UNL A   1      41.109  29.746  32.645  1.00  0.00     0.148 A 
ATOM     84  C   UNL A   1      40.994  32.374  31.644  1.00  0.00     0.002 A 
ATOM     85  C   UNL A   1      39.914  30.464  32.664  1.00  0.00     0.091 A 
ATOM     86  F   UNL A   1      41.180  28.488  33.099  1.00  0.00    -0.205 F 
ATOM     87  C   UNL A   1      39.844  31.759  32.125  1.00  0.00     0.022 A 
BRANCH  85  88
ATOM     88  S   UNL A   1      38.388  29.712  33.251  1.00  0.00     0.127 S 
ATOM     89  O   UNL A   1      38.585  28.317  32.872  1.00  0.00    -0.237 OA
ATOM     90  O   UNL A   1      38.435  29.971  34.689  1.00  0.00    -0.237 OA
ATOM     91  O   UNL A   1      37.334  30.433  32.552  1.00  0.00    -0.744 OA
ENDBRANCH  85  88
ENDBRANCH  57  81
BRANCH  69  92
ATOM     92  C   UNL A   1      45.034  23.833  33.297  1.00  0.00     0.023 A 
ATOM     93  C   UNL A   1      44.054  22.868  33.599  1.00  0.00     0.012 A 
ATOM     94  C   UNL A   1      46.309  23.663  33.895  1.00  0.00     0.148 A 
ATOM     95  C   UNL A   1      44.298  21.825  34.499  1.00  0.00     0.002 A 
ATOM     96  C   UNL A   1      46.578  22.563  34.707  1.00  0.00     0.091 A 
ATOM     97  F   UNL A   1      47.267  24.579  33.691  1.00  0.00    -0.205 F 
ATOM     98  C   UNL A   1      45.566  21.660  35.037  1.00  0.00     0.022 A 
BRANCH  96  99
ATOM     99  S   UNL A   1      48.259  22.193  35.230  1.00  0.00     0.127 S 
ATOM    100  O   UNL A   1      48.535  23.280  36.164  1.00  0.00    -0.237 OA
ATOM    101  O   UNL A   1      48.114  20.876  35.855  1.00  0.00    -0.237 OA
ATOM    102  O   UNL A   1      49.041  22.184  34.002  1.00  0.00    -0.744 OA
ENDBRANCH  96  99
ENDBRANCH  69  92
ENDBRANCH  43  44
ENDBRANCH  35  38
ENDBRANCH  33  34
ENDBRANCH  32  33
ENDBRANCH   1  32
TORSDOF 18
ENDMDL
