MODEL 1
REMARK VINA RESULT:     -11.5      0.000      0.000
REMARK SMILES C/C(=N\NC(N)=S)c1nnn(-c2ccc(C(=O)NCCCCNC(=O)c3ccc(-c4c5nc(c(-c6cccc(S(=O)(=O)[O-])c6F)c6ccc([nH]6)c(-c6cccc(S(=O)(=O)[O-])c6F)c6nc(c(-c7cccc(S(=O)(=O)[O-])c7F)c7ccc4[nH]7)C=C6)C=C5)cc3)cc2)c1C
REMARK SMILES IDX 19 1 18 2 16 3 17 4 15 6 12 7 13 8 90 9 14 10 89 11 11 12
REMARK SMILES IDX 8 13 9 14 91 15 10 16 92 17 2 18 1 19 3 20 4 21 5 23 7 24
REMARK SMILES IDX 6 25 20 28 21 29 22 30 23 31 24 32 25 34 26 35 27 36 88 37
REMARK SMILES IDX 28 38 87 39 29 40 30 41 31 42 81 43 32 44 86 45 80 46 82 47
REMARK SMILES IDX 33 48 85 49 79 50 78 51 34 53 66 54 46 55 65 56 47 57 50 58
REMARK SMILES IDX 64 59 83 60 48 61 49 62 63 64 84 65 51 66 35 67 36 68 44 69
REMARK SMILES IDX 37 70 39 71 45 72 38 73 40 74 41 75 42 76 43 77 67 78 68 79
REMARK SMILES IDX 76 80 69 81 71 82 77 83 70 84 72 85 73 86 74 87 75 88 52 89
REMARK SMILES IDX 53 90 61 91 54 92 56 93 62 94 55 95 57 96 58 97 59 98 60 99
REMARK H PARENT 18 5 4 22 6 26 6 27 23 33 82 52 50 63
REMARK Flexibility Score: inf
ROOT
ATOM      1  C   UNL A   1      37.235  21.417  24.614  1.00  0.00     0.116 C 
ENDROOT
BRANCH   1   2
ATOM      2  N   UNL A   1      36.268  20.333  24.660  1.00  0.00    -0.352 N 
ATOM      3  C   UNL A   1      34.936  20.282  24.997  1.00  0.00     0.251 C 
ATOM      4  O   UNL A   1      34.381  19.183  25.001  1.00  0.00    -0.269 OA
ATOM      5  H   UNL A   1      36.641  19.461  24.398  1.00  0.00     0.163 HD
BRANCH   3   6
ATOM      6  C   UNL A   1      34.122  21.488  25.327  1.00  0.00     0.039 A 
ATOM      7  C   UNL A   1      32.672  23.844  25.712  1.00  0.00     0.067 A 
ATOM      8  C   UNL A   1      32.389  23.051  24.601  1.00  0.00     0.029 A 
ATOM      9  C   UNL A   1      33.586  23.429  26.678  1.00  0.00     0.029 A 
ATOM     10  C   UNL A   1      33.139  21.886  24.401  1.00  0.00     0.016 A 
ATOM     11  C   UNL A   1      34.272  22.233  26.498  1.00  0.00     0.016 A 
BRANCH   7  12
ATOM     12  N   UNL A   1      32.133  25.134  25.813  1.00  0.00    -0.217 N 
ATOM     13  C   UNL A   1      31.658  27.232  25.532  1.00  0.00     0.132 A 
ATOM     14  N   UNL A   1      30.735  26.682  26.384  1.00  0.00    -0.128 NA
ATOM     15  C   UNL A   1      32.568  26.268  25.152  1.00  0.00     0.071 A 
ATOM     16  N   UNL A   1      31.000  25.388  26.501  1.00  0.00    -0.061 NA
ATOM     17  C   UNL A   1      33.631  26.283  24.116  1.00  0.00     0.069 C 
BRANCH  13  18
ATOM     18  C   UNL A   1      31.465  28.541  24.938  1.00  0.00     0.087 C 
ATOM     19  C   UNL A   1      32.209  29.658  25.618  1.00  0.00     0.071 C 
ATOM     20  N   UNL A   1      30.717  28.585  23.876  1.00  0.00    -0.176 NA
BRANCH  20  21
ATOM     21  N   UNL A   1      30.522  29.736  23.168  1.00  0.00    -0.254 N 
ATOM     22  H   UNL A   1      31.342  30.215  22.910  1.00  0.00     0.193 HD
BRANCH  21  23
ATOM     23  C   UNL A   1      29.342  30.326  22.763  1.00  0.00     0.184 C 
ATOM     24  S   UNL A   1      27.809  29.694  22.665  1.00  0.00    -0.040 S 
BRANCH  23  25
ATOM     25  N   UNL A   1      29.523  31.631  22.390  1.00  0.00    -0.375 N 
ATOM     26  H   UNL A   1      29.257  31.927  21.490  1.00  0.00     0.159 HD
ATOM     27  H   UNL A   1      29.922  32.273  23.022  1.00  0.00     0.159 HD
ENDBRANCH  23  25
ENDBRANCH  21  23
ENDBRANCH  20  21
ENDBRANCH  13  18
ENDBRANCH   7  12
ENDBRANCH   3   6
ENDBRANCH   1   2
BRANCH   1  28
ATOM     28  C   UNL A   1      38.342  21.225  25.664  1.00  0.00     0.023 C 
BRANCH  28  29
ATOM     29  C   UNL A   1      38.844  22.503  26.351  1.00  0.00     0.023 C 
BRANCH  29  30
ATOM     30  C   UNL A   1      40.054  22.308  27.253  1.00  0.00     0.116 C 
BRANCH  30  31
ATOM     31  N   UNL A   1      41.293  22.029  26.510  1.00  0.00    -0.352 N 
ATOM     32  C   UNL A   1      42.139  22.938  25.882  1.00  0.00     0.251 C 
ATOM     33  H   UNL A   1      41.556  21.082  26.449  1.00  0.00     0.163 HD
ATOM     34  O   UNL A   1      42.903  22.595  24.999  1.00  0.00    -0.269 OA
BRANCH  32  35
ATOM     35  C   UNL A   1      42.100  24.332  26.355  1.00  0.00     0.039 A 
ATOM     36  C   UNL A   1      41.237  25.298  25.828  1.00  0.00     0.014 A 
ATOM     37  C   UNL A   1      42.917  24.613  27.440  1.00  0.00     0.014 A 
ATOM     38  C   UNL A   1      41.155  26.531  26.473  1.00  0.00     0.010 A 
ATOM     39  C   UNL A   1      42.638  25.701  28.207  1.00  0.00     0.010 A 
ATOM     40  C   UNL A   1      41.852  26.713  27.675  1.00  0.00    -0.014 A 
BRANCH  40  41
ATOM     41  C   UNL A   1      41.798  27.940  28.448  1.00  0.00     0.031 A 
ATOM     42  C   UNL A   1      42.725  29.015  28.023  1.00  0.00     0.074 A 
ATOM     43  C   UNL A   1      40.808  28.158  29.340  1.00  0.00     0.049 A 
ATOM     44  N   UNL A   1      43.778  29.408  28.654  1.00  0.00    -0.248 NA
ATOM     45  C   UNL A   1      42.550  29.644  26.707  1.00  0.00     0.031 C 
ATOM     46  C   UNL A   1      39.639  27.315  29.648  1.00  0.00     0.029 A 
ATOM     47  N   UNL A   1      40.554  29.280  30.056  1.00  0.00    -0.354 N 
ATOM     48  C   UNL A   1      44.277  30.491  27.935  1.00  0.00     0.074 A 
ATOM     49  C   UNL A   1      43.606  30.463  26.660  1.00  0.00     0.031 C 
ATOM     50  C   UNL A   1      38.693  28.062  30.257  1.00  0.00     0.029 A 
ATOM     51  C   UNL A   1      39.259  29.361  30.550  1.00  0.00     0.049 A 
ATOM     52  H   UNL A   1      41.231  29.979  30.211  1.00  0.00     0.167 HD
ATOM     53  C   UNL A   1      45.037  31.445  28.541  1.00  0.00     0.034 A 
ATOM     54  C   UNL A   1      38.687  30.449  31.120  1.00  0.00     0.034 A 
ATOM     55  C   UNL A   1      45.365  31.068  29.895  1.00  0.00     0.049 A 
ATOM     56  C   UNL A   1      39.796  31.295  31.624  1.00  0.00     0.074 A 
ATOM     57  C   UNL A   1      46.048  30.019  30.477  1.00  0.00     0.029 A 
ATOM     58  N   UNL A   1      44.588  31.618  30.890  1.00  0.00    -0.354 N 
ATOM     59  N   UNL A   1      40.600  30.908  32.578  1.00  0.00    -0.248 NA
ATOM     60  C   UNL A   1      40.318  32.338  30.755  1.00  0.00     0.031 C 
ATOM     61  C   UNL A   1      45.283  29.690  31.635  1.00  0.00     0.029 A 
ATOM     62  C   UNL A   1      44.229  30.601  31.737  1.00  0.00     0.049 A 
ATOM     63  H   UNL A   1      44.338  32.565  30.978  1.00  0.00     0.167 HD
ATOM     64  C   UNL A   1      41.862  31.287  32.139  1.00  0.00     0.074 A 
ATOM     65  C   UNL A   1      41.615  32.265  31.077  1.00  0.00     0.031 C 
ATOM     66  C   UNL A   1      42.974  30.556  32.457  1.00  0.00     0.034 A 
BRANCH  53  67
ATOM     67  C   UNL A   1      45.223  32.869  28.086  1.00  0.00     0.023 A 
ATOM     68  C   UNL A   1      46.553  33.338  27.973  1.00  0.00     0.012 A 
ATOM     69  C   UNL A   1      44.192  33.831  28.030  1.00  0.00     0.148 A 
ATOM     70  C   UNL A   1      46.846  34.700  27.869  1.00  0.00     0.002 A 
ATOM     71  C   UNL A   1      44.486  35.180  27.857  1.00  0.00     0.091 A 
ATOM     72  F   UNL A   1      42.931  33.467  28.275  1.00  0.00    -0.205 F 
ATOM     73  C   UNL A   1      45.810  35.623  27.807  1.00  0.00     0.022 A 
BRANCH  71  74
ATOM     74  S   UNL A   1      43.192  36.420  27.736  1.00  0.00     0.127 S 
ATOM     75  O   UNL A   1      43.961  37.612  27.386  1.00  0.00    -0.237 OA
ATOM     76  O   UNL A   1      42.361  35.881  26.660  1.00  0.00    -0.237 OA
ATOM     77  O   UNL A   1      42.545  36.437  29.041  1.00  0.00    -0.744 OA
ENDBRANCH  71  74
ENDBRANCH  53  67
BRANCH  54  78
ATOM     78  C   UNL A   1      37.289  30.915  31.006  1.00  0.00     0.023 A 
ATOM     79  C   UNL A   1      36.553  31.233  32.162  1.00  0.00     0.012 A 
ATOM     80  C   UNL A   1      36.764  31.307  29.753  1.00  0.00     0.148 A 
ATOM     81  C   UNL A   1      35.350  31.946  32.076  1.00  0.00     0.002 A 
ATOM     82  C   UNL A   1      35.567  32.009  29.671  1.00  0.00     0.091 A 
ATOM     83  F   UNL A   1      37.488  31.075  28.649  1.00  0.00    -0.205 F 
ATOM     84  C   UNL A   1      34.861  32.341  30.833  1.00  0.00     0.022 A 
BRANCH  82  85
ATOM     85  S   UNL A   1      34.903  32.573  28.098  1.00  0.00     0.127 S 
ATOM     86  O   UNL A   1      34.714  31.312  27.379  1.00  0.00    -0.237 OA
ATOM     87  O   UNL A   1      33.669  33.234  28.515  1.00  0.00    -0.237 OA
ATOM     88  O   UNL A   1      35.925  33.440  27.526  1.00  0.00    -0.744 OA
ENDBRANCH  82  85
ENDBRANCH  54  78
BRANCH  66  89
ATOM     89  C   UNL A   1      42.821  29.429  33.454  1.00  0.00     0.023 A 
ATOM     90  C   UNL A   1      42.271  28.179  33.098  1.00  0.00     0.012 A 
ATOM     91  C   UNL A   1      43.414  29.565  34.719  1.00  0.00     0.148 A 
ATOM     92  C   UNL A   1      42.287  27.101  33.986  1.00  0.00     0.002 A 
ATOM     93  C   UNL A   1      43.468  28.478  35.585  1.00  0.00     0.091 A 
ATOM     94  F   UNL A   1      43.947  30.752  35.044  1.00  0.00    -0.205 F 
ATOM     95  C   UNL A   1      42.897  27.247  35.226  1.00  0.00     0.022 A 
BRANCH  93  96
ATOM     96  S   UNL A   1      44.352  28.564  37.142  1.00  0.00     0.127 S 
ATOM     97  O   UNL A   1      43.778  29.761  37.753  1.00  0.00    -0.237 OA
ATOM     98  O   UNL A   1      43.974  27.306  37.790  1.00  0.00    -0.237 OA
ATOM     99  O   UNL A   1      45.765  28.652  36.796  1.00  0.00    -0.744 OA
ENDBRANCH  93  96
ENDBRANCH  66  89
ENDBRANCH  40  41
ENDBRANCH  32  35
ENDBRANCH  30  31
ENDBRANCH  29  30
ENDBRANCH  28  29
ENDBRANCH   1  28
TORSDOF 19
ENDMDL
MODEL 2
REMARK VINA RESULT:     -11.3      3.503      9.102
REMARK SMILES C/C(=N\NC(N)=S)c1nnn(-c2ccc(C(=O)NCCCCNC(=O)c3ccc(-c4c5nc(c(-c6cccc(S(=O)(=O)[O-])c6F)c6ccc([nH]6)c(-c6cccc(S(=O)(=O)[O-])c6F)c6nc(c(-c7cccc(S(=O)(=O)[O-])c7F)c7ccc4[nH]7)C=C6)C=C5)cc3)cc2)c1C
REMARK SMILES IDX 19 1 18 2 16 3 17 4 15 6 12 7 13 8 90 9 14 10 89 11 11 12
REMARK SMILES IDX 8 13 9 14 91 15 10 16 92 17 2 18 1 19 3 20 4 21 5 23 7 24
REMARK SMILES IDX 6 25 20 28 21 29 22 30 23 31 24 32 25 34 26 35 27 36 88 37
REMARK SMILES IDX 28 38 87 39 29 40 30 41 31 42 81 43 32 44 86 45 80 46 82 47
REMARK SMILES IDX 33 48 85 49 79 50 78 51 34 53 66 54 46 55 65 56 47 57 50 58
REMARK SMILES IDX 64 59 83 60 48 61 49 62 63 64 84 65 51 66 35 67 36 68 44 69
REMARK SMILES IDX 37 70 39 71 45 72 38 73 40 74 41 75 42 76 43 77 67 78 68 79
REMARK SMILES IDX 76 80 69 81 71 82 77 83 70 84 72 85 73 86 74 87 75 88 52 89
REMARK SMILES IDX 53 90 61 91 54 92 56 93 62 94 55 95 57 96 58 97 59 98 60 99
REMARK H PARENT 18 5 4 22 6 26 6 27 23 33 82 52 50 63
REMARK Flexibility Score: inf
ROOT
ATOM      1  C   UNL A   1      33.086  29.312  24.124  1.00  0.00     0.116 C 
ENDROOT
BRANCH   1   2
ATOM      2  N   UNL A   1      31.935  29.180  23.247  1.00  0.00    -0.352 N 
ATOM      3  C   UNL A   1      31.237  28.094  22.778  1.00  0.00     0.251 C 
ATOM      4  O   UNL A   1      30.321  28.293  21.979  1.00  0.00    -0.269 OA
ATOM      5  H   UNL A   1      31.586  30.042  22.923  1.00  0.00     0.163 HD
BRANCH   3   6
ATOM      6  C   UNL A   1      31.508  26.691  23.207  1.00  0.00     0.039 A 
ATOM      7  C   UNL A   1      31.997  24.151  24.260  1.00  0.00     0.067 A 
ATOM      8  C   UNL A   1      30.808  24.800  24.589  1.00  0.00     0.029 A 
ATOM      9  C   UNL A   1      32.887  24.701  23.341  1.00  0.00     0.029 A 
ATOM     10  C   UNL A   1      30.584  26.085  24.080  1.00  0.00     0.016 A 
ATOM     11  C   UNL A   1      32.613  25.948  22.789  1.00  0.00     0.016 A 
BRANCH   7  12
ATOM     12  N   UNL A   1      32.378  22.989  24.947  1.00  0.00    -0.217 N 
ATOM     13  C   UNL A   1      32.963  20.969  25.479  1.00  0.00     0.132 A 
ATOM     14  N   UNL A   1      33.139  21.780  26.571  1.00  0.00    -0.128 NA
ATOM     15  C   UNL A   1      32.474  21.712  24.424  1.00  0.00     0.071 A 
ATOM     16  N   UNL A   1      32.835  23.021  26.216  1.00  0.00    -0.061 NA
ATOM     17  C   UNL A   1      32.294  21.372  22.992  1.00  0.00     0.069 C 
BRANCH  13  18
ATOM     18  C   UNL A   1      33.509  19.627  25.428  1.00  0.00     0.087 C 
ATOM     19  C   UNL A   1      32.574  18.546  25.901  1.00  0.00     0.071 C 
ATOM     20  N   UNL A   1      34.711  19.513  24.946  1.00  0.00    -0.176 NA
BRANCH  20  21
ATOM     21  N   UNL A   1      35.312  18.301  24.761  1.00  0.00    -0.254 N 
ATOM     22  H   UNL A   1      36.260  18.257  25.022  1.00  0.00     0.193 HD
BRANCH  21  23
ATOM     23  C   UNL A   1      34.783  17.129  24.260  1.00  0.00     0.184 C 
ATOM     24  S   UNL A   1      33.873  16.863  22.897  1.00  0.00    -0.040 S 
BRANCH  23  25
ATOM     25  N   UNL A   1      35.082  16.052  25.053  1.00  0.00    -0.375 N 
ATOM     26  H   UNL A   1      34.357  15.512  25.442  1.00  0.00     0.159 HD
ATOM     27  H   UNL A   1      36.021  15.821  25.236  1.00  0.00     0.159 HD
ENDBRANCH  23  25
ENDBRANCH  21  23
ENDBRANCH  20  21
ENDBRANCH  13  18
ENDBRANCH   7  12
ENDBRANCH   3   6
ENDBRANCH   1   2
BRANCH   1  28
ATOM     28  C   UNL A   1      32.699  29.085  25.595  1.00  0.00     0.023 C 
BRANCH  28  29
ATOM     29  C   UNL A   1      32.724  30.328  26.495  1.00  0.00     0.023 C 
BRANCH  29  30
ATOM     30  C   UNL A   1      34.048  30.575  27.204  1.00  0.00     0.116 C 
BRANCH  30  31
ATOM     31  N   UNL A   1      33.956  31.578  28.275  1.00  0.00    -0.352 N 
ATOM     32  C   UNL A   1      34.815  31.762  29.354  1.00  0.00     0.251 C 
ATOM     33  H   UNL A   1      33.191  32.197  28.223  1.00  0.00     0.163 HD
ATOM     34  O   UNL A   1      34.461  32.345  30.361  1.00  0.00    -0.269 OA
BRANCH  32  35
ATOM     35  C   UNL A   1      36.189  31.251  29.216  1.00  0.00     0.039 A 
ATOM     36  C   UNL A   1      37.310  32.079  29.108  1.00  0.00     0.014 A 
ATOM     37  C   UNL A   1      36.319  29.871  29.297  1.00  0.00     0.014 A 
ATOM     38  C   UNL A   1      38.573  31.492  29.168  1.00  0.00     0.010 A 
ATOM     39  C   UNL A   1      37.532  29.345  29.619  1.00  0.00     0.010 A 
ATOM     40  C   UNL A   1      38.668  30.120  29.441  1.00  0.00    -0.014 A 
BRANCH  40  41
ATOM     41  C   UNL A   1      39.933  29.421  29.569  1.00  0.00     0.031 A 
ATOM     42  C   UNL A   1      40.379  29.135  30.952  1.00  0.00     0.074 A 
ATOM     43  C   UNL A   1      40.536  28.872  28.492  1.00  0.00     0.049 A 
ATOM     44  N   UNL A   1      41.354  29.706  31.574  1.00  0.00    -0.248 NA
ATOM     45  C   UNL A   1      39.598  28.213  31.789  1.00  0.00     0.031 C 
ATOM     46  C   UNL A   1      40.060  28.805  27.099  1.00  0.00     0.029 A 
ATOM     47  N   UNL A   1      41.652  28.103  28.456  1.00  0.00    -0.354 N 
ATOM     48  C   UNL A   1      41.462  29.058  32.801  1.00  0.00     0.074 A 
ATOM     49  C   UNL A   1      40.248  28.296  32.954  1.00  0.00     0.031 C 
ATOM     50  C   UNL A   1      40.723  27.828  26.444  1.00  0.00     0.029 A 
ATOM     51  C   UNL A   1      41.786  27.346  27.300  1.00  0.00     0.049 A 
ATOM     52  H   UNL A   1      42.310  28.083  29.188  1.00  0.00     0.167 HD
ATOM     53  C   UNL A   1      42.642  29.032  33.479  1.00  0.00     0.034 A 
ATOM     54  C   UNL A   1      42.687  26.356  27.092  1.00  0.00     0.034 A 
ATOM     55  C   UNL A   1      43.623  29.884  32.850  1.00  0.00     0.049 A 
ATOM     56  C   UNL A   1      43.812  26.605  28.026  1.00  0.00     0.074 A 
ATOM     57  C   UNL A   1      43.706  31.232  32.566  1.00  0.00     0.029 A 
ATOM     58  N   UNL A   1      44.537  29.263  32.028  1.00  0.00    -0.354 N 
ATOM     59  N   UNL A   1      44.577  27.661  27.942  1.00  0.00    -0.248 NA
ATOM     60  C   UNL A   1      43.782  25.960  29.329  1.00  0.00     0.031 C 
ATOM     61  C   UNL A   1      44.290  31.291  31.266  1.00  0.00     0.029 A 
ATOM     62  C   UNL A   1      44.602  29.989  30.867  1.00  0.00     0.049 A 
ATOM     63  H   UNL A   1      45.050  28.449  32.237  1.00  0.00     0.167 HD
ATOM     64  C   UNL A   1      44.724  28.084  29.258  1.00  0.00     0.074 A 
ATOM     65  C   UNL A   1      44.317  26.936  30.072  1.00  0.00     0.031 C 
ATOM     66  C   UNL A   1      44.863  29.409  29.566  1.00  0.00     0.034 A 
BRANCH  53  67
ATOM     67  C   UNL A   1      43.070  28.011  34.501  1.00  0.00     0.023 A 
ATOM     68  C   UNL A   1      43.462  28.498  35.769  1.00  0.00     0.012 A 
ATOM     69  C   UNL A   1      43.365  26.663  34.208  1.00  0.00     0.148 A 
ATOM     70  C   UNL A   1      44.164  27.702  36.679  1.00  0.00     0.002 A 
ATOM     71  C   UNL A   1      44.003  25.854  35.143  1.00  0.00     0.091 A 
ATOM     72  F   UNL A   1      43.151  26.189  32.978  1.00  0.00    -0.205 F 
ATOM     73  C   UNL A   1      44.432  26.376  36.366  1.00  0.00     0.022 A 
BRANCH  71  74
ATOM     74  S   UNL A   1      44.350  24.122  34.814  1.00  0.00     0.127 S 
ATOM     75  O   UNL A   1      44.884  23.682  36.100  1.00  0.00    -0.237 OA
ATOM     76  O   UNL A   1      43.020  23.608  34.485  1.00  0.00    -0.237 OA
ATOM     77  O   UNL A   1      45.286  24.117  33.697  1.00  0.00    -0.744 OA
ENDBRANCH  71  74
ENDBRANCH  53  67
BRANCH  54  78
ATOM     78  C   UNL A   1      42.505  25.091  26.349  1.00  0.00     0.023 A 
ATOM     79  C   UNL A   1      43.439  24.705  25.370  1.00  0.00     0.012 A 
ATOM     80  C   UNL A   1      41.565  24.131  26.789  1.00  0.00     0.148 A 
ATOM     81  C   UNL A   1      43.455  23.397  24.868  1.00  0.00     0.002 A 
ATOM     82  C   UNL A   1      41.582  22.836  26.285  1.00  0.00     0.091 A 
ATOM     83  F   UNL A   1      40.717  24.462  27.772  1.00  0.00    -0.205 F 
ATOM     84  C   UNL A   1      42.534  22.461  25.331  1.00  0.00     0.022 A 
BRANCH  82  85
ATOM     85  S   UNL A   1      40.438  21.576  26.866  1.00  0.00     0.127 S 
ATOM     86  O   UNL A   1      40.886  20.395  26.127  1.00  0.00    -0.237 OA
ATOM     87  O   UNL A   1      40.723  21.551  28.298  1.00  0.00    -0.237 OA
ATOM     88  O   UNL A   1      39.110  22.046  26.492  1.00  0.00    -0.744 OA
ENDBRANCH  82  85
ENDBRANCH  54  78
BRANCH  66  89
ATOM     89  C   UNL A   1      45.040  30.388  28.427  1.00  0.00     0.023 A 
ATOM     90  C   UNL A   1      43.943  30.973  27.760  1.00  0.00     0.012 A 
ATOM     91  C   UNL A   1      46.329  30.871  28.151  1.00  0.00     0.148 A 
ATOM     92  C   UNL A   1      44.125  31.993  26.823  1.00  0.00     0.002 A 
ATOM     93  C   UNL A   1      46.504  31.917  27.251  1.00  0.00     0.091 A 
ATOM     94  F   UNL A   1      47.365  30.319  28.800  1.00  0.00    -0.205 F 
ATOM     95  C   UNL A   1      45.406  32.474  26.577  1.00  0.00     0.022 A 
BRANCH  93  96
ATOM     96  S   UNL A   1      48.112  32.667  26.987  1.00  0.00     0.127 S 
ATOM     97  O   UNL A   1      47.820  33.657  25.954  1.00  0.00    -0.237 OA
ATOM     98  O   UNL A   1      48.418  33.229  28.304  1.00  0.00    -0.237 OA
ATOM     99  O   UNL A   1      48.998  31.581  26.585  1.00  0.00    -0.744 OA
ENDBRANCH  93  96
ENDBRANCH  66  89
ENDBRANCH  40  41
ENDBRANCH  32  35
ENDBRANCH  30  31
ENDBRANCH  29  30
ENDBRANCH  28  29
ENDBRANCH   1  28
TORSDOF 19
ENDMDL
MODEL 3
REMARK VINA RESULT:     -10.8      3.913      8.910
REMARK SMILES C/C(=N\NC(N)=S)c1nnn(-c2ccc(C(=O)NCCCCNC(=O)c3ccc(-c4c5nc(c(-c6cccc(S(=O)(=O)[O-])c6F)c6ccc([nH]6)c(-c6cccc(S(=O)(=O)[O-])c6F)c6nc(c(-c7cccc(S(=O)(=O)[O-])c7F)c7ccc4[nH]7)C=C6)C=C5)cc3)cc2)c1C
REMARK SMILES IDX 19 1 18 2 16 3 17 4 15 6 12 7 13 8 90 9 14 10 89 11 11 12
REMARK SMILES IDX 8 13 9 14 91 15 10 16 92 17 2 18 1 19 3 20 4 21 5 23 7 24
REMARK SMILES IDX 6 25 20 28 21 29 22 30 23 31 24 32 25 34 26 35 27 36 88 37
REMARK SMILES IDX 28 38 87 39 29 40 30 41 31 42 81 43 32 44 86 45 80 46 82 47
REMARK SMILES IDX 33 48 85 49 79 50 78 51 34 53 66 54 46 55 65 56 47 57 50 58
REMARK SMILES IDX 64 59 83 60 48 61 49 62 63 64 84 65 51 66 35 67 36 68 44 69
REMARK SMILES IDX 37 70 39 71 45 72 38 73 40 74 41 75 42 76 43 77 67 78 68 79
REMARK SMILES IDX 76 80 69 81 71 82 77 83 70 84 72 85 73 86 74 87 75 88 52 89
REMARK SMILES IDX 53 90 61 91 54 92 56 93 62 94 55 95 57 96 58 97 59 98 60 99
REMARK H PARENT 18 5 4 22 6 26 6 27 23 33 82 52 50 63
REMARK Flexibility Score: inf
ROOT
ATOM      1  C   UNL A   1      31.905  28.796  23.291  1.00  0.00     0.116 C 
ENDROOT
BRANCH   1   2
ATOM      2  N   UNL A   1      30.545  28.329  23.503  1.00  0.00    -0.352 N 
ATOM      3  C   UNL A   1      30.008  27.085  23.730  1.00  0.00     0.251 C 
ATOM      4  O   UNL A   1      28.783  26.988  23.811  1.00  0.00    -0.269 OA
ATOM      5  H   UNL A   1      29.874  29.049  23.478  1.00  0.00     0.163 HD
BRANCH   3   6
ATOM      6  C   UNL A   1      30.829  25.854  23.913  1.00  0.00     0.039 A 
ATOM      7  C   UNL A   1      32.487  23.672  24.456  1.00  0.00     0.067 A 
ATOM      8  C   UNL A   1      31.648  24.149  25.462  1.00  0.00     0.029 A 
ATOM      9  C   UNL A   1      32.435  24.196  23.167  1.00  0.00     0.029 A 
ATOM     10  C   UNL A   1      30.841  25.260  25.190  1.00  0.00     0.016 A 
ATOM     11  C   UNL A   1      31.575  25.255  22.896  1.00  0.00     0.016 A 
BRANCH   7  12
ATOM     12  N   UNL A   1      33.490  22.739  24.759  1.00  0.00    -0.217 N 
ATOM     13  C   UNL A   1      34.682  20.937  24.955  1.00  0.00     0.132 A 
ATOM     14  N   UNL A   1      35.448  22.015  25.323  1.00  0.00    -0.128 NA
ATOM     15  C   UNL A   1      33.422  21.368  24.592  1.00  0.00     0.071 A 
ATOM     16  N   UNL A   1      34.728  23.114  25.142  1.00  0.00    -0.061 NA
ATOM     17  C   UNL A   1      32.295  20.652  23.946  1.00  0.00     0.069 C 
BRANCH  13  18
ATOM     18  C   UNL A   1      35.263  19.630  24.723  1.00  0.00     0.087 C 
ATOM     19  C   UNL A   1      36.752  19.556  24.927  1.00  0.00     0.071 C 
ATOM     20  N   UNL A   1      34.433  18.680  24.411  1.00  0.00    -0.176 NA
BRANCH  20  21
ATOM     21  N   UNL A   1      34.834  17.384  24.250  1.00  0.00    -0.254 N 
ATOM     22  H   UNL A   1      35.334  17.198  23.422  1.00  0.00     0.193 HD
BRANCH  21  23
ATOM     23  C   UNL A   1      34.638  16.297  25.077  1.00  0.00     0.184 C 
ATOM     24  S   UNL A   1      33.248  15.463  25.437  1.00  0.00    -0.040 S 
BRANCH  23  25
ATOM     25  N   UNL A   1      35.803  15.890  25.672  1.00  0.00    -0.375 N 
ATOM     26  H   UNL A   1      36.500  16.550  25.892  1.00  0.00     0.159 HD
ATOM     27  H   UNL A   1      35.945  14.938  25.877  1.00  0.00     0.159 HD
ENDBRANCH  23  25
ENDBRANCH  21  23
ENDBRANCH  20  21
ENDBRANCH  13  18
ENDBRANCH   7  12
ENDBRANCH   3   6
ENDBRANCH   1   2
BRANCH   1  28
ATOM     28  C   UNL A   1      32.518  29.344  24.590  1.00  0.00     0.023 C 
BRANCH  28  29
ATOM     29  C   UNL A   1      31.820  28.924  25.892  1.00  0.00     0.023 C 
BRANCH  29  30
ATOM     30  C   UNL A   1      32.024  29.877  27.060  1.00  0.00     0.116 C 
BRANCH  30  31
ATOM     31  N   UNL A   1      31.599  31.255  26.767  1.00  0.00    -0.352 N 
ATOM     32  C   UNL A   1      32.208  32.442  27.161  1.00  0.00     0.251 C 
ATOM     33  H   UNL A   1      30.782  31.349  26.225  1.00  0.00     0.163 HD
ATOM     34  O   UNL A   1      31.596  33.493  27.197  1.00  0.00    -0.269 OA
BRANCH  32  35
ATOM     35  C   UNL A   1      33.639  32.384  27.502  1.00  0.00     0.039 A 
ATOM     36  C   UNL A   1      34.401  33.514  27.818  1.00  0.00     0.014 A 
ATOM     37  C   UNL A   1      34.177  31.107  27.588  1.00  0.00     0.014 A 
ATOM     38  C   UNL A   1      35.694  33.323  28.303  1.00  0.00     0.010 A 
ATOM     39  C   UNL A   1      35.320  30.924  28.301  1.00  0.00     0.010 A 
ATOM     40  C   UNL A   1      36.135  32.017  28.555  1.00  0.00    -0.014 A 
BRANCH  40  41
ATOM     41  C   UNL A   1      37.445  31.713  29.102  1.00  0.00     0.031 A 
ATOM     42  C   UNL A   1      37.977  30.364  28.797  1.00  0.00     0.074 A 
ATOM     43  C   UNL A   1      38.212  32.679  29.651  1.00  0.00     0.049 A 
ATOM     44  N   UNL A   1      38.100  29.386  29.628  1.00  0.00    -0.248 NA
ATOM     45  C   UNL A   1      38.294  30.008  27.407  1.00  0.00     0.031 C 
ATOM     46  C   UNL A   1      37.947  34.126  29.747  1.00  0.00     0.029 A 
ATOM     47  N   UNL A   1      39.485  32.585  30.104  1.00  0.00    -0.354 N 
ATOM     48  C   UNL A   1      38.725  28.360  28.926  1.00  0.00     0.074 A 
ATOM     49  C   UNL A   1      38.639  28.723  27.534  1.00  0.00     0.031 C 
ATOM     50  C   UNL A   1      39.108  34.782  29.963  1.00  0.00     0.029 A 
ATOM     51  C   UNL A   1      40.145  33.802  30.212  1.00  0.00     0.049 A 
ATOM     52  H   UNL A   1      39.907  31.726  30.336  1.00  0.00     0.167 HD
ATOM     53  C   UNL A   1      39.454  27.409  29.573  1.00  0.00     0.034 A 
ATOM     54  C   UNL A   1      41.467  33.977  30.444  1.00  0.00     0.034 A 
ATOM     55  C   UNL A   1      39.317  27.532  31.005  1.00  0.00     0.049 A 
ATOM     56  C   UNL A   1      41.948  32.741  31.105  1.00  0.00     0.074 A 
ATOM     57  C   UNL A   1      38.263  27.466  31.893  1.00  0.00     0.029 A 
ATOM     58  N   UNL A   1      40.330  28.193  31.663  1.00  0.00    -0.354 N 
ATOM     59  N   UNL A   1      41.535  32.367  32.287  1.00  0.00    -0.248 NA
ATOM     60  C   UNL A   1      42.492  31.680  30.272  1.00  0.00     0.031 C 
ATOM     61  C   UNL A   1      38.518  28.506  32.835  1.00  0.00     0.029 A 
ATOM     62  C   UNL A   1      39.745  29.093  32.515  1.00  0.00     0.049 A 
ATOM     63  H   UNL A   1      41.296  28.045  31.544  1.00  0.00     0.167 HD
ATOM     64  C   UNL A   1      41.316  31.001  32.158  1.00  0.00     0.074 A 
ATOM     65  C   UNL A   1      42.034  30.616  30.941  1.00  0.00     0.031 C 
ATOM     66  C   UNL A   1      40.330  30.371  32.867  1.00  0.00     0.034 A 
BRANCH  53  67
ATOM     67  C   UNL A   1      40.562  26.572  28.989  1.00  0.00     0.023 A 
ATOM     68  C   UNL A   1      41.788  27.227  28.723  1.00  0.00     0.012 A 
ATOM     69  C   UNL A   1      40.388  25.283  28.445  1.00  0.00     0.148 A 
ATOM     70  C   UNL A   1      42.767  26.652  27.909  1.00  0.00     0.002 A 
ATOM     71  C   UNL A   1      41.393  24.686  27.691  1.00  0.00     0.091 A 
ATOM     72  F   UNL A   1      39.201  24.678  28.540  1.00  0.00    -0.205 F 
ATOM     73  C   UNL A   1      42.571  25.377  27.395  1.00  0.00     0.022 A 
BRANCH  71  74
ATOM     74  S   UNL A   1      41.216  23.027  27.025  1.00  0.00     0.127 S 
ATOM     75  O   UNL A   1      41.329  22.213  28.232  1.00  0.00    -0.237 OA
ATOM     76  O   UNL A   1      39.877  23.082  26.437  1.00  0.00    -0.237 OA
ATOM     77  O   UNL A   1      42.291  22.880  26.052  1.00  0.00    -0.744 OA
ENDBRANCH  71  74
ENDBRANCH  53  67
BRANCH  54  78
ATOM     78  C   UNL A   1      42.366  35.012  29.890  1.00  0.00     0.023 A 
ATOM     79  C   UNL A   1      42.247  35.406  28.545  1.00  0.00     0.012 A 
ATOM     80  C   UNL A   1      43.160  35.806  30.750  1.00  0.00     0.148 A 
ATOM     81  C   UNL A   1      42.872  36.570  28.078  1.00  0.00     0.002 A 
ATOM     82  C   UNL A   1      43.783  36.957  30.282  1.00  0.00     0.091 A 
ATOM     83  F   UNL A   1      43.225  35.484  32.049  1.00  0.00    -0.205 F 
ATOM     84  C   UNL A   1      43.632  37.350  28.947  1.00  0.00     0.022 A 
BRANCH  82  85
ATOM     85  S   UNL A   1      44.751  38.020  31.363  1.00  0.00     0.127 S 
ATOM     86  O   UNL A   1      45.792  37.106  31.834  1.00  0.00    -0.237 OA
ATOM     87  O   UNL A   1      45.209  39.051  30.436  1.00  0.00    -0.237 OA
ATOM     88  O   UNL A   1      43.831  38.466  32.402  1.00  0.00    -0.744 OA
ENDBRANCH  82  85
ENDBRANCH  54  78
BRANCH  66  89
ATOM     89  C   UNL A   1      39.607  31.161  33.933  1.00  0.00     0.023 A 
ATOM     90  C   UNL A   1      40.191  31.447  35.185  1.00  0.00     0.012 A 
ATOM     91  C   UNL A   1      38.395  31.787  33.600  1.00  0.00     0.148 A 
ATOM     92  C   UNL A   1      39.575  32.312  36.093  1.00  0.00     0.002 A 
ATOM     93  C   UNL A   1      37.805  32.682  34.486  1.00  0.00     0.091 A 
ATOM     94  F   UNL A   1      37.853  31.520  32.403  1.00  0.00    -0.205 F 
ATOM     95  C   UNL A   1      38.387  32.940  35.738  1.00  0.00     0.022 A 
BRANCH  93  96
ATOM     96  S   UNL A   1      36.344  33.619  34.037  1.00  0.00     0.127 S 
ATOM     97  O   UNL A   1      35.705  33.828  35.335  1.00  0.00    -0.237 OA
ATOM     98  O   UNL A   1      36.915  34.826  33.436  1.00  0.00    -0.237 OA
ATOM     99  O   UNL A   1      35.604  32.783  33.100  1.00  0.00    -0.744 OA
ENDBRANCH  93  96
ENDBRANCH  66  89
ENDBRANCH  40  41
ENDBRANCH  32  35
ENDBRANCH  30  31
ENDBRANCH  29  30
ENDBRANCH  28  29
ENDBRANCH   1  28
TORSDOF 19
ENDMDL
