MODEL 1
REMARK VINA RESULT:     -12.6      0.000      0.000
REMARK SMILES COc1ccc(CNC(=O)[C@H]2CC(C)=C(C)C[C@@H]2C(=O)NCCCCNC(=O)c2ccc(-c3c4nc(c(-c5cccc(S(=O)(=O)[O-])c5F)c5ccc([nH]5)c(-c5cccc(S(=O)(=O)[O-])c5F)c5nc(c(-c6cccc(S(=O)(=O)[O-])c6F)c6ccc3[nH]6)C=C5)C=C4)cc2)cc1OC
REMARK SMILES IDX 23 1 22 2 21 3 19 4 20 5 18 7 11 8 12 9 13 10 17 11 14 12
REMARK SMILES IDX 15 13 16 14 9 15 8 16 10 18 7 19 6 20 3 21 4 22 93 23 5 24
REMARK SMILES IDX 92 25 2 26 1 27 94 28 95 29 24 30 25 31 26 32 27 33 28 35
REMARK SMILES IDX 29 36 30 37 91 38 31 39 90 40 32 41 33 42 34 43 84 44 35 45
REMARK SMILES IDX 89 46 83 47 85 48 36 49 88 50 82 51 81 52 37 54 69 55 49 56
REMARK SMILES IDX 68 57 50 58 53 59 67 60 86 61 51 62 52 63 66 65 87 66 54 67
REMARK SMILES IDX 38 68 39 69 47 70 40 71 42 72 48 73 41 74 43 75 44 76 45 77
REMARK SMILES IDX 46 78 70 79 71 80 79 81 72 82 74 83 80 84 73 85 75 86 76 87
REMARK SMILES IDX 77 88 78 89 55 90 56 91 64 92 57 93 59 94 65 95 58 96 60 97
REMARK SMILES IDX 61 98 62 99 63 100
REMARK H PARENT 21 6 8 17 26 34 85 53 53 64
REMARK Flexibility Score: inf
ROOT
ATOM      1  C   UNL A   1      35.527  22.741  23.292  1.00  0.00     0.023 C 
ENDROOT
BRANCH   1   2
ATOM      2  C   UNL A   1      34.974  23.911  24.101  1.00  0.00     0.116 C 
BRANCH   2   3
ATOM      3  N   UNL A   1      34.502  24.990  23.252  1.00  0.00    -0.356 N 
ATOM      4  C   UNL A   1      33.671  26.034  23.532  1.00  0.00     0.224 C 
ATOM      5  O   UNL A   1      33.385  26.810  22.619  1.00  0.00    -0.275 OA
ATOM      6  H   UNL A   1      34.835  24.964  22.326  1.00  0.00     0.163 HD
BRANCH   4   7
ATOM      7  C   UNL A   1      33.074  26.184  24.931  1.00  0.00     0.095 C 
ATOM      8  C   UNL A   1      31.629  26.685  24.772  1.00  0.00     0.095 C 
ATOM      9  C   UNL A   1      31.399  28.168  25.051  1.00  0.00     0.045 C 
ATOM     10  C   UNL A   1      32.307  28.835  26.052  1.00  0.00    -0.074 C 
ATOM     11  C   UNL A   1      34.019  27.027  25.802  1.00  0.00     0.045 C 
ATOM     12  C   UNL A   1      31.746  30.108  26.638  1.00  0.00     0.039 C 
ATOM     13  C   UNL A   1      33.507  28.319  26.378  1.00  0.00    -0.074 C 
ATOM     14  C   UNL A   1      34.468  28.994  27.325  1.00  0.00     0.039 C 
BRANCH   8  15
ATOM     15  C   UNL A   1      30.635  25.683  25.366  1.00  0.00     0.224 C 
ATOM     16  N   UNL A   1      30.265  24.510  24.822  1.00  0.00    -0.352 N 
ATOM     17  H   UNL A   1      29.556  24.052  25.329  1.00  0.00     0.163 HD
ATOM     18  O   UNL A   1      30.042  25.970  26.415  1.00  0.00    -0.275 OA
BRANCH  16  19
ATOM     19  C   UNL A   1      30.686  23.782  23.652  1.00  0.00     0.151 C 
BRANCH  19  20
ATOM     20  C   UNL A   1      31.553  22.593  24.000  1.00  0.00    -0.025 A 
ATOM     21  C   UNL A   1      33.123  20.375  24.763  1.00  0.00     0.160 A 
ATOM     22  C   UNL A   1      32.717  20.533  23.433  1.00  0.00     0.051 A 
ATOM     23  C   UNL A   1      32.770  21.331  25.721  1.00  0.00     0.161 A 
ATOM     24  C   UNL A   1      31.941  21.633  23.056  1.00  0.00     0.009 A 
ATOM     25  C   UNL A   1      31.971  22.416  25.327  1.00  0.00     0.056 A 
BRANCH  21  26
ATOM     26  O   UNL A   1      33.948  19.321  25.052  1.00  0.00    -0.493 OA
ATOM     27  C   UNL A   1      33.729  18.225  24.165  1.00  0.00     0.278 C 
ENDBRANCH  21  26
BRANCH  23  28
ATOM     28  O   UNL A   1      33.105  21.388  27.046  1.00  0.00    -0.493 OA
ATOM     29  C   UNL A   1      34.164  22.241  27.447  1.00  0.00     0.278 C 
ENDBRANCH  23  28
ENDBRANCH  19  20
ENDBRANCH  16  19
ENDBRANCH   8  15
ENDBRANCH   4   7
ENDBRANCH   2   3
ENDBRANCH   1   2
BRANCH   1  30
ATOM     30  C   UNL A   1      36.885  22.216  23.751  1.00  0.00     0.023 C 
BRANCH  30  31
ATOM     31  C   UNL A   1      36.993  21.889  25.234  1.00  0.00     0.116 C 
BRANCH  31  32
ATOM     32  N   UNL A   1      37.984  20.864  25.526  1.00  0.00    -0.352 N 
ATOM     33  C   UNL A   1      39.231  21.003  26.087  1.00  0.00     0.251 C 
ATOM     34  H   UNL A   1      37.727  19.944  25.289  1.00  0.00     0.163 HD
ATOM     35  O   UNL A   1      39.987  20.035  26.155  1.00  0.00    -0.269 OA
BRANCH  33  36
ATOM     36  C   UNL A   1      39.674  22.327  26.576  1.00  0.00     0.039 A 
ATOM     37  C   UNL A   1      40.728  22.389  27.490  1.00  0.00     0.014 A 
ATOM     38  C   UNL A   1      39.075  23.502  26.112  1.00  0.00     0.014 A 
ATOM     39  C   UNL A   1      41.227  23.632  27.885  1.00  0.00     0.010 A 
ATOM     40  C   UNL A   1      39.628  24.736  26.443  1.00  0.00     0.010 A 
ATOM     41  C   UNL A   1      40.707  24.815  27.335  1.00  0.00    -0.014 A 
BRANCH  41  42
ATOM     42  C   UNL A   1      41.298  26.138  27.665  1.00  0.00     0.031 A 
ATOM     43  C   UNL A   1      42.710  26.468  27.263  1.00  0.00     0.074 A 
ATOM     44  C   UNL A   1      40.585  27.017  28.399  1.00  0.00     0.049 A 
ATOM     45  N   UNL A   1      43.395  27.560  27.486  1.00  0.00    -0.248 NA
ATOM     46  C   UNL A   1      43.461  25.428  26.540  1.00  0.00     0.031 C 
ATOM     47  C   UNL A   1      39.239  26.783  28.927  1.00  0.00     0.029 A 
ATOM     48  N   UNL A   1      40.901  28.276  28.846  1.00  0.00    -0.354 N 
ATOM     49  C   UNL A   1      44.662  27.327  26.963  1.00  0.00     0.074 A 
ATOM     50  C   UNL A   1      44.662  25.977  26.444  1.00  0.00     0.031 C 
ATOM     51  C   UNL A   1      38.842  27.864  29.616  1.00  0.00     0.029 A 
ATOM     52  C   UNL A   1      39.911  28.857  29.606  1.00  0.00     0.049 A 
ATOM     53  H   UNL A   1      41.755  28.721  28.644  1.00  0.00     0.167 HD
ATOM     54  C   UNL A   1      45.719  28.171  26.891  1.00  0.00     0.034 A 
ATOM     55  C   UNL A   1      39.871  30.051  30.229  1.00  0.00     0.034 A 
ATOM     56  C   UNL A   1      45.704  29.526  27.372  1.00  0.00     0.049 A 
ATOM     57  C   UNL A   1      41.044  30.983  30.097  1.00  0.00     0.074 A 
ATOM     58  C   UNL A   1      46.692  30.488  27.263  1.00  0.00     0.029 A 
ATOM     59  N   UNL A   1      44.654  30.109  28.065  1.00  0.00    -0.354 N 
ATOM     60  N   UNL A   1      42.169  30.809  29.449  1.00  0.00    -0.248 NA
ATOM     61  C   UNL A   1      40.925  32.295  30.751  1.00  0.00     0.031 C 
ATOM     62  C   UNL A   1      46.251  31.645  27.915  1.00  0.00     0.029 A 
ATOM     63  C   UNL A   1      44.973  31.413  28.402  1.00  0.00     0.049 A 
ATOM     64  H   UNL A   1      43.806  29.660  28.285  1.00  0.00     0.167 HD
ATOM     65  C   UNL A   1      42.879  31.997  29.587  1.00  0.00     0.074 A 
ATOM     66  C   UNL A   1      42.042  32.894  30.359  1.00  0.00     0.031 C 
ATOM     67  C   UNL A   1      44.116  32.312  29.130  1.00  0.00     0.034 A 
BRANCH  54  68
ATOM     68  C   UNL A   1      46.972  27.668  26.218  1.00  0.00     0.023 A 
ATOM     69  C   UNL A   1      47.907  26.919  26.962  1.00  0.00     0.012 A 
ATOM     70  C   UNL A   1      47.197  27.884  24.845  1.00  0.00     0.148 A 
ATOM     71  C   UNL A   1      49.062  26.423  26.359  1.00  0.00     0.002 A 
ATOM     72  C   UNL A   1      48.327  27.346  24.240  1.00  0.00     0.091 A 
ATOM     73  F   UNL A   1      46.308  28.616  24.158  1.00  0.00    -0.205 F 
ATOM     74  C   UNL A   1      49.267  26.627  24.998  1.00  0.00     0.022 A 
BRANCH  72  75
ATOM     75  S   UNL A   1      48.643  27.482  22.477  1.00  0.00     0.127 S 
ATOM     76  O   UNL A   1      47.509  28.293  22.036  1.00  0.00    -0.237 OA
ATOM     77  O   UNL A   1      49.933  28.172  22.448  1.00  0.00    -0.237 OA
ATOM     78  O   UNL A   1      48.670  26.118  21.968  1.00  0.00    -0.744 OA
ENDBRANCH  72  75
ENDBRANCH  54  68
BRANCH  55  79
ATOM     79  C   UNL A   1      38.650  30.460  30.980  1.00  0.00     0.023 A 
ATOM     80  C   UNL A   1      38.538  30.142  32.347  1.00  0.00     0.012 A 
ATOM     81  C   UNL A   1      37.613  31.181  30.355  1.00  0.00     0.148 A 
ATOM     82  C   UNL A   1      37.401  30.502  33.071  1.00  0.00     0.002 A 
ATOM     83  C   UNL A   1      36.509  31.586  31.097  1.00  0.00     0.091 A 
ATOM     84  F   UNL A   1      37.733  31.464  29.051  1.00  0.00    -0.205 F 
ATOM     85  C   UNL A   1      36.392  31.233  32.449  1.00  0.00     0.022 A 
BRANCH  83  86
ATOM     86  S   UNL A   1      35.224  32.639  30.413  1.00  0.00     0.127 S 
ATOM     87  O   UNL A   1      34.297  32.748  31.536  1.00  0.00    -0.237 OA
ATOM     88  O   UNL A   1      35.968  33.861  30.106  1.00  0.00    -0.237 OA
ATOM     89  O   UNL A   1      34.720  31.934  29.241  1.00  0.00    -0.744 OA
ENDBRANCH  83  86
ENDBRANCH  55  79
BRANCH  67  90
ATOM     90  C   UNL A   1      44.634  33.696  29.420  1.00  0.00     0.023 A 
ATOM     91  C   UNL A   1      45.311  33.955  30.628  1.00  0.00     0.012 A 
ATOM     92  C   UNL A   1      44.504  34.727  28.467  1.00  0.00     0.148 A 
ATOM     93  C   UNL A   1      45.816  35.226  30.901  1.00  0.00     0.002 A 
ATOM     94  C   UNL A   1      45.057  35.977  28.723  1.00  0.00     0.091 A 
ATOM     95  F   UNL A   1      43.842  34.469  27.330  1.00  0.00    -0.205 F 
ATOM     96  C   UNL A   1      45.700  36.232  29.946  1.00  0.00     0.022 A 
BRANCH  94  97
ATOM     97  S   UNL A   1      45.041  37.302  27.512  1.00  0.00     0.127 S 
ATOM     98  O   UNL A   1      45.624  38.408  28.271  1.00  0.00    -0.237 OA
ATOM     99  O   UNL A   1      45.901  36.769  26.455  1.00  0.00    -0.237 OA
ATOM    100  O   UNL A   1      43.648  37.476  27.124  1.00  0.00    -0.744 OA
ENDBRANCH  94  97
ENDBRANCH  67  90
ENDBRANCH  41  42
ENDBRANCH  33  36
ENDBRANCH  31  32
ENDBRANCH  30  31
ENDBRANCH   1  30
TORSDOF 19
ENDMDL
MODEL 2
REMARK VINA RESULT:     -12.1      2.421      2.912
REMARK SMILES COc1ccc(CNC(=O)[C@H]2CC(C)=C(C)C[C@@H]2C(=O)NCCCCNC(=O)c2ccc(-c3c4nc(c(-c5cccc(S(=O)(=O)[O-])c5F)c5ccc([nH]5)c(-c5cccc(S(=O)(=O)[O-])c5F)c5nc(c(-c6cccc(S(=O)(=O)[O-])c6F)c6ccc3[nH]6)C=C5)C=C4)cc2)cc1OC
REMARK SMILES IDX 23 1 22 2 21 3 19 4 20 5 18 7 11 8 12 9 13 10 17 11 14 12
REMARK SMILES IDX 15 13 16 14 9 15 8 16 10 18 7 19 6 20 3 21 4 22 93 23 5 24
REMARK SMILES IDX 92 25 2 26 1 27 94 28 95 29 24 30 25 31 26 32 27 33 28 35
REMARK SMILES IDX 29 36 30 37 91 38 31 39 90 40 32 41 33 42 34 43 84 44 35 45
REMARK SMILES IDX 89 46 83 47 85 48 36 49 88 50 82 51 81 52 37 54 69 55 49 56
REMARK SMILES IDX 68 57 50 58 53 59 67 60 86 61 51 62 52 63 66 65 87 66 54 67
REMARK SMILES IDX 38 68 39 69 47 70 40 71 42 72 48 73 41 74 43 75 44 76 45 77
REMARK SMILES IDX 46 78 70 79 71 80 79 81 72 82 74 83 80 84 73 85 75 86 76 87
REMARK SMILES IDX 77 88 78 89 55 90 56 91 64 92 57 93 59 94 65 95 58 96 60 97
REMARK SMILES IDX 61 98 62 99 63 100
REMARK H PARENT 21 6 8 17 26 34 85 53 53 64
REMARK Flexibility Score: inf
ROOT
ATOM      1  C   UNL A   1      35.566  22.961  23.489  1.00  0.00     0.023 C 
ENDROOT
BRANCH   1   2
ATOM      2  C   UNL A   1      34.870  24.062  24.285  1.00  0.00     0.116 C 
BRANCH   2   3
ATOM      3  N   UNL A   1      34.479  25.181  23.447  1.00  0.00    -0.356 N 
ATOM      4  C   UNL A   1      33.720  26.276  23.735  1.00  0.00     0.224 C 
ATOM      5  O   UNL A   1      33.495  27.081  22.829  1.00  0.00    -0.275 OA
ATOM      6  H   UNL A   1      34.818  25.144  22.523  1.00  0.00     0.163 HD
BRANCH   4   7
ATOM      7  C   UNL A   1      33.122  26.449  25.130  1.00  0.00     0.095 C 
ATOM      8  C   UNL A   1      31.674  26.937  24.964  1.00  0.00     0.095 C 
ATOM      9  C   UNL A   1      31.435  28.424  25.214  1.00  0.00     0.045 C 
ATOM     10  C   UNL A   1      32.339  29.116  26.201  1.00  0.00    -0.074 C 
ATOM     11  C   UNL A   1      34.063  27.314  25.985  1.00  0.00     0.045 C 
ATOM     12  C   UNL A   1      31.771  30.396  26.763  1.00  0.00     0.039 C 
ATOM     13  C   UNL A   1      33.542  28.614  26.537  1.00  0.00    -0.074 C 
ATOM     14  C   UNL A   1      34.500  29.313  27.470  1.00  0.00     0.039 C 
BRANCH   8  15
ATOM     15  C   UNL A   1      30.687  25.941  25.577  1.00  0.00     0.224 C 
ATOM     16  N   UNL A   1      30.239  24.808  25.005  1.00  0.00    -0.352 N 
ATOM     17  H   UNL A   1      29.550  24.349  25.539  1.00  0.00     0.163 HD
ATOM     18  O   UNL A   1      30.177  26.195  26.676  1.00  0.00    -0.275 OA
BRANCH  16  19
ATOM     19  C   UNL A   1      30.554  24.125  23.777  1.00  0.00     0.151 C 
BRANCH  19  20
ATOM     20  C   UNL A   1      31.381  22.881  24.010  1.00  0.00    -0.025 A 
ATOM     21  C   UNL A   1      32.877  20.552  24.560  1.00  0.00     0.160 A 
ATOM     22  C   UNL A   1      32.454  20.832  23.255  1.00  0.00     0.051 A 
ATOM     23  C   UNL A   1      32.580  21.441  25.598  1.00  0.00     0.161 A 
ATOM     24  C   UNL A   1      31.714  21.987  22.984  1.00  0.00     0.009 A 
ATOM     25  C   UNL A   1      31.815  22.583  25.309  1.00  0.00     0.056 A 
BRANCH  21  26
ATOM     26  O   UNL A   1      33.667  19.449  24.745  1.00  0.00    -0.493 OA
ATOM     27  C   UNL A   1      32.894  18.249  24.773  1.00  0.00     0.278 C 
ENDBRANCH  21  26
BRANCH  23  28
ATOM     28  O   UNL A   1      32.941  21.378  26.916  1.00  0.00    -0.493 OA
ATOM     29  C   UNL A   1      34.252  21.770  27.284  1.00  0.00     0.278 C 
ENDBRANCH  23  28
ENDBRANCH  19  20
ENDBRANCH  16  19
ENDBRANCH   8  15
ENDBRANCH   4   7
ENDBRANCH   2   3
ENDBRANCH   1   2
BRANCH   1  30
ATOM     30  C   UNL A   1      36.975  22.608  23.960  1.00  0.00     0.023 C 
BRANCH  30  31
ATOM     31  C   UNL A   1      37.287  22.959  25.408  1.00  0.00     0.116 C 
BRANCH  31  32
ATOM     32  N   UNL A   1      38.319  22.114  25.993  1.00  0.00    -0.352 N 
ATOM     33  C   UNL A   1      39.444  22.482  26.690  1.00  0.00     0.251 C 
ATOM     34  H   UNL A   1      38.194  21.145  25.873  1.00  0.00     0.163 HD
ATOM     35  O   UNL A   1      40.272  21.634  27.015  1.00  0.00    -0.269 OA
BRANCH  33  36
ATOM     36  C   UNL A   1      39.672  23.907  27.018  1.00  0.00     0.039 A 
ATOM     37  C   UNL A   1      39.403  24.350  28.315  1.00  0.00     0.014 A 
ATOM     38  C   UNL A   1      40.178  24.793  26.063  1.00  0.00     0.014 A 
ATOM     39  C   UNL A   1      39.708  25.665  28.672  1.00  0.00     0.010 A 
ATOM     40  C   UNL A   1      40.557  26.077  26.444  1.00  0.00     0.010 A 
ATOM     41  C   UNL A   1      40.324  26.528  27.751  1.00  0.00    -0.014 A 
BRANCH  41  42
ATOM     42  C   UNL A   1      40.750  27.896  28.148  1.00  0.00     0.031 A 
ATOM     43  C   UNL A   1      42.207  28.271  28.158  1.00  0.00     0.074 A 
ATOM     44  C   UNL A   1      39.825  28.779  28.575  1.00  0.00     0.049 A 
ATOM     45  N   UNL A   1      42.762  29.406  28.496  1.00  0.00    -0.248 NA
ATOM     46  C   UNL A   1      43.170  27.229  27.763  1.00  0.00     0.031 C 
ATOM     47  C   UNL A   1      38.390  28.510  28.699  1.00  0.00     0.029 A 
ATOM     48  N   UNL A   1      39.956  30.076  29.007  1.00  0.00    -0.354 N 
ATOM     49  C   UNL A   1      44.133  29.206  28.387  1.00  0.00     0.074 A 
ATOM     50  C   UNL A   1      44.328  27.830  27.987  1.00  0.00     0.031 C 
ATOM     51  C   UNL A   1      37.774  29.608  29.163  1.00  0.00     0.029 A 
ATOM     52  C   UNL A   1      38.768  30.650  29.399  1.00  0.00     0.049 A 
ATOM     53  H   UNL A   1      40.817  30.550  29.036  1.00  0.00     0.167 HD
ATOM     54  C   UNL A   1      45.139  30.095  28.572  1.00  0.00     0.034 A 
ATOM     55  C   UNL A   1      38.508  31.875  29.898  1.00  0.00     0.034 A 
ATOM     56  C   UNL A   1      44.940  31.474  28.932  1.00  0.00     0.049 A 
ATOM     57  C   UNL A   1      39.639  32.855  30.053  1.00  0.00     0.074 A 
ATOM     58  C   UNL A   1      45.887  32.475  29.052  1.00  0.00     0.029 A 
ATOM     59  N   UNL A   1      43.715  32.043  29.241  1.00  0.00    -0.354 N 
ATOM     60  N   UNL A   1      40.911  32.699  29.779  1.00  0.00    -0.248 NA
ATOM     61  C   UNL A   1      39.293  34.195  30.549  1.00  0.00     0.031 C 
ATOM     62  C   UNL A   1      45.238  33.644  29.463  1.00  0.00     0.029 A 
ATOM     63  C   UNL A   1      43.881  33.379  29.565  1.00  0.00     0.049 A 
ATOM     64  H   UNL A   1      42.853  31.567  29.233  1.00  0.00     0.167 HD
ATOM     65  C   UNL A   1      41.512  33.926  30.037  1.00  0.00     0.074 A 
ATOM     66  C   UNL A   1      40.457  34.824  30.463  1.00  0.00     0.031 C 
ATOM     67  C   UNL A   1      42.819  34.275  29.944  1.00  0.00     0.034 A 
BRANCH  54  68
ATOM     68  C   UNL A   1      46.549  29.617  28.336  1.00  0.00     0.023 A 
ATOM     69  C   UNL A   1      47.132  29.774  27.061  1.00  0.00     0.012 A 
ATOM     70  C   UNL A   1      47.316  29.069  29.383  1.00  0.00     0.148 A 
ATOM     71  C   UNL A   1      48.443  29.362  26.823  1.00  0.00     0.002 A 
ATOM     72  C   UNL A   1      48.637  28.704  29.149  1.00  0.00     0.091 A 
ATOM     73  F   UNL A   1      46.740  28.908  30.582  1.00  0.00    -0.205 F 
ATOM     74  C   UNL A   1      49.198  28.838  27.868  1.00  0.00     0.022 A 
BRANCH  72  75
ATOM     75  S   UNL A   1      49.720  28.095  30.447  1.00  0.00     0.127 S 
ATOM     76  O   UNL A   1      49.681  29.198  31.406  1.00  0.00    -0.237 OA
ATOM     77  O   UNL A   1      49.025  26.884  30.883  1.00  0.00    -0.237 OA
ATOM     78  O   UNL A   1      51.011  27.862  29.815  1.00  0.00    -0.744 OA
ENDBRANCH  72  75
ENDBRANCH  54  68
BRANCH  55  79
ATOM     79  C   UNL A   1      37.108  32.266  30.224  1.00  0.00     0.023 A 
ATOM     80  C   UNL A   1      36.560  31.904  31.470  1.00  0.00     0.012 A 
ATOM     81  C   UNL A   1      36.327  33.013  29.321  1.00  0.00     0.148 A 
ATOM     82  C   UNL A   1      35.248  32.246  31.798  1.00  0.00     0.002 A 
ATOM     83  C   UNL A   1      35.039  33.400  29.677  1.00  0.00     0.091 A 
ATOM     84  F   UNL A   1      36.862  33.338  28.137  1.00  0.00    -0.205 F 
ATOM     85  C   UNL A   1      34.492  33.003  30.906  1.00  0.00     0.022 A 
BRANCH  83  86
ATOM     86  S   UNL A   1      34.040  34.482  28.648  1.00  0.00     0.127 S 
ATOM     87  O   UNL A   1      34.777  34.460  27.387  1.00  0.00    -0.237 OA
ATOM     88  O   UNL A   1      32.758  33.778  28.626  1.00  0.00    -0.237 OA
ATOM     89  O   UNL A   1      34.009  35.764  29.341  1.00  0.00    -0.744 OA
ENDBRANCH  83  86
ENDBRANCH  55  79
BRANCH  67  90
ATOM     90  C   UNL A   1      43.186  35.698  30.276  1.00  0.00     0.023 A 
ATOM     91  C   UNL A   1      43.674  36.016  31.559  1.00  0.00     0.012 A 
ATOM     92  C   UNL A   1      43.105  36.709  29.298  1.00  0.00     0.148 A 
ATOM     93  C   UNL A   1      44.039  37.324  31.875  1.00  0.00     0.002 A 
ATOM     94  C   UNL A   1      43.521  38.000  29.604  1.00  0.00     0.091 A 
ATOM     95  F   UNL A   1      42.622  36.392  28.088  1.00  0.00    -0.205 F 
ATOM     96  C   UNL A   1      43.974  38.312  30.896  1.00  0.00     0.022 A 
BRANCH  94  97
ATOM     97  S   UNL A   1      43.564  39.312  28.379  1.00  0.00     0.127 S 
ATOM     98  O   UNL A   1      42.143  39.493  28.086  1.00  0.00    -0.237 OA
ATOM     99  O   UNL A   1      44.178  40.412  29.123  1.00  0.00    -0.237 OA
ATOM    100  O   UNL A   1      44.370  38.807  27.276  1.00  0.00    -0.744 OA
ENDBRANCH  94  97
ENDBRANCH  67  90
ENDBRANCH  41  42
ENDBRANCH  33  36
ENDBRANCH  31  32
ENDBRANCH  30  31
ENDBRANCH   1  30
TORSDOF 19
ENDMDL
MODEL 3
REMARK VINA RESULT:     -12.1      0.498      7.293
REMARK SMILES COc1ccc(CNC(=O)[C@H]2CC(C)=C(C)C[C@@H]2C(=O)NCCCCNC(=O)c2ccc(-c3c4nc(c(-c5cccc(S(=O)(=O)[O-])c5F)c5ccc([nH]5)c(-c5cccc(S(=O)(=O)[O-])c5F)c5nc(c(-c6cccc(S(=O)(=O)[O-])c6F)c6ccc3[nH]6)C=C5)C=C4)cc2)cc1OC
REMARK SMILES IDX 23 1 22 2 21 3 19 4 20 5 18 7 11 8 12 9 13 10 17 11 14 12
REMARK SMILES IDX 15 13 16 14 9 15 8 16 10 18 7 19 6 20 3 21 4 22 93 23 5 24
REMARK SMILES IDX 92 25 2 26 1 27 94 28 95 29 24 30 25 31 26 32 27 33 28 35
REMARK SMILES IDX 29 36 30 37 91 38 31 39 90 40 32 41 33 42 34 43 84 44 35 45
REMARK SMILES IDX 89 46 83 47 85 48 36 49 88 50 82 51 81 52 37 54 69 55 49 56
REMARK SMILES IDX 68 57 50 58 53 59 67 60 86 61 51 62 52 63 66 65 87 66 54 67
REMARK SMILES IDX 38 68 39 69 47 70 40 71 42 72 48 73 41 74 43 75 44 76 45 77
REMARK SMILES IDX 46 78 70 79 71 80 79 81 72 82 74 83 80 84 73 85 75 86 76 87
REMARK SMILES IDX 77 88 78 89 55 90 56 91 64 92 57 93 59 94 65 95 58 96 60 97
REMARK SMILES IDX 61 98 62 99 63 100
REMARK H PARENT 21 6 8 17 26 34 85 53 53 64
REMARK Flexibility Score: inf
ROOT
ATOM      1  C   UNL A   1      35.433  22.684  23.472  1.00  0.00     0.023 C 
ENDROOT
BRANCH   1   2
ATOM      2  C   UNL A   1      34.955  23.912  24.243  1.00  0.00     0.116 C 
BRANCH   2   3
ATOM      3  N   UNL A   1      34.522  24.980  23.360  1.00  0.00    -0.356 N 
ATOM      4  C   UNL A   1      33.718  26.053  23.604  1.00  0.00     0.224 C 
ATOM      5  O   UNL A   1      33.463  26.812  22.667  1.00  0.00    -0.275 OA
ATOM      6  H   UNL A   1      34.864  24.920  22.439  1.00  0.00     0.163 HD
BRANCH   4   7
ATOM      7  C   UNL A   1      33.111  26.258  24.991  1.00  0.00     0.095 C 
ATOM      8  C   UNL A   1      31.658  26.726  24.803  1.00  0.00     0.095 C 
ATOM      9  C   UNL A   1      31.401  28.216  25.012  1.00  0.00     0.045 C 
ATOM     10  C   UNL A   1      32.293  28.945  25.985  1.00  0.00    -0.074 C 
ATOM     11  C   UNL A   1      34.037  27.156  25.827  1.00  0.00     0.045 C 
ATOM     12  C   UNL A   1      31.707  30.233  26.508  1.00  0.00     0.039 C 
ATOM     13  C   UNL A   1      33.500  28.465  26.340  1.00  0.00    -0.074 C 
ATOM     14  C   UNL A   1      34.445  29.199  27.259  1.00  0.00     0.039 C 
BRANCH   8  15
ATOM     15  C   UNL A   1      30.679  25.735  25.439  1.00  0.00     0.224 C 
ATOM     16  N   UNL A   1      30.274  24.566  24.911  1.00  0.00    -0.352 N 
ATOM     17  H   UNL A   1      29.581  24.116  25.448  1.00  0.00     0.163 HD
ATOM     18  O   UNL A   1      30.133  26.030  26.510  1.00  0.00    -0.275 OA
BRANCH  16  19
ATOM     19  C   UNL A   1      30.639  23.832  23.727  1.00  0.00     0.151 C 
BRANCH  19  20
ATOM     20  C   UNL A   1      31.480  22.616  24.043  1.00  0.00    -0.025 A 
ATOM     21  C   UNL A   1      33.007  20.350  24.751  1.00  0.00     0.160 A 
ATOM     22  C   UNL A   1      32.544  20.513  23.440  1.00  0.00     0.051 A 
ATOM     23  C   UNL A   1      32.734  21.325  25.716  1.00  0.00     0.161 A 
ATOM     24  C   UNL A   1      31.789  21.637  23.090  1.00  0.00     0.009 A 
ATOM     25  C   UNL A   1      31.954  22.434  25.351  1.00  0.00     0.056 A 
BRANCH  21  26
ATOM     26  O   UNL A   1      33.808  19.270  25.009  1.00  0.00    -0.493 OA
ATOM     27  C   UNL A   1      33.040  18.107  25.314  1.00  0.00     0.278 C 
ENDBRANCH  21  26
BRANCH  23  28
ATOM     28  O   UNL A   1      33.133  21.379  27.023  1.00  0.00    -0.493 OA
ATOM     29  C   UNL A   1      33.727  22.572  27.507  1.00  0.00     0.278 C 
ENDBRANCH  23  28
ENDBRANCH  19  20
ENDBRANCH  16  19
ENDBRANCH   8  15
ENDBRANCH   4   7
ENDBRANCH   2   3
ENDBRANCH   1   2
BRANCH   1  30
ATOM     30  C   UNL A   1      36.820  22.174  23.852  1.00  0.00     0.023 C 
BRANCH  30  31
ATOM     31  C   UNL A   1      37.031  21.896  25.334  1.00  0.00     0.116 C 
BRANCH  31  32
ATOM     32  N   UNL A   1      37.999  20.839  25.588  1.00  0.00    -0.352 N 
ATOM     33  C   UNL A   1      39.260  20.933  26.125  1.00  0.00     0.251 C 
ATOM     34  H   UNL A   1      37.711  19.931  25.340  1.00  0.00     0.163 HD
ATOM     35  O   UNL A   1      39.990  19.944  26.161  1.00  0.00    -0.269 OA
BRANCH  33  36
ATOM     36  C   UNL A   1      39.749  22.236  26.628  1.00  0.00     0.039 A 
ATOM     37  C   UNL A   1      40.764  22.248  27.588  1.00  0.00     0.014 A 
ATOM     38  C   UNL A   1      39.233  23.437  26.134  1.00  0.00     0.014 A 
ATOM     39  C   UNL A   1      41.309  23.466  28.000  1.00  0.00     0.010 A 
ATOM     40  C   UNL A   1      39.834  24.642  26.485  1.00  0.00     0.010 A 
ATOM     41  C   UNL A   1      40.876  24.672  27.423  1.00  0.00    -0.014 A 
BRANCH  41  42
ATOM     42  C   UNL A   1      41.519  25.964  27.774  1.00  0.00     0.031 A 
ATOM     43  C   UNL A   1      40.747  27.030  28.504  1.00  0.00     0.074 A 
ATOM     44  C   UNL A   1      42.781  26.208  27.366  1.00  0.00     0.049 A 
ATOM     45  N   UNL A   1      41.137  28.223  28.871  1.00  0.00    -0.248 NA
ATOM     46  C   UNL A   1      39.346  26.729  28.842  1.00  0.00     0.031 C 
ATOM     47  C   UNL A   1      43.607  25.294  26.574  1.00  0.00     0.029 A 
ATOM     48  N   UNL A   1      43.583  27.309  27.541  1.00  0.00    -0.354 N 
ATOM     49  C   UNL A   1      40.026  28.825  29.451  1.00  0.00     0.074 A 
ATOM     50  C   UNL A   1      38.936  27.879  29.354  1.00  0.00     0.031 C 
ATOM     51  C   UNL A   1      44.799  25.865  26.342  1.00  0.00     0.029 A 
ATOM     52  C   UNL A   1      44.815  27.196  26.940  1.00  0.00     0.049 A 
ATOM     53  H   UNL A   1      43.302  28.105  28.048  1.00  0.00     0.167 HD
ATOM     54  C   UNL A   1      39.929  30.041  30.040  1.00  0.00     0.034 A 
ATOM     55  C   UNL A   1      45.841  28.067  26.872  1.00  0.00     0.034 A 
ATOM     56  C   UNL A   1      41.025  30.964  30.170  1.00  0.00     0.049 A 
ATOM     57  C   UNL A   1      45.720  29.394  27.571  1.00  0.00     0.074 A 
ATOM     58  C   UNL A   1      41.051  32.179  30.830  1.00  0.00     0.029 A 
ATOM     59  N   UNL A   1      42.284  30.781  29.620  1.00  0.00    -0.354 N 
ATOM     60  N   UNL A   1      44.717  29.875  28.263  1.00  0.00    -0.248 NA
ATOM     61  C   UNL A   1      46.890  30.284  27.512  1.00  0.00     0.031 C 
ATOM     62  C   UNL A   1      42.318  32.745  30.655  1.00  0.00     0.029 A 
ATOM     63  C   UNL A   1      43.093  31.866  29.914  1.00  0.00     0.049 A 
ATOM     64  H   UNL A   1      42.562  29.994  29.097  1.00  0.00     0.167 HD
ATOM     65  C   UNL A   1      45.143  31.106  28.751  1.00  0.00     0.074 A 
ATOM     66  C   UNL A   1      46.507  31.283  28.296  1.00  0.00     0.031 C 
ATOM     67  C   UNL A   1      44.462  32.012  29.495  1.00  0.00     0.034 A 
BRANCH  54  68
ATOM     68  C   UNL A   1      38.599  30.426  30.639  1.00  0.00     0.023 A 
ATOM     69  C   UNL A   1      38.247  29.943  31.916  1.00  0.00     0.012 A 
ATOM     70  C   UNL A   1      37.729  31.307  29.969  1.00  0.00     0.148 A 
ATOM     71  C   UNL A   1      37.034  30.303  32.502  1.00  0.00     0.002 A 
ATOM     72  C   UNL A   1      36.543  31.698  30.580  1.00  0.00     0.091 A 
ATOM     73  F   UNL A   1      38.070  31.739  28.747  1.00  0.00    -0.205 F 
ATOM     74  C   UNL A   1      36.187  31.187  31.840  1.00  0.00     0.022 A 
BRANCH  72  75
ATOM     75  S   UNL A   1      35.422  32.896  29.848  1.00  0.00     0.127 S 
ATOM     76  O   UNL A   1      36.304  34.047  29.657  1.00  0.00    -0.237 OA
ATOM     77  O   UNL A   1      35.020  32.225  28.611  1.00  0.00    -0.237 OA
ATOM     78  O   UNL A   1      34.349  33.086  30.814  1.00  0.00    -0.744 OA
ENDBRANCH  72  75
ENDBRANCH  54  68
BRANCH  55  79
ATOM     79  C   UNL A   1      47.100  27.685  26.170  1.00  0.00     0.023 A 
ATOM     80  C   UNL A   1      48.159  27.120  26.906  1.00  0.00     0.012 A 
ATOM     81  C   UNL A   1      47.243  27.857  24.780  1.00  0.00     0.148 A 
ATOM     82  C   UNL A   1      49.353  26.765  26.276  1.00  0.00     0.002 A 
ATOM     83  C   UNL A   1      48.414  27.448  24.150  1.00  0.00     0.091 A 
ATOM     84  F   UNL A   1      46.228  28.407  24.099  1.00  0.00    -0.205 F 
ATOM     85  C   UNL A   1      49.475  26.919  24.898  1.00  0.00     0.022 A 
BRANCH  83  86
ATOM     86  S   UNL A   1      48.611  27.489  22.365  1.00  0.00     0.127 S 
ATOM     87  O   UNL A   1      49.886  28.186  22.220  1.00  0.00    -0.237 OA
ATOM     88  O   UNL A   1      48.647  26.064  22.033  1.00  0.00    -0.237 OA
ATOM     89  O   UNL A   1      47.442  28.194  21.856  1.00  0.00    -0.744 OA
ENDBRANCH  83  86
ENDBRANCH  55  79
BRANCH  67  90
ATOM     90  C   UNL A   1      45.188  33.270  29.896  1.00  0.00     0.023 A 
ATOM     91  C   UNL A   1      45.970  33.287  31.069  1.00  0.00     0.012 A 
ATOM     92  C   UNL A   1      45.145  34.418  29.079  1.00  0.00     0.148 A 
ATOM     93  C   UNL A   1      46.665  34.436  31.441  1.00  0.00     0.002 A 
ATOM     94  C   UNL A   1      45.883  35.542  29.429  1.00  0.00     0.091 A 
ATOM     95  F   UNL A   1      44.381  34.390  27.977  1.00  0.00    -0.205 F 
ATOM     96  C   UNL A   1      46.632  35.558  30.617  1.00  0.00     0.022 A 
BRANCH  94  97
ATOM     97  S   UNL A   1      45.977  36.996  28.379  1.00  0.00     0.127 S 
ATOM     98  O   UNL A   1      46.735  36.490  27.236  1.00  0.00    -0.237 OA
ATOM     99  O   UNL A   1      44.567  37.271  28.102  1.00  0.00    -0.237 OA
ATOM    100  O   UNL A   1      46.646  38.020  29.170  1.00  0.00    -0.744 OA
ENDBRANCH  94  97
ENDBRANCH  67  90
ENDBRANCH  41  42
ENDBRANCH  33  36
ENDBRANCH  31  32
ENDBRANCH  30  31
ENDBRANCH   1  30
TORSDOF 19
ENDMDL
