MODEL 1
REMARK VINA RESULT:     -13.6      0.000      0.000
REMARK SMILES COc1ccc(-c2c(C(=O)NCCCCNC(=O)c3ccc(-c4c5nc(c(-c6cccc(S(=O)(=O)[O-])c6F)c6ccc([nH]6)c(-c6cccc(S(=O)(=O)[O-])c6F)c6nc(c(-c7cccc(S(=O)(=O)[O-])c7F)c7ccc4[nH]7)C=C6)C=C5)cc3)sc3c2N=C(O)C[C@H]3c2ccc(OC)c(OC)c2)cc1
REMARK SMILES IDX 14 1 13 2 12 3 11 4 9 5 10 6 8 8 7 9 84 10 82 11 83 12 85 13
REMARK SMILES IDX 89 14 86 15 88 16 6 17 3 18 4 19 101 20 5 21 100 22 2 23
REMARK SMILES IDX 1 24 90 25 91 26 99 27 92 28 96 29 93 30 97 31 98 32 94 33
REMARK SMILES IDX 95 34 87 35 15 37 16 38 17 39 18 41 19 42 20 43 81 44 21 45
REMARK SMILES IDX 80 46 22 47 23 48 24 49 74 50 25 51 79 52 73 53 75 54 26 55
REMARK SMILES IDX 78 56 72 57 71 58 27 60 59 61 39 62 58 63 40 64 43 65 57 66
REMARK SMILES IDX 76 67 41 68 42 69 56 71 77 72 44 73 28 74 29 75 37 76 30 77
REMARK SMILES IDX 32 78 38 79 31 80 33 81 34 82 35 83 36 84 60 85 61 86 69 87
REMARK SMILES IDX 62 88 64 89 70 90 63 91 65 92 66 93 67 94 68 95 45 96 46 97
REMARK SMILES IDX 54 98 47 99 49 100 55 101 48 102 50 103 51 104 52 105 53 106
REMARK H PARENT 11 7 87 36 16 40 75 59 43 70
REMARK Flexibility Score: inf
ROOT
ATOM      1  C   UNL A   1      33.314  28.662  25.788  1.00  0.00     0.023 C 
ENDROOT
BRANCH   1   2
ATOM      2  C   UNL A   1      34.116  28.259  24.551  1.00  0.00     0.023 C 
BRANCH   2   3
ATOM      3  C   UNL A   1      33.719  28.858  23.204  1.00  0.00     0.116 C 
BRANCH   3   4
ATOM      4  N   UNL A   1      33.675  27.972  22.077  1.00  0.00    -0.351 N 
ATOM      5  C   UNL A   1      33.256  26.657  21.974  1.00  0.00     0.262 C 
ATOM      6  O   UNL A   1      33.469  26.186  20.849  1.00  0.00    -0.268 OA
ATOM      7  H   UNL A   1      33.998  28.366  21.234  1.00  0.00     0.163 HD
BRANCH   5   8
ATOM      8  C   UNL A   1      32.703  25.829  23.073  1.00  0.00     0.102 A 
ATOM      9  C   UNL A   1      31.514  25.709  23.810  1.00  0.00     0.031 A 
ATOM     10  C   UNL A   1      31.609  24.695  24.823  1.00  0.00     0.090 A 
ATOM     11  S   UNL A   1      33.847  24.618  23.652  1.00  0.00    -0.131 S 
ATOM     12  C   UNL A   1      32.808  24.053  24.857  1.00  0.00     0.040 A 
ATOM     13  N   UNL A   1      30.566  24.429  25.724  1.00  0.00    -0.216 NA
ATOM     14  C   UNL A   1      33.187  23.019  25.860  1.00  0.00     0.071 C 
ATOM     15  C   UNL A   1      30.870  23.655  26.709  1.00  0.00     0.186 C 
ATOM     16  C   UNL A   1      32.210  23.050  27.046  1.00  0.00     0.111 C 
BRANCH   9  17
ATOM     17  C   UNL A   1      30.349  26.577  23.734  1.00  0.00    -0.014 A 
ATOM     18  C   UNL A   1      28.210  28.341  23.359  1.00  0.00     0.118 A 
ATOM     19  C   UNL A   1      27.979  27.002  23.701  1.00  0.00     0.047 A 
ATOM     20  C   UNL A   1      29.515  28.822  23.309  1.00  0.00     0.047 A 
ATOM     21  C   UNL A   1      29.044  26.110  23.878  1.00  0.00     0.012 A 
ATOM     22  C   UNL A   1      30.577  27.948  23.517  1.00  0.00     0.012 A 
BRANCH  18  23
ATOM     23  O   UNL A   1      27.098  29.096  23.103  1.00  0.00    -0.497 OA
ATOM     24  C   UNL A   1      27.342  30.463  22.777  1.00  0.00     0.278 C 
ENDBRANCH  18  23
ENDBRANCH   9  17
BRANCH  14  25
ATOM     25  C   UNL A   1      33.313  21.613  25.295  1.00  0.00    -0.035 A 
ATOM     26  C   UNL A   1      32.207  20.883  24.856  1.00  0.00     0.008 A 
ATOM     27  C   UNL A   1      34.583  21.007  25.252  1.00  0.00     0.054 A 
ATOM     28  C   UNL A   1      32.373  19.576  24.398  1.00  0.00     0.051 A 
ATOM     29  C   UNL A   1      34.762  19.691  24.795  1.00  0.00     0.161 A 
ATOM     30  C   UNL A   1      33.638  18.969  24.364  1.00  0.00     0.160 A 
BRANCH  29  31
ATOM     31  O   UNL A   1      35.982  19.065  24.802  1.00  0.00    -0.493 OA
ATOM     32  C   UNL A   1      37.145  19.875  24.908  1.00  0.00     0.278 C 
ENDBRANCH  29  31
BRANCH  30  33
ATOM     33  O   UNL A   1      33.589  17.670  23.929  1.00  0.00    -0.493 OA
ATOM     34  C   UNL A   1      33.361  16.658  24.898  1.00  0.00     0.278 C 
ENDBRANCH  30  33
ENDBRANCH  14  25
BRANCH  15  35
ATOM     35  O   UNL A   1      29.915  23.402  27.629  1.00  0.00    -0.496 OA
ATOM     36  H   UNL A   1      29.976  23.779  28.485  1.00  0.00     0.294 HD
ENDBRANCH  15  35
ENDBRANCH   5   8
ENDBRANCH   3   4
ENDBRANCH   2   3
ENDBRANCH   1   2
BRANCH   1  37
ATOM     37  C   UNL A   1      34.119  29.269  26.931  1.00  0.00     0.116 C 
BRANCH  37  38
ATOM     38  N   UNL A   1      34.144  30.733  26.945  1.00  0.00    -0.352 N 
ATOM     39  C   UNL A   1      34.912  31.547  27.772  1.00  0.00     0.251 C 
ATOM     40  H   UNL A   1      33.556  31.189  26.300  1.00  0.00     0.163 HD
ATOM     41  O   UNL A   1      34.623  32.711  27.967  1.00  0.00    -0.269 OA
BRANCH  39  42
ATOM     42  C   UNL A   1      36.080  30.931  28.435  1.00  0.00     0.039 A 
ATOM     43  C   UNL A   1      36.247  29.543  28.470  1.00  0.00     0.014 A 
ATOM     44  C   UNL A   1      37.076  31.784  28.891  1.00  0.00     0.014 A 
ATOM     45  C   UNL A   1      37.489  29.022  28.837  1.00  0.00     0.010 A 
ATOM     46  C   UNL A   1      38.333  31.280  29.114  1.00  0.00     0.010 A 
ATOM     47  C   UNL A   1      38.545  29.899  29.115  1.00  0.00    -0.014 A 
BRANCH  47  48
ATOM     48  C   UNL A   1      39.917  29.414  29.279  1.00  0.00     0.031 A 
ATOM     49  C   UNL A   1      40.410  29.230  30.680  1.00  0.00     0.074 A 
ATOM     50  C   UNL A   1      40.584  28.839  28.255  1.00  0.00     0.049 A 
ATOM     51  N   UNL A   1      41.463  29.746  31.227  1.00  0.00    -0.248 NA
ATOM     52  C   UNL A   1      39.610  28.411  31.603  1.00  0.00     0.031 C 
ATOM     53  C   UNL A   1      40.101  28.602  26.887  1.00  0.00     0.029 A 
ATOM     54  N   UNL A   1      41.757  28.150  28.286  1.00  0.00    -0.354 N 
ATOM     55  C   UNL A   1      41.564  29.182  32.502  1.00  0.00     0.074 A 
ATOM     56  C   UNL A   1      40.324  28.486  32.729  1.00  0.00     0.031 C 
ATOM     57  C   UNL A   1      40.803  27.587  26.341  1.00  0.00     0.029 A 
ATOM     58  C   UNL A   1      41.896  27.255  27.232  1.00  0.00     0.049 A 
ATOM     59  H   UNL A   1      42.438  28.273  28.986  1.00  0.00     0.167 HD
ATOM     60  C   UNL A   1      42.734  29.177  33.206  1.00  0.00     0.034 A 
ATOM     61  C   UNL A   1      42.814  26.271  27.121  1.00  0.00     0.034 A 
ATOM     62  C   UNL A   1      43.727  30.012  32.585  1.00  0.00     0.049 A 
ATOM     63  C   UNL A   1      43.933  26.609  28.028  1.00  0.00     0.074 A 
ATOM     64  C   UNL A   1      43.843  31.351  32.279  1.00  0.00     0.029 A 
ATOM     65  N   UNL A   1      44.707  29.371  31.866  1.00  0.00    -0.354 N 
ATOM     66  N   UNL A   1      44.700  27.653  27.866  1.00  0.00    -0.248 NA
ATOM     67  C   UNL A   1      43.964  26.012  29.353  1.00  0.00     0.031 C 
ATOM     68  C   UNL A   1      44.556  31.380  31.044  1.00  0.00     0.029 A 
ATOM     69  C   UNL A   1      44.859  30.060  30.695  1.00  0.00     0.049 A 
ATOM     70  H   UNL A   1      45.205  28.568  32.142  1.00  0.00     0.167 HD
ATOM     71  C   UNL A   1      44.950  28.104  29.155  1.00  0.00     0.074 A 
ATOM     72  C   UNL A   1      44.600  26.980  30.019  1.00  0.00     0.031 C 
ATOM     73  C   UNL A   1      45.128  29.435  29.417  1.00  0.00     0.034 A 
BRANCH  60  74
ATOM     74  C   UNL A   1      43.144  28.203  34.290  1.00  0.00     0.023 A 
ATOM     75  C   UNL A   1      43.527  28.749  35.541  1.00  0.00     0.012 A 
ATOM     76  C   UNL A   1      43.430  26.839  34.081  1.00  0.00     0.148 A 
ATOM     77  C   UNL A   1      44.212  27.998  36.502  1.00  0.00     0.002 A 
ATOM     78  C   UNL A   1      44.040  26.073  35.074  1.00  0.00     0.091 A 
ATOM     79  F   UNL A   1      43.243  26.294  32.874  1.00  0.00    -0.205 F 
ATOM     80  C   UNL A   1      44.462  26.654  36.272  1.00  0.00     0.022 A 
BRANCH  78  81
ATOM     81  S   UNL A   1      44.317  24.313  34.846  1.00  0.00     0.127 S 
ATOM     82  O   UNL A   1      44.895  23.936  36.132  1.00  0.00    -0.237 OA
ATOM     83  O   UNL A   1      42.961  23.814  34.606  1.00  0.00    -0.237 OA
ATOM     84  O   UNL A   1      45.195  24.222  33.685  1.00  0.00    -0.744 OA
ENDBRANCH  78  81
ENDBRANCH  60  74
BRANCH  61  85
ATOM     85  C   UNL A   1      42.703  24.983  26.410  1.00  0.00     0.023 A 
ATOM     86  C   UNL A   1      43.676  24.614  25.464  1.00  0.00     0.012 A 
ATOM     87  C   UNL A   1      41.761  24.010  26.816  1.00  0.00     0.148 A 
ATOM     88  C   UNL A   1      43.718  23.314  24.947  1.00  0.00     0.002 A 
ATOM     89  C   UNL A   1      41.800  22.722  26.292  1.00  0.00     0.091 A 
ATOM     90  F   UNL A   1      40.882  24.327  27.779  1.00  0.00    -0.205 F 
ATOM     91  C   UNL A   1      42.784  22.368  25.362  1.00  0.00     0.022 A 
BRANCH  89  92
ATOM     92  S   UNL A   1      40.628  21.453  26.792  1.00  0.00     0.127 S 
ATOM     93  O   UNL A   1      39.348  22.054  26.412  1.00  0.00    -0.237 OA
ATOM     94  O   UNL A   1      41.043  20.323  25.966  1.00  0.00    -0.237 OA
ATOM     95  O   UNL A   1      40.814  21.300  28.229  1.00  0.00    -0.744 OA
ENDBRANCH  89  92
ENDBRANCH  61  85
BRANCH  73  96
ATOM     96  C   UNL A   1      45.288  30.385  28.254  1.00  0.00     0.023 A 
ATOM     97  C   UNL A   1      44.170  30.944  27.599  1.00  0.00     0.012 A 
ATOM     98  C   UNL A   1      46.563  30.907  27.976  1.00  0.00     0.148 A 
ATOM     99  C   UNL A   1      44.316  31.987  26.684  1.00  0.00     0.002 A 
ATOM    100  C   UNL A   1      46.700  31.979  27.100  1.00  0.00     0.091 A 
ATOM    101  F   UNL A   1      47.619  30.375  28.611  1.00  0.00    -0.205 F 
ATOM    102  C   UNL A   1      45.580  32.516  26.446  1.00  0.00     0.022 A 
BRANCH 100 103
ATOM    103  S   UNL A   1      48.276  32.805  26.870  1.00  0.00     0.127 S 
ATOM    104  O   UNL A   1      47.943  33.834  25.886  1.00  0.00    -0.237 OA
ATOM    105  O   UNL A   1      48.569  33.314  28.211  1.00  0.00    -0.237 OA
ATOM    106  O   UNL A   1      49.203  31.775  26.414  1.00  0.00    -0.744 OA
ENDBRANCH 100 103
ENDBRANCH  73  96
ENDBRANCH  47  48
ENDBRANCH  39  42
ENDBRANCH  37  38
ENDBRANCH   1  37
TORSDOF 20
ENDMDL
MODEL 2
REMARK VINA RESULT:     -12.1      2.217      7.060
REMARK SMILES COc1ccc(-c2c(C(=O)NCCCCNC(=O)c3ccc(-c4c5nc(c(-c6cccc(S(=O)(=O)[O-])c6F)c6ccc([nH]6)c(-c6cccc(S(=O)(=O)[O-])c6F)c6nc(c(-c7cccc(S(=O)(=O)[O-])c7F)c7ccc4[nH]7)C=C6)C=C5)cc3)sc3c2N=C(O)C[C@H]3c2ccc(OC)c(OC)c2)cc1
REMARK SMILES IDX 14 1 13 2 12 3 11 4 9 5 10 6 8 8 7 9 84 10 82 11 83 12 85 13
REMARK SMILES IDX 89 14 86 15 88 16 6 17 3 18 4 19 101 20 5 21 100 22 2 23
REMARK SMILES IDX 1 24 90 25 91 26 99 27 92 28 96 29 93 30 97 31 98 32 94 33
REMARK SMILES IDX 95 34 87 35 15 37 16 38 17 39 18 41 19 42 20 43 81 44 21 45
REMARK SMILES IDX 80 46 22 47 23 48 24 49 74 50 25 51 79 52 73 53 75 54 26 55
REMARK SMILES IDX 78 56 72 57 71 58 27 60 59 61 39 62 58 63 40 64 43 65 57 66
REMARK SMILES IDX 76 67 41 68 42 69 56 71 77 72 44 73 28 74 29 75 37 76 30 77
REMARK SMILES IDX 32 78 38 79 31 80 33 81 34 82 35 83 36 84 60 85 61 86 69 87
REMARK SMILES IDX 62 88 64 89 70 90 63 91 65 92 66 93 67 94 68 95 45 96 46 97
REMARK SMILES IDX 54 98 47 99 49 100 55 101 48 102 50 103 51 104 52 105 53 106
REMARK H PARENT 11 7 87 36 16 40 75 59 43 70
REMARK Flexibility Score: inf
ROOT
ATOM      1  C   UNL A   1      33.395  29.095  26.605  1.00  0.00     0.023 C 
ENDROOT
BRANCH   1   2
ATOM      2  C   UNL A   1      33.311  29.094  25.079  1.00  0.00     0.023 C 
BRANCH   2   3
ATOM      3  C   UNL A   1      34.541  28.655  24.287  1.00  0.00     0.116 C 
BRANCH   3   4
ATOM      4  N   UNL A   1      34.317  28.004  23.029  1.00  0.00    -0.351 N 
ATOM      5  C   UNL A   1      33.713  26.796  22.730  1.00  0.00     0.262 C 
ATOM      6  O   UNL A   1      33.800  26.516  21.527  1.00  0.00    -0.268 OA
ATOM      7  H   UNL A   1      34.648  28.501  22.246  1.00  0.00     0.163 HD
BRANCH   5   8
ATOM      8  C   UNL A   1      33.107  25.858  23.705  1.00  0.00     0.102 A 
ATOM      9  C   UNL A   1      31.847  25.574  24.256  1.00  0.00     0.031 A 
ATOM     10  C   UNL A   1      31.912  24.524  25.235  1.00  0.00     0.090 A 
ATOM     11  S   UNL A   1      34.287  24.748  24.404  1.00  0.00    -0.131 S 
ATOM     12  C   UNL A   1      33.159  24.013  25.422  1.00  0.00     0.040 A 
ATOM     13  N   UNL A   1      30.789  24.103  25.963  1.00  0.00    -0.216 NA
ATOM     14  C   UNL A   1      33.506  22.976  26.433  1.00  0.00     0.071 C 
ATOM     15  C   UNL A   1      31.035  23.316  26.954  1.00  0.00     0.186 C 
ATOM     16  C   UNL A   1      32.373  22.841  27.463  1.00  0.00     0.111 C 
BRANCH   9  17
ATOM     17  C   UNL A   1      30.614  26.314  24.040  1.00  0.00    -0.014 A 
ATOM     18  C   UNL A   1      28.340  27.807  23.386  1.00  0.00     0.118 A 
ATOM     19  C   UNL A   1      28.217  26.520  23.927  1.00  0.00     0.047 A 
ATOM     20  C   UNL A   1      29.600  28.387  23.270  1.00  0.00     0.047 A 
ATOM     21  C   UNL A   1      29.352  25.762  24.246  1.00  0.00     0.012 A 
ATOM     22  C   UNL A   1      30.728  27.651  23.617  1.00  0.00     0.012 A 
BRANCH  18  23
ATOM     23  O   UNL A   1      27.173  28.414  23.010  1.00  0.00    -0.497 OA
ATOM     24  C   UNL A   1      27.164  29.838  23.090  1.00  0.00     0.278 C 
ENDBRANCH  18  23
ENDBRANCH   9  17
BRANCH  14  25
ATOM     25  C   UNL A   1      33.870  21.622  25.842  1.00  0.00    -0.035 A 
ATOM     26  C   UNL A   1      35.194  21.226  25.646  1.00  0.00     0.008 A 
ATOM     27  C   UNL A   1      32.838  20.755  25.437  1.00  0.00     0.054 A 
ATOM     28  C   UNL A   1      35.471  19.996  25.049  1.00  0.00     0.051 A 
ATOM     29  C   UNL A   1      33.104  19.516  24.833  1.00  0.00     0.161 A 
ATOM     30  C   UNL A   1      34.442  19.136  24.637  1.00  0.00     0.160 A 
BRANCH  29  31
ATOM     31  O   UNL A   1      32.112  18.686  24.379  1.00  0.00    -0.493 OA
ATOM     32  C   UNL A   1      32.026  18.455  22.979  1.00  0.00     0.278 C 
ENDBRANCH  29  31
BRANCH  30  33
ATOM     33  O   UNL A   1      34.913  18.000  24.030  1.00  0.00    -0.493 OA
ATOM     34  C   UNL A   1      34.957  16.810  24.802  1.00  0.00     0.278 C 
ENDBRANCH  30  33
ENDBRANCH  14  25
BRANCH  15  35
ATOM     35  O   UNL A   1      29.994  22.915  27.715  1.00  0.00    -0.496 OA
ATOM     36  H   UNL A   1      29.695  23.453  28.422  1.00  0.00     0.294 HD
ENDBRANCH  15  35
ENDBRANCH   5   8
ENDBRANCH   3   4
ENDBRANCH   2   3
ENDBRANCH   1   2
BRANCH   1  37
ATOM     37  C   UNL A   1      34.794  29.239  27.191  1.00  0.00     0.116 C 
BRANCH  37  38
ATOM     38  N   UNL A   1      34.939  30.331  28.155  1.00  0.00    -0.352 N 
ATOM     39  C   UNL A   1      35.932  30.467  29.120  1.00  0.00     0.251 C 
ATOM     40  H   UNL A   1      34.262  31.046  28.115  1.00  0.00     0.163 HD
ATOM     41  O   UNL A   1      35.787  31.189  30.086  1.00  0.00    -0.269 OA
BRANCH  39  42
ATOM     42  C   UNL A   1      37.163  29.670  28.943  1.00  0.00     0.039 A 
ATOM     43  C   UNL A   1      38.016  29.884  27.856  1.00  0.00     0.014 A 
ATOM     44  C   UNL A   1      37.516  28.807  29.972  1.00  0.00     0.014 A 
ATOM     45  C   UNL A   1      39.296  29.327  27.884  1.00  0.00     0.010 A 
ATOM     46  C   UNL A   1      38.816  28.379  30.065  1.00  0.00     0.010 A 
ATOM     47  C   UNL A   1      39.709  28.612  29.015  1.00  0.00    -0.014 A 
BRANCH  47  48
ATOM     48  C   UNL A   1      41.104  28.206  29.195  1.00  0.00     0.031 A 
ATOM     49  C   UNL A   1      41.643  27.183  28.245  1.00  0.00     0.074 A 
ATOM     50  C   UNL A   1      41.958  28.943  29.937  1.00  0.00     0.049 A 
ATOM     51  N   UNL A   1      42.197  26.047  28.528  1.00  0.00    -0.248 NA
ATOM     52  C   UNL A   1      41.507  27.426  26.801  1.00  0.00     0.031 C 
ATOM     53  C   UNL A   1      41.678  30.199  30.648  1.00  0.00     0.029 A 
ATOM     54  N   UNL A   1      43.311  28.837  30.031  1.00  0.00    -0.354 N 
ATOM     55  C   UNL A   1      42.642  25.511  27.316  1.00  0.00     0.074 A 
ATOM     56  C   UNL A   1      42.063  26.329  26.282  1.00  0.00     0.031 C 
ATOM     57  C   UNL A   1      42.832  30.878  30.816  1.00  0.00     0.029 A 
ATOM     58  C   UNL A   1      43.929  30.020  30.416  1.00  0.00     0.049 A 
ATOM     59  H   UNL A   1      43.802  28.004  29.844  1.00  0.00     0.167 HD
ATOM     60  C   UNL A   1      43.602  24.542  27.258  1.00  0.00     0.034 A 
ATOM     61  C   UNL A   1      45.249  30.300  30.361  1.00  0.00     0.034 A 
ATOM     62  C   UNL A   1      43.892  24.007  28.561  1.00  0.00     0.049 A 
ATOM     63  C   UNL A   1      45.970  29.009  30.307  1.00  0.00     0.074 A 
ATOM     64  C   UNL A   1      43.183  23.334  29.534  1.00  0.00     0.029 A 
ATOM     65  N   UNL A   1      45.044  24.448  29.166  1.00  0.00    -0.354 N 
ATOM     66  N   UNL A   1      45.964  28.140  31.281  1.00  0.00    -0.248 NA
ATOM     67  C   UNL A   1      46.381  28.490  29.012  1.00  0.00     0.031 C 
ATOM     68  C   UNL A   1      43.710  23.820  30.767  1.00  0.00     0.029 A 
ATOM     69  C   UNL A   1      44.729  24.729  30.467  1.00  0.00     0.049 A 
ATOM     70  H   UNL A   1      45.928  24.543  28.743  1.00  0.00     0.167 HD
ATOM     71  C   UNL A   1      45.927  26.905  30.647  1.00  0.00     0.074 A 
ATOM     72  C   UNL A   1      46.333  27.180  29.271  1.00  0.00     0.031 C 
ATOM     73  C   UNL A   1      45.286  25.838  31.213  1.00  0.00     0.034 A 
BRANCH  60  74
ATOM     74  C   UNL A   1      44.536  24.250  26.102  1.00  0.00     0.023 A 
ATOM     75  C   UNL A   1      44.549  22.924  25.599  1.00  0.00     0.012 A 
ATOM     76  C   UNL A   1      45.572  25.102  25.668  1.00  0.00     0.148 A 
ATOM     77  C   UNL A   1      45.568  22.456  24.763  1.00  0.00     0.002 A 
ATOM     78  C   UNL A   1      46.540  24.654  24.770  1.00  0.00     0.091 A 
ATOM     79  F   UNL A   1      45.718  26.311  26.218  1.00  0.00    -0.205 F 
ATOM     80  C   UNL A   1      46.562  23.325  24.341  1.00  0.00     0.022 A 
BRANCH  78  81
ATOM     81  S   UNL A   1      47.804  25.765  24.141  1.00  0.00     0.127 S 
ATOM     82  O   UNL A   1      48.790  25.729  25.216  1.00  0.00    -0.237 OA
ATOM     83  O   UNL A   1      48.213  25.099  22.903  1.00  0.00    -0.237 OA
ATOM     84  O   UNL A   1      47.114  27.032  23.931  1.00  0.00    -0.744 OA
ENDBRANCH  78  81
ENDBRANCH  60  74
BRANCH  61  85
ATOM     85  C   UNL A   1      45.908  31.608  30.182  1.00  0.00     0.023 A 
ATOM     86  C   UNL A   1      46.732  32.126  31.196  1.00  0.00     0.012 A 
ATOM     87  C   UNL A   1      45.907  32.253  28.924  1.00  0.00     0.148 A 
ATOM     88  C   UNL A   1      47.541  33.245  30.963  1.00  0.00     0.002 A 
ATOM     89  C   UNL A   1      46.704  33.371  28.700  1.00  0.00     0.091 A 
ATOM     90  F   UNL A   1      45.189  31.717  27.925  1.00  0.00    -0.205 F 
ATOM     91  C   UNL A   1      47.530  33.865  29.716  1.00  0.00     0.022 A 
BRANCH  89  92
ATOM     92  S   UNL A   1      46.742  34.212  27.111  1.00  0.00     0.127 S 
ATOM     93  O   UNL A   1      45.351  34.648  26.964  1.00  0.00    -0.237 OA
ATOM     94  O   UNL A   1      47.697  35.287  27.365  1.00  0.00    -0.237 OA
ATOM     95  O   UNL A   1      47.156  33.201  26.147  1.00  0.00    -0.744 OA
ENDBRANCH  89  92
ENDBRANCH  61  85
BRANCH  73  96
ATOM     96  C   UNL A   1      44.824  25.949  32.647  1.00  0.00     0.023 A 
ATOM     97  C   UNL A   1      43.622  26.607  32.984  1.00  0.00     0.012 A 
ATOM     98  C   UNL A   1      45.472  25.182  33.629  1.00  0.00     0.148 A 
ATOM     99  C   UNL A   1      43.084  26.513  34.269  1.00  0.00     0.002 A 
ATOM    100  C   UNL A   1      44.908  25.051  34.894  1.00  0.00     0.091 A 
ATOM    101  F   UNL A   1      46.609  24.553  33.296  1.00  0.00    -0.205 F 
ATOM    102  C   UNL A   1      43.718  25.722  35.220  1.00  0.00     0.022 A 
BRANCH 100 103
ATOM    103  S   UNL A   1      45.591  23.924  36.113  1.00  0.00     0.127 S 
ATOM    104  O   UNL A   1      44.720  24.153  37.264  1.00  0.00    -0.237 OA
ATOM    105  O   UNL A   1      45.424  22.619  35.470  1.00  0.00    -0.237 OA
ATOM    106  O   UNL A   1      46.983  24.322  36.287  1.00  0.00    -0.744 OA
ENDBRANCH 100 103
ENDBRANCH  73  96
ENDBRANCH  47  48
ENDBRANCH  39  42
ENDBRANCH  37  38
ENDBRANCH   1  37
TORSDOF 20
ENDMDL
MODEL 3
REMARK VINA RESULT:     -11.3      5.761     11.289
REMARK SMILES COc1ccc(-c2c(C(=O)NCCCCNC(=O)c3ccc(-c4c5nc(c(-c6cccc(S(=O)(=O)[O-])c6F)c6ccc([nH]6)c(-c6cccc(S(=O)(=O)[O-])c6F)c6nc(c(-c7cccc(S(=O)(=O)[O-])c7F)c7ccc4[nH]7)C=C6)C=C5)cc3)sc3c2N=C(O)C[C@H]3c2ccc(OC)c(OC)c2)cc1
REMARK SMILES IDX 14 1 13 2 12 3 11 4 9 5 10 6 8 8 7 9 84 10 82 11 83 12 85 13
REMARK SMILES IDX 89 14 86 15 88 16 6 17 3 18 4 19 101 20 5 21 100 22 2 23
REMARK SMILES IDX 1 24 90 25 91 26 99 27 92 28 96 29 93 30 97 31 98 32 94 33
REMARK SMILES IDX 95 34 87 35 15 37 16 38 17 39 18 41 19 42 20 43 81 44 21 45
REMARK SMILES IDX 80 46 22 47 23 48 24 49 74 50 25 51 79 52 73 53 75 54 26 55
REMARK SMILES IDX 78 56 72 57 71 58 27 60 59 61 39 62 58 63 40 64 43 65 57 66
REMARK SMILES IDX 76 67 41 68 42 69 56 71 77 72 44 73 28 74 29 75 37 76 30 77
REMARK SMILES IDX 32 78 38 79 31 80 33 81 34 82 35 83 36 84 60 85 61 86 69 87
REMARK SMILES IDX 62 88 64 89 70 90 63 91 65 92 66 93 67 94 68 95 45 96 46 97
REMARK SMILES IDX 54 98 47 99 49 100 55 101 48 102 50 103 51 104 52 105 53 106
REMARK H PARENT 11 7 87 36 16 40 75 59 43 70
REMARK Flexibility Score: inf
ROOT
ATOM      1  C   UNL A   1      41.806  36.367  27.609  1.00  0.00     0.023 C 
ENDROOT
BRANCH   1   2
ATOM      2  C   UNL A   1      41.110  35.202  28.312  1.00  0.00     0.023 C 
BRANCH   2   3
ATOM      3  C   UNL A   1      41.056  35.206  29.837  1.00  0.00     0.116 C 
BRANCH   3   4
ATOM      4  N   UNL A   1      42.134  34.568  30.536  1.00  0.00    -0.351 N 
ATOM      5  C   UNL A   1      42.158  33.424  31.314  1.00  0.00     0.262 C 
ATOM      6  O   UNL A   1      43.262  33.243  31.844  1.00  0.00    -0.268 OA
ATOM      7  H   UNL A   1      43.005  35.020  30.446  1.00  0.00     0.163 HD
BRANCH   5   8
ATOM      8  C   UNL A   1      41.004  32.538  31.597  1.00  0.00     0.102 A 
ATOM      9  C   UNL A   1      40.457  31.827  32.678  1.00  0.00     0.031 A 
ATOM     10  C   UNL A   1      39.292  31.079  32.295  1.00  0.00     0.090 A 
ATOM     11  S   UNL A   1      39.986  32.275  30.181  1.00  0.00    -0.131 S 
ATOM     12  C   UNL A   1      38.947  31.215  30.986  1.00  0.00     0.040 A 
ATOM     13  N   UNL A   1      38.604  30.245  33.190  1.00  0.00    -0.216 NA
ATOM     14  C   UNL A   1      37.830  30.486  30.324  1.00  0.00     0.071 C 
ATOM     15  C   UNL A   1      37.720  29.471  32.659  1.00  0.00     0.186 C 
ATOM     16  C   UNL A   1      37.375  29.307  31.200  1.00  0.00     0.111 C 
BRANCH   9  17
ATOM     17  C   UNL A   1      41.032  31.679  34.005  1.00  0.00    -0.014 A 
ATOM     18  C   UNL A   1      41.892  31.426  36.656  1.00  0.00     0.118 A 
ATOM     19  C   UNL A   1      42.317  30.517  35.678  1.00  0.00     0.047 A 
ATOM     20  C   UNL A   1      41.119  32.523  36.285  1.00  0.00     0.047 A 
ATOM     21  C   UNL A   1      41.882  30.630  34.351  1.00  0.00     0.012 A 
ATOM     22  C   UNL A   1      40.711  32.659  34.962  1.00  0.00     0.012 A 
BRANCH  18  23
ATOM     23  O   UNL A   1      42.288  31.158  37.937  1.00  0.00    -0.497 OA
ATOM     24  C   UNL A   1      42.339  32.282  38.815  1.00  0.00     0.278 C 
ENDBRANCH  18  23
ENDBRANCH   9  17
BRANCH  14  25
ATOM     25  C   UNL A   1      36.650  31.364  29.936  1.00  0.00    -0.035 A 
ATOM     26  C   UNL A   1      36.343  31.654  28.605  1.00  0.00     0.008 A 
ATOM     27  C   UNL A   1      35.866  31.942  30.952  1.00  0.00     0.054 A 
ATOM     28  C   UNL A   1      35.283  32.511  28.307  1.00  0.00     0.051 A 
ATOM     29  C   UNL A   1      34.799  32.807  30.665  1.00  0.00     0.161 A 
ATOM     30  C   UNL A   1      34.508  33.094  29.321  1.00  0.00     0.160 A 
BRANCH  29  31
ATOM     31  O   UNL A   1      34.063  33.425  31.643  1.00  0.00    -0.493 OA
ATOM     32  C   UNL A   1      34.364  33.116  32.997  1.00  0.00     0.278 C 
ENDBRANCH  29  31
BRANCH  30  33
ATOM     33  O   UNL A   1      33.547  33.941  28.831  1.00  0.00    -0.493 OA
ATOM     34  C   UNL A   1      32.800  33.509  27.704  1.00  0.00     0.278 C 
ENDBRANCH  30  33
ENDBRANCH  14  25
BRANCH  15  35
ATOM     35  O   UNL A   1      37.060  28.618  33.470  1.00  0.00    -0.496 OA
ATOM     36  H   UNL A   1      36.200  28.831  33.775  1.00  0.00     0.294 HD
ENDBRANCH  15  35
ENDBRANCH   5   8
ENDBRANCH   3   4
ENDBRANCH   2   3
ENDBRANCH   1   2
BRANCH   1  37
ATOM     37  C   UNL A   1      43.191  36.725  28.133  1.00  0.00     0.116 C 
BRANCH  37  38
ATOM     38  N   UNL A   1      44.232  36.782  27.105  1.00  0.00    -0.352 N 
ATOM     39  C   UNL A   1      45.142  35.779  26.781  1.00  0.00     0.251 C 
ATOM     40  H   UNL A   1      44.295  37.618  26.589  1.00  0.00     0.163 HD
ATOM     41  O   UNL A   1      46.172  36.022  26.186  1.00  0.00    -0.269 OA
BRANCH  39  42
ATOM     42  C   UNL A   1      44.821  34.405  27.221  1.00  0.00     0.039 A 
ATOM     43  C   UNL A   1      44.183  33.500  26.367  1.00  0.00     0.014 A 
ATOM     44  C   UNL A   1      45.309  34.002  28.456  1.00  0.00     0.014 A 
ATOM     45  C   UNL A   1      44.166  32.147  26.710  1.00  0.00     0.010 A 
ATOM     46  C   UNL A   1      45.417  32.661  28.724  1.00  0.00     0.010 A 
ATOM     47  C   UNL A   1      44.827  31.725  27.871  1.00  0.00    -0.014 A 
BRANCH  47  48
ATOM     48  C   UNL A   1      45.037  30.305  28.156  1.00  0.00     0.031 A 
ATOM     49  C   UNL A   1      46.216  29.648  27.510  1.00  0.00     0.074 A 
ATOM     50  C   UNL A   1      44.424  29.701  29.197  1.00  0.00     0.049 A 
ATOM     51  N   UNL A   1      46.228  28.595  26.758  1.00  0.00    -0.248 NA
ATOM     52  C   UNL A   1      47.541  30.265  27.678  1.00  0.00     0.031 C 
ATOM     53  C   UNL A   1      43.504  30.305  30.172  1.00  0.00     0.029 A 
ATOM     54  N   UNL A   1      44.667  28.473  29.730  1.00  0.00    -0.354 N 
ATOM     55  C   UNL A   1      47.571  28.305  26.503  1.00  0.00     0.074 A 
ATOM     56  C   UNL A   1      48.320  29.444  26.970  1.00  0.00     0.031 C 
ATOM     57  C   UNL A   1      43.523  29.575  31.307  1.00  0.00     0.029 A 
ATOM     58  C   UNL A   1      44.282  28.366  31.061  1.00  0.00     0.049 A 
ATOM     59  H   UNL A   1      45.075  27.735  29.222  1.00  0.00     0.167 HD
ATOM     60  C   UNL A   1      47.985  27.071  26.091  1.00  0.00     0.034 A 
ATOM     61  C   UNL A   1      44.609  27.378  31.921  1.00  0.00     0.034 A 
ATOM     62  C   UNL A   1      46.871  26.232  25.736  1.00  0.00     0.049 A 
ATOM     63  C   UNL A   1      45.005  26.204  31.112  1.00  0.00     0.074 A 
ATOM     64  C   UNL A   1      45.859  26.275  24.802  1.00  0.00     0.029 A 
ATOM     65  N   UNL A   1      46.500  25.280  26.655  1.00  0.00    -0.354 N 
ATOM     66  N   UNL A   1      44.183  25.559  30.329  1.00  0.00    -0.248 NA
ATOM     67  C   UNL A   1      46.418  25.974  30.858  1.00  0.00     0.031 C 
ATOM     68  C   UNL A   1      44.731  25.706  25.463  1.00  0.00     0.029 A 
ATOM     69  C   UNL A   1      45.136  25.320  26.744  1.00  0.00     0.049 A 
ATOM     70  H   UNL A   1      47.103  24.682  27.154  1.00  0.00     0.167 HD
ATOM     71  C   UNL A   1      44.952  25.214  29.226  1.00  0.00     0.074 A 
ATOM     72  C   UNL A   1      46.335  25.363  29.673  1.00  0.00     0.031 C 
ATOM     73  C   UNL A   1      44.401  25.134  27.977  1.00  0.00     0.034 A 
BRANCH  60  74
ATOM     74  C   UNL A   1      49.356  26.457  26.277  1.00  0.00     0.023 A 
ATOM     75  C   UNL A   1      49.584  25.731  27.473  1.00  0.00     0.012 A 
ATOM     76  C   UNL A   1      50.490  26.769  25.499  1.00  0.00     0.148 A 
ATOM     77  C   UNL A   1      50.871  25.389  27.902  1.00  0.00     0.002 A 
ATOM     78  C   UNL A   1      51.763  26.355  25.890  1.00  0.00     0.091 A 
ATOM     79  F   UNL A   1      50.375  27.583  24.446  1.00  0.00    -0.205 F 
ATOM     80  C   UNL A   1      51.964  25.695  27.105  1.00  0.00     0.022 A 
BRANCH  78  81
ATOM     81  S   UNL A   1      53.197  26.667  24.853  1.00  0.00     0.127 S 
ATOM     82  O   UNL A   1      54.202  25.810  25.474  1.00  0.00    -0.237 OA
ATOM     83  O   UNL A   1      52.730  26.221  23.538  1.00  0.00    -0.237 OA
ATOM     84  O   UNL A   1      53.418  28.105  24.946  1.00  0.00    -0.744 OA
ENDBRANCH  78  81
ENDBRANCH  60  74
BRANCH  61  85
ATOM     85  C   UNL A   1      44.760  27.444  33.388  1.00  0.00     0.023 A 
ATOM     86  C   UNL A   1      45.756  28.255  33.958  1.00  0.00     0.012 A 
ATOM     87  C   UNL A   1      43.783  26.882  34.242  1.00  0.00     0.148 A 
ATOM     88  C   UNL A   1      45.773  28.511  35.334  1.00  0.00     0.002 A 
ATOM     89  C   UNL A   1      43.810  27.130  35.610  1.00  0.00     0.091 A 
ATOM     90  F   UNL A   1      42.780  26.175  33.698  1.00  0.00    -0.205 F 
ATOM     91  C   UNL A   1      44.800  27.952  36.160  1.00  0.00     0.022 A 
BRANCH  89  92
ATOM     92  S   UNL A   1      42.580  26.444  36.728  1.00  0.00     0.127 S 
ATOM     93  O   UNL A   1      43.138  26.781  38.039  1.00  0.00    -0.237 OA
ATOM     94  O   UNL A   1      41.387  27.200  36.359  1.00  0.00    -0.237 OA
ATOM     95  O   UNL A   1      42.549  25.016  36.441  1.00  0.00    -0.744 OA
ENDBRANCH  89  92
ENDBRANCH  61  85
BRANCH  73  96
ATOM     96  C   UNL A   1      42.897  25.189  27.846  1.00  0.00     0.023 A 
ATOM     97  C   UNL A   1      42.099  24.040  28.033  1.00  0.00     0.012 A 
ATOM     98  C   UNL A   1      42.267  26.443  27.775  1.00  0.00     0.148 A 
ATOM     99  C   UNL A   1      40.710  24.134  28.137  1.00  0.00     0.002 A 
ATOM    100  C   UNL A   1      40.888  26.539  27.928  1.00  0.00     0.091 A 
ATOM    101  F   UNL A   1      43.036  27.530  27.606  1.00  0.00    -0.205 F 
ATOM    102  C   UNL A   1      40.105  25.386  28.101  1.00  0.00     0.022 A 
BRANCH 100 103
ATOM    103  S   UNL A   1      40.067  28.131  28.047  1.00  0.00     0.127 S 
ATOM    104  O   UNL A   1      40.701  28.716  29.226  1.00  0.00    -0.237 OA
ATOM    105  O   UNL A   1      40.425  28.770  26.779  1.00  0.00    -0.237 OA
ATOM    106  O   UNL A   1      38.645  27.835  28.177  1.00  0.00    -0.744 OA
ENDBRANCH 100 103
ENDBRANCH  73  96
ENDBRANCH  47  48
ENDBRANCH  39  42
ENDBRANCH  37  38
ENDBRANCH   1  37
TORSDOF 20
ENDMDL
