MODEL 1
REMARK VINA RESULT:     -12.0      0.000      0.000
REMARK SMILES CS(=O)(=O)c1ccc(C2=NN(c3ccc(C(=O)NCCCCNC(=O)c4ccc(-c5c6nc(c(-c7cccc(S(=O)(=O)[O-])c7F)c7ccc([nH]7)c(-c7cccc(S(=O)(=O)[O-])c7F)c7nc(c(-c8cccc(S(=O)(=O)[O-])c8F)c8ccc5[nH]8)C=C7)C=C6)cc4)cc3)[C@H](c3ccc(Cl)cc3)C2)cc1
REMARK SMILES IDX 20 1 19 2 18 3 16 4 17 5 15 7 12 8 13 9 90 10 14 11 89 12
REMARK SMILES IDX 11 13 9 14 10 15 99 16 91 17 8 18 5 19 6 20 101 21 7 22
REMARK SMILES IDX 100 23 2 24 1 25 3 26 4 27 92 28 93 29 98 30 94 31 97 32
REMARK SMILES IDX 95 33 96 34 21 35 22 36 23 37 24 38 25 40 26 41 27 42 88 43
REMARK SMILES IDX 28 44 87 45 29 46 30 47 31 48 81 49 32 50 86 51 80 52 82 53
REMARK SMILES IDX 33 54 85 55 79 56 78 57 34 59 66 60 46 61 65 62 47 63 50 64
REMARK SMILES IDX 64 65 83 66 48 67 49 68 63 70 84 71 51 72 35 73 36 74 44 75
REMARK SMILES IDX 37 76 39 77 45 78 38 79 40 80 41 81 42 82 43 83 67 84 68 85
REMARK SMILES IDX 76 86 69 87 71 88 77 89 70 90 72 91 73 92 74 93 75 94 52 95
REMARK SMILES IDX 53 96 61 97 54 98 56 99 62 100 55 101 57 102 58 103 59 104
REMARK SMILES IDX 60 105
REMARK H PARENT 18 6 23 39 82 58 50 69
REMARK Flexibility Score: inf
ROOT
ATOM      1  C   UNL A   1      36.898  30.159  30.108  1.00  0.00     0.023 C 
ENDROOT
BRANCH   1   2
ATOM      2  C   UNL A   1      35.940  29.610  29.048  1.00  0.00     0.116 C 
BRANCH   2   3
ATOM      3  N   UNL A   1      34.964  30.611  28.660  1.00  0.00    -0.352 N 
ATOM      4  C   UNL A   1      33.915  30.551  27.776  1.00  0.00     0.251 C 
ATOM      5  O   UNL A   1      33.160  31.517  27.680  1.00  0.00    -0.269 OA
ATOM      6  H   UNL A   1      35.072  31.482  29.107  1.00  0.00     0.163 HD
BRANCH   4   7
ATOM      7  C   UNL A   1      33.620  29.324  26.992  1.00  0.00     0.039 A 
ATOM      8  C   UNL A   1      33.029  27.145  25.314  1.00  0.00     0.060 A 
ATOM      9  C   UNL A   1      34.081  28.010  25.003  1.00  0.00     0.029 A 
ATOM     10  C   UNL A   1      32.344  27.326  26.517  1.00  0.00     0.029 A 
ATOM     11  C   UNL A   1      34.379  29.092  25.838  1.00  0.00     0.016 A 
ATOM     12  C   UNL A   1      32.647  28.396  27.356  1.00  0.00     0.016 A 
BRANCH   8  13
ATOM     13  N   UNL A   1      32.651  26.126  24.464  1.00  0.00    -0.257 N 
ATOM     14  C   UNL A   1      32.697  24.133  23.766  1.00  0.00     0.071 C 
ATOM     15  N   UNL A   1      32.871  24.848  24.830  1.00  0.00    -0.176 NA
ATOM     16  C   UNL A   1      32.367  24.903  22.513  1.00  0.00     0.091 C 
ATOM     17  C   UNL A   1      32.131  26.305  23.110  1.00  0.00     0.144 C 
BRANCH  14  18
ATOM     18  C   UNL A   1      32.857  22.671  23.795  1.00  0.00    -0.002 A 
ATOM     19  C   UNL A   1      32.941  19.896  23.888  1.00  0.00     0.067 A 
ATOM     20  C   UNL A   1      32.147  20.523  22.927  1.00  0.00     0.021 A 
ATOM     21  C   UNL A   1      33.685  20.645  24.809  1.00  0.00     0.021 A 
ATOM     22  C   UNL A   1      32.103  21.915  22.888  1.00  0.00     0.011 A 
ATOM     23  C   UNL A   1      33.653  22.041  24.755  1.00  0.00     0.011 A 
BRANCH  19  24
ATOM     24  S   UNL A   1      32.953  18.121  23.987  1.00  0.00     0.175 S 
ATOM     25  C   UNL A   1      34.627  17.756  24.440  1.00  0.00     0.163 C 
ATOM     26  O   UNL A   1      32.726  17.595  22.658  1.00  0.00    -0.224 OA
ATOM     27  O   UNL A   1      32.093  17.745  25.097  1.00  0.00    -0.224 OA
ENDBRANCH  19  24
ENDBRANCH  14  18
BRANCH  17  28
ATOM     28  C   UNL A   1      30.696  26.838  23.152  1.00  0.00    -0.023 A 
ATOM     29  C   UNL A   1      29.620  26.162  23.748  1.00  0.00     0.007 A 
ATOM     30  C   UNL A   1      30.440  28.112  22.601  1.00  0.00     0.007 A 
ATOM     31  C   UNL A   1      28.339  26.732  23.780  1.00  0.00     0.021 A 
ATOM     32  C   UNL A   1      29.172  28.697  22.660  1.00  0.00     0.021 A 
ATOM     33  C   UNL A   1      28.122  27.999  23.245  1.00  0.00     0.041 A 
ATOM     34  Cl  UNL A   1      26.555  28.705  23.317  1.00  0.00    -0.084 Cl
ENDBRANCH  17  28
ENDBRANCH   8  13
ENDBRANCH   4   7
ENDBRANCH   2   3
ENDBRANCH   1   2
BRANCH   1  35
ATOM     35  C   UNL A   1      36.273  30.314  31.492  1.00  0.00     0.023 C 
BRANCH  35  36
ATOM     36  C   UNL A   1      37.274  30.459  32.629  1.00  0.00     0.116 C 
BRANCH  36  37
ATOM     37  N   UNL A   1      37.902  29.198  33.009  1.00  0.00    -0.352 N 
ATOM     38  C   UNL A   1      39.172  28.766  32.704  1.00  0.00     0.251 C 
ATOM     39  H   UNL A   1      37.352  28.585  33.549  1.00  0.00     0.163 HD
ATOM     40  O   UNL A   1      39.540  27.634  32.997  1.00  0.00    -0.269 OA
BRANCH  38  41
ATOM     41  C   UNL A   1      40.066  29.686  31.976  1.00  0.00     0.039 A 
ATOM     42  C   UNL A   1      40.901  30.539  32.700  1.00  0.00     0.014 A 
ATOM     43  C   UNL A   1      40.150  29.616  30.583  1.00  0.00     0.014 A 
ATOM     44  C   UNL A   1      41.882  31.269  32.028  1.00  0.00     0.010 A 
ATOM     45  C   UNL A   1      41.178  30.281  29.928  1.00  0.00     0.010 A 
ATOM     46  C   UNL A   1      42.057  31.110  30.644  1.00  0.00    -0.014 A 
BRANCH  46  47
ATOM     47  C   UNL A   1      43.165  31.778  29.914  1.00  0.00     0.031 A 
ATOM     48  C   UNL A   1      44.450  31.040  29.668  1.00  0.00     0.074 A 
ATOM     49  C   UNL A   1      43.058  33.082  29.584  1.00  0.00     0.049 A 
ATOM     50  N   UNL A   1      45.575  31.483  29.171  1.00  0.00    -0.248 NA
ATOM     51  C   UNL A   1      44.485  29.622  30.062  1.00  0.00     0.031 C 
ATOM     52  C   UNL A   1      41.891  33.929  29.841  1.00  0.00     0.029 A 
ATOM     53  N   UNL A   1      43.962  33.932  28.998  1.00  0.00    -0.354 N 
ATOM     54  C   UNL A   1      46.460  30.414  29.228  1.00  0.00     0.074 A 
ATOM     55  C   UNL A   1      45.754  29.312  29.845  1.00  0.00     0.031 C 
ATOM     56  C   UNL A   1      42.154  35.177  29.425  1.00  0.00     0.029 A 
ATOM     57  C   UNL A   1      43.518  35.231  28.910  1.00  0.00     0.049 A 
ATOM     58  H   UNL A   1      44.846  33.641  28.673  1.00  0.00     0.167 HD
ATOM     59  C   UNL A   1      47.737  30.345  28.783  1.00  0.00     0.034 A 
ATOM     60  C   UNL A   1      44.146  36.346  28.484  1.00  0.00     0.034 A 
ATOM     61  C   UNL A   1      48.424  31.435  28.144  1.00  0.00     0.049 A 
ATOM     62  C   UNL A   1      45.557  36.241  27.973  1.00  0.00     0.074 A 
ATOM     63  C   UNL A   1      49.692  31.445  27.591  1.00  0.00     0.029 A 
ATOM     64  N   UNL A   1      47.907  32.711  27.983  1.00  0.00    -0.354 N 
ATOM     65  N   UNL A   1      46.331  35.185  27.903  1.00  0.00    -0.248 NA
ATOM     66  C   UNL A   1      46.169  37.469  27.448  1.00  0.00     0.031 C 
ATOM     67  C   UNL A   1      49.952  32.735  27.120  1.00  0.00     0.029 A 
ATOM     68  C   UNL A   1      48.831  33.519  27.345  1.00  0.00     0.049 A 
ATOM     69  H   UNL A   1      47.014  32.999  28.279  1.00  0.00     0.167 HD
ATOM     70  C   UNL A   1      47.505  35.613  27.291  1.00  0.00     0.074 A 
ATOM     71  C   UNL A   1      47.333  37.020  26.998  1.00  0.00     0.031 C 
ATOM     72  C   UNL A   1      48.627  34.905  27.009  1.00  0.00     0.034 A 
BRANCH  59  73
ATOM     73  C   UNL A   1      48.455  29.028  28.931  1.00  0.00     0.023 A 
ATOM     74  C   UNL A   1      49.163  28.751  30.119  1.00  0.00     0.012 A 
ATOM     75  C   UNL A   1      48.398  28.051  27.919  1.00  0.00     0.148 A 
ATOM     76  C   UNL A   1      49.842  27.543  30.278  1.00  0.00     0.002 A 
ATOM     77  C   UNL A   1      49.036  26.830  28.105  1.00  0.00     0.091 A 
ATOM     78  F   UNL A   1      47.737  28.338  26.788  1.00  0.00    -0.205 F 
ATOM     79  C   UNL A   1      49.770  26.581  29.276  1.00  0.00     0.022 A 
BRANCH  77  80
ATOM     80  S   UNL A   1      48.934  25.492  26.912  1.00  0.00     0.127 S 
ATOM     81  O   UNL A   1      49.627  26.070  25.761  1.00  0.00    -0.237 OA
ATOM     82  O   UNL A   1      49.665  24.420  27.587  1.00  0.00    -0.237 OA
ATOM     83  O   UNL A   1      47.514  25.231  26.720  1.00  0.00    -0.744 OA
ENDBRANCH  77  80
ENDBRANCH  59  73
BRANCH  60  84
ATOM     84  C   UNL A   1      43.425  37.650  28.486  1.00  0.00     0.023 A 
ATOM     85  C   UNL A   1      42.494  37.932  27.468  1.00  0.00     0.012 A 
ATOM     86  C   UNL A   1      43.635  38.599  29.505  1.00  0.00     0.148 A 
ATOM     87  C   UNL A   1      41.808  39.148  27.446  1.00  0.00     0.002 A 
ATOM     88  C   UNL A   1      42.907  39.783  29.510  1.00  0.00     0.091 A 
ATOM     89  F   UNL A   1      44.532  38.315  30.461  1.00  0.00    -0.205 F 
ATOM     90  C   UNL A   1      42.008  40.067  28.472  1.00  0.00     0.022 A 
BRANCH  88  91
ATOM     91  S   UNL A   1      42.999  40.967  30.858  1.00  0.00     0.127 S 
ATOM     92  O   UNL A   1      41.903  41.874  30.535  1.00  0.00    -0.237 OA
ATOM     93  O   UNL A   1      42.770  40.110  32.023  1.00  0.00    -0.237 OA
ATOM     94  O   UNL A   1      44.337  41.539  30.788  1.00  0.00    -0.744 OA
ENDBRANCH  88  91
ENDBRANCH  60  84
BRANCH  72  95
ATOM     95  C   UNL A   1      49.746  35.616  26.294  1.00  0.00     0.023 A 
ATOM     96  C   UNL A   1      49.810  35.599  24.887  1.00  0.00     0.012 A 
ATOM     97  C   UNL A   1      50.683  36.377  27.021  1.00  0.00     0.148 A 
ATOM     98  C   UNL A   1      50.807  36.306  24.216  1.00  0.00     0.002 A 
ATOM     99  C   UNL A   1      51.641  37.121  26.344  1.00  0.00     0.091 A 
ATOM    100  F   UNL A   1      50.613  36.366  28.360  1.00  0.00    -0.205 F 
ATOM    101  C   UNL A   1      51.713  37.078  24.942  1.00  0.00     0.022 A 
BRANCH  99 102
ATOM    102  S   UNL A   1      52.782  38.220  27.188  1.00  0.00     0.127 S 
ATOM    103  O   UNL A   1      53.792  37.283  27.678  1.00  0.00    -0.237 OA
ATOM    104  O   UNL A   1      53.234  39.090  26.102  1.00  0.00    -0.237 OA
ATOM    105  O   UNL A   1      52.007  38.894  28.221  1.00  0.00    -0.744 OA
ENDBRANCH  99 102
ENDBRANCH  72  95
ENDBRANCH  46  47
ENDBRANCH  38  41
ENDBRANCH  36  37
ENDBRANCH  35  36
ENDBRANCH   1  35
TORSDOF 18
ENDMDL
MODEL 2
REMARK VINA RESULT:     -11.8      6.424     11.697
REMARK SMILES CS(=O)(=O)c1ccc(C2=NN(c3ccc(C(=O)NCCCCNC(=O)c4ccc(-c5c6nc(c(-c7cccc(S(=O)(=O)[O-])c7F)c7ccc([nH]7)c(-c7cccc(S(=O)(=O)[O-])c7F)c7nc(c(-c8cccc(S(=O)(=O)[O-])c8F)c8ccc5[nH]8)C=C7)C=C6)cc4)cc3)[C@H](c3ccc(Cl)cc3)C2)cc1
REMARK SMILES IDX 20 1 19 2 18 3 16 4 17 5 15 7 12 8 13 9 90 10 14 11 89 12
REMARK SMILES IDX 11 13 9 14 10 15 99 16 91 17 8 18 5 19 6 20 101 21 7 22
REMARK SMILES IDX 100 23 2 24 1 25 3 26 4 27 92 28 93 29 98 30 94 31 97 32
REMARK SMILES IDX 95 33 96 34 21 35 22 36 23 37 24 38 25 40 26 41 27 42 88 43
REMARK SMILES IDX 28 44 87 45 29 46 30 47 31 48 81 49 32 50 86 51 80 52 82 53
REMARK SMILES IDX 33 54 85 55 79 56 78 57 34 59 66 60 46 61 65 62 47 63 50 64
REMARK SMILES IDX 64 65 83 66 48 67 49 68 63 70 84 71 51 72 35 73 36 74 44 75
REMARK SMILES IDX 37 76 39 77 45 78 38 79 40 80 41 81 42 82 43 83 67 84 68 85
REMARK SMILES IDX 76 86 69 87 71 88 77 89 70 90 72 91 73 92 74 93 75 94 52 95
REMARK SMILES IDX 53 96 61 97 54 98 56 99 62 100 55 101 57 102 58 103 59 104
REMARK SMILES IDX 60 105
REMARK H PARENT 18 6 23 39 82 58 50 69
REMARK Flexibility Score: inf
ROOT
ATOM      1  C   UNL A   1      42.662  22.382  25.930  1.00  0.00     0.023 C 
ENDROOT
BRANCH   1   2
ATOM      2  C   UNL A   1      43.727  22.114  26.995  1.00  0.00     0.116 C 
BRANCH   2   3
ATOM      3  N   UNL A   1      45.023  22.612  26.571  1.00  0.00    -0.352 N 
ATOM      4  C   UNL A   1      45.879  23.509  27.160  1.00  0.00     0.251 C 
ATOM      5  O   UNL A   1      46.979  23.709  26.647  1.00  0.00    -0.269 OA
ATOM      6  H   UNL A   1      45.343  22.243  25.715  1.00  0.00     0.163 HD
BRANCH   4   7
ATOM      7  C   UNL A   1      45.547  24.185  28.441  1.00  0.00     0.039 A 
ATOM      8  C   UNL A   1      45.119  25.367  30.957  1.00  0.00     0.060 A 
ATOM      9  C   UNL A   1      46.301  25.611  30.254  1.00  0.00     0.029 A 
ATOM     10  C   UNL A   1      44.120  24.607  30.346  1.00  0.00     0.029 A 
ATOM     11  C   UNL A   1      46.515  25.028  29.001  1.00  0.00     0.016 A 
ATOM     12  C   UNL A   1      44.324  24.035  29.093  1.00  0.00     0.016 A 
BRANCH   8  13
ATOM     13  N   UNL A   1      44.919  25.852  32.233  1.00  0.00    -0.257 N 
ATOM     14  C   UNL A   1      44.081  27.190  33.637  1.00  0.00     0.071 C 
ATOM     15  N   UNL A   1      43.873  26.667  32.471  1.00  0.00    -0.176 NA
ATOM     16  C   UNL A   1      45.369  26.787  34.309  1.00  0.00     0.091 C 
ATOM     17  C   UNL A   1      45.829  25.661  33.361  1.00  0.00     0.144 C 
BRANCH  14  18
ATOM     18  C   UNL A   1      43.128  28.141  34.226  1.00  0.00    -0.002 A 
ATOM     19  C   UNL A   1      41.500  30.049  35.422  1.00  0.00     0.067 A 
ATOM     20  C   UNL A   1      42.439  30.452  34.472  1.00  0.00     0.021 A 
ATOM     21  C   UNL A   1      41.375  28.702  35.786  1.00  0.00     0.021 A 
ATOM     22  C   UNL A   1      43.258  29.493  33.879  1.00  0.00     0.011 A 
ATOM     23  C   UNL A   1      42.185  27.740  35.175  1.00  0.00     0.011 A 
BRANCH  19  24
ATOM     24  S   UNL A   1      40.496  31.273  36.230  1.00  0.00     0.175 S 
ATOM     25  C   UNL A   1      40.399  32.570  35.026  1.00  0.00     0.163 C 
ATOM     26  O   UNL A   1      41.232  31.777  37.369  1.00  0.00    -0.224 OA
ATOM     27  O   UNL A   1      39.167  30.705  36.389  1.00  0.00    -0.224 OA
ENDBRANCH  19  24
ENDBRANCH  14  18
BRANCH  17  28
ATOM     28  C   UNL A   1      45.758  24.218  33.869  1.00  0.00    -0.023 A 
ATOM     29  C   UNL A   1      46.867  23.486  34.322  1.00  0.00     0.007 A 
ATOM     30  C   UNL A   1      44.494  23.594  33.934  1.00  0.00     0.007 A 
ATOM     31  C   UNL A   1      46.717  22.179  34.809  1.00  0.00     0.021 A 
ATOM     32  C   UNL A   1      44.337  22.303  34.449  1.00  0.00     0.021 A 
ATOM     33  C   UNL A   1      45.454  21.597  34.879  1.00  0.00     0.041 A 
ATOM     34  Cl  UNL A   1      45.275  20.006  35.508  1.00  0.00    -0.084 Cl
ENDBRANCH  17  28
ENDBRANCH   8  13
ENDBRANCH   4   7
ENDBRANCH   2   3
ENDBRANCH   1   2
BRANCH   1  35
ATOM     35  C   UNL A   1      41.501  21.390  25.945  1.00  0.00     0.023 C 
BRANCH  35  36
ATOM     36  C   UNL A   1      40.397  21.719  26.938  1.00  0.00     0.116 C 
BRANCH  36  37
ATOM     37  N   UNL A   1      39.135  22.076  26.301  1.00  0.00    -0.352 N 
ATOM     38  C   UNL A   1      38.528  23.310  26.269  1.00  0.00     0.251 C 
ATOM     39  H   UNL A   1      38.661  21.347  25.838  1.00  0.00     0.163 HD
ATOM     40  O   UNL A   1      37.410  23.451  25.787  1.00  0.00    -0.269 OA
BRANCH  38  41
ATOM     41  C   UNL A   1      39.242  24.454  26.869  1.00  0.00     0.039 A 
ATOM     42  C   UNL A   1      39.987  25.299  26.044  1.00  0.00     0.014 A 
ATOM     43  C   UNL A   1      39.076  24.742  28.226  1.00  0.00     0.014 A 
ATOM     44  C   UNL A   1      40.502  26.485  26.568  1.00  0.00     0.010 A 
ATOM     45  C   UNL A   1      39.522  25.959  28.723  1.00  0.00     0.010 A 
ATOM     46  C   UNL A   1      40.234  26.845  27.899  1.00  0.00    -0.014 A 
BRANCH  46  47
ATOM     47  C   UNL A   1      40.665  28.153  28.457  1.00  0.00     0.031 A 
ATOM     48  C   UNL A   1      42.128  28.431  28.662  1.00  0.00     0.074 A 
ATOM     49  C   UNL A   1      39.740  29.034  28.889  1.00  0.00     0.049 A 
ATOM     50  N   UNL A   1      42.700  29.448  29.252  1.00  0.00    -0.248 NA
ATOM     51  C   UNL A   1      43.071  27.415  28.167  1.00  0.00     0.031 C 
ATOM     52  C   UNL A   1      38.290  28.845  28.817  1.00  0.00     0.029 A 
ATOM     53  N   UNL A   1      39.885  30.248  29.513  1.00  0.00    -0.354 N 
ATOM     54  C   UNL A   1      44.062  29.178  29.233  1.00  0.00     0.074 A 
ATOM     55  C   UNL A   1      44.228  27.883  28.609  1.00  0.00     0.031 C 
ATOM     56  C   UNL A   1      37.680  29.897  29.383  1.00  0.00     0.029 A 
ATOM     57  C   UNL A   1      38.692  30.817  29.893  1.00  0.00     0.049 A 
ATOM     58  H   UNL A   1      40.760  30.671  29.674  1.00  0.00     0.167 HD
ATOM     59  C   UNL A   1      45.086  29.949  29.670  1.00  0.00     0.034 A 
ATOM     60  C   UNL A   1      38.440  31.940  30.595  1.00  0.00     0.034 A 
ATOM     61  C   UNL A   1      44.917  31.248  30.262  1.00  0.00     0.049 A 
ATOM     62  C   UNL A   1      39.593  32.793  31.050  1.00  0.00     0.074 A 
ATOM     63  C   UNL A   1      45.892  32.140  30.670  1.00  0.00     0.029 A 
ATOM     64  N   UNL A   1      43.693  31.836  30.543  1.00  0.00    -0.354 N 
ATOM     65  N   UNL A   1      40.879  32.589  30.895  1.00  0.00    -0.248 NA
ATOM     66  C   UNL A   1      39.262  34.046  31.742  1.00  0.00     0.031 C 
ATOM     67  C   UNL A   1      45.257  33.257  31.222  1.00  0.00     0.029 A 
ATOM     68  C   UNL A   1      43.886  33.077  31.124  1.00  0.00     0.049 A 
ATOM     69  H   UNL A   1      42.816  31.430  30.357  1.00  0.00     0.167 HD
ATOM     70  C   UNL A   1      41.509  33.706  31.435  1.00  0.00     0.074 A 
ATOM     71  C   UNL A   1      40.462  34.587  31.907  1.00  0.00     0.031 C 
ATOM     72  C   UNL A   1      42.835  33.970  31.539  1.00  0.00     0.034 A 
BRANCH  59  73
ATOM     73  C   UNL A   1      46.484  29.422  29.476  1.00  0.00     0.023 A 
ATOM     74  C   UNL A   1      47.067  29.448  28.192  1.00  0.00     0.012 A 
ATOM     75  C   UNL A   1      47.236  28.937  30.564  1.00  0.00     0.148 A 
ATOM     76  C   UNL A   1      48.356  28.958  27.984  1.00  0.00     0.002 A 
ATOM     77  C   UNL A   1      48.539  28.498  30.358  1.00  0.00     0.091 A 
ATOM     78  F   UNL A   1      46.661  28.901  31.774  1.00  0.00    -0.205 F 
ATOM     79  C   UNL A   1      49.094  28.493  29.068  1.00  0.00     0.022 A 
BRANCH  77  80
ATOM     80  S   UNL A   1      49.602  27.958  31.700  1.00  0.00     0.127 S 
ATOM     81  O   UNL A   1      50.853  27.684  30.993  1.00  0.00    -0.237 OA
ATOM     82  O   UNL A   1      49.636  29.140  32.562  1.00  0.00    -0.237 OA
ATOM     83  O   UNL A   1      48.950  26.796  32.289  1.00  0.00    -0.744 OA
ENDBRANCH  77  80
ENDBRANCH  59  73
BRANCH  60  84
ATOM     84  C   UNL A   1      37.032  32.342  30.872  1.00  0.00     0.023 A 
ATOM     85  C   UNL A   1      36.485  32.126  32.152  1.00  0.00     0.012 A 
ATOM     86  C   UNL A   1      36.243  32.964  29.885  1.00  0.00     0.148 A 
ATOM     87  C   UNL A   1      35.168  32.493  32.435  1.00  0.00     0.002 A 
ATOM     88  C   UNL A   1      34.952  33.380  30.190  1.00  0.00     0.091 A 
ATOM     89  F   UNL A   1      36.779  33.154  28.671  1.00  0.00    -0.205 F 
ATOM     90  C   UNL A   1      34.406  33.128  31.458  1.00  0.00     0.022 A 
BRANCH  88  91
ATOM     91  S   UNL A   1      33.944  34.322  29.040  1.00  0.00     0.127 S 
ATOM     92  O   UNL A   1      33.571  33.302  28.065  1.00  0.00    -0.237 OA
ATOM     93  O   UNL A   1      32.854  34.779  29.905  1.00  0.00    -0.237 OA
ATOM     94  O   UNL A   1      34.804  35.387  28.545  1.00  0.00    -0.744 OA
ENDBRANCH  88  91
ENDBRANCH  60  84
BRANCH  72  95
ATOM     95  C   UNL A   1      43.244  35.291  32.136  1.00  0.00     0.023 A 
ATOM     96  C   UNL A   1      43.464  36.405  31.302  1.00  0.00     0.012 A 
ATOM     97  C   UNL A   1      43.322  35.447  33.534  1.00  0.00     0.148 A 
ATOM     98  C   UNL A   1      43.783  37.647  31.851  1.00  0.00     0.002 A 
ATOM     99  C   UNL A   1      43.587  36.698  34.075  1.00  0.00     0.091 A 
ATOM    100  F   UNL A   1      43.124  34.369  34.308  1.00  0.00    -0.205 F 
ATOM    101  C   UNL A   1      43.831  37.797  33.236  1.00  0.00     0.022 A 
BRANCH  99 102
ATOM    102  S   UNL A   1      43.570  37.007  35.844  1.00  0.00     0.127 S 
ATOM    103  O   UNL A   1      44.688  36.184  36.302  1.00  0.00    -0.237 OA
ATOM    104  O   UNL A   1      43.807  38.449  35.908  1.00  0.00    -0.237 OA
ATOM    105  O   UNL A   1      42.256  36.588  36.315  1.00  0.00    -0.744 OA
ENDBRANCH  99 102
ENDBRANCH  72  95
ENDBRANCH  46  47
ENDBRANCH  38  41
ENDBRANCH  36  37
ENDBRANCH  35  36
ENDBRANCH   1  35
TORSDOF 18
ENDMDL
MODEL 3
REMARK VINA RESULT:     -11.5      2.347      7.450
REMARK SMILES CS(=O)(=O)c1ccc(C2=NN(c3ccc(C(=O)NCCCCNC(=O)c4ccc(-c5c6nc(c(-c7cccc(S(=O)(=O)[O-])c7F)c7ccc([nH]7)c(-c7cccc(S(=O)(=O)[O-])c7F)c7nc(c(-c8cccc(S(=O)(=O)[O-])c8F)c8ccc5[nH]8)C=C7)C=C6)cc4)cc3)[C@H](c3ccc(Cl)cc3)C2)cc1
REMARK SMILES IDX 20 1 19 2 18 3 16 4 17 5 15 7 12 8 13 9 90 10 14 11 89 12
REMARK SMILES IDX 11 13 9 14 10 15 99 16 91 17 8 18 5 19 6 20 101 21 7 22
REMARK SMILES IDX 100 23 2 24 1 25 3 26 4 27 92 28 93 29 98 30 94 31 97 32
REMARK SMILES IDX 95 33 96 34 21 35 22 36 23 37 24 38 25 40 26 41 27 42 88 43
REMARK SMILES IDX 28 44 87 45 29 46 30 47 31 48 81 49 32 50 86 51 80 52 82 53
REMARK SMILES IDX 33 54 85 55 79 56 78 57 34 59 66 60 46 61 65 62 47 63 50 64
REMARK SMILES IDX 64 65 83 66 48 67 49 68 63 70 84 71 51 72 35 73 36 74 44 75
REMARK SMILES IDX 37 76 39 77 45 78 38 79 40 80 41 81 42 82 43 83 67 84 68 85
REMARK SMILES IDX 76 86 69 87 71 88 77 89 70 90 72 91 73 92 74 93 75 94 52 95
REMARK SMILES IDX 53 96 61 97 54 98 56 99 62 100 55 101 57 102 58 103 59 104
REMARK SMILES IDX 60 105
REMARK H PARENT 18 6 23 39 82 58 50 69
REMARK Flexibility Score: inf
ROOT
ATOM      1  C   UNL A   1      37.355  30.016  28.591  1.00  0.00     0.023 C 
ENDROOT
BRANCH   1   2
ATOM      2  C   UNL A   1      35.975  29.826  29.225  1.00  0.00     0.116 C 
BRANCH   2   3
ATOM      3  N   UNL A   1      35.040  30.826  28.745  1.00  0.00    -0.352 N 
ATOM      4  C   UNL A   1      34.054  30.752  27.792  1.00  0.00     0.251 C 
ATOM      5  O   UNL A   1      33.318  31.722  27.618  1.00  0.00    -0.269 OA
ATOM      6  H   UNL A   1      35.126  31.707  29.175  1.00  0.00     0.163 HD
BRANCH   4   7
ATOM      7  C   UNL A   1      33.800  29.508  27.021  1.00  0.00     0.039 A 
ATOM      8  C   UNL A   1      33.249  27.293  25.377  1.00  0.00     0.060 A 
ATOM      9  C   UNL A   1      34.162  28.267  24.966  1.00  0.00     0.029 A 
ATOM     10  C   UNL A   1      32.693  27.390  26.654  1.00  0.00     0.029 A 
ATOM     11  C   UNL A   1      34.440  29.367  25.783  1.00  0.00     0.016 A 
ATOM     12  C   UNL A   1      32.977  28.478  27.475  1.00  0.00     0.016 A 
BRANCH   8  13
ATOM     13  N   UNL A   1      32.884  26.246  24.555  1.00  0.00    -0.257 N 
ATOM     14  C   UNL A   1      32.935  24.231  23.926  1.00  0.00     0.071 C 
ATOM     15  N   UNL A   1      33.090  24.981  24.969  1.00  0.00    -0.176 NA
ATOM     16  C   UNL A   1      32.634  24.958  22.641  1.00  0.00     0.091 C 
ATOM     17  C   UNL A   1      32.393  26.381  23.185  1.00  0.00     0.144 C 
BRANCH  14  18
ATOM     18  C   UNL A   1      33.087  22.770  24.009  1.00  0.00    -0.002 A 
ATOM     19  C   UNL A   1      33.160  20.001  24.219  1.00  0.00     0.067 A 
ATOM     20  C   UNL A   1      32.297  20.593  23.296  1.00  0.00     0.021 A 
ATOM     21  C   UNL A   1      33.978  20.783  25.045  1.00  0.00     0.021 A 
ATOM     22  C   UNL A   1      32.259  21.982  23.198  1.00  0.00     0.011 A 
ATOM     23  C   UNL A   1      33.951  22.176  24.931  1.00  0.00     0.011 A 
BRANCH  19  24
ATOM     24  S   UNL A   1      33.168  18.232  24.397  1.00  0.00     0.175 S 
ATOM     25  C   UNL A   1      32.734  17.665  22.775  1.00  0.00     0.163 C 
ATOM     26  O   UNL A   1      32.097  17.866  25.298  1.00  0.00    -0.224 OA
ATOM     27  O   UNL A   1      34.539  17.832  24.662  1.00  0.00    -0.224 OA
ENDBRANCH  19  24
ENDBRANCH  14  18
BRANCH  17  28
ATOM     28  C   UNL A   1      30.960  26.921  23.179  1.00  0.00    -0.023 A 
ATOM     29  C   UNL A   1      29.864  26.259  23.755  1.00  0.00     0.007 A 
ATOM     30  C   UNL A   1      30.725  28.187  22.601  1.00  0.00     0.007 A 
ATOM     31  C   UNL A   1      28.586  26.836  23.743  1.00  0.00     0.021 A 
ATOM     32  C   UNL A   1      29.458  28.779  22.616  1.00  0.00     0.021 A 
ATOM     33  C   UNL A   1      28.390  28.095  23.183  1.00  0.00     0.041 A 
ATOM     34  Cl  UNL A   1      26.825  28.809  23.200  1.00  0.00    -0.084 Cl
ENDBRANCH  17  28
ENDBRANCH   8  13
ENDBRANCH   4   7
ENDBRANCH   2   3
ENDBRANCH   1   2
BRANCH   1  35
ATOM     35  C   UNL A   1      38.014  31.353  28.924  1.00  0.00     0.023 C 
BRANCH  35  36
ATOM     36  C   UNL A   1      38.341  31.551  30.396  1.00  0.00     0.116 C 
BRANCH  36  37
ATOM     37  N   UNL A   1      37.554  32.605  31.026  1.00  0.00    -0.352 N 
ATOM     38  C   UNL A   1      37.951  33.889  31.321  1.00  0.00     0.251 C 
ATOM     39  H   UNL A   1      36.629  32.370  31.268  1.00  0.00     0.163 HD
ATOM     40  O   UNL A   1      37.221  34.646  31.950  1.00  0.00    -0.269 OA
BRANCH  38  41
ATOM     41  C   UNL A   1      39.297  34.319  30.895  1.00  0.00     0.039 A 
ATOM     42  C   UNL A   1      40.360  34.216  31.794  1.00  0.00     0.014 A 
ATOM     43  C   UNL A   1      39.513  34.714  29.572  1.00  0.00     0.014 A 
ATOM     44  C   UNL A   1      41.661  34.435  31.341  1.00  0.00     0.010 A 
ATOM     45  C   UNL A   1      40.814  34.853  29.107  1.00  0.00     0.010 A 
ATOM     46  C   UNL A   1      41.901  34.709  29.985  1.00  0.00    -0.014 A 
BRANCH  46  47
ATOM     47  C   UNL A   1      43.279  34.832  29.444  1.00  0.00     0.031 A 
ATOM     48  C   UNL A   1      43.800  36.178  29.024  1.00  0.00     0.074 A 
ATOM     49  C   UNL A   1      44.010  33.722  29.217  1.00  0.00     0.049 A 
ATOM     50  N   UNL A   1      44.916  36.478  28.412  1.00  0.00    -0.248 NA
ATOM     51  C   UNL A   1      42.937  37.338  29.302  1.00  0.00     0.031 C 
ATOM     52  C   UNL A   1      43.584  32.351  29.509  1.00  0.00     0.029 A 
ATOM     53  N   UNL A   1      45.251  33.568  28.651  1.00  0.00    -0.354 N 
ATOM     54  C   UNL A   1      44.872  37.849  28.198  1.00  0.00     0.074 A 
ATOM     55  C   UNL A   1      43.602  38.317  28.710  1.00  0.00     0.031 C 
ATOM     56  C   UNL A   1      44.540  31.499  29.110  1.00  0.00     0.029 A 
ATOM     57  C   UNL A   1      45.629  32.254  28.500  1.00  0.00     0.049 A 
ATOM     58  H   UNL A   1      45.818  34.327  28.378  1.00  0.00     0.167 HD
ATOM     59  C   UNL A   1      45.815  38.652  27.650  1.00  0.00     0.034 A 
ATOM     60  C   UNL A   1      46.718  31.716  27.916  1.00  0.00     0.034 A 
ATOM     61  C   UNL A   1      47.087  38.186  27.170  1.00  0.00     0.049 A 
ATOM     62  C   UNL A   1      47.763  32.630  27.334  1.00  0.00     0.074 A 
ATOM     63  C   UNL A   1      48.140  38.927  26.666  1.00  0.00     0.029 A 
ATOM     64  N   UNL A   1      47.475  36.856  27.124  1.00  0.00    -0.354 N 
ATOM     65  N   UNL A   1      47.768  33.940  27.269  1.00  0.00    -0.248 NA
ATOM     66  C   UNL A   1      48.967  31.997  26.779  1.00  0.00     0.031 C 
ATOM     67  C   UNL A   1      49.155  38.043  26.289  1.00  0.00     0.029 A 
ATOM     68  C   UNL A   1      48.749  36.753  26.593  1.00  0.00     0.049 A 
ATOM     69  H   UNL A   1      46.926  36.096  27.423  1.00  0.00     0.167 HD
ATOM     70  C   UNL A   1      48.990  34.288  26.703  1.00  0.00     0.074 A 
ATOM     71  C   UNL A   1      49.703  33.053  26.457  1.00  0.00     0.031 C 
ATOM     72  C   UNL A   1      49.471  35.520  26.405  1.00  0.00     0.034 A 
BRANCH  59  73
ATOM     73  C   UNL A   1      45.518  40.128  27.587  1.00  0.00     0.023 A 
ATOM     74  C   UNL A   1      45.523  40.892  28.773  1.00  0.00     0.012 A 
ATOM     75  C   UNL A   1      45.272  40.769  26.357  1.00  0.00     0.148 A 
ATOM     76  C   UNL A   1      45.243  42.257  28.744  1.00  0.00     0.002 A 
ATOM     77  C   UNL A   1      45.044  42.140  26.329  1.00  0.00     0.091 A 
ATOM     78  F   UNL A   1      45.252  40.026  25.241  1.00  0.00    -0.205 F 
ATOM     79  C   UNL A   1      45.014  42.882  27.521  1.00  0.00     0.022 A 
BRANCH  77  80
ATOM     80  S   UNL A   1      44.821  43.054  24.800  1.00  0.00     0.127 S 
ATOM     81  O   UNL A   1      43.385  43.331  24.829  1.00  0.00    -0.237 OA
ATOM     82  O   UNL A   1      45.671  44.225  25.014  1.00  0.00    -0.237 OA
ATOM     83  O   UNL A   1      45.266  42.168  23.733  1.00  0.00    -0.744 OA
ENDBRANCH  77  80
ENDBRANCH  59  73
BRANCH  60  84
ATOM     84  C   UNL A   1      46.893  30.237  27.891  1.00  0.00     0.023 A 
ATOM     85  C   UNL A   1      47.402  29.577  29.027  1.00  0.00     0.012 A 
ATOM     86  C   UNL A   1      46.531  29.477  26.762  1.00  0.00     0.148 A 
ATOM     87  C   UNL A   1      47.577  28.192  29.027  1.00  0.00     0.002 A 
ATOM     88  C   UNL A   1      46.652  28.093  26.789  1.00  0.00     0.091 A 
ATOM     89  F   UNL A   1      46.055  30.125  25.688  1.00  0.00    -0.205 F 
ATOM     90  C   UNL A   1      47.194  27.451  27.913  1.00  0.00     0.022 A 
BRANCH  88  91
ATOM     91  S   UNL A   1      46.062  27.046  25.455  1.00  0.00     0.127 S 
ATOM     92  O   UNL A   1      44.868  27.762  25.018  1.00  0.00    -0.237 OA
ATOM     93  O   UNL A   1      47.188  27.092  24.520  1.00  0.00    -0.237 OA
ATOM     94  O   UNL A   1      45.833  25.738  26.054  1.00  0.00    -0.744 OA
ENDBRANCH  88  91
ENDBRANCH  60  84
BRANCH  72  95
ATOM     95  C   UNL A   1      50.861  35.612  25.830  1.00  0.00     0.023 A 
ATOM     96  C   UNL A   1      51.049  35.631  24.434  1.00  0.00     0.012 A 
ATOM     97  C   UNL A   1      51.973  35.770  26.681  1.00  0.00     0.148 A 
ATOM     98  C   UNL A   1      52.326  35.778  23.895  1.00  0.00     0.002 A 
ATOM     99  C   UNL A   1      53.235  35.969  26.137  1.00  0.00     0.091 A 
ATOM    100  F   UNL A   1      51.773  35.733  28.006  1.00  0.00    -0.205 F 
ATOM    101  C   UNL A   1      53.416  35.961  24.744  1.00  0.00     0.022 A 
BRANCH  99 102
ATOM    102  S   UNL A   1      54.678  36.313  27.148  1.00  0.00     0.127 S 
ATOM    103  O   UNL A   1      54.819  35.066  27.900  1.00  0.00    -0.237 OA
ATOM    104  O   UNL A   1      55.715  36.538  26.140  1.00  0.00    -0.237 OA
ATOM    105  O   UNL A   1      54.344  37.485  27.945  1.00  0.00    -0.744 OA
ENDBRANCH  99 102
ENDBRANCH  72  95
ENDBRANCH  46  47
ENDBRANCH  38  41
ENDBRANCH  36  37
ENDBRANCH  35  36
ENDBRANCH   1  35
TORSDOF 18
ENDMDL
