MODEL 1
REMARK VINA RESULT:     -12.1      0.000      0.000
REMARK SMILES CCC[NH2+][C@]1(C(=O)NCCCCNC(=O)c2ccc(-c3c4nc(c(-c5cccc(S(=O)(=O)[O-])c5F)c5ccc([nH]5)c(-c5cccc(S(=O)(=O)[O-])c5F)c5nc(c(-c6cccc(S(=O)(=O)[O-])c6F)c6ccc3[nH]6)C=C5)C=C4)cc2)CC[C@@H](Sc2nnc(C)n2C)C1
REMARK SMILES IDX 10 1 9 2 8 3 6 4 7 5 5 7 79 8 90 9 80 10 81 11 4 12 3 15
REMARK SMILES IDX 2 16 1 17 82 18 83 19 84 20 88 21 85 22 86 23 89 24 87 25
REMARK SMILES IDX 11 26 12 27 13 28 14 29 15 31 16 32 17 33 78 34 18 35 77 36
REMARK SMILES IDX 19 37 20 38 21 39 71 40 22 41 76 42 70 43 72 44 23 45 75 46
REMARK SMILES IDX 69 47 68 48 24 50 56 51 36 52 55 53 37 54 40 55 54 56 73 57
REMARK SMILES IDX 38 58 39 59 53 61 74 62 41 63 25 64 26 65 34 66 27 67 29 68
REMARK SMILES IDX 35 69 28 70 30 71 31 72 32 73 33 74 57 75 58 76 66 77 59 78
REMARK SMILES IDX 61 79 67 80 60 81 62 82 63 83 64 84 65 85 42 86 43 87 51 88
REMARK SMILES IDX 44 89 46 90 52 91 45 92 47 93 48 94 49 95 50 96
REMARK H PARENT 8 6 4 13 4 14 13 30 72 49 40 60
REMARK Flexibility Score: inf
ROOT
ATOM      1  C   UNL A   1      31.571  28.572  23.731  1.00  0.00     0.023 C 
ENDROOT
BRANCH   1   2
ATOM      2  C   UNL A   1      33.011  28.371  23.258  1.00  0.00     0.116 C 
BRANCH   2   3
ATOM      3  N   UNL A   1      33.030  27.584  22.045  1.00  0.00    -0.351 N 
ATOM      4  C   UNL A   1      33.085  26.252  21.803  1.00  0.00     0.281 C 
ATOM      5  O   UNL A   1      33.210  25.942  20.607  1.00  0.00    -0.268 OA
ATOM      6  H   UNL A   1      32.996  28.128  21.226  1.00  0.00     0.163 HD
BRANCH   4   7
ATOM      7  C   UNL A   1      32.826  25.103  22.850  1.00  0.00     0.176 C 
ATOM      8  C   UNL A   1      31.287  24.970  22.964  1.00  0.00     0.080 C 
ATOM      9  C   UNL A   1      33.194  23.663  22.468  1.00  0.00     0.094 C 
ATOM     10  C   UNL A   1      30.993  23.583  23.539  1.00  0.00     0.022 C 
ATOM     11  C   UNL A   1      32.241  22.747  23.248  1.00  0.00     0.062 C 
BRANCH   7  12
ATOM     12  N   UNL A   1      33.538  25.571  24.077  1.00  0.00    -0.334 N 
ATOM     13  H   UNL A   1      33.869  26.517  23.889  1.00  0.00     0.347 HD
ATOM     14  H   UNL A   1      32.845  25.472  24.819  1.00  0.00     0.347 HD
BRANCH  12  15
ATOM     15  C   UNL A   1      34.682  24.804  24.559  1.00  0.00     0.261 C 
BRANCH  15  16
ATOM     16  C   UNL A   1      34.599  24.546  26.069  1.00  0.00     0.058 C 
ATOM     17  C   UNL A   1      33.414  23.672  26.467  1.00  0.00     0.010 C 
ENDBRANCH  15  16
ENDBRANCH  12  15
ENDBRANCH   7  12
BRANCH  11  18
ATOM     18  S   UNL A   1      31.971  21.117  22.456  1.00  0.00    -0.082 SA
BRANCH  18  19
ATOM     19  C   UNL A   1      32.382  20.028  23.729  1.00  0.00     0.191 A 
ATOM     20  N   UNL A   1      32.592  20.354  24.980  1.00  0.00    -0.123 NA
ATOM     21  N   UNL A   1      32.476  18.673  23.584  1.00  0.00    -0.309 N 
ATOM     22  N   UNL A   1      32.689  19.190  25.699  1.00  0.00    -0.135 NA
ATOM     23  C   UNL A   1      32.557  18.178  24.864  1.00  0.00     0.130 A 
ATOM     24  C   UNL A   1      32.479  17.938  22.348  1.00  0.00     0.154 C 
ATOM     25  C   UNL A   1      32.476  16.751  25.248  1.00  0.00     0.090 C 
ENDBRANCH  18  19
ENDBRANCH  11  18
ENDBRANCH   4   7
ENDBRANCH   2   3
ENDBRANCH   1   2
BRANCH   1  26
ATOM     26  C   UNL A   1      31.442  29.085  25.164  1.00  0.00     0.023 C 
BRANCH  26  27
ATOM     27  C   UNL A   1      32.679  29.805  25.693  1.00  0.00     0.116 C 
BRANCH  27  28
ATOM     28  N   UNL A   1      32.398  31.127  26.255  1.00  0.00    -0.352 N 
ATOM     29  C   UNL A   1      33.134  31.867  27.151  1.00  0.00     0.251 C 
ATOM     30  H   UNL A   1      31.562  31.546  25.946  1.00  0.00     0.163 HD
ATOM     31  O   UNL A   1      32.691  32.920  27.588  1.00  0.00    -0.269 OA
BRANCH  29  32
ATOM     32  C   UNL A   1      34.445  31.353  27.602  1.00  0.00     0.039 A 
ATOM     33  C   UNL A   1      35.479  32.252  27.873  1.00  0.00     0.014 A 
ATOM     34  C   UNL A   1      34.615  29.988  27.832  1.00  0.00     0.014 A 
ATOM     35  C   UNL A   1      36.649  31.788  28.476  1.00  0.00     0.010 A 
ATOM     36  C   UNL A   1      35.731  29.549  28.528  1.00  0.00     0.010 A 
ATOM     37  C   UNL A   1      36.761  30.442  28.862  1.00  0.00    -0.014 A 
BRANCH  37  38
ATOM     38  C   UNL A   1      37.925  29.931  29.630  1.00  0.00     0.031 A 
ATOM     39  C   UNL A   1      38.157  30.407  31.040  1.00  0.00     0.074 A 
ATOM     40  C   UNL A   1      38.844  29.157  29.017  1.00  0.00     0.049 A 
ATOM     41  N   UNL A   1      39.183  30.204  31.822  1.00  0.00    -0.248 NA
ATOM     42  C   UNL A   1      37.119  31.272  31.627  1.00  0.00     0.031 C 
ATOM     43  C   UNL A   1      38.790  28.713  27.622  1.00  0.00     0.029 A 
ATOM     44  N   UNL A   1      40.024  28.632  29.483  1.00  0.00    -0.354 N 
ATOM     45  C   UNL A   1      38.948  30.967  32.959  1.00  0.00     0.074 A 
ATOM     46  C   UNL A   1      37.702  31.668  32.749  1.00  0.00     0.031 C 
ATOM     47  C   UNL A   1      39.872  27.964  27.353  1.00  0.00     0.029 A 
ATOM     48  C   UNL A   1      40.714  27.900  28.542  1.00  0.00     0.049 A 
ATOM     49  H   UNL A   1      40.347  28.765  30.403  1.00  0.00     0.167 HD
ATOM     50  C   UNL A   1      39.680  31.048  34.095  1.00  0.00     0.034 A 
ATOM     51  C   UNL A   1      41.889  27.248  28.633  1.00  0.00     0.034 A 
ATOM     52  C   UNL A   1      40.863  30.269  34.337  1.00  0.00     0.049 A 
ATOM     53  C   UNL A   1      42.629  27.264  29.944  1.00  0.00     0.074 A 
ATOM     54  C   UNL A   1      41.610  30.175  35.498  1.00  0.00     0.029 A 
ATOM     55  N   UNL A   1      41.460  29.435  33.405  1.00  0.00    -0.354 N 
ATOM     56  N   UNL A   1      42.305  27.862  31.065  1.00  0.00    -0.248 NA
ATOM     57  C   UNL A   1      43.874  26.487  30.015  1.00  0.00     0.031 C 
ATOM     58  C   UNL A   1      42.660  29.279  35.266  1.00  0.00     0.029 A 
ATOM     59  C   UNL A   1      42.563  28.814  33.964  1.00  0.00     0.049 A 
ATOM     60  H   UNL A   1      41.146  29.304  32.481  1.00  0.00     0.167 HD
ATOM     61  C   UNL A   1      43.285  27.504  31.984  1.00  0.00     0.074 A 
ATOM     62  C   UNL A   1      44.204  26.622  31.292  1.00  0.00     0.031 C 
ATOM     63  C   UNL A   1      43.424  27.887  33.278  1.00  0.00     0.034 A 
BRANCH  50  64
ATOM     64  C   UNL A   1      39.169  31.947  35.190  1.00  0.00     0.023 A 
ATOM     65  C   UNL A   1      39.332  33.343  35.072  1.00  0.00     0.012 A 
ATOM     66  C   UNL A   1      38.513  31.422  36.321  1.00  0.00     0.148 A 
ATOM     67  C   UNL A   1      38.895  34.199  36.080  1.00  0.00     0.002 A 
ATOM     68  C   UNL A   1      38.039  32.287  37.301  1.00  0.00     0.091 A 
ATOM     69  F   UNL A   1      38.388  30.092  36.432  1.00  0.00    -0.205 F 
ATOM     70  C   UNL A   1      38.240  33.672  37.190  1.00  0.00     0.022 A 
BRANCH  68  71
ATOM     71  S   UNL A   1      37.115  31.706  38.730  1.00  0.00     0.127 S 
ATOM     72  O   UNL A   1      35.967  32.610  38.726  1.00  0.00    -0.237 OA
ATOM     73  O   UNL A   1      36.804  30.325  38.358  1.00  0.00    -0.237 OA
ATOM     74  O   UNL A   1      38.019  31.835  39.864  1.00  0.00    -0.744 OA
ENDBRANCH  68  71
ENDBRANCH  50  64
BRANCH  51  75
ATOM     75  C   UNL A   1      42.379  26.430  27.487  1.00  0.00     0.023 A 
ATOM     76  C   UNL A   1      43.212  27.038  26.528  1.00  0.00     0.012 A 
ATOM     77  C   UNL A   1      42.066  25.064  27.356  1.00  0.00     0.148 A 
ATOM     78  C   UNL A   1      43.702  26.311  25.443  1.00  0.00     0.002 A 
ATOM     79  C   UNL A   1      42.598  24.331  26.299  1.00  0.00     0.091 A 
ATOM     80  F   UNL A   1      41.263  24.504  28.271  1.00  0.00    -0.205 F 
ATOM     81  C   UNL A   1      43.404  24.957  25.334  1.00  0.00     0.022 A 
BRANCH  79  82
ATOM     82  S   UNL A   1      42.372  22.555  26.151  1.00  0.00     0.127 S 
ATOM     83  O   UNL A   1      40.918  22.445  26.077  1.00  0.00    -0.237 OA
ATOM     84  O   UNL A   1      43.077  22.260  24.903  1.00  0.00    -0.237 OA
ATOM     85  O   UNL A   1      42.996  21.985  27.338  1.00  0.00    -0.744 OA
ENDBRANCH  79  82
ENDBRANCH  51  75
BRANCH  63  86
ATOM     86  C   UNL A   1      44.589  27.327  34.048  1.00  0.00     0.023 A 
ATOM     87  C   UNL A   1      45.820  28.010  34.040  1.00  0.00     0.012 A 
ATOM     88  C   UNL A   1      44.436  26.178  34.848  1.00  0.00     0.148 A 
ATOM     89  C   UNL A   1      46.892  27.544  34.799  1.00  0.00     0.002 A 
ATOM     90  C   UNL A   1      45.494  25.746  35.638  1.00  0.00     0.091 A 
ATOM     91  F   UNL A   1      43.262  25.531  34.825  1.00  0.00    -0.205 F 
ATOM     92  C   UNL A   1      46.725  26.422  35.608  1.00  0.00     0.022 A 
BRANCH  90  93
ATOM     93  S   UNL A   1      45.333  24.368  36.779  1.00  0.00     0.127 S 
ATOM     94  O   UNL A   1      44.283  24.844  37.678  1.00  0.00    -0.237 OA
ATOM     95  O   UNL A   1      44.929  23.274  35.894  1.00  0.00    -0.237 OA
ATOM     96  O   UNL A   1      46.649  24.195  37.381  1.00  0.00    -0.744 OA
ENDBRANCH  90  93
ENDBRANCH  63  86
ENDBRANCH  37  38
ENDBRANCH  29  32
ENDBRANCH  27  28
ENDBRANCH  26  27
ENDBRANCH   1  26
TORSDOF 19
ENDMDL
MODEL 2
REMARK VINA RESULT:     -11.7      0.617      7.498
REMARK SMILES CCC[NH2+][C@]1(C(=O)NCCCCNC(=O)c2ccc(-c3c4nc(c(-c5cccc(S(=O)(=O)[O-])c5F)c5ccc([nH]5)c(-c5cccc(S(=O)(=O)[O-])c5F)c5nc(c(-c6cccc(S(=O)(=O)[O-])c6F)c6ccc3[nH]6)C=C5)C=C4)cc2)CC[C@@H](Sc2nnc(C)n2C)C1
REMARK SMILES IDX 10 1 9 2 8 3 6 4 7 5 5 7 79 8 90 9 80 10 81 11 4 12 3 15
REMARK SMILES IDX 2 16 1 17 82 18 83 19 84 20 88 21 85 22 86 23 89 24 87 25
REMARK SMILES IDX 11 26 12 27 13 28 14 29 15 31 16 32 17 33 78 34 18 35 77 36
REMARK SMILES IDX 19 37 20 38 21 39 71 40 22 41 76 42 70 43 72 44 23 45 75 46
REMARK SMILES IDX 69 47 68 48 24 50 56 51 36 52 55 53 37 54 40 55 54 56 73 57
REMARK SMILES IDX 38 58 39 59 53 61 74 62 41 63 25 64 26 65 34 66 27 67 29 68
REMARK SMILES IDX 35 69 28 70 30 71 31 72 32 73 33 74 57 75 58 76 66 77 59 78
REMARK SMILES IDX 61 79 67 80 60 81 62 82 63 83 64 84 65 85 42 86 43 87 51 88
REMARK SMILES IDX 44 89 46 90 52 91 45 92 47 93 48 94 49 95 50 96
REMARK H PARENT 8 6 4 13 4 14 13 30 72 49 40 60
REMARK Flexibility Score: inf
ROOT
ATOM      1  C   UNL A   1      31.644  28.137  23.738  1.00  0.00     0.023 C 
ENDROOT
BRANCH   1   2
ATOM      2  C   UNL A   1      32.975  28.100  22.986  1.00  0.00     0.116 C 
BRANCH   2   3
ATOM      3  N   UNL A   1      32.847  27.301  21.788  1.00  0.00    -0.351 N 
ATOM      4  C   UNL A   1      32.955  25.972  21.542  1.00  0.00     0.281 C 
ATOM      5  O   UNL A   1      32.900  25.657  20.343  1.00  0.00    -0.268 OA
ATOM      6  H   UNL A   1      32.638  27.831  20.985  1.00  0.00     0.163 HD
BRANCH   4   7
ATOM      7  C   UNL A   1      32.956  24.822  22.619  1.00  0.00     0.176 C 
ATOM      8  C   UNL A   1      31.490  24.688  23.100  1.00  0.00     0.080 C 
ATOM      9  C   UNL A   1      33.223  23.383  22.157  1.00  0.00     0.094 C 
ATOM     10  C   UNL A   1      31.344  23.300  23.726  1.00  0.00     0.022 C 
ATOM     11  C   UNL A   1      32.486  22.465  23.143  1.00  0.00     0.062 C 
BRANCH   7  12
ATOM     12  N   UNL A   1      33.943  25.289  23.639  1.00  0.00    -0.334 N 
ATOM     13  H   UNL A   1      34.607  25.895  23.158  1.00  0.00     0.347 HD
ATOM     14  H   UNL A   1      33.368  25.727  24.357  1.00  0.00     0.347 HD
BRANCH  12  15
ATOM     15  C   UNL A   1      34.721  24.294  24.369  1.00  0.00     0.261 C 
BRANCH  15  16
ATOM     16  C   UNL A   1      34.512  24.408  25.885  1.00  0.00     0.058 C 
ATOM     17  C   UNL A   1      33.172  25.026  26.264  1.00  0.00     0.010 C 
ENDBRANCH  15  16
ENDBRANCH  12  15
ENDBRANCH   7  12
BRANCH  11  18
ATOM     18  S   UNL A   1      32.034  20.836  22.436  1.00  0.00    -0.082 SA
BRANCH  18  19
ATOM     19  C   UNL A   1      32.353  19.773  23.757  1.00  0.00     0.191 A 
ATOM     20  N   UNL A   1      32.355  20.102  25.024  1.00  0.00    -0.123 NA
ATOM     21  N   UNL A   1      32.583  18.432  23.628  1.00  0.00    -0.309 N 
ATOM     22  N   UNL A   1      32.450  18.943  25.751  1.00  0.00    -0.135 NA
ATOM     23  C   UNL A   1      32.525  17.932  24.908  1.00  0.00     0.130 A 
ATOM     24  C   UNL A   1      32.824  17.713  22.406  1.00  0.00     0.154 C 
ATOM     25  C   UNL A   1      32.513  16.500  25.278  1.00  0.00     0.090 C 
ENDBRANCH  18  19
ENDBRANCH  11  18
ENDBRANCH   4   7
ENDBRANCH   2   3
ENDBRANCH   1   2
BRANCH   1  26
ATOM     26  C   UNL A   1      31.749  28.611  25.186  1.00  0.00     0.023 C 
BRANCH  26  27
ATOM     27  C   UNL A   1      32.821  29.669  25.431  1.00  0.00     0.116 C 
BRANCH  27  28
ATOM     28  N   UNL A   1      32.317  30.881  26.079  1.00  0.00    -0.352 N 
ATOM     29  C   UNL A   1      32.896  31.647  27.065  1.00  0.00     0.251 C 
ATOM     30  H   UNL A   1      31.437  31.192  25.765  1.00  0.00     0.163 HD
ATOM     31  O   UNL A   1      32.278  32.579  27.561  1.00  0.00    -0.269 OA
BRANCH  29  32
ATOM     32  C   UNL A   1      34.254  31.303  27.537  1.00  0.00     0.039 A 
ATOM     33  C   UNL A   1      35.212  32.312  27.667  1.00  0.00     0.014 A 
ATOM     34  C   UNL A   1      34.545  29.995  27.926  1.00  0.00     0.014 A 
ATOM     35  C   UNL A   1      36.429  32.024  28.288  1.00  0.00     0.010 A 
ATOM     36  C   UNL A   1      35.708  29.740  28.638  1.00  0.00     0.010 A 
ATOM     37  C   UNL A   1      36.664  30.750  28.830  1.00  0.00    -0.014 A 
BRANCH  37  38
ATOM     38  C   UNL A   1      37.881  30.436  29.621  1.00  0.00     0.031 A 
ATOM     39  C   UNL A   1      38.932  29.524  29.043  1.00  0.00     0.074 A 
ATOM     40  C   UNL A   1      37.973  30.849  30.901  1.00  0.00     0.049 A 
ATOM     41  N   UNL A   1      39.984  29.008  29.620  1.00  0.00    -0.248 NA
ATOM     42  C   UNL A   1      38.744  29.094  27.647  1.00  0.00     0.031 C 
ATOM     43  C   UNL A   1      36.971  31.649  31.612  1.00  0.00     0.029 A 
ATOM     44  N   UNL A   1      38.945  30.627  31.845  1.00  0.00    -0.354 N 
ATOM     45  C   UNL A   1      40.541  28.143  28.685  1.00  0.00     0.074 A 
ATOM     46  C   UNL A   1      39.688  28.175  27.519  1.00  0.00     0.031 C 
ATOM     47  C   UNL A   1      37.392  31.870  32.868  1.00  0.00     0.029 A 
ATOM     48  C   UNL A   1      38.673  31.203  33.066  1.00  0.00     0.049 A 
ATOM     49  H   UNL A   1      39.759  30.104  31.666  1.00  0.00     0.167 HD
ATOM     50  C   UNL A   1      41.682  27.419  28.771  1.00  0.00     0.034 A 
ATOM     51  C   UNL A   1      39.383  31.197  34.211  1.00  0.00     0.034 A 
ATOM     52  C   UNL A   1      42.577  27.473  29.892  1.00  0.00     0.049 A 
ATOM     53  C   UNL A   1      40.702  30.473  34.244  1.00  0.00     0.074 A 
ATOM     54  C   UNL A   1      43.820  26.882  30.032  1.00  0.00     0.029 A 
ATOM     55  N   UNL A   1      42.332  28.175  31.063  1.00  0.00    -0.354 N 
ATOM     56  N   UNL A   1      41.292  29.793  33.291  1.00  0.00    -0.248 NA
ATOM     57  C   UNL A   1      41.470  30.547  35.495  1.00  0.00     0.031 C 
ATOM     58  C   UNL A   1      44.328  27.231  31.289  1.00  0.00     0.029 A 
ATOM     59  C   UNL A   1      43.402  28.041  31.928  1.00  0.00     0.049 A 
ATOM     60  H   UNL A   1      41.515  28.692  31.250  1.00  0.00     0.167 HD
ATOM     61  C   UNL A   1      42.516  29.389  33.814  1.00  0.00     0.074 A 
ATOM     62  C   UNL A   1      42.589  29.917  35.161  1.00  0.00     0.031 C 
ATOM     63  C   UNL A   1      43.483  28.632  33.239  1.00  0.00     0.034 A 
BRANCH  50  64
ATOM     64  C   UNL A   1      42.062  26.577  27.581  1.00  0.00     0.023 A 
ATOM     65  C   UNL A   1      42.729  27.177  26.493  1.00  0.00     0.012 A 
ATOM     66  C   UNL A   1      41.781  25.197  27.542  1.00  0.00     0.148 A 
ATOM     67  C   UNL A   1      43.070  26.431  25.367  1.00  0.00     0.002 A 
ATOM     68  C   UNL A   1      42.165  24.450  26.433  1.00  0.00     0.091 A 
ATOM     69  F   UNL A   1      41.123  24.645  28.572  1.00  0.00    -0.205 F 
ATOM     70  C   UNL A   1      42.796  25.066  25.341  1.00  0.00     0.022 A 
BRANCH  68  71
ATOM     71  S   UNL A   1      41.923  22.672  26.343  1.00  0.00     0.127 S 
ATOM     72  O   UNL A   1      42.529  22.357  25.051  1.00  0.00    -0.237 OA
ATOM     73  O   UNL A   1      42.678  22.195  27.502  1.00  0.00    -0.237 OA
ATOM     74  O   UNL A   1      40.485  22.464  26.435  1.00  0.00    -0.744 OA
ENDBRANCH  68  71
ENDBRANCH  50  64
BRANCH  51  75
ATOM     75  C   UNL A   1      38.917  31.995  35.381  1.00  0.00     0.023 A 
ATOM     76  C   UNL A   1      39.043  33.397  35.338  1.00  0.00     0.012 A 
ATOM     77  C   UNL A   1      38.323  31.394  36.507  1.00  0.00     0.148 A 
ATOM     78  C   UNL A   1      38.614  34.186  36.405  1.00  0.00     0.002 A 
ATOM     79  C   UNL A   1      37.852  32.189  37.547  1.00  0.00     0.091 A 
ATOM     80  F   UNL A   1      38.221  30.058  36.535  1.00  0.00    -0.205 F 
ATOM     81  C   UNL A   1      38.009  33.584  37.504  1.00  0.00     0.022 A 
BRANCH  79  82
ATOM     82  S   UNL A   1      36.945  31.509  38.941  1.00  0.00     0.127 S 
ATOM     83  O   UNL A   1      35.739  32.332  38.942  1.00  0.00    -0.237 OA
ATOM     84  O   UNL A   1      36.744  30.120  38.527  1.00  0.00    -0.237 OA
ATOM     85  O   UNL A   1      37.827  31.667  40.090  1.00  0.00    -0.744 OA
ENDBRANCH  79  82
ENDBRANCH  51  75
BRANCH  63  86
ATOM     86  C   UNL A   1      44.724  28.358  34.044  1.00  0.00     0.023 A 
ATOM     87  C   UNL A   1      45.807  29.256  33.980  1.00  0.00     0.012 A 
ATOM     88  C   UNL A   1      44.780  27.264  34.928  1.00  0.00     0.148 A 
ATOM     89  C   UNL A   1      46.939  29.056  34.767  1.00  0.00     0.002 A 
ATOM     90  C   UNL A   1      45.893  27.096  35.743  1.00  0.00     0.091 A 
ATOM     91  F   UNL A   1      43.748  26.409  34.957  1.00  0.00    -0.205 F 
ATOM     92  C   UNL A   1      46.976  27.985  35.658  1.00  0.00     0.022 A 
BRANCH  90  93
ATOM     93  S   UNL A   1      45.980  25.799  36.983  1.00  0.00     0.127 S 
ATOM     94  O   UNL A   1      44.584  25.690  37.401  1.00  0.00    -0.237 OA
ATOM     95  O   UNL A   1      46.478  24.659  36.211  1.00  0.00    -0.237 OA
ATOM     96  O   UNL A   1      46.906  26.283  37.999  1.00  0.00    -0.744 OA
ENDBRANCH  90  93
ENDBRANCH  63  86
ENDBRANCH  37  38
ENDBRANCH  29  32
ENDBRANCH  27  28
ENDBRANCH  26  27
ENDBRANCH   1  26
TORSDOF 19
ENDMDL
MODEL 3
REMARK VINA RESULT:     -11.6      1.699      2.066
REMARK SMILES CCC[NH2+][C@]1(C(=O)NCCCCNC(=O)c2ccc(-c3c4nc(c(-c5cccc(S(=O)(=O)[O-])c5F)c5ccc([nH]5)c(-c5cccc(S(=O)(=O)[O-])c5F)c5nc(c(-c6cccc(S(=O)(=O)[O-])c6F)c6ccc3[nH]6)C=C5)C=C4)cc2)CC[C@@H](Sc2nnc(C)n2C)C1
REMARK SMILES IDX 10 1 9 2 8 3 6 4 7 5 5 7 79 8 90 9 80 10 81 11 4 12 3 15
REMARK SMILES IDX 2 16 1 17 82 18 83 19 84 20 88 21 85 22 86 23 89 24 87 25
REMARK SMILES IDX 11 26 12 27 13 28 14 29 15 31 16 32 17 33 78 34 18 35 77 36
REMARK SMILES IDX 19 37 20 38 21 39 71 40 22 41 76 42 70 43 72 44 23 45 75 46
REMARK SMILES IDX 69 47 68 48 24 50 56 51 36 52 55 53 37 54 40 55 54 56 73 57
REMARK SMILES IDX 38 58 39 59 53 61 74 62 41 63 25 64 26 65 34 66 27 67 29 68
REMARK SMILES IDX 35 69 28 70 30 71 31 72 32 73 33 74 57 75 58 76 66 77 59 78
REMARK SMILES IDX 61 79 67 80 60 81 62 82 63 83 64 84 65 85 42 86 43 87 51 88
REMARK SMILES IDX 44 89 46 90 52 91 45 92 47 93 48 94 49 95 50 96
REMARK H PARENT 8 6 4 13 4 14 13 30 72 49 40 60
REMARK Flexibility Score: inf
ROOT
ATOM      1  C   UNL A   1      31.709  27.570  26.341  1.00  0.00     0.023 C 
ENDROOT
BRANCH   1   2
ATOM      2  C   UNL A   1      33.105  27.161  25.870  1.00  0.00     0.116 C 
BRANCH   2   3
ATOM      3  N   UNL A   1      33.032  26.567  24.555  1.00  0.00    -0.351 N 
ATOM      4  C   UNL A   1      33.440  25.377  24.049  1.00  0.00     0.281 C 
ATOM      5  O   UNL A   1      33.314  25.261  22.819  1.00  0.00    -0.268 OA
ATOM      6  H   UNL A   1      32.595  27.145  23.888  1.00  0.00     0.163 HD
BRANCH   4   7
ATOM      7  C   UNL A   1      33.869  24.109  24.880  1.00  0.00     0.176 C 
ATOM      8  C   UNL A   1      32.884  24.029  26.073  1.00  0.00     0.080 C 
ATOM      9  C   UNL A   1      33.660  22.720  24.262  1.00  0.00     0.094 C 
ATOM     10  C   UNL A   1      32.919  22.590  26.593  1.00  0.00     0.022 C 
ATOM     11  C   UNL A   1      33.453  21.748  25.432  1.00  0.00     0.062 C 
BRANCH   7  12
ATOM     12  N   UNL A   1      35.298  24.374  25.224  1.00  0.00    -0.334 N 
ATOM     13  H   UNL A   1      35.447  25.379  25.131  1.00  0.00     0.347 HD
ATOM     14  H   UNL A   1      35.404  23.985  26.160  1.00  0.00     0.347 HD
BRANCH  12  15
ATOM     15  C   UNL A   1      36.341  23.713  24.447  1.00  0.00     0.261 C 
BRANCH  15  16
ATOM     16  C   UNL A   1      37.468  23.183  25.343  1.00  0.00     0.058 C 
ATOM     17  C   UNL A   1      37.499  21.662  25.436  1.00  0.00     0.010 C 
ENDBRANCH  15  16
ENDBRANCH  12  15
ENDBRANCH   7  12
BRANCH  11  18
ATOM     18  S   UNL A   1      32.489  20.254  24.989  1.00  0.00    -0.082 SA
BRANCH  18  19
ATOM     19  C   UNL A   1      33.731  19.074  24.790  1.00  0.00     0.191 A 
ATOM     20  N   UNL A   1      35.007  19.321  24.628  1.00  0.00    -0.123 NA
ATOM     21  N   UNL A   1      33.526  17.724  24.841  1.00  0.00    -0.309 N 
ATOM     22  N   UNL A   1      35.673  18.125  24.711  1.00  0.00    -0.135 NA
ATOM     23  C   UNL A   1      34.783  17.171  24.902  1.00  0.00     0.130 A 
ATOM     24  C   UNL A   1      32.258  17.045  24.840  1.00  0.00     0.154 C 
ATOM     25  C   UNL A   1      35.092  15.749  25.170  1.00  0.00     0.090 C 
ENDBRANCH  18  19
ENDBRANCH  11  18
ENDBRANCH   4   7
ENDBRANCH   2   3
ENDBRANCH   1   2
BRANCH   1  26
ATOM     26  C   UNL A   1      31.600  29.017  26.818  1.00  0.00     0.023 C 
BRANCH  26  27
ATOM     27  C   UNL A   1      32.572  29.981  26.144  1.00  0.00     0.116 C 
BRANCH  27  28
ATOM     28  N   UNL A   1      32.420  31.371  26.577  1.00  0.00    -0.352 N 
ATOM     29  C   UNL A   1      33.261  32.141  27.348  1.00  0.00     0.251 C 
ATOM     30  H   UNL A   1      31.597  31.820  26.273  1.00  0.00     0.163 HD
ATOM     31  O   UNL A   1      32.921  33.263  27.695  1.00  0.00    -0.269 OA
BRANCH  29  32
ATOM     32  C   UNL A   1      34.559  31.577  27.776  1.00  0.00     0.039 A 
ATOM     33  C   UNL A   1      35.637  32.434  28.008  1.00  0.00     0.014 A 
ATOM     34  C   UNL A   1      34.675  30.209  28.026  1.00  0.00     0.014 A 
ATOM     35  C   UNL A   1      36.800  31.928  28.591  1.00  0.00     0.010 A 
ATOM     36  C   UNL A   1      35.787  29.733  28.703  1.00  0.00     0.010 A 
ATOM     37  C   UNL A   1      36.863  30.585  28.996  1.00  0.00    -0.014 A 
BRANCH  37  38
ATOM     38  C   UNL A   1      38.022  30.036  29.746  1.00  0.00     0.031 A 
ATOM     39  C   UNL A   1      38.273  30.479  31.163  1.00  0.00     0.074 A 
ATOM     40  C   UNL A   1      38.921  29.257  29.111  1.00  0.00     0.049 A 
ATOM     41  N   UNL A   1      39.301  30.241  31.933  1.00  0.00    -0.248 NA
ATOM     42  C   UNL A   1      37.256  31.353  31.775  1.00  0.00     0.031 C 
ATOM     43  C   UNL A   1      38.848  28.841  27.708  1.00  0.00     0.029 A 
ATOM     44  N   UNL A   1      40.093  28.698  29.558  1.00  0.00    -0.354 N 
ATOM     45  C   UNL A   1      39.089  30.986  33.087  1.00  0.00     0.074 A 
ATOM     46  C   UNL A   1      37.855  31.715  32.900  1.00  0.00     0.031 C 
ATOM     47  C   UNL A   1      39.913  28.076  27.416  1.00  0.00     0.029 A 
ATOM     48  C   UNL A   1      40.762  27.972  28.598  1.00  0.00     0.049 A 
ATOM     49  H   UNL A   1      40.425  28.807  30.478  1.00  0.00     0.167 HD
ATOM     50  C   UNL A   1      39.830  31.028  34.219  1.00  0.00     0.034 A 
ATOM     51  C   UNL A   1      41.924  27.294  28.667  1.00  0.00     0.034 A 
ATOM     52  C   UNL A   1      40.999  30.222  34.437  1.00  0.00     0.049 A 
ATOM     53  C   UNL A   1      42.673  27.270  29.972  1.00  0.00     0.074 A 
ATOM     54  C   UNL A   1      41.752  30.090  35.590  1.00  0.00     0.029 A 
ATOM     55  N   UNL A   1      41.573  29.395  33.484  1.00  0.00    -0.354 N 
ATOM     56  N   UNL A   1      42.370  27.853  31.107  1.00  0.00    -0.248 NA
ATOM     57  C   UNL A   1      43.903  26.467  30.018  1.00  0.00     0.031 C 
ATOM     58  C   UNL A   1      42.783  29.178  35.332  1.00  0.00     0.029 A 
ATOM     59  C   UNL A   1      42.667  28.741  34.022  1.00  0.00     0.049 A 
ATOM     60  H   UNL A   1      41.250  29.288  32.560  1.00  0.00     0.167 HD
ATOM     61  C   UNL A   1      43.349  27.457  32.012  1.00  0.00     0.074 A 
ATOM     62  C   UNL A   1      44.244  26.571  31.296  1.00  0.00     0.031 C 
ATOM     63  C   UNL A   1      43.504  27.811  33.312  1.00  0.00     0.034 A 
BRANCH  50  64
ATOM     64  C   UNL A   1      39.345  31.916  35.335  1.00  0.00     0.023 A 
ATOM     65  C   UNL A   1      38.382  31.424  36.242  1.00  0.00     0.012 A 
ATOM     66  C   UNL A   1      39.848  33.220  35.504  1.00  0.00     0.148 A 
ATOM     67  C   UNL A   1      37.893  32.229  37.267  1.00  0.00     0.002 A 
ATOM     68  C   UNL A   1      39.387  34.002  36.559  1.00  0.00     0.091 A 
ATOM     69  F   UNL A   1      40.743  33.684  34.621  1.00  0.00    -0.205 F 
ATOM     70  C   UNL A   1      38.402  33.514  37.432  1.00  0.00     0.022 A 
BRANCH  68  71
ATOM     71  S   UNL A   1      40.041  35.642  36.895  1.00  0.00     0.127 S 
ATOM     72  O   UNL A   1      39.365  35.977  38.147  1.00  0.00    -0.237 OA
ATOM     73  O   UNL A   1      41.475  35.385  37.028  1.00  0.00    -0.237 OA
ATOM     74  O   UNL A   1      39.678  36.455  35.744  1.00  0.00    -0.744 OA
ENDBRANCH  68  71
ENDBRANCH  50  64
BRANCH  51  75
ATOM     75  C   UNL A   1      42.389  26.490  27.502  1.00  0.00     0.023 A 
ATOM     76  C   UNL A   1      43.194  27.112  26.527  1.00  0.00     0.012 A 
ATOM     77  C   UNL A   1      42.082  25.123  27.366  1.00  0.00     0.148 A 
ATOM     78  C   UNL A   1      43.660  26.398  25.423  1.00  0.00     0.002 A 
ATOM     79  C   UNL A   1      42.591  24.403  26.289  1.00  0.00     0.091 A 
ATOM     80  F   UNL A   1      41.307  24.550  28.297  1.00  0.00    -0.205 F 
ATOM     81  C   UNL A   1      43.368  25.043  25.309  1.00  0.00     0.022 A 
BRANCH  79  82
ATOM     82  S   UNL A   1      42.373  22.627  26.131  1.00  0.00     0.127 S 
ATOM     83  O   UNL A   1      40.918  22.508  26.092  1.00  0.00    -0.237 OA
ATOM     84  O   UNL A   1      43.050  22.347  24.864  1.00  0.00    -0.237 OA
ATOM     85  O   UNL A   1      43.029  22.051  27.298  1.00  0.00    -0.744 OA
ENDBRANCH  79  82
ENDBRANCH  51  75
BRANCH  63  86
ATOM     86  C   UNL A   1      44.663  27.213  34.062  1.00  0.00     0.023 A 
ATOM     87  C   UNL A   1      45.917  27.852  34.028  1.00  0.00     0.012 A 
ATOM     88  C   UNL A   1      44.485  26.073  34.869  1.00  0.00     0.148 A 
ATOM     89  C   UNL A   1      46.986  27.351  34.770  1.00  0.00     0.002 A 
ATOM     90  C   UNL A   1      45.542  25.606  35.641  1.00  0.00     0.091 A 
ATOM     91  F   UNL A   1      43.289  25.467  34.870  1.00  0.00    -0.205 F 
ATOM     92  C   UNL A   1      46.795  26.238  35.585  1.00  0.00     0.022 A 
BRANCH  90  93
ATOM     93  S   UNL A   1      45.355  24.237  36.789  1.00  0.00     0.127 S 
ATOM     94  O   UNL A   1      46.679  24.179  37.405  1.00  0.00    -0.237 OA
ATOM     95  O   UNL A   1      44.290  24.714  37.674  1.00  0.00    -0.237 OA
ATOM     96  O   UNL A   1      44.987  23.085  35.977  1.00  0.00    -0.744 OA
ENDBRANCH  90  93
ENDBRANCH  63  86
ENDBRANCH  37  38
ENDBRANCH  29  32
ENDBRANCH  27  28
ENDBRANCH  26  27
ENDBRANCH   1  26
TORSDOF 19
ENDMDL
