MODEL 1
REMARK VINA RESULT:     -11.8      0.000      0.000
REMARK SMILES CC[C@@H](C)[C@@H](NC(=O)CCn1ccc2ccc(Br)cc21)C(=O)NCCCCNC(=O)c1ccc(-c2c3nc(c(-c4cccc(S(=O)(=O)[O-])c4F)c4ccc([nH]4)c(-c4cccc(S(=O)(=O)[O-])c4F)c4nc(c(-c5cccc(S(=O)(=O)[O-])c5F)c5ccc2[nH]5)C=C4)C=C3)cc1
REMARK SMILES IDX 25 1 24 2 23 3 21 4 22 5 5 7 3 8 4 9 2 10 1 11 6 12 7 13
REMARK SMILES IDX 8 15 9 16 10 17 11 18 12 19 20 20 13 21 14 22 19 23 15 24
REMARK SMILES IDX 17 25 16 26 18 27 26 28 27 29 28 30 29 31 30 33 31 34 32 35
REMARK SMILES IDX 93 36 33 37 92 38 34 39 35 40 36 41 86 42 37 43 91 44 85 45
REMARK SMILES IDX 87 46 38 47 90 48 84 49 83 50 39 52 71 53 51 54 70 55 52 56
REMARK SMILES IDX 55 57 69 58 88 59 53 60 54 61 68 63 89 64 56 65 40 66 41 67
REMARK SMILES IDX 49 68 42 69 44 70 50 71 43 72 45 73 46 74 47 75 48 76 72 77
REMARK SMILES IDX 73 78 81 79 74 80 76 81 82 82 75 83 77 84 78 85 79 86 80 87
REMARK SMILES IDX 57 88 58 89 66 90 59 91 61 92 67 93 60 94 62 95 63 96 64 97
REMARK SMILES IDX 65 98
REMARK H PARENT 23 6 6 14 28 32 87 51 55 62
REMARK Flexibility Score: inf
ROOT
ATOM      1  C   UNL A   1      33.198  27.774  26.770  1.00  0.00     0.023 C 
ENDROOT
BRANCH   1   2
ATOM      2  C   UNL A   1      31.934  26.823  26.671  1.00  0.00     0.116 C 
BRANCH   2   3
ATOM      3  N   UNL A   1      31.915  25.222  26.841  1.00  0.00    -0.354 N 
ATOM      4  C   UNL A   1      32.335  23.913  26.653  1.00  0.00     0.242 C 
ATOM      5  O   UNL A   1      31.576  23.167  27.326  1.00  0.00    -0.273 OA
ATOM      6  H   UNL A   1      31.140  25.096  27.436  1.00  0.00     0.163 HD
BRANCH   4   7
ATOM      7  C   UNL A   1      33.635  23.058  25.959  1.00  0.00     0.174 C 
BRANCH   7   8
ATOM      8  C   UNL A   1      35.204  22.887  26.254  1.00  0.00     0.018 C 
ATOM      9  C   UNL A   1      36.085  24.054  25.755  1.00  0.00     0.010 C 
BRANCH   8  10
ATOM     10  C   UNL A   1      35.909  21.536  25.859  1.00  0.00     0.002 C 
ATOM     11  C   UNL A   1      36.706  21.624  24.546  1.00  0.00     0.004 C 
ENDBRANCH   8  10
ENDBRANCH   7   8
BRANCH   7  12
ATOM     12  N   UNL A   1      33.123  21.805  25.452  1.00  0.00    -0.344 N 
ATOM     13  C   UNL A   1      32.618  21.655  24.208  1.00  0.00     0.222 C 
ATOM     14  H   UNL A   1      33.142  21.020  26.045  1.00  0.00     0.164 HD
ATOM     15  O   UNL A   1      31.969  20.651  23.930  1.00  0.00    -0.275 OA
BRANCH  13  16
ATOM     16  C   UNL A   1      33.015  22.686  23.184  1.00  0.00     0.122 C 
BRANCH  16  17
ATOM     17  C   UNL A   1      32.141  23.979  22.959  1.00  0.00     0.132 C 
BRANCH  17  18
ATOM     18  N   UNL A   1      32.155  25.469  23.152  1.00  0.00    -0.347 N 
ATOM     19  C   UNL A   1      33.443  25.935  23.482  1.00  0.00     0.087 A 
ATOM     20  C   UNL A   1      31.354  26.667  23.069  1.00  0.00     0.049 A 
ATOM     21  C   UNL A   1      33.543  27.270  23.210  1.00  0.00     0.028 A 
ATOM     22  C   UNL A   1      32.254  27.752  22.919  1.00  0.00    -0.000 A 
ATOM     23  C   UNL A   1      29.980  27.091  23.130  1.00  0.00     0.042 A 
ATOM     24  C   UNL A   1      31.783  29.050  22.574  1.00  0.00     0.011 A 
ATOM     25  C   UNL A   1      29.529  28.386  22.857  1.00  0.00     0.020 A 
ATOM     26  C   UNL A   1      30.424  29.356  22.507  1.00  0.00     0.016 A 
ATOM     27  Br  UNL A   1      27.684  28.795  23.033  1.00  0.00    -0.051 Br
ENDBRANCH  17  18
ENDBRANCH  16  17
ENDBRANCH  13  16
ENDBRANCH   7  12
ENDBRANCH   4   7
ENDBRANCH   2   3
ENDBRANCH   1   2
BRANCH   1  28
ATOM     28  C   UNL A   1      32.981  29.293  26.884  1.00  0.00     0.023 C 
BRANCH  28  29
ATOM     29  C   UNL A   1      34.243  30.098  27.146  1.00  0.00     0.116 C 
BRANCH  29  30
ATOM     30  N   UNL A   1      34.085  31.088  28.194  1.00  0.00    -0.352 N 
ATOM     31  C   UNL A   1      34.957  31.652  29.092  1.00  0.00     0.251 C 
ATOM     32  H   UNL A   1      33.164  31.425  28.277  1.00  0.00     0.163 HD
ATOM     33  O   UNL A   1      34.582  32.698  29.626  1.00  0.00    -0.269 OA
BRANCH  31  34
ATOM     34  C   UNL A   1      36.242  31.039  29.522  1.00  0.00     0.039 A 
ATOM     35  C   UNL A   1      37.488  31.631  29.336  1.00  0.00     0.014 A 
ATOM     36  C   UNL A   1      36.187  29.717  30.010  1.00  0.00     0.014 A 
ATOM     37  C   UNL A   1      38.641  30.889  29.493  1.00  0.00     0.010 A 
ATOM     38  C   UNL A   1      37.349  28.978  30.211  1.00  0.00     0.010 A 
ATOM     39  C   UNL A   1      38.572  29.550  29.886  1.00  0.00    -0.014 A 
BRANCH  39  40
ATOM     40  C   UNL A   1      39.850  28.858  29.991  1.00  0.00     0.031 A 
ATOM     41  C   UNL A   1      40.461  28.922  31.354  1.00  0.00     0.074 A 
ATOM     42  C   UNL A   1      40.437  28.219  28.962  1.00  0.00     0.049 A 
ATOM     43  N   UNL A   1      41.556  29.514  31.712  1.00  0.00    -0.248 NA
ATOM     44  C   UNL A   1      39.647  28.432  32.478  1.00  0.00     0.031 C 
ATOM     45  C   UNL A   1      39.877  27.869  27.655  1.00  0.00     0.029 A 
ATOM     46  N   UNL A   1      41.660  27.627  28.938  1.00  0.00    -0.354 N 
ATOM     47  C   UNL A   1      41.664  29.305  33.086  1.00  0.00     0.074 A 
ATOM     48  C   UNL A   1      40.399  28.773  33.524  1.00  0.00     0.031 C 
ATOM     49  C   UNL A   1      40.636  26.898  27.099  1.00  0.00     0.029 A 
ATOM     50  C   UNL A   1      41.799  26.675  27.937  1.00  0.00     0.049 A 
ATOM     51  H   UNL A   1      42.379  27.853  29.570  1.00  0.00     0.167 HD
ATOM     52  C   UNL A   1      42.845  29.397  33.755  1.00  0.00     0.034 A 
ATOM     53  C   UNL A   1      42.751  25.710  27.899  1.00  0.00     0.034 A 
ATOM     54  C   UNL A   1      43.845  30.107  33.014  1.00  0.00     0.049 A 
ATOM     55  C   UNL A   1      43.868  26.178  28.756  1.00  0.00     0.074 A 
ATOM     56  C   UNL A   1      43.992  31.404  32.565  1.00  0.00     0.029 A 
ATOM     57  N   UNL A   1      44.750  29.356  32.306  1.00  0.00    -0.354 N 
ATOM     58  N   UNL A   1      44.594  27.228  28.489  1.00  0.00    -0.248 NA
ATOM     59  C   UNL A   1      43.905  25.725  30.138  1.00  0.00     0.031 C 
ATOM     60  C   UNL A   1      44.613  31.277  31.288  1.00  0.00     0.029 A 
ATOM     61  C   UNL A   1      44.844  29.919  31.060  1.00  0.00     0.049 A 
ATOM     62  H   UNL A   1      45.237  28.564  32.631  1.00  0.00     0.167 HD
ATOM     63  C   UNL A   1      44.829  27.815  29.725  1.00  0.00     0.074 A 
ATOM     64  C   UNL A   1      44.464  26.797  30.706  1.00  0.00     0.031 C 
ATOM     65  C   UNL A   1      45.027  29.159  29.845  1.00  0.00     0.034 A 
BRANCH  52  66
ATOM     66  C   UNL A   1      43.188  28.552  34.949  1.00  0.00     0.023 A 
ATOM     67  C   UNL A   1      43.658  29.186  36.117  1.00  0.00     0.012 A 
ATOM     68  C   UNL A   1      43.322  27.146  34.876  1.00  0.00     0.148 A 
ATOM     69  C   UNL A   1      44.242  28.453  37.158  1.00  0.00     0.002 A 
ATOM     70  C   UNL A   1      43.837  26.417  35.937  1.00  0.00     0.091 A 
ATOM     71  F   UNL A   1      43.074  26.519  33.719  1.00  0.00    -0.205 F 
ATOM     72  C   UNL A   1      44.320  27.066  37.074  1.00  0.00     0.022 A 
BRANCH  70  73
ATOM     73  S   UNL A   1      43.934  24.625  35.883  1.00  0.00     0.127 S 
ATOM     74  O   UNL A   1      44.861  24.414  34.779  1.00  0.00    -0.237 OA
ATOM     75  O   UNL A   1      44.460  24.312  37.210  1.00  0.00    -0.237 OA
ATOM     76  O   UNL A   1      42.560  24.172  35.667  1.00  0.00    -0.744 OA
ENDBRANCH  70  73
ENDBRANCH  52  66
BRANCH  53  77
ATOM     77  C   UNL A   1      42.612  24.284  27.500  1.00  0.00     0.023 A 
ATOM     78  C   UNL A   1      41.389  23.627  27.744  1.00  0.00     0.012 A 
ATOM     79  C   UNL A   1      43.535  23.661  26.629  1.00  0.00     0.148 A 
ATOM     80  C   UNL A   1      41.071  22.425  27.100  1.00  0.00     0.002 A 
ATOM     81  C   UNL A   1      43.220  22.457  26.003  1.00  0.00     0.091 A 
ATOM     82  F   UNL A   1      44.679  24.290  26.330  1.00  0.00    -0.205 F 
ATOM     83  C   UNL A   1      41.981  21.846  26.222  1.00  0.00     0.022 A 
BRANCH  81  84
ATOM     84  S   UNL A   1      44.350  21.658  24.852  1.00  0.00     0.127 S 
ATOM     85  O   UNL A   1      45.615  21.703  25.587  1.00  0.00    -0.237 OA
ATOM     86  O   UNL A   1      43.763  20.328  24.726  1.00  0.00    -0.237 OA
ATOM     87  O   UNL A   1      44.332  22.479  23.648  1.00  0.00    -0.744 OA
ENDBRANCH  81  84
ENDBRANCH  53  77
BRANCH  65  88
ATOM     88  C   UNL A   1      45.177  29.969  28.584  1.00  0.00     0.023 A 
ATOM     89  C   UNL A   1      44.060  30.376  27.824  1.00  0.00     0.012 A 
ATOM     90  C   UNL A   1      46.439  30.506  28.286  1.00  0.00     0.148 A 
ATOM     91  C   UNL A   1      44.201  31.300  26.784  1.00  0.00     0.002 A 
ATOM     92  C   UNL A   1      46.569  31.451  27.276  1.00  0.00     0.091 A 
ATOM     93  F   UNL A   1      47.481  30.120  29.036  1.00  0.00    -0.205 F 
ATOM     94  C   UNL A   1      45.455  31.847  26.519  1.00  0.00     0.022 A 
BRANCH  92  95
ATOM     95  S   UNL A   1      48.126  32.284  26.954  1.00  0.00     0.127 S 
ATOM     96  O   UNL A   1      48.416  32.901  28.246  1.00  0.00    -0.237 OA
ATOM     97  O   UNL A   1      49.004  31.169  26.596  1.00  0.00    -0.237 OA
ATOM     98  O   UNL A   1      47.869  33.218  25.863  1.00  0.00    -0.744 OA
ENDBRANCH  92  95
ENDBRANCH  65  88
ENDBRANCH  39  40
ENDBRANCH  31  34
ENDBRANCH  29  30
ENDBRANCH  28  29
ENDBRANCH   1  28
TORSDOF 20
ENDMDL
MODEL 2
REMARK VINA RESULT:     -11.8      2.142      3.636
REMARK SMILES CC[C@@H](C)[C@@H](NC(=O)CCn1ccc2ccc(Br)cc21)C(=O)NCCCCNC(=O)c1ccc(-c2c3nc(c(-c4cccc(S(=O)(=O)[O-])c4F)c4ccc([nH]4)c(-c4cccc(S(=O)(=O)[O-])c4F)c4nc(c(-c5cccc(S(=O)(=O)[O-])c5F)c5ccc2[nH]5)C=C4)C=C3)cc1
REMARK SMILES IDX 25 1 24 2 23 3 21 4 22 5 5 7 3 8 4 9 2 10 1 11 6 12 7 13
REMARK SMILES IDX 8 15 9 16 10 17 11 18 12 19 20 20 13 21 14 22 19 23 15 24
REMARK SMILES IDX 17 25 16 26 18 27 26 28 27 29 28 30 29 31 30 33 31 34 32 35
REMARK SMILES IDX 93 36 33 37 92 38 34 39 35 40 36 41 86 42 37 43 91 44 85 45
REMARK SMILES IDX 87 46 38 47 90 48 84 49 83 50 39 52 71 53 51 54 70 55 52 56
REMARK SMILES IDX 55 57 69 58 88 59 53 60 54 61 68 63 89 64 56 65 40 66 41 67
REMARK SMILES IDX 49 68 42 69 44 70 50 71 43 72 45 73 46 74 47 75 48 76 72 77
REMARK SMILES IDX 73 78 81 79 74 80 76 81 82 82 75 83 77 84 78 85 79 86 80 87
REMARK SMILES IDX 57 88 58 89 66 90 59 91 61 92 67 93 60 94 62 95 63 96 64 97
REMARK SMILES IDX 65 98
REMARK H PARENT 23 6 6 14 28 32 87 51 55 62
REMARK Flexibility Score: inf
ROOT
ATOM      1  C   UNL A   1      33.485  29.675  27.035  1.00  0.00     0.023 C 
ENDROOT
BRANCH   1   2
ATOM      2  C   UNL A   1      32.318  30.559  26.426  1.00  0.00     0.116 C 
BRANCH   2   3
ATOM      3  N   UNL A   1      31.370  30.182  25.181  1.00  0.00    -0.354 N 
ATOM      4  C   UNL A   1      30.975  29.503  24.037  1.00  0.00     0.242 C 
ATOM      5  O   UNL A   1      29.855  29.961  23.688  1.00  0.00    -0.273 OA
ATOM      6  H   UNL A   1      30.622  30.810  25.305  1.00  0.00     0.163 HD
BRANCH   4   7
ATOM      7  C   UNL A   1      31.445  28.159  23.102  1.00  0.00     0.174 C 
BRANCH   7   8
ATOM      8  C   UNL A   1      32.817  27.386  22.784  1.00  0.00     0.018 C 
ATOM      9  C   UNL A   1      34.072  28.286  22.755  1.00  0.00     0.010 C 
BRANCH   8  10
ATOM     10  C   UNL A   1      32.875  26.422  21.541  1.00  0.00     0.002 C 
ATOM     11  C   UNL A   1      32.963  24.934  21.925  1.00  0.00     0.004 C 
ENDBRANCH   8  10
ENDBRANCH   7   8
BRANCH   7  12
ATOM     12  N   UNL A   1      30.370  27.194  23.139  1.00  0.00    -0.344 N 
ATOM     13  C   UNL A   1      30.271  26.225  24.075  1.00  0.00     0.222 C 
ATOM     14  H   UNL A   1      29.674  27.244  22.444  1.00  0.00     0.164 HD
ATOM     15  O   UNL A   1      29.494  25.289  23.905  1.00  0.00    -0.275 OA
BRANCH  13  16
ATOM     16  C   UNL A   1      31.032  26.437  25.357  1.00  0.00     0.122 C 
BRANCH  16  17
ATOM     17  C   UNL A   1      32.026  25.339  25.897  1.00  0.00     0.132 C 
BRANCH  17  18
ATOM     18  N   UNL A   1      33.154  24.445  25.467  1.00  0.00    -0.347 N 
ATOM     19  C   UNL A   1      34.374  25.147  25.405  1.00  0.00     0.087 A 
ATOM     20  C   UNL A   1      33.510  23.085  25.140  1.00  0.00     0.049 A 
ATOM     21  C   UNL A   1      35.423  24.273  25.465  1.00  0.00     0.028 A 
ATOM     22  C   UNL A   1      34.910  22.970  25.331  1.00  0.00    -0.000 A 
ATOM     23  C   UNL A   1      32.914  21.866  24.658  1.00  0.00     0.042 A 
ATOM     24  C   UNL A   1      35.547  21.697  25.321  1.00  0.00     0.011 A 
ATOM     25  C   UNL A   1      33.566  20.631  24.585  1.00  0.00     0.020 A 
ATOM     26  C   UNL A   1      34.867  20.526  24.984  1.00  0.00     0.016 A 
ATOM     27  Br  UNL A   1      32.652  19.127  23.876  1.00  0.00    -0.051 Br
ENDBRANCH  17  18
ENDBRANCH  16  17
ENDBRANCH  13  16
ENDBRANCH   7  12
ENDBRANCH   4   7
ENDBRANCH   2   3
ENDBRANCH   1   2
BRANCH   1  28
ATOM     28  C   UNL A   1      34.825  30.345  27.381  1.00  0.00     0.023 C 
BRANCH  28  29
ATOM     29  C   UNL A   1      34.720  31.807  27.782  1.00  0.00     0.116 C 
BRANCH  29  30
ATOM     30  N   UNL A   1      34.381  31.995  29.179  1.00  0.00    -0.352 N 
ATOM     31  C   UNL A   1      35.111  31.933  30.340  1.00  0.00     0.251 C 
ATOM     32  H   UNL A   1      33.432  32.213  29.325  1.00  0.00     0.163 HD
ATOM     33  O   UNL A   1      34.603  32.466  31.329  1.00  0.00    -0.269 OA
BRANCH  31  34
ATOM     34  C   UNL A   1      36.393  31.193  30.494  1.00  0.00     0.039 A 
ATOM     35  C   UNL A   1      37.642  31.804  30.555  1.00  0.00     0.014 A 
ATOM     36  C   UNL A   1      36.330  29.786  30.426  1.00  0.00     0.014 A 
ATOM     37  C   UNL A   1      38.791  31.054  30.407  1.00  0.00     0.010 A 
ATOM     38  C   UNL A   1      37.488  29.021  30.320  1.00  0.00     0.010 A 
ATOM     39  C   UNL A   1      38.714  29.669  30.243  1.00  0.00    -0.014 A 
BRANCH  39  40
ATOM     40  C   UNL A   1      39.988  28.983  30.068  1.00  0.00     0.031 A 
ATOM     41  C   UNL A   1      40.711  28.716  31.349  1.00  0.00     0.074 A 
ATOM     42  C   UNL A   1      40.479  28.623  28.868  1.00  0.00     0.049 A 
ATOM     43  N   UNL A   1      41.840  29.211  31.748  1.00  0.00    -0.248 NA
ATOM     44  C   UNL A   1      39.988  27.956  32.382  1.00  0.00     0.031 C 
ATOM     45  C   UNL A   1      39.808  28.600  27.567  1.00  0.00     0.029 A 
ATOM     46  N   UNL A   1      41.689  28.066  28.596  1.00  0.00    -0.354 N 
ATOM     47  C   UNL A   1      42.059  28.671  33.014  1.00  0.00     0.074 A 
ATOM     48  C   UNL A   1      40.829  28.036  33.412  1.00  0.00     0.031 C 
ATOM     49  C   UNL A   1      40.507  27.802  26.727  1.00  0.00     0.029 A 
ATOM     50  C   UNL A   1      41.733  27.391  27.384  1.00  0.00     0.049 A 
ATOM     51  H   UNL A   1      42.462  28.136  29.202  1.00  0.00     0.167 HD
ATOM     52  C   UNL A   1      43.293  28.607  33.584  1.00  0.00     0.034 A 
ATOM     53  C   UNL A   1      42.667  26.473  27.030  1.00  0.00     0.034 A 
ATOM     54  C   UNL A   1      44.236  29.487  32.960  1.00  0.00     0.049 A 
ATOM     55  C   UNL A   1      43.857  26.727  27.879  1.00  0.00     0.074 A 
ATOM     56  C   UNL A   1      44.360  30.855  32.832  1.00  0.00     0.029 A 
ATOM     57  N   UNL A   1      45.069  28.941  32.015  1.00  0.00    -0.354 N 
ATOM     58  N   UNL A   1      44.571  27.817  27.819  1.00  0.00    -0.248 NA
ATOM     59  C   UNL A   1      44.005  25.948  29.099  1.00  0.00     0.031 C 
ATOM     60  C   UNL A   1      44.871  31.052  31.517  1.00  0.00     0.029 A 
ATOM     61  C   UNL A   1      45.066  29.794  30.943  1.00  0.00     0.049 A 
ATOM     62  H   UNL A   1      45.572  28.098  32.093  1.00  0.00     0.167 HD
ATOM     63  C   UNL A   1      44.915  28.084  29.137  1.00  0.00     0.074 A 
ATOM     64  C   UNL A   1      44.621  26.852  29.865  1.00  0.00     0.031 C 
ATOM     65  C   UNL A   1      45.138  29.359  29.567  1.00  0.00     0.034 A 
BRANCH  52  66
ATOM     66  C   UNL A   1      43.725  27.497  34.501  1.00  0.00     0.023 A 
ATOM     67  C   UNL A   1      44.260  27.828  35.762  1.00  0.00     0.012 A 
ATOM     68  C   UNL A   1      43.873  26.161  34.063  1.00  0.00     0.148 A 
ATOM     69  C   UNL A   1      44.921  26.872  36.545  1.00  0.00     0.002 A 
ATOM     70  C   UNL A   1      44.466  25.202  34.870  1.00  0.00     0.091 A 
ATOM     71  F   UNL A   1      43.559  25.840  32.802  1.00  0.00    -0.205 F 
ATOM     72  C   UNL A   1      45.013  25.555  36.105  1.00  0.00     0.022 A 
BRANCH  70  73
ATOM     73  S   UNL A   1      44.585  23.486  34.356  1.00  0.00     0.127 S 
ATOM     74  O   UNL A   1      43.203  23.189  34.001  1.00  0.00    -0.237 OA
ATOM     75  O   UNL A   1      45.515  23.571  33.233  1.00  0.00    -0.237 OA
ATOM     76  O   UNL A   1      45.120  22.773  35.516  1.00  0.00    -0.744 OA
ENDBRANCH  70  73
ENDBRANCH  52  66
BRANCH  53  77
ATOM     77  C   UNL A   1      42.479  25.189  26.306  1.00  0.00     0.023 A 
ATOM     78  C   UNL A   1      43.421  24.818  25.324  1.00  0.00     0.012 A 
ATOM     79  C   UNL A   1      41.580  24.199  26.765  1.00  0.00     0.148 A 
ATOM     80  C   UNL A   1      43.504  23.501  24.859  1.00  0.00     0.002 A 
ATOM     81  C   UNL A   1      41.657  22.893  26.288  1.00  0.00     0.091 A 
ATOM     82  F   UNL A   1      40.716  24.504  27.741  1.00  0.00    -0.205 F 
ATOM     83  C   UNL A   1      42.630  22.536  25.349  1.00  0.00     0.022 A 
BRANCH  81  84
ATOM     84  S   UNL A   1      40.560  21.596  26.883  1.00  0.00     0.127 S 
ATOM     85  O   UNL A   1      41.127  20.403  26.251  1.00  0.00    -0.237 OA
ATOM     86  O   UNL A   1      40.755  21.673  28.328  1.00  0.00    -0.237 OA
ATOM     87  O   UNL A   1      39.231  21.950  26.400  1.00  0.00    -0.744 OA
ENDBRANCH  81  84
ENDBRANCH  53  77
BRANCH  65  88
ATOM     88  C   UNL A   1      45.192  30.456  28.536  1.00  0.00     0.023 A 
ATOM     89  C   UNL A   1      44.037  31.167  28.145  1.00  0.00     0.012 A 
ATOM     90  C   UNL A   1      46.451  30.916  28.122  1.00  0.00     0.148 A 
ATOM     91  C   UNL A   1      44.138  32.314  27.353  1.00  0.00     0.002 A 
ATOM     92  C   UNL A   1      46.550  32.077  27.366  1.00  0.00     0.091 A 
ATOM     93  F   UNL A   1      47.534  30.235  28.524  1.00  0.00    -0.205 F 
ATOM     94  C   UNL A   1      45.397  32.777  26.975  1.00  0.00     0.022 A 
BRANCH  92  95
ATOM     95  S   UNL A   1      48.138  32.796  26.939  1.00  0.00     0.127 S 
ATOM     96  O   UNL A   1      47.765  33.780  25.924  1.00  0.00    -0.237 OA
ATOM     97  O   UNL A   1      48.571  33.367  28.214  1.00  0.00    -0.237 OA
ATOM     98  O   UNL A   1      48.967  31.696  26.462  1.00  0.00    -0.744 OA
ENDBRANCH  92  95
ENDBRANCH  65  88
ENDBRANCH  39  40
ENDBRANCH  31  34
ENDBRANCH  29  30
ENDBRANCH  28  29
ENDBRANCH   1  28
TORSDOF 20
ENDMDL
MODEL 3
REMARK VINA RESULT:     -11.3      3.324      8.508
REMARK SMILES CC[C@@H](C)[C@@H](NC(=O)CCn1ccc2ccc(Br)cc21)C(=O)NCCCCNC(=O)c1ccc(-c2c3nc(c(-c4cccc(S(=O)(=O)[O-])c4F)c4ccc([nH]4)c(-c4cccc(S(=O)(=O)[O-])c4F)c4nc(c(-c5cccc(S(=O)(=O)[O-])c5F)c5ccc2[nH]5)C=C4)C=C3)cc1
REMARK SMILES IDX 25 1 24 2 23 3 21 4 22 5 5 7 3 8 4 9 2 10 1 11 6 12 7 13
REMARK SMILES IDX 8 15 9 16 10 17 11 18 12 19 20 20 13 21 14 22 19 23 15 24
REMARK SMILES IDX 17 25 16 26 18 27 26 28 27 29 28 30 29 31 30 33 31 34 32 35
REMARK SMILES IDX 93 36 33 37 92 38 34 39 35 40 36 41 86 42 37 43 91 44 85 45
REMARK SMILES IDX 87 46 38 47 90 48 84 49 83 50 39 52 71 53 51 54 70 55 52 56
REMARK SMILES IDX 55 57 69 58 88 59 53 60 54 61 68 63 89 64 56 65 40 66 41 67
REMARK SMILES IDX 49 68 42 69 44 70 50 71 43 72 45 73 46 74 47 75 48 76 72 77
REMARK SMILES IDX 73 78 81 79 74 80 76 81 82 82 75 83 77 84 78 85 79 86 80 87
REMARK SMILES IDX 57 88 58 89 66 90 59 91 61 92 67 93 60 94 62 95 63 96 64 97
REMARK SMILES IDX 65 98
REMARK H PARENT 23 6 6 14 28 32 87 51 55 62
REMARK Flexibility Score: inf
ROOT
ATOM      1  C   UNL A   1      37.827  20.725  24.989  1.00  0.00     0.023 C 
ENDROOT
BRANCH   1   2
ATOM      2  C   UNL A   1      36.776  19.557  24.780  1.00  0.00     0.116 C 
BRANCH   2   3
ATOM      3  N   UNL A   1      35.176  19.658  24.931  1.00  0.00    -0.354 N 
ATOM      4  C   UNL A   1      33.953  20.266  25.175  1.00  0.00     0.242 C 
ATOM      5  O   UNL A   1      33.055  19.399  25.011  1.00  0.00    -0.273 OA
ATOM      6  H   UNL A   1      34.900  18.735  24.728  1.00  0.00     0.163 HD
BRANCH   4   7
ATOM      7  C   UNL A   1      33.310  21.821  25.440  1.00  0.00     0.174 C 
BRANCH   7   8
ATOM      8  C   UNL A   1      31.856  22.447  25.711  1.00  0.00     0.018 C 
ATOM      9  C   UNL A   1      31.147  22.998  24.454  1.00  0.00     0.010 C 
BRANCH   8  10
ATOM     10  C   UNL A   1      31.685  23.498  26.871  1.00  0.00     0.002 C 
ATOM     11  C   UNL A   1      30.761  24.672  26.502  1.00  0.00     0.004 C 
ENDBRANCH   8  10
ENDBRANCH   7   8
BRANCH   7  12
ATOM     12  N   UNL A   1      34.286  22.585  26.183  1.00  0.00    -0.344 N 
ATOM     13  C   UNL A   1      35.200  23.392  25.601  1.00  0.00     0.222 C 
ATOM     14  H   UNL A   1      34.285  22.513  27.165  1.00  0.00     0.164 HD
ATOM     15  O   UNL A   1      36.155  23.803  26.255  1.00  0.00    -0.275 OA
BRANCH  13  16
ATOM     16  C   UNL A   1      34.905  23.857  24.200  1.00  0.00     0.122 C 
BRANCH  16  17
ATOM     17  C   UNL A   1      33.936  25.074  23.940  1.00  0.00     0.132 C 
BRANCH  17  18
ATOM     18  N   UNL A   1      33.290  26.244  24.625  1.00  0.00    -0.347 N 
ATOM     19  C   UNL A   1      33.885  26.502  25.876  1.00  0.00     0.087 A 
ATOM     20  C   UNL A   1      32.305  27.289  24.478  1.00  0.00     0.049 A 
ATOM     21  C   UNL A   1      33.622  27.786  26.265  1.00  0.00     0.028 A 
ATOM     22  C   UNL A   1      32.656  28.315  25.390  1.00  0.00    -0.000 A 
ATOM     23  C   UNL A   1      31.099  27.583  23.749  1.00  0.00     0.042 A 
ATOM     24  C   UNL A   1      32.026  29.590  25.334  1.00  0.00     0.011 A 
ATOM     25  C   UNL A   1      30.444  28.819  23.752  1.00  0.00     0.020 A 
ATOM     26  C   UNL A   1      30.946  29.851  24.491  1.00  0.00     0.016 A 
ATOM     27  Br  UNL A   1      28.831  29.029  22.775  1.00  0.00    -0.051 Br
ENDBRANCH  17  18
ENDBRANCH  16  17
ENDBRANCH  13  16
ENDBRANCH   7  12
ENDBRANCH   4   7
ENDBRANCH   2   3
ENDBRANCH   1   2
BRANCH   1  28
ATOM     28  C   UNL A   1      39.123  20.432  25.762  1.00  0.00     0.023 C 
BRANCH  28  29
ATOM     29  C   UNL A   1      39.735  21.636  26.458  1.00  0.00     0.116 C 
BRANCH  29  30
ATOM     30  N   UNL A   1      40.891  22.173  25.767  1.00  0.00    -0.352 N 
ATOM     31  C   UNL A   1      41.751  23.208  26.039  1.00  0.00     0.251 C 
ATOM     32  H   UNL A   1      41.102  21.697  24.931  1.00  0.00     0.163 HD
ATOM     33  O   UNL A   1      42.822  23.198  25.428  1.00  0.00    -0.269 OA
BRANCH  31  34
ATOM     34  C   UNL A   1      41.433  24.361  26.924  1.00  0.00     0.039 A 
ATOM     35  C   UNL A   1      40.377  25.241  26.706  1.00  0.00     0.014 A 
ATOM     36  C   UNL A   1      42.353  24.648  27.953  1.00  0.00     0.014 A 
ATOM     37  C   UNL A   1      40.317  26.439  27.390  1.00  0.00     0.010 A 
ATOM     38  C   UNL A   1      42.272  25.835  28.676  1.00  0.00     0.010 A 
ATOM     39  C   UNL A   1      41.289  26.758  28.342  1.00  0.00    -0.014 A 
BRANCH  39  40
ATOM     40  C   UNL A   1      41.142  28.059  28.980  1.00  0.00     0.031 A 
ATOM     41  C   UNL A   1      42.125  29.079  28.504  1.00  0.00     0.074 A 
ATOM     42  C   UNL A   1      40.212  28.328  29.916  1.00  0.00     0.049 A 
ATOM     43  N   UNL A   1      43.077  29.648  29.175  1.00  0.00    -0.248 NA
ATOM     44  C   UNL A   1      42.168  29.347  27.057  1.00  0.00     0.031 C 
ATOM     45  C   UNL A   1      39.051  27.531  30.317  1.00  0.00     0.029 A 
ATOM     46  N   UNL A   1      40.056  29.474  30.630  1.00  0.00    -0.354 N 
ATOM     47  C   UNL A   1      43.721  30.491  28.273  1.00  0.00     0.074 A 
ATOM     48  C   UNL A   1      43.223  30.154  26.963  1.00  0.00     0.031 C 
ATOM     49  C   UNL A   1      38.176  28.329  30.968  1.00  0.00     0.029 A 
ATOM     50  C   UNL A   1      38.782  29.634  31.155  1.00  0.00     0.049 A 
ATOM     51  H   UNL A   1      40.780  30.128  30.762  1.00  0.00     0.167 HD
ATOM     52  C   UNL A   1      44.482  31.549  28.665  1.00  0.00     0.034 A 
ATOM     53  C   UNL A   1      38.255  30.805  31.594  1.00  0.00     0.034 A 
ATOM     54  C   UNL A   1      44.877  31.464  30.040  1.00  0.00     0.049 A 
ATOM     55  C   UNL A   1      39.399  31.694  31.913  1.00  0.00     0.074 A 
ATOM     56  C   UNL A   1      45.673  30.610  30.777  1.00  0.00     0.029 A 
ATOM     57  N   UNL A   1      44.125  32.161  30.952  1.00  0.00    -0.354 N 
ATOM     58  N   UNL A   1      40.257  31.456  32.866  1.00  0.00    -0.248 NA
ATOM     59  C   UNL A   1      39.839  32.634  30.893  1.00  0.00     0.031 C 
ATOM     60  C   UNL A   1      45.012  30.492  32.034  1.00  0.00     0.029 A 
ATOM     61  C   UNL A   1      43.883  31.312  31.999  1.00  0.00     0.049 A 
ATOM     62  H   UNL A   1      43.818  33.093  30.869  1.00  0.00     0.167 HD
ATOM     63  C   UNL A   1      41.478  31.867  32.348  1.00  0.00     0.074 A 
ATOM     64  C   UNL A   1      41.144  32.668  31.174  1.00  0.00     0.031 C 
ATOM     65  C   UNL A   1      42.648  31.290  32.749  1.00  0.00     0.034 A 
BRANCH  52  66
ATOM     66  C   UNL A   1      44.589  32.828  27.884  1.00  0.00     0.023 A 
ATOM     67  C   UNL A   1      45.764  33.077  27.147  1.00  0.00     0.012 A 
ATOM     68  C   UNL A   1      43.695  33.909  28.063  1.00  0.00     0.148 A 
ATOM     69  C   UNL A   1      46.039  34.346  26.622  1.00  0.00     0.002 A 
ATOM     70  C   UNL A   1      43.936  35.145  27.483  1.00  0.00     0.091 A 
ATOM     71  F   UNL A   1      42.667  33.782  28.912  1.00  0.00    -0.205 F 
ATOM     72  C   UNL A   1      45.118  35.378  26.779  1.00  0.00     0.022 A 
BRANCH  70  73
ATOM     73  S   UNL A   1      42.766  36.498  27.638  1.00  0.00     0.127 S 
ATOM     74  O   UNL A   1      43.286  37.449  26.665  1.00  0.00    -0.237 OA
ATOM     75  O   UNL A   1      41.508  35.852  27.273  1.00  0.00    -0.237 OA
ATOM     76  O   UNL A   1      42.837  36.908  29.041  1.00  0.00    -0.744 OA
ENDBRANCH  70  73
ENDBRANCH  52  66
BRANCH  53  77
ATOM     77  C   UNL A   1      36.879  31.334  31.401  1.00  0.00     0.023 A 
ATOM     78  C   UNL A   1      36.196  31.872  32.511  1.00  0.00     0.012 A 
ATOM     79  C   UNL A   1      36.354  31.593  30.114  1.00  0.00     0.148 A 
ATOM     80  C   UNL A   1      35.069  32.684  32.345  1.00  0.00     0.002 A 
ATOM     81  C   UNL A   1      35.223  32.389  29.955  1.00  0.00     0.091 A 
ATOM     82  F   UNL A   1      37.014  31.148  29.037  1.00  0.00    -0.205 F 
ATOM     83  C   UNL A   1      34.588  32.952  31.067  1.00  0.00     0.022 A 
BRANCH  81  84
ATOM     84  S   UNL A   1      34.553  32.778  28.331  1.00  0.00     0.127 S 
ATOM     85  O   UNL A   1      34.088  31.469  27.870  1.00  0.00    -0.237 OA
ATOM     86  O   UNL A   1      33.490  33.724  28.659  1.00  0.00    -0.237 OA
ATOM     87  O   UNL A   1      35.669  33.317  27.563  1.00  0.00    -0.744 OA
ENDBRANCH  81  84
ENDBRANCH  53  77
BRANCH  65  88
ATOM     88  C   UNL A   1      42.604  30.331  33.910  1.00  0.00     0.023 A 
ATOM     89  C   UNL A   1      42.200  28.988  33.749  1.00  0.00     0.012 A 
ATOM     90  C   UNL A   1      43.182  30.731  35.124  1.00  0.00     0.148 A 
ATOM     91  C   UNL A   1      42.369  28.062  34.784  1.00  0.00     0.002 A 
ATOM     92  C   UNL A   1      43.381  29.800  36.136  1.00  0.00     0.091 A 
ATOM     93  F   UNL A   1      43.576  32.006  35.244  1.00  0.00    -0.205 F 
ATOM     94  C   UNL A   1      42.972  28.467  35.973  1.00  0.00     0.022 A 
BRANCH  92  95
ATOM     95  S   UNL A   1      44.253  30.218  37.648  1.00  0.00     0.127 S 
ATOM     96  O   UNL A   1      44.457  28.905  38.257  1.00  0.00    -0.237 OA
ATOM     97  O   UNL A   1      45.469  30.851  37.138  1.00  0.00    -0.237 OA
ATOM     98  O   UNL A   1      43.375  31.116  38.389  1.00  0.00    -0.744 OA
ENDBRANCH  92  95
ENDBRANCH  65  88
ENDBRANCH  39  40
ENDBRANCH  31  34
ENDBRANCH  29  30
ENDBRANCH  28  29
ENDBRANCH   1  28
TORSDOF 20
ENDMDL
