MODEL 1
REMARK VINA RESULT:      -6.7      0.000      0.000
REMARK SMILES CC/C=C/C/C=C/C/C=C/C/C=C/CC/C=C/COCC(=O)NCCCCNC(=O)c1ccc(-c2c3nc(c(-c4cccc(S(=O)(=O)[O-])c4F)c4ccc([nH]4)c(-c4cccc(S(=O)(=O)[O-])c4F)c4nc(c(-c5cccc(S(=O)(=O)[O-])c5F)c5ccc2[nH]5)C=C4)C=C3)cc1
REMARK SMILES IDX 18 1 17 2 16 3 15 4 14 5 13 6 12 7 11 8 10 9 9 10 8 11 7 12
REMARK SMILES IDX 6 13 5 14 4 15 3 16 2 17 1 18 19 19 20 20 21 21 22 22 23 23
REMARK SMILES IDX 24 25 25 26 26 27 27 28 28 29 29 30 30 32 31 33 32 34 93 35
REMARK SMILES IDX 33 36 92 37 34 38 35 39 36 40 86 41 37 42 91 43 85 44 87 45
REMARK SMILES IDX 38 46 90 47 84 48 83 49 39 51 71 52 51 53 70 54 52 55 55 56
REMARK SMILES IDX 69 57 88 58 53 59 54 60 68 62 89 63 56 64 40 65 41 66 49 67
REMARK SMILES IDX 42 68 44 69 50 70 43 71 45 72 46 73 47 74 48 75 72 76 73 77
REMARK SMILES IDX 81 78 74 79 76 80 82 81 75 82 77 83 78 84 79 85 80 86 57 87
REMARK SMILES IDX 58 88 66 89 59 90 61 91 67 92 60 93 62 94 63 95 64 96 65 97
REMARK H PARENT 23 24 28 31 87 50 55 61
REMARK Flexibility Score: inf
ROOT
ATOM      1  C   UNL A   1      48.655  25.980  28.439  1.00  0.00     0.188 C 
ENDROOT
BRANCH   1   2
ATOM      2  C   UNL A   1      47.637  26.218  29.510  1.00  0.00    -0.003 C 
ATOM      3  C   UNL A   1      47.963  26.372  30.804  1.00  0.00    -0.029 C 
BRANCH   3   4
ATOM      4  C   UNL A   1      46.972  26.472  31.929  1.00  0.00     0.031 C 
BRANCH   4   5
ATOM      5  C   UNL A   1      45.791  25.501  31.759  1.00  0.00     0.031 C 
BRANCH   5   6
ATOM      6  C   UNL A   1      44.501  26.196  31.417  1.00  0.00    -0.031 C 
ATOM      7  C   UNL A   1      44.051  27.302  32.028  1.00  0.00    -0.027 C 
BRANCH   7   8
ATOM      8  C   UNL A   1      42.732  27.950  31.712  1.00  0.00     0.054 C 
BRANCH   8   9
ATOM      9  C   UNL A   1      42.809  29.432  31.945  1.00  0.00    -0.027 C 
ATOM     10  C   UNL A   1      43.743  30.028  32.704  1.00  0.00    -0.027 C 
BRANCH  10  11
ATOM     11  C   UNL A   1      43.799  31.505  32.964  1.00  0.00     0.054 C 
BRANCH  11  12
ATOM     12  C   UNL A   1      42.728  31.905  33.940  1.00  0.00    -0.027 C 
ATOM     13  C   UNL A   1      42.827  32.947  34.782  1.00  0.00    -0.027 C 
BRANCH  13  14
ATOM     14  C   UNL A   1      41.774  33.329  35.781  1.00  0.00     0.054 C 
BRANCH  14  15
ATOM     15  C   UNL A   1      40.419  33.374  35.134  1.00  0.00    -0.027 C 
ATOM     16  C   UNL A   1      39.277  33.023  35.749  1.00  0.00    -0.031 C 
BRANCH  16  17
ATOM     17  C   UNL A   1      37.930  33.050  35.090  1.00  0.00     0.023 C 
ATOM     18  C   UNL A   1      37.834  34.180  34.076  1.00  0.00     0.008 C 
ENDBRANCH  16  17
ENDBRANCH  14  15
ENDBRANCH  13  14
ENDBRANCH  11  12
ENDBRANCH  10  11
ENDBRANCH   8   9
ENDBRANCH   7   8
ENDBRANCH   5   6
ENDBRANCH   4   5
ENDBRANCH   3   4
ENDBRANCH   1   2
BRANCH   1  19
ATOM     19  O   UNL A   1      48.096  26.267  27.154  1.00  0.00    -0.368 OA
BRANCH  19  20
ATOM     20  C   UNL A   1      48.111  25.159  26.261  1.00  0.00     0.260 C 
BRANCH  20  21
ATOM     21  C   UNL A   1      47.230  25.247  25.008  1.00  0.00     0.246 C 
ATOM     22  O   UNL A   1      47.681  25.623  23.926  1.00  0.00    -0.272 OA
ATOM     23  N   UNL A   1      45.920  24.871  25.093  1.00  0.00    -0.354 N 
ATOM     24  H   UNL A   1      45.398  24.937  24.261  1.00  0.00     0.163 HD
BRANCH  23  25
ATOM     25  C   UNL A   1      45.203  24.387  26.257  1.00  0.00     0.116 C 
BRANCH  25  26
ATOM     26  C   UNL A   1      45.221  22.863  26.353  1.00  0.00     0.023 C 
BRANCH  26  27
ATOM     27  C   UNL A   1      44.412  22.135  25.274  1.00  0.00     0.023 C 
BRANCH  27  28
ATOM     28  C   UNL A   1      43.052  22.740  24.938  1.00  0.00     0.116 C 
BRANCH  28  29
ATOM     29  N   UNL A   1      41.933  21.977  25.476  1.00  0.00    -0.352 N 
ATOM     30  C   UNL A   1      40.998  22.351  26.413  1.00  0.00     0.251 C 
ATOM     31  H   UNL A   1      41.835  21.066  25.119  1.00  0.00     0.163 HD
ATOM     32  O   UNL A   1      40.181  21.530  26.826  1.00  0.00    -0.269 OA
BRANCH  30  33
ATOM     33  C   UNL A   1      41.000  23.727  26.951  1.00  0.00     0.039 A 
ATOM     34  C   UNL A   1      41.601  23.964  28.191  1.00  0.00     0.014 A 
ATOM     35  C   UNL A   1      40.452  24.785  26.220  1.00  0.00     0.014 A 
ATOM     36  C   UNL A   1      41.743  25.276  28.653  1.00  0.00     0.010 A 
ATOM     37  C   UNL A   1      40.645  26.095  26.655  1.00  0.00     0.010 A 
ATOM     38  C   UNL A   1      41.314  26.356  27.862  1.00  0.00    -0.014 A 
BRANCH  38  39
ATOM     39  C   UNL A   1      41.637  27.759  28.226  1.00  0.00     0.031 A 
ATOM     40  C   UNL A   1      43.059  28.245  28.234  1.00  0.00     0.074 A 
ATOM     41  C   UNL A   1      40.650  28.560  28.677  1.00  0.00     0.049 A 
ATOM     42  N   UNL A   1      43.529  29.402  28.621  1.00  0.00    -0.248 NA
ATOM     43  C   UNL A   1      44.088  27.303  27.769  1.00  0.00     0.031 C 
ATOM     44  C   UNL A   1      39.241  28.178  28.796  1.00  0.00     0.029 A 
ATOM     45  N   UNL A   1      40.686  29.846  29.159  1.00  0.00    -0.354 N 
ATOM     46  C   UNL A   1      44.909  29.320  28.479  1.00  0.00     0.074 A 
ATOM     47  C   UNL A   1      45.201  27.989  27.988  1.00  0.00     0.031 C 
ATOM     48  C   UNL A   1      38.551  29.200  29.327  1.00  0.00     0.029 A 
ATOM     49  C   UNL A   1      39.468  30.296  29.617  1.00  0.00     0.049 A 
ATOM     50  H   UNL A   1      41.505  30.393  29.175  1.00  0.00     0.167 HD
ATOM     51  C   UNL A   1      45.843  30.272  28.711  1.00  0.00     0.034 A 
ATOM     52  C   UNL A   1      39.130  31.452  30.220  1.00  0.00     0.034 A 
ATOM     53  C   UNL A   1      45.545  31.608  29.156  1.00  0.00     0.049 A 
ATOM     54  C   UNL A   1      40.185  32.499  30.448  1.00  0.00     0.074 A 
ATOM     55  C   UNL A   1      46.412  32.676  29.306  1.00  0.00     0.029 A 
ATOM     56  N   UNL A   1      44.290  32.056  29.538  1.00  0.00    -0.354 N 
ATOM     57  N   UNL A   1      41.456  32.468  30.133  1.00  0.00    -0.248 NA
ATOM     58  C   UNL A   1      39.754  33.751  31.089  1.00  0.00     0.031 C 
ATOM     59  C   UNL A   1      45.684  33.765  29.800  1.00  0.00     0.029 A 
ATOM     60  C   UNL A   1      44.362  33.377  29.944  1.00  0.00     0.049 A 
ATOM     61  H   UNL A   1      43.468  31.513  29.521  1.00  0.00     0.167 HD
ATOM     62  C   UNL A   1      41.974  33.699  30.518  1.00  0.00     0.074 A 
ATOM     63  C   UNL A   1      40.872  34.465  31.063  1.00  0.00     0.031 C 
ATOM     64  C   UNL A   1      43.252  34.146  30.446  1.00  0.00     0.034 A 
BRANCH  51  65
ATOM     65  C   UNL A   1      47.280  29.928  28.426  1.00  0.00     0.023 A 
ATOM     66  C   UNL A   1      47.708  29.807  27.089  1.00  0.00     0.012 A 
ATOM     67  C   UNL A   1      48.219  29.797  29.467  1.00  0.00     0.148 A 
ATOM     68  C   UNL A   1      49.042  29.535  26.791  1.00  0.00     0.002 A 
ATOM     69  C   UNL A   1      49.556  29.563  29.161  1.00  0.00     0.091 A 
ATOM     70  F   UNL A   1      47.789  29.893  30.734  1.00  0.00    -0.205 F 
ATOM     71  C   UNL A   1      49.966  29.424  27.826  1.00  0.00     0.022 A 
BRANCH  69  72
ATOM     72  S   UNL A   1      50.834  29.472  30.421  1.00  0.00     0.127 S 
ATOM     73  O   UNL A   1      50.944  30.871  30.831  1.00  0.00    -0.237 OA
ATOM     74  O   UNL A   1      50.226  28.591  31.417  1.00  0.00    -0.237 OA
ATOM     75  O   UNL A   1      52.007  28.918  29.759  1.00  0.00    -0.744 OA
ENDBRANCH  69  72
ENDBRANCH  51  65
BRANCH  52  76
ATOM     76  C   UNL A   1      37.711  31.699  30.603  1.00  0.00     0.023 A 
ATOM     77  C   UNL A   1      37.254  31.267  31.863  1.00  0.00     0.012 A 
ATOM     78  C   UNL A   1      36.828  32.391  29.753  1.00  0.00     0.148 A 
ATOM     79  C   UNL A   1      35.937  31.500  32.260  1.00  0.00     0.002 A 
ATOM     80  C   UNL A   1      35.534  32.669  30.176  1.00  0.00     0.091 A 
ATOM     81  F   UNL A   1      37.277  32.778  28.549  1.00  0.00    -0.205 F 
ATOM     82  C   UNL A   1      35.081  32.211  31.422  1.00  0.00     0.022 A 
BRANCH  80  83
ATOM     83  S   UNL A   1      34.413  33.697  29.218  1.00  0.00     0.127 S 
ATOM     84  O   UNL A   1      33.512  34.200  30.250  1.00  0.00    -0.237 OA
ATOM     85  O   UNL A   1      35.322  34.695  28.653  1.00  0.00    -0.237 OA
ATOM     86  O   UNL A   1      33.820  32.806  28.230  1.00  0.00    -0.744 OA
ENDBRANCH  80  83
ENDBRANCH  52  76
BRANCH  64  87
ATOM     87  C   UNL A   1      43.538  35.529  30.969  1.00  0.00     0.023 A 
ATOM     88  C   UNL A   1      43.914  35.693  32.317  1.00  0.00     0.012 A 
ATOM     89  C   UNL A   1      43.510  36.650  30.117  1.00  0.00     0.148 A 
ATOM     90  C   UNL A   1      44.236  36.955  32.815  1.00  0.00     0.002 A 
ATOM     91  C   UNL A   1      43.873  37.898  30.609  1.00  0.00     0.091 A 
ATOM     92  F   UNL A   1      43.131  36.475  28.842  1.00  0.00    -0.205 F 
ATOM     93  C   UNL A   1      44.226  38.055  31.960  1.00  0.00     0.022 A 
BRANCH  91  94
ATOM     94  S   UNL A   1      43.975  39.356  29.563  1.00  0.00     0.127 S 
ATOM     95  O   UNL A   1      44.601  40.324  30.462  1.00  0.00    -0.237 OA
ATOM     96  O   UNL A   1      44.832  38.896  28.471  1.00  0.00    -0.237 OA
ATOM     97  O   UNL A   1      42.607  39.663  29.170  1.00  0.00    -0.744 OA
ENDBRANCH  91  94
ENDBRANCH  64  87
ENDBRANCH  38  39
ENDBRANCH  30  33
ENDBRANCH  28  29
ENDBRANCH  27  28
ENDBRANCH  26  27
ENDBRANCH  25  26
ENDBRANCH  23  25
ENDBRANCH  20  21
ENDBRANCH  19  20
ENDBRANCH   1  19
TORSDOF 27
ENDMDL
MODEL 2
REMARK VINA RESULT:      -5.8      1.349      2.943
REMARK SMILES CC/C=C/C/C=C/C/C=C/C/C=C/CC/C=C/COCC(=O)NCCCCNC(=O)c1ccc(-c2c3nc(c(-c4cccc(S(=O)(=O)[O-])c4F)c4ccc([nH]4)c(-c4cccc(S(=O)(=O)[O-])c4F)c4nc(c(-c5cccc(S(=O)(=O)[O-])c5F)c5ccc2[nH]5)C=C4)C=C3)cc1
REMARK SMILES IDX 18 1 17 2 16 3 15 4 14 5 13 6 12 7 11 8 10 9 9 10 8 11 7 12
REMARK SMILES IDX 6 13 5 14 4 15 3 16 2 17 1 18 19 19 20 20 21 21 22 22 23 23
REMARK SMILES IDX 24 25 25 26 26 27 27 28 28 29 29 30 30 32 31 33 32 34 93 35
REMARK SMILES IDX 33 36 92 37 34 38 35 39 36 40 86 41 37 42 91 43 85 44 87 45
REMARK SMILES IDX 38 46 90 47 84 48 83 49 39 51 71 52 51 53 70 54 52 55 55 56
REMARK SMILES IDX 69 57 88 58 53 59 54 60 68 62 89 63 56 64 40 65 41 66 49 67
REMARK SMILES IDX 42 68 44 69 50 70 43 71 45 72 46 73 47 74 48 75 72 76 73 77
REMARK SMILES IDX 81 78 74 79 76 80 82 81 75 82 77 83 78 84 79 85 80 86 57 87
REMARK SMILES IDX 58 88 66 89 59 90 61 91 67 92 60 93 62 94 63 95 64 96 65 97
REMARK H PARENT 23 24 28 31 87 50 55 61
REMARK Flexibility Score: inf
ROOT
ATOM      1  C   UNL A   1      49.937  26.391  27.649  1.00  0.00     0.188 C 
ENDROOT
BRANCH   1   2
ATOM      2  C   UNL A   1      50.231  25.743  28.967  1.00  0.00    -0.003 C 
ATOM      3  C   UNL A   1      49.360  25.741  29.988  1.00  0.00    -0.029 C 
BRANCH   3   4
ATOM      4  C   UNL A   1      49.662  25.230  31.369  1.00  0.00     0.031 C 
BRANCH   4   5
ATOM      5  C   UNL A   1      48.560  25.588  32.381  1.00  0.00     0.031 C 
BRANCH   5   6
ATOM      6  C   UNL A   1      47.214  25.787  31.740  1.00  0.00    -0.031 C 
ATOM      7  C   UNL A   1      46.447  26.875  31.909  1.00  0.00    -0.027 C 
BRANCH   7   8
ATOM      8  C   UNL A   1      45.079  27.032  31.306  1.00  0.00     0.054 C 
BRANCH   8   9
ATOM      9  C   UNL A   1      44.147  27.680  32.289  1.00  0.00    -0.027 C 
ATOM     10  C   UNL A   1      42.829  27.838  32.087  1.00  0.00    -0.027 C 
BRANCH  10  11
ATOM     11  C   UNL A   1      41.905  28.517  33.055  1.00  0.00     0.054 C 
BRANCH  11  12
ATOM     12  C   UNL A   1      41.512  27.571  34.155  1.00  0.00    -0.027 C 
ATOM     13  C   UNL A   1      42.200  26.462  34.476  1.00  0.00    -0.027 C 
BRANCH  13  14
ATOM     14  C   UNL A   1      41.792  25.498  35.551  1.00  0.00     0.054 C 
BRANCH  14  15
ATOM     15  C   UNL A   1      42.284  24.113  35.237  1.00  0.00    -0.027 C 
ATOM     16  C   UNL A   1      43.576  23.794  35.056  1.00  0.00    -0.031 C 
BRANCH  16  17
ATOM     17  C   UNL A   1      44.057  22.412  34.722  1.00  0.00     0.023 C 
ATOM     18  C   UNL A   1      45.565  22.299  34.884  1.00  0.00     0.008 C 
ENDBRANCH  16  17
ENDBRANCH  14  15
ENDBRANCH  13  14
ENDBRANCH  11  12
ENDBRANCH  10  11
ENDBRANCH   8   9
ENDBRANCH   7   8
ENDBRANCH   5   6
ENDBRANCH   4   5
ENDBRANCH   3   4
ENDBRANCH   1   2
BRANCH   1  19
ATOM     19  O   UNL A   1      48.546  26.273  27.340  1.00  0.00    -0.368 OA
BRANCH  19  20
ATOM     20  C   UNL A   1      48.276  25.438  26.218  1.00  0.00     0.260 C 
BRANCH  20  21
ATOM     21  C   UNL A   1      47.247  25.937  25.196  1.00  0.00     0.246 C 
ATOM     22  O   UNL A   1      47.536  26.779  24.346  1.00  0.00    -0.272 OA
ATOM     23  N   UNL A   1      45.987  25.409  25.215  1.00  0.00    -0.354 N 
ATOM     24  H   UNL A   1      45.366  25.754  24.534  1.00  0.00     0.163 HD
BRANCH  23  25
ATOM     25  C   UNL A   1      45.453  24.404  26.113  1.00  0.00     0.116 C 
BRANCH  25  26
ATOM     26  C   UNL A   1      45.750  22.985  25.633  1.00  0.00     0.023 C 
BRANCH  26  27
ATOM     27  C   UNL A   1      44.797  22.449  24.560  1.00  0.00     0.023 C 
BRANCH  27  28
ATOM     28  C   UNL A   1      43.356  22.944  24.641  1.00  0.00     0.116 C 
BRANCH  28  29
ATOM     29  N   UNL A   1      42.487  22.065  25.412  1.00  0.00    -0.352 N 
ATOM     30  C   UNL A   1      41.729  22.349  26.524  1.00  0.00     0.251 C 
ATOM     31  H   UNL A   1      42.436  21.136  25.091  1.00  0.00     0.163 HD
ATOM     32  O   UNL A   1      41.134  21.446  27.109  1.00  0.00    -0.269 OA
BRANCH  30  33
ATOM     33  C   UNL A   1      41.663  23.733  27.039  1.00  0.00     0.039 A 
ATOM     34  C   UNL A   1      42.153  23.999  28.321  1.00  0.00     0.014 A 
ATOM     35  C   UNL A   1      41.160  24.770  26.248  1.00  0.00     0.014 A 
ATOM     36  C   UNL A   1      42.233  25.320  28.771  1.00  0.00     0.010 A 
ATOM     37  C   UNL A   1      41.293  26.090  26.676  1.00  0.00     0.010 A 
ATOM     38  C   UNL A   1      41.854  26.380  27.930  1.00  0.00    -0.014 A 
BRANCH  38  39
ATOM     39  C   UNL A   1      42.122  27.794  28.298  1.00  0.00     0.031 A 
ATOM     40  C   UNL A   1      43.524  28.333  28.317  1.00  0.00     0.074 A 
ATOM     41  C   UNL A   1      41.102  28.557  28.742  1.00  0.00     0.049 A 
ATOM     42  N   UNL A   1      43.947  29.507  28.707  1.00  0.00    -0.248 NA
ATOM     43  C   UNL A   1      44.592  27.431  27.858  1.00  0.00     0.031 C 
ATOM     44  C   UNL A   1      39.707  28.122  28.850  1.00  0.00     0.029 A 
ATOM     45  N   UNL A   1      41.086  29.842  29.225  1.00  0.00    -0.354 N 
ATOM     46  C   UNL A   1      45.330  29.476  28.575  1.00  0.00     0.074 A 
ATOM     47  C   UNL A   1      45.676  28.158  28.086  1.00  0.00     0.031 C 
ATOM     48  C   UNL A   1      38.975  29.116  29.377  1.00  0.00     0.029 A 
ATOM     49  C   UNL A   1      39.849  30.246  29.674  1.00  0.00     0.049 A 
ATOM     50  H   UNL A   1      41.883  30.420  29.248  1.00  0.00     0.167 HD
ATOM     51  C   UNL A   1      46.226  30.463  28.815  1.00  0.00     0.034 A 
ATOM     52  C   UNL A   1      39.463  31.388  30.275  1.00  0.00     0.034 A 
ATOM     53  C   UNL A   1      45.875  31.786  29.259  1.00  0.00     0.049 A 
ATOM     54  C   UNL A   1      40.476  32.474  30.512  1.00  0.00     0.074 A 
ATOM     55  C   UNL A   1      46.700  32.886  29.416  1.00  0.00     0.029 A 
ATOM     56  N   UNL A   1      44.602  32.186  29.632  1.00  0.00    -0.354 N 
ATOM     57  N   UNL A   1      41.750  32.491  30.207  1.00  0.00    -0.248 NA
ATOM     58  C   UNL A   1      39.994  33.708  31.151  1.00  0.00     0.031 C 
ATOM     59  C   UNL A   1      45.928  33.946  29.905  1.00  0.00     0.029 A 
ATOM     60  C   UNL A   1      44.621  33.509  30.039  1.00  0.00     0.049 A 
ATOM     61  H   UNL A   1      43.801  31.613  29.609  1.00  0.00     0.167 HD
ATOM     62  C   UNL A   1      42.218  33.740  30.596  1.00  0.00     0.074 A 
ATOM     63  C   UNL A   1      41.084  34.464  31.134  1.00  0.00     0.031 C 
ATOM     64  C   UNL A   1      43.479  34.235  30.534  1.00  0.00     0.034 A 
BRANCH  51  65
ATOM     65  C   UNL A   1      47.677  30.173  28.541  1.00  0.00     0.023 A 
ATOM     66  C   UNL A   1      48.166  30.289  27.224  1.00  0.00     0.012 A 
ATOM     67  C   UNL A   1      48.569  29.861  29.584  1.00  0.00     0.148 A 
ATOM     68  C   UNL A   1      49.515  30.074  26.945  1.00  0.00     0.002 A 
ATOM     69  C   UNL A   1      49.920  29.683  29.304  1.00  0.00     0.091 A 
ATOM     70  F   UNL A   1      48.082  29.732  30.827  1.00  0.00    -0.205 F 
ATOM     71  C   UNL A   1      50.392  29.782  27.985  1.00  0.00     0.022 A 
BRANCH  69  72
ATOM     72  S   UNL A   1      51.141  29.372  30.585  1.00  0.00     0.127 S 
ATOM     73  O   UNL A   1      52.207  28.722  29.825  1.00  0.00    -0.237 OA
ATOM     74  O   UNL A   1      51.457  30.723  31.047  1.00  0.00    -0.237 OA
ATOM     75  O   UNL A   1      50.476  28.535  31.574  1.00  0.00    -0.744 OA
ENDBRANCH  69  72
ENDBRANCH  51  65
BRANCH  52  76
ATOM     76  C   UNL A   1      38.033  31.581  30.649  1.00  0.00     0.023 A 
ATOM     77  C   UNL A   1      37.584  31.135  31.907  1.00  0.00     0.012 A 
ATOM     78  C   UNL A   1      37.130  32.237  29.790  1.00  0.00     0.148 A 
ATOM     79  C   UNL A   1      36.256  31.318  32.294  1.00  0.00     0.002 A 
ATOM     80  C   UNL A   1      35.823  32.465  30.204  1.00  0.00     0.091 A 
ATOM     81  F   UNL A   1      37.571  32.638  28.589  1.00  0.00    -0.205 F 
ATOM     82  C   UNL A   1      35.379  31.993  31.449  1.00  0.00     0.022 A 
BRANCH  80  83
ATOM     83  S   UNL A   1      34.670  33.447  29.236  1.00  0.00     0.127 S 
ATOM     84  O   UNL A   1      34.156  32.461  28.291  1.00  0.00    -0.237 OA
ATOM     85  O   UNL A   1      33.713  33.885  30.253  1.00  0.00    -0.237 OA
ATOM     86  O   UNL A   1      35.466  34.526  28.665  1.00  0.00    -0.744 OA
ENDBRANCH  80  83
ENDBRANCH  52  76
BRANCH  64  87
ATOM     87  C   UNL A   1      43.709  35.628  31.060  1.00  0.00     0.023 A 
ATOM     88  C   UNL A   1      44.109  35.802  32.400  1.00  0.00     0.012 A 
ATOM     89  C   UNL A   1      43.605  36.750  30.216  1.00  0.00     0.148 A 
ATOM     90  C   UNL A   1      44.379  37.075  32.899  1.00  0.00     0.002 A 
ATOM     91  C   UNL A   1      43.918  38.012  30.709  1.00  0.00     0.091 A 
ATOM     92  F   UNL A   1      43.205  36.565  28.950  1.00  0.00    -0.205 F 
ATOM     93  C   UNL A   1      44.295  38.178  32.052  1.00  0.00     0.022 A 
BRANCH  91  94
ATOM     94  S   UNL A   1      43.923  39.479  29.672  1.00  0.00     0.127 S 
ATOM     95  O   UNL A   1      45.347  39.634  29.381  1.00  0.00    -0.237 OA
ATOM     96  O   UNL A   1      43.111  39.057  28.531  1.00  0.00    -0.237 OA
ATOM     97  O   UNL A   1      43.331  40.540  30.475  1.00  0.00    -0.744 OA
ENDBRANCH  91  94
ENDBRANCH  64  87
ENDBRANCH  38  39
ENDBRANCH  30  33
ENDBRANCH  28  29
ENDBRANCH  27  28
ENDBRANCH  26  27
ENDBRANCH  25  26
ENDBRANCH  23  25
ENDBRANCH  20  21
ENDBRANCH  19  20
ENDBRANCH   1  19
TORSDOF 27
ENDMDL
MODEL 3
REMARK VINA RESULT:      -5.7      3.555     10.399
REMARK SMILES CC/C=C/C/C=C/C/C=C/C/C=C/CC/C=C/COCC(=O)NCCCCNC(=O)c1ccc(-c2c3nc(c(-c4cccc(S(=O)(=O)[O-])c4F)c4ccc([nH]4)c(-c4cccc(S(=O)(=O)[O-])c4F)c4nc(c(-c5cccc(S(=O)(=O)[O-])c5F)c5ccc2[nH]5)C=C4)C=C3)cc1
REMARK SMILES IDX 18 1 17 2 16 3 15 4 14 5 13 6 12 7 11 8 10 9 9 10 8 11 7 12
REMARK SMILES IDX 6 13 5 14 4 15 3 16 2 17 1 18 19 19 20 20 21 21 22 22 23 23
REMARK SMILES IDX 24 25 25 26 26 27 27 28 28 29 29 30 30 32 31 33 32 34 93 35
REMARK SMILES IDX 33 36 92 37 34 38 35 39 36 40 86 41 37 42 91 43 85 44 87 45
REMARK SMILES IDX 38 46 90 47 84 48 83 49 39 51 71 52 51 53 70 54 52 55 55 56
REMARK SMILES IDX 69 57 88 58 53 59 54 60 68 62 89 63 56 64 40 65 41 66 49 67
REMARK SMILES IDX 42 68 44 69 50 70 43 71 45 72 46 73 47 74 48 75 72 76 73 77
REMARK SMILES IDX 81 78 74 79 76 80 82 81 75 82 77 83 78 84 79 85 80 86 57 87
REMARK SMILES IDX 58 88 66 89 59 90 61 91 67 92 60 93 62 94 63 95 64 96 65 97
REMARK H PARENT 23 24 28 31 87 50 55 61
REMARK Flexibility Score: inf
ROOT
ATOM      1  C   UNL A   1      35.432  34.384  34.386  1.00  0.00     0.188 C 
ENDROOT
BRANCH   1   2
ATOM      2  C   UNL A   1      36.596  34.381  33.444  1.00  0.00    -0.003 C 
ATOM      3  C   UNL A   1      37.866  34.234  33.855  1.00  0.00    -0.029 C 
BRANCH   3   4
ATOM      4  C   UNL A   1      39.072  34.366  32.968  1.00  0.00     0.031 C 
BRANCH   4   5
ATOM      5  C   UNL A   1      40.377  34.509  33.770  1.00  0.00     0.031 C 
BRANCH   5   6
ATOM      6  C   UNL A   1      41.275  33.307  33.651  1.00  0.00    -0.031 C 
ATOM      7  C   UNL A   1      42.561  33.281  34.033  1.00  0.00    -0.027 C 
BRANCH   7   8
ATOM      8  C   UNL A   1      43.459  32.090  33.853  1.00  0.00     0.054 C 
BRANCH   8   9
ATOM      9  C   UNL A   1      44.838  32.531  33.454  1.00  0.00    -0.027 C 
ATOM     10  C   UNL A   1      45.297  32.522  32.192  1.00  0.00    -0.027 C 
BRANCH  10  11
ATOM     11  C   UNL A   1      46.687  32.931  31.799  1.00  0.00     0.054 C 
BRANCH  11  12
ATOM     12  C   UNL A   1      46.904  34.390  32.090  1.00  0.00    -0.027 C 
ATOM     13  C   UNL A   1      45.963  35.206  32.594  1.00  0.00    -0.027 C 
BRANCH  13  14
ATOM     14  C   UNL A   1      46.166  36.669  32.853  1.00  0.00     0.054 C 
BRANCH  14  15
ATOM     15  C   UNL A   1      45.141  37.185  33.822  1.00  0.00    -0.027 C 
ATOM     16  C   UNL A   1      43.835  36.874  33.775  1.00  0.00    -0.031 C 
BRANCH  16  17
ATOM     17  C   UNL A   1      42.812  37.411  34.733  1.00  0.00     0.023 C 
ATOM     18  C   UNL A   1      43.017  36.848  36.132  1.00  0.00     0.008 C 
ENDBRANCH  16  17
ENDBRANCH  14  15
ENDBRANCH  13  14
ENDBRANCH  11  12
ENDBRANCH  10  11
ENDBRANCH   8   9
ENDBRANCH   7   8
ENDBRANCH   5   6
ENDBRANCH   4   5
ENDBRANCH   3   4
ENDBRANCH   1   2
BRANCH   1  19
ATOM     19  O   UNL A   1      34.641  35.559  34.190  1.00  0.00    -0.368 OA
BRANCH  19  20
ATOM     20  C   UNL A   1      34.669  36.054  32.856  1.00  0.00     0.260 C 
BRANCH  20  21
ATOM     21  C   UNL A   1      33.356  36.028  32.063  1.00  0.00     0.246 C 
ATOM     22  O   UNL A   1      32.467  36.857  32.257  1.00  0.00    -0.272 OA
ATOM     23  N   UNL A   1      33.184  35.075  31.100  1.00  0.00    -0.354 N 
ATOM     24  H   UNL A   1      32.330  35.104  30.612  1.00  0.00     0.163 HD
BRANCH  23  25
ATOM     25  C   UNL A   1      34.105  34.026  30.706  1.00  0.00     0.116 C 
BRANCH  25  26
ATOM     26  C   UNL A   1      34.918  34.407  29.470  1.00  0.00     0.023 C 
BRANCH  26  27
ATOM     27  C   UNL A   1      36.209  33.606  29.271  1.00  0.00     0.023 C 
BRANCH  27  28
ATOM     28  C   UNL A   1      36.033  32.158  28.823  1.00  0.00     0.116 C 
BRANCH  28  29
ATOM     29  N   UNL A   1      35.666  31.259  29.909  1.00  0.00    -0.352 N 
ATOM     30  C   UNL A   1      36.475  30.481  30.704  1.00  0.00     0.251 C 
ATOM     31  H   UNL A   1      34.702  31.201  30.099  1.00  0.00     0.163 HD
ATOM     32  O   UNL A   1      35.975  29.698  31.509  1.00  0.00    -0.269 OA
BRANCH  30  33
ATOM     33  C   UNL A   1      37.944  30.558  30.562  1.00  0.00     0.039 A 
ATOM     34  C   UNL A   1      38.524  30.187  29.345  1.00  0.00     0.014 A 
ATOM     35  C   UNL A   1      38.743  31.034  31.607  1.00  0.00     0.014 A 
ATOM     36  C   UNL A   1      39.891  30.388  29.140  1.00  0.00     0.010 A 
ATOM     37  C   UNL A   1      40.094  31.286  31.380  1.00  0.00     0.010 A 
ATOM     38  C   UNL A   1      40.677  30.990  30.138  1.00  0.00    -0.014 A 
BRANCH  38  39
ATOM     39  C   UNL A   1      42.078  31.405  29.874  1.00  0.00     0.031 A 
ATOM     40  C   UNL A   1      42.438  32.857  29.732  1.00  0.00     0.074 A 
ATOM     41  C   UNL A   1      43.006  30.456  29.632  1.00  0.00     0.049 A 
ATOM     42  N   UNL A   1      43.586  33.390  29.404  1.00  0.00    -0.248 NA
ATOM     43  C   UNL A   1      41.365  33.836  29.968  1.00  0.00     0.031 C 
ATOM     44  C   UNL A   1      42.763  29.012  29.658  1.00  0.00     0.029 A 
ATOM     45  N   UNL A   1      44.329  30.562  29.278  1.00  0.00    -0.354 N 
ATOM     46  C   UNL A   1      43.370  34.763  29.360  1.00  0.00     0.074 A 
ATOM     47  C   UNL A   1      41.973  34.977  29.677  1.00  0.00     0.031 C 
ATOM     48  C   UNL A   1      43.892  28.369  29.321  1.00  0.00     0.029 A 
ATOM     49  C   UNL A   1      44.930  29.350  29.025  1.00  0.00     0.049 A 
ATOM     50  H   UNL A   1      44.802  31.423  29.211  1.00  0.00     0.167 HD
ATOM     51  C   UNL A   1      44.257  35.752  29.105  1.00  0.00     0.034 A 
ATOM     52  C   UNL A   1      46.170  29.059  28.586  1.00  0.00     0.034 A 
ATOM     53  C   UNL A   1      45.655  35.538  28.834  1.00  0.00     0.049 A 
ATOM     54  C   UNL A   1      47.140  30.178  28.329  1.00  0.00     0.074 A 
ATOM     55  C   UNL A   1      46.654  36.483  28.680  1.00  0.00     0.029 A 
ATOM     56  N   UNL A   1      46.248  34.298  28.661  1.00  0.00    -0.354 N 
ATOM     57  N   UNL A   1      46.966  31.468  28.474  1.00  0.00    -0.248 NA
ATOM     58  C   UNL A   1      48.487  29.801  27.873  1.00  0.00     0.031 C 
ATOM     59  C   UNL A   1      47.849  35.814  28.392  1.00  0.00     0.029 A 
ATOM     60  C   UNL A   1      47.595  34.452  28.380  1.00  0.00     0.049 A 
ATOM     61  H   UNL A   1      45.780  33.434  28.729  1.00  0.00     0.167 HD
ATOM     62  C   UNL A   1      48.182  32.056  28.149  1.00  0.00     0.074 A 
ATOM     63  C   UNL A   1      49.095  30.979  27.826  1.00  0.00     0.031 C 
ATOM     64  C   UNL A   1      48.506  33.372  28.101  1.00  0.00     0.034 A 
BRANCH  51  65
ATOM     65  C   UNL A   1      43.761  37.172  29.169  1.00  0.00     0.023 A 
ATOM     66  C   UNL A   1      44.072  37.960  30.296  1.00  0.00     0.012 A 
ATOM     67  C   UNL A   1      43.058  37.749  28.095  1.00  0.00     0.148 A 
ATOM     68  C   UNL A   1      43.668  39.292  30.365  1.00  0.00     0.002 A 
ATOM     69  C   UNL A   1      42.690  39.089  28.155  1.00  0.00     0.091 A 
ATOM     70  F   UNL A   1      42.752  36.977  27.042  1.00  0.00    -0.205 F 
ATOM     71  C   UNL A   1      42.987  39.858  29.291  1.00  0.00     0.022 A 
BRANCH  69  72
ATOM     72  S   UNL A   1      41.870  39.928  26.794  1.00  0.00     0.127 S 
ATOM     73  O   UNL A   1      41.166  41.003  27.491  1.00  0.00    -0.237 OA
ATOM     74  O   UNL A   1      43.000  40.370  25.977  1.00  0.00    -0.237 OA
ATOM     75  O   UNL A   1      41.022  38.928  26.162  1.00  0.00    -0.744 OA
ENDBRANCH  69  72
ENDBRANCH  51  65
BRANCH  52  76
ATOM     76  C   UNL A   1      46.578  27.636  28.412  1.00  0.00     0.023 A 
ATOM     77  C   UNL A   1      47.305  26.998  29.436  1.00  0.00     0.012 A 
ATOM     78  C   UNL A   1      46.218  26.902  27.266  1.00  0.00     0.148 A 
ATOM     79  C   UNL A   1      47.685  25.662  29.311  1.00  0.00     0.002 A 
ATOM     80  C   UNL A   1      46.551  25.556  27.172  1.00  0.00     0.091 A 
ATOM     81  F   UNL A   1      45.542  27.532  26.293  1.00  0.00    -0.205 F 
ATOM     82  C   UNL A   1      47.298  24.938  28.186  1.00  0.00     0.022 A 
BRANCH  80  83
ATOM     83  S   UNL A   1      45.973  24.518  25.823  1.00  0.00     0.127 S 
ATOM     84  O   UNL A   1      46.783  23.317  26.001  1.00  0.00    -0.237 OA
ATOM     85  O   UNL A   1      44.555  24.360  26.145  1.00  0.00    -0.237 OA
ATOM     86  O   UNL A   1      46.225  25.285  24.610  1.00  0.00    -0.744 OA
ENDBRANCH  80  83
ENDBRANCH  52  76
BRANCH  64  87
ATOM     87  C   UNL A   1      49.909  33.730  27.683  1.00  0.00     0.023 A 
ATOM     88  C   UNL A   1      50.938  33.724  28.646  1.00  0.00     0.012 A 
ATOM     89  C   UNL A   1      50.222  33.996  26.337  1.00  0.00     0.148 A 
ATOM     90  C   UNL A   1      52.254  34.000  28.279  1.00  0.00     0.002 A 
ATOM     91  C   UNL A   1      51.543  34.228  25.970  1.00  0.00     0.091 A 
ATOM     92  F   UNL A   1      49.226  34.015  25.440  1.00  0.00    -0.205 F 
ATOM     93  C   UNL A   1      52.558  34.241  26.941  1.00  0.00     0.022 A 
BRANCH  91  94
ATOM     94  S   UNL A   1      52.044  34.461  24.260  1.00  0.00     0.127 S 
ATOM     95  O   UNL A   1      51.975  33.096  23.742  1.00  0.00    -0.237 OA
ATOM     96  O   UNL A   1      51.007  35.359  23.751  1.00  0.00    -0.237 OA
ATOM     97  O   UNL A   1      53.377  35.045  24.310  1.00  0.00    -0.744 OA
ENDBRANCH  91  94
ENDBRANCH  64  87
ENDBRANCH  38  39
ENDBRANCH  30  33
ENDBRANCH  28  29
ENDBRANCH  27  28
ENDBRANCH  26  27
ENDBRANCH  25  26
ENDBRANCH  23  25
ENDBRANCH  20  21
ENDBRANCH  19  20
ENDBRANCH   1  19
TORSDOF 27
ENDMDL
