MODEL 1
REMARK VINA RESULT:     -10.0      0.000      0.000
REMARK SMILES CCC[C@@H](C)[C@@](C#N)(CC)C(=O)NCCCCNC(=O)c1ccc(-c2c3nc(c(-c4cccc(S(=O)(=O)[O-])c4F)c4ccc([nH]4)c(-c4cccc(S(=O)(=O)[O-])c4F)c4nc(c(-c5cccc(S(=O)(=O)[O-])c5F)c5ccc2[nH]5)C=C4)C=C3)cc1
REMARK SMILES IDX 15 1 14 2 13 3 11 4 12 5 6 7 4 8 5 9 3 10 2 11 1 12 7 13
REMARK SMILES IDX 8 14 9 15 10 16 16 17 17 18 18 19 19 20 20 22 21 23 22 24
REMARK SMILES IDX 83 25 23 26 82 27 24 28 25 29 26 30 76 31 27 32 81 33 75 34
REMARK SMILES IDX 77 35 28 36 80 37 74 38 73 39 29 41 61 42 41 43 60 44 42 45
REMARK SMILES IDX 45 46 59 47 78 48 43 49 44 50 58 52 79 53 46 54 30 55 31 56
REMARK SMILES IDX 39 57 32 58 34 59 40 60 33 61 35 62 36 63 37 64 38 65 62 66
REMARK SMILES IDX 63 67 71 68 64 69 66 70 72 71 65 72 67 73 68 74 69 75 70 76
REMARK SMILES IDX 47 77 48 78 56 79 49 80 51 81 57 82 50 83 52 84 53 85 54 86
REMARK SMILES IDX 55 87
REMARK H PARENT 13 6 18 21 77 40 45 51
REMARK Flexibility Score: inf
ROOT
ATOM      1  C   UNL A   1      31.517  27.464  26.760  1.00  0.00     0.023 C 
ENDROOT
BRANCH   1   2
ATOM      2  C   UNL A   1      31.247  26.203  25.944  1.00  0.00     0.116 C 
BRANCH   2   3
ATOM      3  N   UNL A   1      31.074  25.050  26.811  1.00  0.00    -0.355 N 
ATOM      4  C   UNL A   1      31.718  23.848  26.858  1.00  0.00     0.240 C 
ATOM      5  O   UNL A   1      31.294  23.040  27.687  1.00  0.00    -0.273 OA
ATOM      6  H   UNL A   1      30.365  25.155  27.485  1.00  0.00     0.163 HD
BRANCH   4   7
ATOM      7  C   UNL A   1      32.894  23.519  25.914  1.00  0.00     0.138 C 
BRANCH   7   8
ATOM      8  C   UNL A   1      32.423  23.012  24.476  1.00  0.00     0.016 C 
ATOM      9  C   UNL A   1      32.885  21.584  24.137  1.00  0.00     0.010 C 
BRANCH   8  10
ATOM     10  C   UNL A   1      32.752  23.994  23.312  1.00  0.00     0.005 C 
BRANCH  10  11
ATOM     11  C   UNL A   1      31.558  24.747  22.699  1.00  0.00    -0.003 C 
ATOM     12  C   UNL A   1      31.923  26.063  22.028  1.00  0.00     0.004 C 
ENDBRANCH  10  11
ENDBRANCH   8  10
ENDBRANCH   7   8
BRANCH   7  13
ATOM     13  C   UNL A   1      33.643  22.376  26.580  1.00  0.00     0.079 C 
ATOM     14  N   UNL A   1      34.265  21.428  27.133  1.00  0.00    -0.197 NA
ENDBRANCH   7  13
BRANCH   7  15
ATOM     15  C   UNL A   1      33.892  24.714  25.759  1.00  0.00     0.029 C 
ATOM     16  C   UNL A   1      35.352  24.381  25.457  1.00  0.00     0.006 C 
ENDBRANCH   7  15
ENDBRANCH   4   7
ENDBRANCH   2   3
ENDBRANCH   1   2
BRANCH   1  17
ATOM     17  C   UNL A   1      31.568  28.738  25.920  1.00  0.00     0.023 C 
BRANCH  17  18
ATOM     18  C   UNL A   1      32.829  29.568  26.119  1.00  0.00     0.116 C 
BRANCH  18  19
ATOM     19  N   UNL A   1      32.543  30.988  26.266  1.00  0.00    -0.352 N 
ATOM     20  C   UNL A   1      33.143  31.899  27.101  1.00  0.00     0.251 C 
ATOM     21  H   UNL A   1      31.826  31.341  25.692  1.00  0.00     0.163 HD
ATOM     22  O   UNL A   1      32.674  33.023  27.221  1.00  0.00    -0.269 OA
BRANCH  20  23
ATOM     23  C   UNL A   1      34.340  31.493  27.863  1.00  0.00     0.039 A 
ATOM     24  C   UNL A   1      34.424  30.182  28.333  1.00  0.00     0.014 A 
ATOM     25  C   UNL A   1      35.381  32.397  28.092  1.00  0.00     0.014 A 
ATOM     26  C   UNL A   1      35.574  29.769  29.006  1.00  0.00     0.010 A 
ATOM     27  C   UNL A   1      36.561  31.957  28.679  1.00  0.00     0.010 A 
ATOM     28  C   UNL A   1      36.660  30.647  29.165  1.00  0.00    -0.014 A 
BRANCH  28  29
ATOM     29  C   UNL A   1      37.894  30.207  29.862  1.00  0.00     0.031 A 
ATOM     30  C   UNL A   1      38.188  30.691  31.258  1.00  0.00     0.074 A 
ATOM     31  C   UNL A   1      38.774  29.412  29.222  1.00  0.00     0.049 A 
ATOM     32  N   UNL A   1      39.202  30.402  32.032  1.00  0.00    -0.248 NA
ATOM     33  C   UNL A   1      37.235  31.643  31.854  1.00  0.00     0.031 C 
ATOM     34  C   UNL A   1      38.646  28.951  27.838  1.00  0.00     0.029 A 
ATOM     35  N   UNL A   1      39.956  28.862  29.647  1.00  0.00    -0.354 N 
ATOM     36  C   UNL A   1      39.027  31.156  33.185  1.00  0.00     0.074 A 
ATOM     37  C   UNL A   1      37.835  31.953  32.993  1.00  0.00     0.031 C 
ATOM     38  C   UNL A   1      39.696  28.173  27.535  1.00  0.00     0.029 A 
ATOM     39  C   UNL A   1      40.585  28.101  28.690  1.00  0.00     0.049 A 
ATOM     40  H   UNL A   1      40.320  29.000  30.550  1.00  0.00     0.167 HD
ATOM     41  C   UNL A   1      39.768  31.163  34.318  1.00  0.00     0.034 A 
ATOM     42  C   UNL A   1      41.745  27.419  28.741  1.00  0.00     0.034 A 
ATOM     43  C   UNL A   1      40.931  30.341  34.519  1.00  0.00     0.049 A 
ATOM     44  C   UNL A   1      42.526  27.404  30.028  1.00  0.00     0.074 A 
ATOM     45  C   UNL A   1      41.704  30.208  35.659  1.00  0.00     0.029 A 
ATOM     46  N   UNL A   1      41.495  29.521  33.555  1.00  0.00    -0.354 N 
ATOM     47  N   UNL A   1      42.254  27.996  31.165  1.00  0.00    -0.248 NA
ATOM     48  C   UNL A   1      43.748  26.589  30.052  1.00  0.00     0.031 C 
ATOM     49  C   UNL A   1      42.755  29.332  35.373  1.00  0.00     0.029 A 
ATOM     50  C   UNL A   1      42.612  28.885  34.069  1.00  0.00     0.049 A 
ATOM     51  H   UNL A   1      41.151  29.407  32.640  1.00  0.00     0.167 HD
ATOM     52  C   UNL A   1      43.248  27.595  32.051  1.00  0.00     0.074 A 
ATOM     53  C   UNL A   1      44.113  26.689  31.322  1.00  0.00     0.031 C 
ATOM     54  C   UNL A   1      43.436  27.952  33.346  1.00  0.00     0.034 A 
BRANCH  41  55
ATOM     55  C   UNL A   1      39.315  32.054  35.446  1.00  0.00     0.023 A 
ATOM     56  C   UNL A   1      38.411  31.560  36.410  1.00  0.00     0.012 A 
ATOM     57  C   UNL A   1      39.820  33.363  35.582  1.00  0.00     0.148 A 
ATOM     58  C   UNL A   1      37.986  32.364  37.466  1.00  0.00     0.002 A 
ATOM     59  C   UNL A   1      39.431  34.141  36.666  1.00  0.00     0.091 A 
ATOM     60  F   UNL A   1      40.661  33.824  34.646  1.00  0.00    -0.205 F 
ATOM     61  C   UNL A   1      38.505  33.649  37.601  1.00  0.00     0.022 A 
BRANCH  59  62
ATOM     62  S   UNL A   1      40.105  35.776  36.977  1.00  0.00     0.127 S 
ATOM     63  O   UNL A   1      39.683  36.501  35.779  1.00  0.00    -0.237 OA
ATOM     64  O   UNL A   1      39.407  36.167  38.203  1.00  0.00    -0.237 OA
ATOM     65  O   UNL A   1      41.542  35.599  37.124  1.00  0.00    -0.744 OA
ENDBRANCH  59  62
ENDBRANCH  41  55
BRANCH  42  66
ATOM     66  C   UNL A   1      42.207  26.639  27.558  1.00  0.00     0.023 A 
ATOM     67  C   UNL A   1      42.958  27.279  26.552  1.00  0.00     0.012 A 
ATOM     68  C   UNL A   1      41.922  25.266  27.433  1.00  0.00     0.148 A 
ATOM     69  C   UNL A   1      43.380  26.577  25.423  1.00  0.00     0.002 A 
ATOM     70  C   UNL A   1      42.396  24.557  26.335  1.00  0.00     0.091 A 
ATOM     71  F   UNL A   1      41.202  24.678  28.398  1.00  0.00    -0.205 F 
ATOM     72  C   UNL A   1      43.108  25.215  25.319  1.00  0.00     0.022 A 
BRANCH  70  73
ATOM     73  S   UNL A   1      42.208  22.779  26.182  1.00  0.00     0.127 S 
ATOM     74  O   UNL A   1      42.911  22.301  27.370  1.00  0.00    -0.237 OA
ATOM     75  O   UNL A   1      40.753  22.626  26.224  1.00  0.00    -0.237 OA
ATOM     76  O   UNL A   1      42.812  22.427  24.905  1.00  0.00    -0.744 OA
ENDBRANCH  70  73
ENDBRANCH  42  66
BRANCH  54  77
ATOM     77  C   UNL A   1      44.597  27.327  34.077  1.00  0.00     0.023 A 
ATOM     78  C   UNL A   1      45.874  27.919  34.017  1.00  0.00     0.012 A 
ATOM     79  C   UNL A   1      44.406  26.176  34.868  1.00  0.00     0.148 A 
ATOM     80  C   UNL A   1      46.953  27.350  34.693  1.00  0.00     0.002 A 
ATOM     81  C   UNL A   1      45.472  25.646  35.583  1.00  0.00     0.091 A 
ATOM     82  F   UNL A   1      43.189  25.615  34.900  1.00  0.00    -0.205 F 
ATOM     83  C   UNL A   1      46.750  26.220  35.484  1.00  0.00     0.022 A 
BRANCH  81  84
ATOM     84  S   UNL A   1      45.279  24.257  36.705  1.00  0.00     0.127 S 
ATOM     85  O   UNL A   1      44.803  23.210  35.803  1.00  0.00    -0.237 OA
ATOM     86  O   UNL A   1      46.644  24.064  37.197  1.00  0.00    -0.237 OA
ATOM     87  O   UNL A   1      44.328  24.691  37.720  1.00  0.00    -0.744 OA
ENDBRANCH  81  84
ENDBRANCH  54  77
ENDBRANCH  28  29
ENDBRANCH  20  23
ENDBRANCH  18  19
ENDBRANCH  17  18
ENDBRANCH   1  17
TORSDOF 19
ENDMDL
MODEL 2
REMARK VINA RESULT:      -9.9      1.490      2.218
REMARK SMILES CCC[C@@H](C)[C@@](C#N)(CC)C(=O)NCCCCNC(=O)c1ccc(-c2c3nc(c(-c4cccc(S(=O)(=O)[O-])c4F)c4ccc([nH]4)c(-c4cccc(S(=O)(=O)[O-])c4F)c4nc(c(-c5cccc(S(=O)(=O)[O-])c5F)c5ccc2[nH]5)C=C4)C=C3)cc1
REMARK SMILES IDX 15 1 14 2 13 3 11 4 12 5 6 7 4 8 5 9 3 10 2 11 1 12 7 13
REMARK SMILES IDX 8 14 9 15 10 16 16 17 17 18 18 19 19 20 20 22 21 23 22 24
REMARK SMILES IDX 83 25 23 26 82 27 24 28 25 29 26 30 76 31 27 32 81 33 75 34
REMARK SMILES IDX 77 35 28 36 80 37 74 38 73 39 29 41 61 42 41 43 60 44 42 45
REMARK SMILES IDX 45 46 59 47 78 48 43 49 44 50 58 52 79 53 46 54 30 55 31 56
REMARK SMILES IDX 39 57 32 58 34 59 40 60 33 61 35 62 36 63 37 64 38 65 62 66
REMARK SMILES IDX 63 67 71 68 64 69 66 70 72 71 65 72 67 73 68 74 69 75 70 76
REMARK SMILES IDX 47 77 48 78 56 79 49 80 51 81 57 82 50 83 52 84 53 85 54 86
REMARK SMILES IDX 55 87
REMARK H PARENT 13 6 18 21 77 40 45 51
REMARK Flexibility Score: inf
ROOT
ATOM      1  C   UNL A   1      32.273  28.065  27.122  1.00  0.00     0.023 C 
ENDROOT
BRANCH   1   2
ATOM      2  C   UNL A   1      31.484  27.074  26.272  1.00  0.00     0.116 C 
BRANCH   2   3
ATOM      3  N   UNL A   1      31.369  25.790  26.944  1.00  0.00    -0.355 N 
ATOM      4  C   UNL A   1      31.544  24.514  26.494  1.00  0.00     0.240 C 
ATOM      5  O   UNL A   1      31.312  23.617  27.308  1.00  0.00    -0.273 OA
ATOM      6  H   UNL A   1      31.119  25.853  27.894  1.00  0.00     0.163 HD
BRANCH   4   7
ATOM      7  C   UNL A   1      31.989  24.217  25.046  1.00  0.00     0.138 C 
BRANCH   7   8
ATOM      8  C   UNL A   1      33.385  24.891  24.666  1.00  0.00     0.016 C 
ATOM      9  C   UNL A   1      33.748  24.774  23.175  1.00  0.00     0.010 C 
BRANCH   8  10
ATOM     10  C   UNL A   1      34.577  24.447  25.566  1.00  0.00     0.005 C 
BRANCH  10  11
ATOM     11  C   UNL A   1      35.805  23.876  24.837  1.00  0.00    -0.003 C 
ATOM     12  C   UNL A   1      37.048  23.746  25.707  1.00  0.00     0.004 C 
ENDBRANCH  10  11
ENDBRANCH   8  10
ENDBRANCH   7   8
BRANCH   7  13
ATOM     13  C   UNL A   1      30.924  24.837  24.157  1.00  0.00     0.079 C 
ATOM     14  N   UNL A   1      30.040  25.352  23.419  1.00  0.00    -0.197 NA
ENDBRANCH   7  13
BRANCH   7  15
ATOM     15  C   UNL A   1      32.035  22.684  24.735  1.00  0.00     0.029 C 
ATOM     16  C   UNL A   1      31.969  22.259  23.268  1.00  0.00     0.006 C 
ENDBRANCH   7  15
ENDBRANCH   4   7
ENDBRANCH   2   3
ENDBRANCH   1   2
BRANCH   1  17
ATOM     17  C   UNL A   1      31.887  29.522  26.880  1.00  0.00     0.023 C 
BRANCH  17  18
ATOM     18  C   UNL A   1      33.035  30.403  26.405  1.00  0.00     0.116 C 
BRANCH  18  19
ATOM     19  N   UNL A   1      32.864  31.796  26.791  1.00  0.00    -0.352 N 
ATOM     20  C   UNL A   1      33.605  32.534  27.682  1.00  0.00     0.251 C 
ATOM     21  H   UNL A   1      32.120  32.272  26.357  1.00  0.00     0.163 HD
ATOM     22  O   UNL A   1      33.230  33.648  28.018  1.00  0.00    -0.269 OA
BRANCH  20  23
ATOM     23  C   UNL A   1      34.842  31.951  28.240  1.00  0.00     0.039 A 
ATOM     24  C   UNL A   1      36.024  32.689  28.170  1.00  0.00     0.014 A 
ATOM     25  C   UNL A   1      34.827  30.692  28.848  1.00  0.00     0.014 A 
ATOM     26  C   UNL A   1      37.187  32.176  28.743  1.00  0.00     0.010 A 
ATOM     27  C   UNL A   1      35.963  30.226  29.498  1.00  0.00     0.010 A 
ATOM     28  C   UNL A   1      37.160  30.950  29.430  1.00  0.00    -0.014 A 
BRANCH  28  29
ATOM     29  C   UNL A   1      38.390  30.407  30.060  1.00  0.00     0.031 A 
ATOM     30  C   UNL A   1      38.800  30.863  31.435  1.00  0.00     0.074 A 
ATOM     31  C   UNL A   1      39.164  29.543  29.374  1.00  0.00     0.049 A 
ATOM     32  N   UNL A   1      39.828  30.489  32.153  1.00  0.00    -0.248 NA
ATOM     33  C   UNL A   1      37.965  31.890  32.080  1.00  0.00     0.031 C 
ATOM     34  C   UNL A   1      38.921  29.096  28.001  1.00  0.00     0.029 A 
ATOM     35  N   UNL A   1      40.317  28.895  29.735  1.00  0.00    -0.354 N 
ATOM     36  C   UNL A   1      39.781  31.253  33.312  1.00  0.00     0.074 A 
ATOM     37  C   UNL A   1      38.651  32.147  33.184  1.00  0.00     0.031 C 
ATOM     38  C   UNL A   1      39.884  28.233  27.642  1.00  0.00     0.029 A 
ATOM     39  C   UNL A   1      40.826  28.086  28.747  1.00  0.00     0.049 A 
ATOM     40  H   UNL A   1      40.741  29.001  30.616  1.00  0.00     0.167 HD
ATOM     41  C   UNL A   1      40.581  31.196  34.402  1.00  0.00     0.034 A 
ATOM     42  C   UNL A   1      41.927  27.309  28.736  1.00  0.00     0.034 A 
ATOM     43  C   UNL A   1      41.681  30.279  34.541  1.00  0.00     0.049 A 
ATOM     44  C   UNL A   1      42.773  27.226  29.978  1.00  0.00     0.074 A 
ATOM     45  C   UNL A   1      42.502  30.081  35.636  1.00  0.00     0.029 A 
ATOM     46  N   UNL A   1      42.120  29.416  33.550  1.00  0.00    -0.354 N 
ATOM     47  N   UNL A   1      42.615  27.837  31.126  1.00  0.00    -0.248 NA
ATOM     48  C   UNL A   1      43.922  26.312  29.936  1.00  0.00     0.031 C 
ATOM     49  C   UNL A   1      43.459  29.120  35.296  1.00  0.00     0.029 A 
ATOM     50  C   UNL A   1      43.207  28.689  34.003  1.00  0.00     0.049 A 
ATOM     51  H   UNL A   1      41.718  29.333  32.655  1.00  0.00     0.167 HD
ATOM     52  C   UNL A   1      43.620  27.353  31.956  1.00  0.00     0.074 A 
ATOM     53  C   UNL A   1      44.364  26.379  31.184  1.00  0.00     0.031 C 
ATOM     54  C   UNL A   1      43.909  27.691  33.238  1.00  0.00     0.034 A 
BRANCH  41  55
ATOM     55  C   UNL A   1      40.268  32.120  35.550  1.00  0.00     0.023 A 
ATOM     56  C   UNL A   1      40.992  33.322  35.701  1.00  0.00     0.012 A 
ATOM     57  C   UNL A   1      39.227  31.827  36.453  1.00  0.00     0.148 A 
ATOM     58  C   UNL A   1      40.713  34.196  36.750  1.00  0.00     0.002 A 
ATOM     59  C   UNL A   1      38.920  32.727  37.466  1.00  0.00     0.091 A 
ATOM     60  F   UNL A   1      38.563  30.672  36.309  1.00  0.00    -0.205 F 
ATOM     61  C   UNL A   1      39.671  33.904  37.625  1.00  0.00     0.022 A 
BRANCH  59  62
ATOM     62  S   UNL A   1      37.543  32.487  38.593  1.00  0.00     0.127 S 
ATOM     63  O   UNL A   1      36.410  32.903  37.766  1.00  0.00    -0.237 OA
ATOM     64  O   UNL A   1      37.610  31.048  38.856  1.00  0.00    -0.237 OA
ATOM     65  O   UNL A   1      37.814  33.330  39.749  1.00  0.00    -0.744 OA
ENDBRANCH  59  62
ENDBRANCH  41  55
BRANCH  42  66
ATOM     66  C   UNL A   1      42.255  26.494  27.531  1.00  0.00     0.023 A 
ATOM     67  C   UNL A   1      42.930  27.094  26.449  1.00  0.00     0.012 A 
ATOM     68  C   UNL A   1      41.919  25.130  27.459  1.00  0.00     0.148 A 
ATOM     69  C   UNL A   1      43.227  26.359  25.301  1.00  0.00     0.002 A 
ATOM     70  C   UNL A   1      42.270  24.388  26.337  1.00  0.00     0.091 A 
ATOM     71  F   UNL A   1      41.272  24.580  28.497  1.00  0.00    -0.205 F 
ATOM     72  C   UNL A   1      42.905  25.005  25.248  1.00  0.00     0.022 A 
BRANCH  70  73
ATOM     73  S   UNL A   1      42.014  22.614  26.237  1.00  0.00     0.127 S 
ATOM     74  O   UNL A   1      42.691  22.146  27.443  1.00  0.00    -0.237 OA
ATOM     75  O   UNL A   1      40.554  22.518  26.272  1.00  0.00    -0.237 OA
ATOM     76  O   UNL A   1      42.612  22.200  24.976  1.00  0.00    -0.744 OA
ENDBRANCH  70  73
ENDBRANCH  42  66
BRANCH  54  77
ATOM     77  C   UNL A   1      45.051  26.970  33.906  1.00  0.00     0.023 A 
ATOM     78  C   UNL A   1      46.372  27.439  33.753  1.00  0.00     0.012 A 
ATOM     79  C   UNL A   1      44.807  25.853  34.730  1.00  0.00     0.148 A 
ATOM     80  C   UNL A   1      47.435  26.780  34.370  1.00  0.00     0.002 A 
ATOM     81  C   UNL A   1      45.864  25.235  35.386  1.00  0.00     0.091 A 
ATOM     82  F   UNL A   1      43.548  25.409  34.850  1.00  0.00    -0.205 F 
ATOM     83  C   UNL A   1      47.180  25.685  35.194  1.00  0.00     0.022 A 
BRANCH  81  84
ATOM     84  S   UNL A   1      45.617  23.885  36.544  1.00  0.00     0.127 S 
ATOM     85  O   UNL A   1      44.612  24.446  37.446  1.00  0.00    -0.237 OA
ATOM     86  O   UNL A   1      45.126  22.816  35.675  1.00  0.00    -0.237 OA
ATOM     87  O   UNL A   1      46.920  23.627  37.142  1.00  0.00    -0.744 OA
ENDBRANCH  81  84
ENDBRANCH  54  77
ENDBRANCH  28  29
ENDBRANCH  20  23
ENDBRANCH  18  19
ENDBRANCH  17  18
ENDBRANCH   1  17
TORSDOF 19
ENDMDL
MODEL 3
REMARK VINA RESULT:      -9.7      5.104     10.267
REMARK SMILES CCC[C@@H](C)[C@@](C#N)(CC)C(=O)NCCCCNC(=O)c1ccc(-c2c3nc(c(-c4cccc(S(=O)(=O)[O-])c4F)c4ccc([nH]4)c(-c4cccc(S(=O)(=O)[O-])c4F)c4nc(c(-c5cccc(S(=O)(=O)[O-])c5F)c5ccc2[nH]5)C=C4)C=C3)cc1
REMARK SMILES IDX 15 1 14 2 13 3 11 4 12 5 6 7 4 8 5 9 3 10 2 11 1 12 7 13
REMARK SMILES IDX 8 14 9 15 10 16 16 17 17 18 18 19 19 20 20 22 21 23 22 24
REMARK SMILES IDX 83 25 23 26 82 27 24 28 25 29 26 30 76 31 27 32 81 33 75 34
REMARK SMILES IDX 77 35 28 36 80 37 74 38 73 39 29 41 61 42 41 43 60 44 42 45
REMARK SMILES IDX 45 46 59 47 78 48 43 49 44 50 58 52 79 53 46 54 30 55 31 56
REMARK SMILES IDX 39 57 32 58 34 59 40 60 33 61 35 62 36 63 37 64 38 65 62 66
REMARK SMILES IDX 63 67 71 68 64 69 66 70 72 71 65 72 67 73 68 74 69 75 70 76
REMARK SMILES IDX 47 77 48 78 56 79 49 80 51 81 57 82 50 83 52 84 53 85 54 86
REMARK SMILES IDX 55 87
REMARK H PARENT 13 6 18 21 77 40 45 51
REMARK Flexibility Score: inf
ROOT
ATOM      1  C   UNL A   1      34.568  23.462  25.903  1.00  0.00     0.023 C 
ENDROOT
BRANCH   1   2
ATOM      2  C   UNL A   1      34.266  24.421  24.756  1.00  0.00     0.116 C 
BRANCH   2   3
ATOM      3  N   UNL A   1      32.894  24.272  24.301  1.00  0.00    -0.355 N 
ATOM      4  C   UNL A   1      31.942  25.195  23.979  1.00  0.00     0.240 C 
ATOM      5  O   UNL A   1      30.834  24.746  23.677  1.00  0.00    -0.273 OA
ATOM      6  H   UNL A   1      32.599  23.338  24.210  1.00  0.00     0.163 HD
BRANCH   4   7
ATOM      7  C   UNL A   1      32.235  26.710  24.010  1.00  0.00     0.138 C 
BRANCH   7   8
ATOM      8  C   UNL A   1      31.868  27.393  25.405  1.00  0.00     0.016 C 
ATOM      9  C   UNL A   1      31.400  28.853  25.279  1.00  0.00     0.010 C 
BRANCH   8  10
ATOM     10  C   UNL A   1      32.972  27.254  26.496  1.00  0.00     0.005 C 
BRANCH  10  11
ATOM     11  C   UNL A   1      33.328  28.534  27.271  1.00  0.00    -0.003 C 
ATOM     12  C   UNL A   1      34.755  29.020  27.060  1.00  0.00     0.004 C 
ENDBRANCH  10  11
ENDBRANCH   8  10
ENDBRANCH   7   8
BRANCH   7  13
ATOM     13  C   UNL A   1      31.334  27.321  22.949  1.00  0.00     0.079 C 
ATOM     14  N   UNL A   1      30.586  27.828  22.070  1.00  0.00    -0.197 NA
ENDBRANCH   7  13
BRANCH   7  15
ATOM     15  C   UNL A   1      33.715  27.043  23.625  1.00  0.00     0.029 C 
ATOM     16  C   UNL A   1      33.983  28.385  22.945  1.00  0.00     0.006 C 
ENDBRANCH   7  15
ENDBRANCH   4   7
ENDBRANCH   2   3
ENDBRANCH   1   2
BRANCH   1  17
ATOM     17  C   UNL A   1      35.642  22.429  25.572  1.00  0.00     0.023 C 
BRANCH  17  18
ATOM     18  C   UNL A   1      37.064  22.888  25.862  1.00  0.00     0.116 C 
BRANCH  18  19
ATOM     19  N   UNL A   1      37.981  21.774  26.055  1.00  0.00    -0.352 N 
ATOM     20  C   UNL A   1      39.314  21.810  26.384  1.00  0.00     0.251 C 
ATOM     21  H   UNL A   1      37.594  20.877  25.933  1.00  0.00     0.163 HD
ATOM     22  O   UNL A   1      39.984  20.787  26.347  1.00  0.00    -0.269 OA
BRANCH  20  23
ATOM     23  C   UNL A   1      39.925  23.102  26.756  1.00  0.00     0.039 A 
ATOM     24  C   UNL A   1      39.683  24.216  25.952  1.00  0.00     0.014 A 
ATOM     25  C   UNL A   1      40.714  23.213  27.904  1.00  0.00     0.014 A 
ATOM     26  C   UNL A   1      40.207  25.454  26.322  1.00  0.00     0.010 A 
ATOM     27  C   UNL A   1      41.156  24.464  28.319  1.00  0.00     0.010 A 
ATOM     28  C   UNL A   1      40.929  25.592  27.520  1.00  0.00    -0.014 A 
BRANCH  28  29
ATOM     29  C   UNL A   1      41.473  26.911  27.930  1.00  0.00     0.031 A 
ATOM     30  C   UNL A   1      42.912  27.256  27.649  1.00  0.00     0.074 A 
ATOM     31  C   UNL A   1      40.686  27.777  28.597  1.00  0.00     0.049 A 
ATOM     32  N   UNL A   1      43.559  28.361  27.915  1.00  0.00    -0.248 NA
ATOM     33  C   UNL A   1      43.741  26.218  27.013  1.00  0.00     0.031 C 
ATOM     34  C   UNL A   1      39.304  27.522  29.006  1.00  0.00     0.029 A 
ATOM     35  N   UNL A   1      40.941  29.043  29.059  1.00  0.00    -0.354 N 
ATOM     36  C   UNL A   1      44.870  28.142  27.510  1.00  0.00     0.074 A 
ATOM     37  C   UNL A   1      44.940  26.781  27.024  1.00  0.00     0.031 C 
ATOM     38  C   UNL A   1      38.826  28.604  29.641  1.00  0.00     0.029 A 
ATOM     39  C   UNL A   1      39.874  29.618  29.708  1.00  0.00     0.049 A 
ATOM     40  H   UNL A   1      41.806  29.497  28.938  1.00  0.00     0.167 HD
ATOM     41  C   UNL A   1      45.915  29.001  27.507  1.00  0.00     0.034 A 
ATOM     42  C   UNL A   1      39.753  30.828  30.288  1.00  0.00     0.034 A 
ATOM     43  C   UNL A   1      45.831  30.365  27.956  1.00  0.00     0.049 A 
ATOM     44  C   UNL A   1      40.915  31.783  30.228  1.00  0.00     0.074 A 
ATOM     45  C   UNL A   1      46.807  31.345  27.918  1.00  0.00     0.029 A 
ATOM     46  N   UNL A   1      44.710  30.939  28.535  1.00  0.00    -0.354 N 
ATOM     47  N   UNL A   1      42.099  31.612  29.692  1.00  0.00    -0.248 NA
ATOM     48  C   UNL A   1      40.708  33.114  30.814  1.00  0.00     0.031 C 
ATOM     49  C   UNL A   1      46.286  32.502  28.504  1.00  0.00     0.029 A 
ATOM     50  C   UNL A   1      44.972  32.257  28.869  1.00  0.00     0.049 A 
ATOM     51  H   UNL A   1      43.855  30.477  28.687  1.00  0.00     0.167 HD
ATOM     52  C   UNL A   1      42.763  32.824  29.840  1.00  0.00     0.074 A 
ATOM     53  C   UNL A   1      41.839  33.727  30.495  1.00  0.00     0.031 C 
ATOM     54  C   UNL A   1      44.027  33.157  29.478  1.00  0.00     0.034 A 
BRANCH  41  55
ATOM     55  C   UNL A   1      47.228  28.506  26.960  1.00  0.00     0.023 A 
ATOM     56  C   UNL A   1      48.321  28.308  27.831  1.00  0.00     0.012 A 
ATOM     57  C   UNL A   1      47.371  28.188  25.594  1.00  0.00     0.148 A 
ATOM     58  C   UNL A   1      49.542  27.841  27.348  1.00  0.00     0.002 A 
ATOM     59  C   UNL A   1      48.576  27.676  25.129  1.00  0.00     0.091 A 
ATOM     60  F   UNL A   1      46.330  28.402  24.777  1.00  0.00    -0.205 F 
ATOM     61  C   UNL A   1      49.666  27.515  26.000  1.00  0.00     0.022 A 
BRANCH  59  62
ATOM     62  S   UNL A   1      48.811  27.144  23.429  1.00  0.00     0.127 S 
ATOM     63  O   UNL A   1      48.312  28.302  22.687  1.00  0.00    -0.237 OA
ATOM     64  O   UNL A   1      50.261  26.959  23.365  1.00  0.00    -0.237 OA
ATOM     65  O   UNL A   1      48.033  25.923  23.277  1.00  0.00    -0.744 OA
ENDBRANCH  59  62
ENDBRANCH  41  55
BRANCH  42  66
ATOM     66  C   UNL A   1      38.463  31.231  30.915  1.00  0.00     0.023 A 
ATOM     67  C   UNL A   1      38.277  31.051  32.300  1.00  0.00     0.012 A 
ATOM     68  C   UNL A   1      37.430  31.808  30.153  1.00  0.00     0.148 A 
ATOM     69  C   UNL A   1      37.069  31.398  32.907  1.00  0.00     0.002 A 
ATOM     70  C   UNL A   1      36.251  32.206  30.772  1.00  0.00     0.091 A 
ATOM     71  F   UNL A   1      37.626  31.966  28.836  1.00  0.00    -0.205 F 
ATOM     72  C   UNL A   1      36.060  31.983  32.145  1.00  0.00     0.022 A 
BRANCH  70  73
ATOM     73  S   UNL A   1      34.953  33.086  29.899  1.00  0.00     0.127 S 
ATOM     74  O   UNL A   1      34.466  32.064  28.977  1.00  0.00    -0.237 OA
ATOM     75  O   UNL A   1      34.034  33.424  30.987  1.00  0.00    -0.237 OA
ATOM     76  O   UNL A   1      35.601  34.235  29.283  1.00  0.00    -0.744 OA
ENDBRANCH  70  73
ENDBRANCH  42  66
BRANCH  54  77
ATOM     77  C   UNL A   1      44.474  34.572  29.739  1.00  0.00     0.023 A 
ATOM     78  C   UNL A   1      45.135  34.897  30.941  1.00  0.00     0.012 A 
ATOM     79  C   UNL A   1      44.284  35.572  28.764  1.00  0.00     0.148 A 
ATOM     80  C   UNL A   1      45.554  36.204  31.189  1.00  0.00     0.002 A 
ATOM     81  C   UNL A   1      44.755  36.859  28.995  1.00  0.00     0.091 A 
ATOM     82  F   UNL A   1      43.639  35.251  27.634  1.00  0.00    -0.205 F 
ATOM     83  C   UNL A   1      45.374  37.181  30.213  1.00  0.00     0.022 A 
BRANCH  81  84
ATOM     84  S   UNL A   1      44.657  38.153  27.753  1.00  0.00     0.127 S 
ATOM     85  O   UNL A   1      44.882  39.354  28.556  1.00  0.00    -0.237 OA
ATOM     86  O   UNL A   1      45.759  37.805  26.856  1.00  0.00    -0.237 OA
ATOM     87  O   UNL A   1      43.334  38.037  27.157  1.00  0.00    -0.744 OA
ENDBRANCH  81  84
ENDBRANCH  54  77
ENDBRANCH  28  29
ENDBRANCH  20  23
ENDBRANCH  18  19
ENDBRANCH  17  18
ENDBRANCH   1  17
TORSDOF 19
ENDMDL
