MODEL 1
REMARK VINA RESULT:     -13.7      0.000      0.000
REMARK SMILES O=C1Nc2ccccc2/C1=C/c1cccc(C(=O)NCCCCNC(=O)c2ccc(-c3c4nc(c(-c5cccc(S(=O)(=O)[O-])c5F)c5ccc([nH]5)c(-c5cccc(S(=O)(=O)[O-])c5F)c5nc(c(-c6cccc(S(=O)(=O)[O-])c6F)c6ccc3[nH]6)C=C5)C=C4)cc2)c1
REMARK SMILES IDX 22 1 21 2 20 3 19 4 17 5 18 6 16 8 12 9 13 10 90 11 14 12
REMARK SMILES IDX 15 13 11 14 1 15 2 16 3 17 10 18 4 19 9 21 5 22 8 23 6 24
REMARK SMILES IDX 7 25 23 26 24 27 25 28 26 30 27 31 28 32 89 33 29 34 88 35
REMARK SMILES IDX 30 36 31 37 32 38 82 39 33 40 87 41 81 42 83 43 34 44 86 45
REMARK SMILES IDX 80 46 79 47 35 49 67 50 47 51 66 52 48 53 51 54 65 55 84 56
REMARK SMILES IDX 49 57 50 58 64 60 85 61 52 62 36 63 37 64 45 65 38 66 40 67
REMARK SMILES IDX 46 68 39 69 41 70 42 71 43 72 44 73 68 74 69 75 77 76 70 77
REMARK SMILES IDX 72 78 78 79 71 80 73 81 74 82 75 83 76 84 53 85 54 86 62 87
REMARK SMILES IDX 55 88 57 89 63 90 56 91 58 92 59 93 60 94 61 95
REMARK H PARENT 19 7 3 20 24 29 83 48 51 59
REMARK Flexibility Score: inf
ROOT
ATOM      1  C   UNL A   1      35.606  21.276  25.123  1.00  0.00     0.023 C 
ENDROOT
BRANCH   1   2
ATOM      2  C   UNL A   1      34.628  21.444  26.290  1.00  0.00     0.023 C 
BRANCH   2   3
ATOM      3  C   UNL A   1      33.156  21.419  25.865  1.00  0.00     0.116 C 
BRANCH   3   4
ATOM      4  N   UNL A   1      32.386  22.375  26.637  1.00  0.00    -0.352 N 
ATOM      5  C   UNL A   1      31.986  23.669  26.414  1.00  0.00     0.251 C 
ATOM      6  O   UNL A   1      31.309  24.201  27.296  1.00  0.00    -0.269 OA
ATOM      7  H   UNL A   1      32.086  22.021  27.505  1.00  0.00     0.163 HD
BRANCH   5   8
ATOM      8  C   UNL A   1      32.280  24.449  25.173  1.00  0.00     0.040 A 
ATOM      9  C   UNL A   1      31.756  26.101  23.458  1.00  0.00    -0.024 A 
ATOM     10  C   UNL A   1      33.059  26.037  22.970  1.00  0.00     0.008 A 
ATOM     11  C   UNL A   1      31.359  25.238  24.491  1.00  0.00     0.022 A 
ATOM     12  C   UNL A   1      33.971  25.161  23.562  1.00  0.00     0.001 A 
ATOM     13  C   UNL A   1      33.591  24.398  24.671  1.00  0.00     0.014 A 
BRANCH   9  14
ATOM     14  C   UNL A   1      30.776  27.072  22.958  1.00  0.00     0.022 C 
ATOM     15  O   UNL A   1      32.583  28.584  24.973  1.00  0.00    -0.269 OA
ATOM     16  C   UNL A   1      31.566  28.998  24.459  1.00  0.00     0.256 C 
ATOM     17  N   UNL A   1      30.989  30.240  24.680  1.00  0.00    -0.321 N 
ATOM     18  C   UNL A   1      30.656  28.317  23.454  1.00  0.00     0.050 C 
ATOM     19  C   UNL A   1      29.828  30.403  23.934  1.00  0.00     0.049 A 
ATOM     20  H   UNL A   1      31.356  30.920  25.290  1.00  0.00     0.170 HD
ATOM     21  C   UNL A   1      29.575  29.266  23.159  1.00  0.00     0.011 A 
ATOM     22  C   UNL A   1      28.992  31.500  23.948  1.00  0.00     0.027 A 
ATOM     23  C   UNL A   1      28.433  29.192  22.384  1.00  0.00     0.011 A 
ATOM     24  C   UNL A   1      27.842  31.435  23.160  1.00  0.00     0.002 A 
ATOM     25  C   UNL A   1      27.562  30.290  22.390  1.00  0.00     0.001 A 
ENDBRANCH   9  14
ENDBRANCH   5   8
ENDBRANCH   3   4
ENDBRANCH   2   3
ENDBRANCH   1   2
BRANCH   1  26
ATOM     26  C   UNL A   1      37.006  21.824  25.378  1.00  0.00     0.116 C 
BRANCH  26  27
ATOM     27  N   UNL A   1      38.006  20.783  25.581  1.00  0.00    -0.352 N 
ATOM     28  C   UNL A   1      39.276  20.916  26.091  1.00  0.00     0.251 C 
ATOM     29  H   UNL A   1      37.739  19.872  25.321  1.00  0.00     0.163 HD
ATOM     30  O   UNL A   1      40.049  19.964  26.098  1.00  0.00    -0.269 OA
BRANCH  28  31
ATOM     31  C   UNL A   1      39.702  22.236  26.594  1.00  0.00     0.039 A 
ATOM     32  C   UNL A   1      40.750  22.305  27.513  1.00  0.00     0.014 A 
ATOM     33  C   UNL A   1      39.110  23.403  26.101  1.00  0.00     0.014 A 
ATOM     34  C   UNL A   1      41.249  23.553  27.889  1.00  0.00     0.010 A 
ATOM     35  C   UNL A   1      39.666  24.638  26.410  1.00  0.00     0.010 A 
ATOM     36  C   UNL A   1      40.737  24.727  27.313  1.00  0.00    -0.014 A 
BRANCH  36  37
ATOM     37  C   UNL A   1      41.318  26.055  27.634  1.00  0.00     0.031 A 
ATOM     38  C   UNL A   1      42.725  26.388  27.218  1.00  0.00     0.074 A 
ATOM     39  C   UNL A   1      40.606  26.934  28.368  1.00  0.00     0.049 A 
ATOM     40  N   UNL A   1      43.411  27.480  27.433  1.00  0.00    -0.248 NA
ATOM     41  C   UNL A   1      43.472  25.348  26.488  1.00  0.00     0.031 C 
ATOM     42  C   UNL A   1      39.265  26.695  28.909  1.00  0.00     0.029 A 
ATOM     43  N   UNL A   1      40.919  28.196  28.809  1.00  0.00    -0.354 N 
ATOM     44  C   UNL A   1      44.674  27.247  26.902  1.00  0.00     0.074 A 
ATOM     45  C   UNL A   1      44.673  25.896  26.385  1.00  0.00     0.031 C 
ATOM     46  C   UNL A   1      38.868  27.778  29.597  1.00  0.00     0.029 A 
ATOM     47  C   UNL A   1      39.935  28.772  29.579  1.00  0.00     0.049 A 
ATOM     48  H   UNL A   1      41.768  28.646  28.593  1.00  0.00     0.167 HD
ATOM     49  C   UNL A   1      45.730  28.089  26.824  1.00  0.00     0.034 A 
ATOM     50  C   UNL A   1      39.902  29.962  30.211  1.00  0.00     0.034 A 
ATOM     51  C   UNL A   1      45.715  29.444  27.306  1.00  0.00     0.049 A 
ATOM     52  C   UNL A   1      41.076  30.895  30.074  1.00  0.00     0.074 A 
ATOM     53  C   UNL A   1      46.699  30.408  27.188  1.00  0.00     0.029 A 
ATOM     54  N   UNL A   1      44.672  30.022  28.011  1.00  0.00    -0.354 N 
ATOM     55  N   UNL A   1      42.198  30.718  29.421  1.00  0.00    -0.248 NA
ATOM     56  C   UNL A   1      40.965  32.204  30.731  1.00  0.00     0.031 C 
ATOM     57  C   UNL A   1      46.269  31.556  27.859  1.00  0.00     0.029 A 
ATOM     58  C   UNL A   1      44.994  31.323  28.352  1.00  0.00     0.049 A 
ATOM     59  H   UNL A   1      43.824  29.571  28.237  1.00  0.00     0.167 HD
ATOM     60  C   UNL A   1      42.909  31.905  29.555  1.00  0.00     0.074 A 
ATOM     61  C   UNL A   1      42.079  32.801  30.334  1.00  0.00     0.031 C 
ATOM     62  C   UNL A   1      44.141  32.221  29.087  1.00  0.00     0.034 A 
BRANCH  49  63
ATOM     63  C   UNL A   1      46.985  27.586  26.158  1.00  0.00     0.023 A 
ATOM     64  C   UNL A   1      47.897  26.796  26.886  1.00  0.00     0.012 A 
ATOM     65  C   UNL A   1      47.225  27.839  24.793  1.00  0.00     0.148 A 
ATOM     66  C   UNL A   1      49.047  26.295  26.278  1.00  0.00     0.002 A 
ATOM     67  C   UNL A   1      48.347  27.294  24.180  1.00  0.00     0.091 A 
ATOM     68  F   UNL A   1      46.357  28.609  24.123  1.00  0.00    -0.205 F 
ATOM     69  C   UNL A   1      49.265  26.533  24.924  1.00  0.00     0.022 A 
BRANCH  67  70
ATOM     70  S   UNL A   1      48.675  27.469  22.424  1.00  0.00     0.127 S 
ATOM     71  O   UNL A   1      47.534  28.275  21.990  1.00  0.00    -0.237 OA
ATOM     72  O   UNL A   1      49.957  28.175  22.421  1.00  0.00    -0.237 OA
ATOM     73  O   UNL A   1      48.723  26.118  21.884  1.00  0.00    -0.744 OA
ENDBRANCH  67  70
ENDBRANCH  49  63
BRANCH  50  74
ATOM     74  C   UNL A   1      38.696  30.364  30.991  1.00  0.00     0.023 A 
ATOM     75  C   UNL A   1      38.590  30.000  32.348  1.00  0.00     0.012 A 
ATOM     76  C   UNL A   1      37.662  31.112  30.398  1.00  0.00     0.148 A 
ATOM     77  C   UNL A   1      37.455  30.337  33.087  1.00  0.00     0.002 A 
ATOM     78  C   UNL A   1      36.563  31.497  31.157  1.00  0.00     0.091 A 
ATOM     79  F   UNL A   1      37.778  31.442  29.104  1.00  0.00    -0.205 F 
ATOM     80  C   UNL A   1      36.448  31.092  32.496  1.00  0.00     0.022 A 
BRANCH  78  81
ATOM     81  S   UNL A   1      35.282  32.579  30.516  1.00  0.00     0.127 S 
ATOM     82  O   UNL A   1      36.036  33.796  30.226  1.00  0.00    -0.237 OA
ATOM     83  O   UNL A   1      34.826  31.840  29.338  1.00  0.00    -0.237 OA
ATOM     84  O   UNL A   1      34.290  32.687  31.578  1.00  0.00    -0.744 OA
ENDBRANCH  78  81
ENDBRANCH  50  74
BRANCH  62  85
ATOM     85  C   UNL A   1      44.658  33.611  29.356  1.00  0.00     0.023 A 
ATOM     86  C   UNL A   1      45.287  33.908  30.582  1.00  0.00     0.012 A 
ATOM     87  C   UNL A   1      44.579  34.605  28.361  1.00  0.00     0.148 A 
ATOM     88  C   UNL A   1      45.792  35.183  30.828  1.00  0.00     0.002 A 
ATOM     89  C   UNL A   1      45.135  35.857  28.592  1.00  0.00     0.091 A 
ATOM     90  F   UNL A   1      43.962  34.308  27.208  1.00  0.00    -0.205 F 
ATOM     91  C   UNL A   1      45.727  36.153  29.830  1.00  0.00     0.022 A 
BRANCH  89  92
ATOM     92  S   UNL A   1      45.188  37.134  27.330  1.00  0.00     0.127 S 
ATOM     93  O   UNL A   1      43.769  37.307  27.022  1.00  0.00    -0.237 OA
ATOM     94  O   UNL A   1      45.797  38.253  28.050  1.00  0.00    -0.237 OA
ATOM     95  O   UNL A   1      46.000  36.598  26.247  1.00  0.00    -0.744 OA
ENDBRANCH  89  92
ENDBRANCH  62  85
ENDBRANCH  36  37
ENDBRANCH  28  31
ENDBRANCH  26  27
ENDBRANCH   1  26
TORSDOF 15
ENDMDL
MODEL 2
REMARK VINA RESULT:     -13.7      5.029     10.694
REMARK SMILES O=C1Nc2ccccc2/C1=C/c1cccc(C(=O)NCCCCNC(=O)c2ccc(-c3c4nc(c(-c5cccc(S(=O)(=O)[O-])c5F)c5ccc([nH]5)c(-c5cccc(S(=O)(=O)[O-])c5F)c5nc(c(-c6cccc(S(=O)(=O)[O-])c6F)c6ccc3[nH]6)C=C5)C=C4)cc2)c1
REMARK SMILES IDX 22 1 21 2 20 3 19 4 17 5 18 6 16 8 12 9 13 10 90 11 14 12
REMARK SMILES IDX 15 13 11 14 1 15 2 16 3 17 10 18 4 19 9 21 5 22 8 23 6 24
REMARK SMILES IDX 7 25 23 26 24 27 25 28 26 30 27 31 28 32 89 33 29 34 88 35
REMARK SMILES IDX 30 36 31 37 32 38 82 39 33 40 87 41 81 42 83 43 34 44 86 45
REMARK SMILES IDX 80 46 79 47 35 49 67 50 47 51 66 52 48 53 51 54 65 55 84 56
REMARK SMILES IDX 49 57 50 58 64 60 85 61 52 62 36 63 37 64 45 65 38 66 40 67
REMARK SMILES IDX 46 68 39 69 41 70 42 71 43 72 44 73 68 74 69 75 77 76 70 77
REMARK SMILES IDX 72 78 78 79 71 80 73 81 74 82 75 83 76 84 53 85 54 86 62 87
REMARK SMILES IDX 55 88 57 89 63 90 56 91 58 92 59 93 60 94 61 95
REMARK H PARENT 19 7 3 20 24 29 83 48 51 59
REMARK Flexibility Score: inf
ROOT
ATOM      1  C   UNL A   1      31.585  29.716  25.272  1.00  0.00     0.023 C 
ENDROOT
BRANCH   1   2
ATOM      2  C   UNL A   1      32.473  29.197  24.137  1.00  0.00     0.023 C 
BRANCH   2   3
ATOM      3  C   UNL A   1      31.725  28.326  23.123  1.00  0.00     0.116 C 
BRANCH   3   4
ATOM      4  N   UNL A   1      32.653  27.484  22.392  1.00  0.00    -0.352 N 
ATOM      5  C   UNL A   1      33.119  26.206  22.575  1.00  0.00     0.251 C 
ATOM      6  O   UNL A   1      33.911  25.778  21.734  1.00  0.00    -0.269 OA
ATOM      7  H   UNL A   1      33.028  27.923  21.594  1.00  0.00     0.163 HD
BRANCH   5   8
ATOM      8  C   UNL A   1      32.703  25.300  23.689  1.00  0.00     0.040 A 
ATOM      9  C   UNL A   1      32.218  23.117  24.662  1.00  0.00    -0.024 A 
ATOM     10  C   UNL A   1      32.153  23.678  25.936  1.00  0.00     0.008 A 
ATOM     11  C   UNL A   1      32.398  23.950  23.547  1.00  0.00     0.022 A 
ATOM     12  C   UNL A   1      32.335  25.053  26.090  1.00  0.00     0.001 A 
ATOM     13  C   UNL A   1      32.637  25.850  24.980  1.00  0.00     0.014 A 
BRANCH   9  14
ATOM     14  C   UNL A   1      32.144  21.670  24.435  1.00  0.00     0.022 C 
ATOM     15  O   UNL A   1      34.912  22.233  25.710  1.00  0.00    -0.269 OA
ATOM     16  C   UNL A   1      34.532  21.182  25.239  1.00  0.00     0.256 C 
ATOM     17  N   UNL A   1      35.268  20.010  25.161  1.00  0.00    -0.321 N 
ATOM     18  C   UNL A   1      33.186  20.842  24.625  1.00  0.00     0.050 C 
ATOM     19  C   UNL A   1      34.538  18.988  24.567  1.00  0.00     0.049 A 
ATOM     20  H   UNL A   1      36.193  19.914  25.486  1.00  0.00     0.170 HD
ATOM     21  C   UNL A   1      33.257  19.431  24.222  1.00  0.00     0.011 A 
ATOM     22  C   UNL A   1      34.984  17.710  24.300  1.00  0.00     0.027 A 
ATOM     23  C   UNL A   1      32.383  18.588  23.562  1.00  0.00     0.011 A 
ATOM     24  C   UNL A   1      34.102  16.852  23.642  1.00  0.00     0.002 A 
ATOM     25  C   UNL A   1      32.816  17.288  23.271  1.00  0.00     0.001 A 
ENDBRANCH   9  14
ENDBRANCH   5   8
ENDBRANCH   3   4
ENDBRANCH   2   3
ENDBRANCH   1   2
BRANCH   1  26
ATOM     26  C   UNL A   1      32.342  30.207  26.502  1.00  0.00     0.116 C 
BRANCH  26  27
ATOM     27  N   UNL A   1      32.264  31.651  26.691  1.00  0.00    -0.352 N 
ATOM     28  C   UNL A   1      33.157  32.470  27.340  1.00  0.00     0.251 C 
ATOM     29  H   UNL A   1      31.475  32.094  26.304  1.00  0.00     0.163 HD
ATOM     30  O   UNL A   1      32.902  33.656  27.517  1.00  0.00    -0.269 OA
BRANCH  28  31
ATOM     31  C   UNL A   1      34.411  31.884  27.853  1.00  0.00     0.039 A 
ATOM     32  C   UNL A   1      35.531  32.702  27.996  1.00  0.00     0.014 A 
ATOM     33  C   UNL A   1      34.450  30.546  28.255  1.00  0.00     0.014 A 
ATOM     34  C   UNL A   1      36.678  32.192  28.607  1.00  0.00     0.010 A 
ATOM     35  C   UNL A   1      35.561  30.068  28.940  1.00  0.00     0.010 A 
ATOM     36  C   UNL A   1      36.689  30.883  29.117  1.00  0.00    -0.014 A 
BRANCH  36  37
ATOM     37  C   UNL A   1      37.869  30.356  29.850  1.00  0.00     0.031 A 
ATOM     38  C   UNL A   1      38.136  30.787  31.266  1.00  0.00     0.074 A 
ATOM     39  C   UNL A   1      38.741  29.549  29.214  1.00  0.00     0.049 A 
ATOM     40  N   UNL A   1      39.126  30.458  32.054  1.00  0.00    -0.248 NA
ATOM     41  C   UNL A   1      37.182  31.734  31.870  1.00  0.00     0.031 C 
ATOM     42  C   UNL A   1      38.642  29.130  27.813  1.00  0.00     0.029 A 
ATOM     43  N   UNL A   1      39.898  28.955  29.654  1.00  0.00    -0.354 N 
ATOM     44  C   UNL A   1      38.937  31.181  33.226  1.00  0.00     0.074 A 
ATOM     45  C   UNL A   1      37.757  31.995  33.035  1.00  0.00     0.031 C 
ATOM     46  C   UNL A   1      39.686  28.340  27.514  1.00  0.00     0.029 A 
ATOM     47  C   UNL A   1      40.548  28.225  28.685  1.00  0.00     0.049 A 
ATOM     48  H   UNL A   1      40.232  29.044  30.576  1.00  0.00     0.167 HD
ATOM     49  C   UNL A   1      39.661  31.150  34.369  1.00  0.00     0.034 A 
ATOM     50  C   UNL A   1      41.713  27.548  28.732  1.00  0.00     0.034 A 
ATOM     51  C   UNL A   1      40.812  30.311  34.567  1.00  0.00     0.049 A 
ATOM     52  C   UNL A   1      42.477  27.500  30.028  1.00  0.00     0.074 A 
ATOM     53  C   UNL A   1      41.557  30.135  35.720  1.00  0.00     0.029 A 
ATOM     54  N   UNL A   1      41.396  29.523  33.589  1.00  0.00    -0.354 N 
ATOM     55  N   UNL A   1      42.188  28.057  31.178  1.00  0.00    -0.248 NA
ATOM     56  C   UNL A   1      43.709  26.699  30.043  1.00  0.00     0.031 C 
ATOM     57  C   UNL A   1      42.616  29.272  35.427  1.00  0.00     0.029 A 
ATOM     58  C   UNL A   1      42.502  28.871  34.105  1.00  0.00     0.049 A 
ATOM     59  H   UNL A   1      41.070  29.439  32.663  1.00  0.00     0.167 HD
ATOM     60  C   UNL A   1      43.178  27.644  32.062  1.00  0.00     0.074 A 
ATOM     61  C   UNL A   1      44.063  26.772  31.318  1.00  0.00     0.031 C 
ATOM     62  C   UNL A   1      43.347  27.968  33.367  1.00  0.00     0.034 A 
BRANCH  49  63
ATOM     63  C   UNL A   1      39.210  32.021  35.513  1.00  0.00     0.023 A 
ATOM     64  C   UNL A   1      38.347  31.496  36.496  1.00  0.00     0.012 A 
ATOM     65  C   UNL A   1      39.693  33.336  35.649  1.00  0.00     0.148 A 
ATOM     66  C   UNL A   1      37.944  32.276  37.579  1.00  0.00     0.002 A 
ATOM     67  C   UNL A   1      39.329  34.092  36.758  1.00  0.00     0.091 A 
ATOM     68  F   UNL A   1      40.497  33.824  34.694  1.00  0.00    -0.205 F 
ATOM     69  C   UNL A   1      38.445  33.568  37.715  1.00  0.00     0.022 A 
BRANCH  67  70
ATOM     70  S   UNL A   1      39.984  35.733  37.072  1.00  0.00     0.127 S 
ATOM     71  O   UNL A   1      39.284  36.099  38.303  1.00  0.00    -0.237 OA
ATOM     72  O   UNL A   1      41.413  35.465  37.240  1.00  0.00    -0.237 OA
ATOM     73  O   UNL A   1      39.648  36.533  35.903  1.00  0.00    -0.744 OA
ENDBRANCH  67  70
ENDBRANCH  49  63
BRANCH  50  74
ATOM     74  C   UNL A   1      42.206  26.821  27.527  1.00  0.00     0.023 A 
ATOM     75  C   UNL A   1      42.893  27.525  26.519  1.00  0.00     0.012 A 
ATOM     76  C   UNL A   1      42.007  25.435  27.383  1.00  0.00     0.148 A 
ATOM     77  C   UNL A   1      43.334  26.870  25.369  1.00  0.00     0.002 A 
ATOM     78  C   UNL A   1      42.502  24.777  26.263  1.00  0.00     0.091 A 
ATOM     79  F   UNL A   1      41.345  24.784  28.349  1.00  0.00    -0.205 F 
ATOM     80  C   UNL A   1      43.148  25.496  25.245  1.00  0.00     0.022 A 
BRANCH  78  81
ATOM     81  S   UNL A   1      42.425  22.993  26.081  1.00  0.00     0.127 S 
ATOM     82  O   UNL A   1      42.896  22.811  24.711  1.00  0.00    -0.237 OA
ATOM     83  O   UNL A   1      43.354  22.545  27.119  1.00  0.00    -0.237 OA
ATOM     84  O   UNL A   1      41.034  22.633  26.325  1.00  0.00    -0.744 OA
ENDBRANCH  78  81
ENDBRANCH  50  74
BRANCH  62  85
ATOM     85  C   UNL A   1      44.505  27.340  34.100  1.00  0.00     0.023 A 
ATOM     86  C   UNL A   1      45.740  28.014  34.184  1.00  0.00     0.012 A 
ATOM     87  C   UNL A   1      44.343  26.108  34.765  1.00  0.00     0.148 A 
ATOM     88  C   UNL A   1      46.807  27.452  34.884  1.00  0.00     0.002 A 
ATOM     89  C   UNL A   1      45.393  25.583  35.507  1.00  0.00     0.091 A 
ATOM     90  F   UNL A   1      43.166  25.475  34.659  1.00  0.00    -0.205 F 
ATOM     91  C   UNL A   1      46.630  26.244  35.554  1.00  0.00     0.022 A 
BRANCH  89  92
ATOM     92  S   UNL A   1      45.225  24.085  36.485  1.00  0.00     0.127 S 
ATOM     93  O   UNL A   1      46.614  23.642  36.591  1.00  0.00    -0.237 OA
ATOM     94  O   UNL A   1      44.650  24.594  37.731  1.00  0.00    -0.237 OA
ATOM     95  O   UNL A   1      44.345  23.205  35.728  1.00  0.00    -0.744 OA
ENDBRANCH  89  92
ENDBRANCH  62  85
ENDBRANCH  36  37
ENDBRANCH  28  31
ENDBRANCH  26  27
ENDBRANCH   1  26
TORSDOF 15
ENDMDL
MODEL 3
REMARK VINA RESULT:     -13.6      1.986      2.694
REMARK SMILES O=C1Nc2ccccc2/C1=C/c1cccc(C(=O)NCCCCNC(=O)c2ccc(-c3c4nc(c(-c5cccc(S(=O)(=O)[O-])c5F)c5ccc([nH]5)c(-c5cccc(S(=O)(=O)[O-])c5F)c5nc(c(-c6cccc(S(=O)(=O)[O-])c6F)c6ccc3[nH]6)C=C5)C=C4)cc2)c1
REMARK SMILES IDX 22 1 21 2 20 3 19 4 17 5 18 6 16 8 12 9 13 10 90 11 14 12
REMARK SMILES IDX 15 13 11 14 1 15 2 16 3 17 10 18 4 19 9 21 5 22 8 23 6 24
REMARK SMILES IDX 7 25 23 26 24 27 25 28 26 30 27 31 28 32 89 33 29 34 88 35
REMARK SMILES IDX 30 36 31 37 32 38 82 39 33 40 87 41 81 42 83 43 34 44 86 45
REMARK SMILES IDX 80 46 79 47 35 49 67 50 47 51 66 52 48 53 51 54 65 55 84 56
REMARK SMILES IDX 49 57 50 58 64 60 85 61 52 62 36 63 37 64 45 65 38 66 40 67
REMARK SMILES IDX 46 68 39 69 41 70 42 71 43 72 44 73 68 74 69 75 77 76 70 77
REMARK SMILES IDX 72 78 78 79 71 80 73 81 74 82 75 83 76 84 53 85 54 86 62 87
REMARK SMILES IDX 55 88 57 89 63 90 56 91 58 92 59 93 60 94 61 95
REMARK H PARENT 19 7 3 20 24 29 83 48 51 59
REMARK Flexibility Score: inf
ROOT
ATOM      1  C   UNL A   1      36.773  20.643  24.755  1.00  0.00     0.023 C 
ENDROOT
BRANCH   1   2
ATOM      2  C   UNL A   1      36.628  19.142  25.025  1.00  0.00     0.023 C 
BRANCH   2   3
ATOM      3  C   UNL A   1      35.517  18.476  24.208  1.00  0.00     0.116 C 
BRANCH   3   4
ATOM      4  N   UNL A   1      34.341  18.260  25.029  1.00  0.00    -0.352 N 
ATOM      5  C   UNL A   1      33.192  18.980  25.246  1.00  0.00     0.251 C 
ATOM      6  O   UNL A   1      32.365  18.487  26.016  1.00  0.00    -0.269 OA
ATOM      7  H   UNL A   1      34.373  17.418  25.538  1.00  0.00     0.163 HD
BRANCH   5   8
ATOM      8  C   UNL A   1      32.866  20.282  24.589  1.00  0.00     0.040 A 
ATOM      9  C   UNL A   1      32.921  22.714  24.415  1.00  0.00    -0.024 A 
ATOM     10  C   UNL A   1      32.407  22.652  23.122  1.00  0.00     0.008 A 
ATOM     11  C   UNL A   1      33.054  21.535  25.165  1.00  0.00     0.022 A 
ATOM     12  C   UNL A   1      32.096  21.411  22.565  1.00  0.00     0.001 A 
ATOM     13  C   UNL A   1      32.352  20.237  23.282  1.00  0.00     0.014 A 
BRANCH   9  14
ATOM     14  C   UNL A   1      33.370  23.970  25.024  1.00  0.00     0.022 C 
ATOM     15  O   UNL A   1      30.400  23.604  25.827  1.00  0.00    -0.269 OA
ATOM     16  C   UNL A   1      31.082  24.589  26.007  1.00  0.00     0.256 C 
ATOM     17  N   UNL A   1      30.666  25.770  26.602  1.00  0.00    -0.321 N 
ATOM     18  C   UNL A   1      32.541  24.818  25.658  1.00  0.00     0.050 C 
ATOM     19  C   UNL A   1      31.695  26.704  26.658  1.00  0.00     0.049 A 
ATOM     20  H   UNL A   1      29.756  25.929  26.943  1.00  0.00     0.170 HD
ATOM     21  C   UNL A   1      32.868  26.180  26.102  1.00  0.00     0.011 A 
ATOM     22  C   UNL A   1      31.610  27.989  27.149  1.00  0.00     0.027 A 
ATOM     23  C   UNL A   1      34.001  26.964  26.001  1.00  0.00     0.011 A 
ATOM     24  C   UNL A   1      32.754  28.783  27.058  1.00  0.00     0.002 A 
ATOM     25  C   UNL A   1      33.937  28.278  26.485  1.00  0.00     0.001 A 
ENDBRANCH   9  14
ENDBRANCH   5   8
ENDBRANCH   3   4
ENDBRANCH   2   3
ENDBRANCH   1   2
BRANCH   1  26
ATOM     26  C   UNL A   1      37.954  21.307  25.454  1.00  0.00     0.116 C 
BRANCH  26  27
ATOM     27  N   UNL A   1      39.002  20.369  25.836  1.00  0.00    -0.352 N 
ATOM     28  C   UNL A   1      40.200  20.643  26.453  1.00  0.00     0.251 C 
ATOM     29  H   UNL A   1      38.830  19.423  25.628  1.00  0.00     0.163 HD
ATOM     30  O   UNL A   1      41.036  19.760  26.612  1.00  0.00    -0.269 OA
BRANCH  28  31
ATOM     31  C   UNL A   1      40.475  22.027  26.884  1.00  0.00     0.039 A 
ATOM     32  C   UNL A   1      41.241  22.240  28.030  1.00  0.00     0.014 A 
ATOM     33  C   UNL A   1      40.032  23.106  26.113  1.00  0.00     0.014 A 
ATOM     34  C   UNL A   1      41.620  23.540  28.368  1.00  0.00     0.010 A 
ATOM     35  C   UNL A   1      40.483  24.387  26.403  1.00  0.00     0.010 A 
ATOM     36  C   UNL A   1      41.276  24.620  27.537  1.00  0.00    -0.014 A 
BRANCH  36  37
ATOM     37  C   UNL A   1      41.748  25.996  27.835  1.00  0.00     0.031 A 
ATOM     38  C   UNL A   1      43.156  26.404  27.495  1.00  0.00     0.074 A 
ATOM     39  C   UNL A   1      40.935  26.855  28.481  1.00  0.00     0.049 A 
ATOM     40  N   UNL A   1      43.755  27.547  27.703  1.00  0.00    -0.248 NA
ATOM     41  C   UNL A   1      44.015  25.387  26.862  1.00  0.00     0.031 C 
ATOM     42  C   UNL A   1      39.578  26.549  28.945  1.00  0.00     0.029 A 
ATOM     43  N   UNL A   1      41.136  28.151  28.882  1.00  0.00    -0.354 N 
ATOM     44  C   UNL A   1      45.062  27.378  27.264  1.00  0.00     0.074 A 
ATOM     45  C   UNL A   1      45.183  26.010  26.810  1.00  0.00     0.031 C 
ATOM     46  C   UNL A   1      39.068  27.630  29.556  1.00  0.00     0.029 A 
ATOM     47  C   UNL A   1      40.068  28.692  29.561  1.00  0.00     0.049 A 
ATOM     48  H   UNL A   1      41.966  28.649  28.701  1.00  0.00     0.167 HD
ATOM     49  C   UNL A   1      46.066  28.285  27.216  1.00  0.00     0.034 A 
ATOM     50  C   UNL A   1      39.916  29.903  30.135  1.00  0.00     0.034 A 
ATOM     51  C   UNL A   1      45.931  29.654  27.634  1.00  0.00     0.049 A 
ATOM     52  C   UNL A   1      41.035  30.905  30.031  1.00  0.00     0.074 A 
ATOM     53  C   UNL A   1      46.858  30.676  27.535  1.00  0.00     0.029 A 
ATOM     54  N   UNL A   1      44.809  30.190  28.244  1.00  0.00    -0.354 N 
ATOM     55  N   UNL A   1      42.207  30.777  29.459  1.00  0.00    -0.248 NA
ATOM     56  C   UNL A   1      40.796  32.230  30.619  1.00  0.00     0.031 C 
ATOM     57  C   UNL A   1      46.311  31.820  28.124  1.00  0.00     0.029 A 
ATOM     58  C   UNL A   1      45.024  31.523  28.545  1.00  0.00     0.049 A 
ATOM     59  H   UNL A   1      43.979  29.693  28.435  1.00  0.00     0.167 HD
ATOM     60  C   UNL A   1      42.830  32.013  29.584  1.00  0.00     0.074 A 
ATOM     61  C   UNL A   1      41.895  32.883  30.267  1.00  0.00     0.031 C 
ATOM     62  C   UNL A   1      44.068  32.391  29.182  1.00  0.00     0.034 A 
BRANCH  49  63
ATOM     63  C   UNL A   1      47.392  27.840  26.655  1.00  0.00     0.023 A 
ATOM     64  C   UNL A   1      48.402  27.379  27.523  1.00  0.00     0.012 A 
ATOM     65  C   UNL A   1      47.612  27.815  25.264  1.00  0.00     0.148 A 
ATOM     66  C   UNL A   1      49.623  26.933  27.020  1.00  0.00     0.002 A 
ATOM     67  C   UNL A   1      48.812  27.321  24.766  1.00  0.00     0.091 A 
ATOM     68  F   UNL A   1      46.647  28.276  24.455  1.00  0.00    -0.205 F 
ATOM     69  C   UNL A   1      49.822  26.892  25.643  1.00  0.00     0.022 A 
BRANCH  67  70
ATOM     70  S   UNL A   1      49.136  27.147  23.009  1.00  0.00     0.127 S 
ATOM     71  O   UNL A   1      50.592  27.012  22.990  1.00  0.00    -0.237 OA
ATOM     72  O   UNL A   1      48.406  25.921  22.684  1.00  0.00    -0.237 OA
ATOM     73  O   UNL A   1      48.614  28.351  22.380  1.00  0.00    -0.744 OA
ENDBRANCH  67  70
ENDBRANCH  49  63
BRANCH  50  74
ATOM     74  C   UNL A   1      38.638  30.254  30.817  1.00  0.00     0.023 A 
ATOM     75  C   UNL A   1      38.416  29.834  32.144  1.00  0.00     0.012 A 
ATOM     76  C   UNL A   1      37.648  31.010  30.162  1.00  0.00     0.148 A 
ATOM     77  C   UNL A   1      37.214  30.125  32.790  1.00  0.00     0.002 A 
ATOM     78  C   UNL A   1      36.478  31.347  30.832  1.00  0.00     0.091 A 
ATOM     79  F   UNL A   1      37.874  31.393  28.898  1.00  0.00    -0.205 F 
ATOM     80  C   UNL A   1      36.250  30.888  32.139  1.00  0.00     0.022 A 
BRANCH  78  81
ATOM     81  S   UNL A   1      35.240  32.435  30.120  1.00  0.00     0.127 S 
ATOM     82  O   UNL A   1      34.742  31.633  29.006  1.00  0.00    -0.237 OA
ATOM     83  O   UNL A   1      34.304  32.595  31.234  1.00  0.00    -0.237 OA
ATOM     84  O   UNL A   1      35.951  33.654  29.754  1.00  0.00    -0.744 OA
ENDBRANCH  78  81
ENDBRANCH  50  74
BRANCH  62  85
ATOM     85  C   UNL A   1      44.476  33.822  29.420  1.00  0.00     0.023 A 
ATOM     86  C   UNL A   1      44.998  34.211  30.670  1.00  0.00     0.012 A 
ATOM     87  C   UNL A   1      44.402  34.767  28.377  1.00  0.00     0.148 A 
ATOM     88  C   UNL A   1      45.403  35.527  30.889  1.00  0.00     0.002 A 
ATOM     89  C   UNL A   1      44.860  36.061  28.586  1.00  0.00     0.091 A 
ATOM     90  F   UNL A   1      43.886  34.382  27.201  1.00  0.00    -0.205 F 
ATOM     91  C   UNL A   1      45.345  36.447  29.845  1.00  0.00     0.022 A 
BRANCH  89  92
ATOM     92  S   UNL A   1      44.918  37.285  27.272  1.00  0.00     0.127 S 
ATOM     93  O   UNL A   1      45.780  36.628  26.292  1.00  0.00    -0.237 OA
ATOM     94  O   UNL A   1      43.512  37.383  26.880  1.00  0.00    -0.237 OA
ATOM     95  O   UNL A   1      45.465  38.495  27.871  1.00  0.00    -0.744 OA
ENDBRANCH  89  92
ENDBRANCH  62  85
ENDBRANCH  36  37
ENDBRANCH  28  31
ENDBRANCH  26  27
ENDBRANCH   1  26
TORSDOF 15
ENDMDL
