MODEL 1
REMARK VINA RESULT:     -12.6      0.000      0.000
REMARK SMILES Cc1cccc(Nc2ccccc2C(=O)NCCCCNC(=O)c2ccc(-c3c4nc(c(-c5cccc(S(=O)(=O)[O-])c5F)c5ccc([nH]5)c(-c5cccc(S(=O)(=O)[O-])c5F)c5nc(c(-c6cccc(S(=O)(=O)[O-])c6F)c6ccc3[nH]6)C=C5)C=C4)cc2)c1C
REMARK SMILES IDX 19 1 18 2 17 3 16 4 14 5 15 6 13 8 8 9 9 10 10 11 12 12
REMARK SMILES IDX 11 13 7 14 6 16 1 17 2 18 3 19 87 20 4 21 88 22 5 23 20 24
REMARK SMILES IDX 21 25 22 26 23 28 24 29 25 30 86 31 26 32 85 33 27 34 28 35
REMARK SMILES IDX 29 36 79 37 30 38 84 39 78 40 80 41 31 42 83 43 77 44 76 45
REMARK SMILES IDX 32 47 64 48 44 49 63 50 45 51 48 52 62 53 81 54 46 55 47 56
REMARK SMILES IDX 61 58 82 59 49 60 33 61 34 62 42 63 35 64 37 65 43 66 36 67
REMARK SMILES IDX 38 68 39 69 40 70 41 71 65 72 66 73 74 74 67 75 69 76 75 77
REMARK SMILES IDX 68 78 70 79 71 80 72 81 73 82 50 83 51 84 59 85 52 86 54 87
REMARK SMILES IDX 60 88 53 89 55 90 56 91 57 92 58 93
REMARK H PARENT 16 7 7 15 21 27 80 46 48 57
REMARK Flexibility Score: inf
ROOT
ATOM      1  C   UNL A   1      31.563  28.813  26.158  1.00  0.00     0.023 C 
ENDROOT
BRANCH   1   2
ATOM      2  C   UNL A   1      32.000  27.633  27.032  1.00  0.00     0.023 C 
BRANCH   2   3
ATOM      3  C   UNL A   1      32.004  26.257  26.378  1.00  0.00     0.116 C 
BRANCH   3   4
ATOM      4  N   UNL A   1      31.021  25.326  26.873  1.00  0.00    -0.352 N 
ATOM      5  C   UNL A   1      30.839  23.996  26.571  1.00  0.00     0.253 C 
ATOM      6  O   UNL A   1      30.038  23.367  27.269  1.00  0.00    -0.269 OA
ATOM      7  H   UNL A   1      30.384  25.698  27.526  1.00  0.00     0.163 HD
BRANCH   5   8
ATOM      8  C   UNL A   1      31.427  23.303  25.378  1.00  0.00     0.063 A 
ATOM      9  C   UNL A   1      31.131  23.478  24.011  1.00  0.00     0.051 A 
ATOM     10  C   UNL A   1      31.777  22.629  23.075  1.00  0.00     0.027 A 
ATOM     11  C   UNL A   1      32.740  21.693  23.452  1.00  0.00     0.002 A 
ATOM     12  C   UNL A   1      32.427  22.360  25.734  1.00  0.00     0.016 A 
ATOM     13  C   UNL A   1      33.084  21.574  24.786  1.00  0.00     0.001 A 
BRANCH   9  14
ATOM     14  N   UNL A   1      30.350  24.492  23.419  1.00  0.00    -0.355 N 
ATOM     15  H   UNL A   1      29.510  24.152  23.033  1.00  0.00     0.167 HD
BRANCH  14  16
ATOM     16  C   UNL A   1      30.502  25.884  23.258  1.00  0.00     0.042 A 
ATOM     17  C   UNL A   1      28.616  29.208  23.008  1.00  0.00     0.044 C 
ATOM     18  C   UNL A   1      29.707  28.171  22.969  1.00  0.00    -0.046 A 
ATOM     19  C   UNL A   1      30.974  28.553  22.503  1.00  0.00     0.004 A 
ATOM     20  C   UNL A   1      29.478  26.840  23.405  1.00  0.00    -0.025 A 
ATOM     21  C   UNL A   1      32.013  27.635  22.456  1.00  0.00     0.002 A 
ATOM     22  C   UNL A   1      28.162  26.505  24.061  1.00  0.00     0.047 C 
ATOM     23  C   UNL A   1      31.777  26.317  22.828  1.00  0.00     0.026 A 
ENDBRANCH  14  16
ENDBRANCH   9  14
ENDBRANCH   5   8
ENDBRANCH   3   4
ENDBRANCH   2   3
ENDBRANCH   1   2
BRANCH   1  24
ATOM     24  C   UNL A   1      32.598  29.897  25.846  1.00  0.00     0.116 C 
BRANCH  24  25
ATOM     25  N   UNL A   1      32.326  31.199  26.438  1.00  0.00    -0.352 N 
ATOM     26  C   UNL A   1      33.121  31.965  27.264  1.00  0.00     0.251 C 
ATOM     27  H   UNL A   1      31.449  31.588  26.217  1.00  0.00     0.163 HD
ATOM     28  O   UNL A   1      32.730  33.063  27.639  1.00  0.00    -0.269 OA
BRANCH  26  29
ATOM     29  C   UNL A   1      34.428  31.442  27.734  1.00  0.00     0.039 A 
ATOM     30  C   UNL A   1      35.479  32.346  27.921  1.00  0.00     0.014 A 
ATOM     31  C   UNL A   1      34.613  30.089  28.025  1.00  0.00     0.014 A 
ATOM     32  C   UNL A   1      36.678  31.909  28.494  1.00  0.00     0.010 A 
ATOM     33  C   UNL A   1      35.786  29.667  28.654  1.00  0.00     0.010 A 
ATOM     34  C   UNL A   1      36.825  30.575  28.912  1.00  0.00    -0.014 A 
BRANCH  34  35
ATOM     35  C   UNL A   1      38.025  30.150  29.686  1.00  0.00     0.031 A 
ATOM     36  C   UNL A   1      38.272  30.653  31.084  1.00  0.00     0.074 A 
ATOM     37  C   UNL A   1      38.947  29.367  29.089  1.00  0.00     0.049 A 
ATOM     38  N   UNL A   1      39.248  30.353  31.902  1.00  0.00    -0.248 NA
ATOM     39  C   UNL A   1      37.321  31.636  31.624  1.00  0.00     0.031 C 
ATOM     40  C   UNL A   1      38.896  28.911  27.697  1.00  0.00     0.029 A 
ATOM     41  N   UNL A   1      40.121  28.835  29.564  1.00  0.00    -0.354 N 
ATOM     42  C   UNL A   1      39.052  31.133  33.037  1.00  0.00     0.074 A 
ATOM     43  C   UNL A   1      37.874  31.938  32.792  1.00  0.00     0.031 C 
ATOM     44  C   UNL A   1      39.983  28.168  27.433  1.00  0.00     0.029 A 
ATOM     45  C   UNL A   1      40.816  28.101  28.630  1.00  0.00     0.049 A 
ATOM     46  H   UNL A   1      40.438  28.967  30.487  1.00  0.00     0.167 HD
ATOM     47  C   UNL A   1      39.768  31.156  34.187  1.00  0.00     0.034 A 
ATOM     48  C   UNL A   1      41.986  27.439  28.725  1.00  0.00     0.034 A 
ATOM     49  C   UNL A   1      40.906  30.316  34.449  1.00  0.00     0.049 A 
ATOM     50  C   UNL A   1      42.698  27.398  30.050  1.00  0.00     0.074 A 
ATOM     51  C   UNL A   1      41.619  30.179  35.628  1.00  0.00     0.029 A 
ATOM     52  N   UNL A   1      41.507  29.481  33.523  1.00  0.00    -0.354 N 
ATOM     53  N   UNL A   1      42.366  27.966  31.183  1.00  0.00    -0.248 NA
ATOM     54  C   UNL A   1      43.919  26.581  30.126  1.00  0.00     0.031 C 
ATOM     55  C   UNL A   1      42.662  29.273  35.408  1.00  0.00     0.029 A 
ATOM     56  C   UNL A   1      42.586  28.830  34.099  1.00  0.00     0.049 A 
ATOM     57  H   UNL A   1      41.210  29.365  32.590  1.00  0.00     0.167 HD
ATOM     58  C   UNL A   1      43.314  27.550  32.111  1.00  0.00     0.074 A 
ATOM     59  C   UNL A   1      44.214  26.654  31.416  1.00  0.00     0.031 C 
ATOM     60  C   UNL A   1      43.442  27.896  33.416  1.00  0.00     0.034 A 
BRANCH  47  61
ATOM     61  C   UNL A   1      39.308  32.074  35.289  1.00  0.00     0.023 A 
ATOM     62  C   UNL A   1      38.430  31.582  36.276  1.00  0.00     0.012 A 
ATOM     63  C   UNL A   1      39.821  33.380  35.407  1.00  0.00     0.148 A 
ATOM     64  C   UNL A   1      38.052  32.384  37.352  1.00  0.00     0.002 A 
ATOM     65  C   UNL A   1      39.471  34.159  36.504  1.00  0.00     0.091 A 
ATOM     66  F   UNL A   1      40.642  33.833  34.449  1.00  0.00    -0.205 F 
ATOM     67  C   UNL A   1      38.581  33.666  37.473  1.00  0.00     0.022 A 
BRANCH  65  68
ATOM     68  S   UNL A   1      40.158  35.794  36.796  1.00  0.00     0.127 S 
ATOM     69  O   UNL A   1      39.697  36.522  35.614  1.00  0.00    -0.237 OA
ATOM     70  O   UNL A   1      39.503  36.183  38.045  1.00  0.00    -0.237 OA
ATOM     71  O   UNL A   1      41.600  35.615  36.893  1.00  0.00    -0.744 OA
ENDBRANCH  65  68
ENDBRANCH  47  61
BRANCH  48  72
ATOM     72  C   UNL A   1      42.522  26.689  27.553  1.00  0.00     0.023 A 
ATOM     73  C   UNL A   1      43.344  27.354  26.620  1.00  0.00     0.012 A 
ATOM     74  C   UNL A   1      42.229  25.327  27.358  1.00  0.00     0.148 A 
ATOM     75  C   UNL A   1      43.825  26.687  25.492  1.00  0.00     0.002 A 
ATOM     76  C   UNL A   1      42.760  24.653  26.263  1.00  0.00     0.091 A 
ATOM     77  F   UNL A   1      41.434  24.712  28.245  1.00  0.00    -0.205 F 
ATOM     78  C   UNL A   1      43.542  25.336  25.318  1.00  0.00     0.022 A 
BRANCH  76  79
ATOM     79  S   UNL A   1      42.555  22.881  26.048  1.00  0.00     0.127 S 
ATOM     80  O   UNL A   1      43.151  22.667  24.732  1.00  0.00    -0.237 OA
ATOM     81  O   UNL A   1      43.326  22.341  27.169  1.00  0.00    -0.237 OA
ATOM     82  O   UNL A   1      41.121  22.649  26.148  1.00  0.00    -0.744 OA
ENDBRANCH  76  79
ENDBRANCH  48  72
BRANCH  60  83
ATOM     83  C   UNL A   1      44.579  27.283  34.190  1.00  0.00     0.023 A 
ATOM     84  C   UNL A   1      45.857  27.876  34.144  1.00  0.00     0.012 A 
ATOM     85  C   UNL A   1      44.374  26.149  35.001  1.00  0.00     0.148 A 
ATOM     86  C   UNL A   1      46.922  27.324  34.855  1.00  0.00     0.002 A 
ATOM     87  C   UNL A   1      45.430  25.634  35.746  1.00  0.00     0.091 A 
ATOM     88  F   UNL A   1      43.159  25.583  35.019  1.00  0.00    -0.205 F 
ATOM     89  C   UNL A   1      46.706  26.211  35.664  1.00  0.00     0.022 A 
BRANCH  87  90
ATOM     90  S   UNL A   1      45.206  24.262  36.883  1.00  0.00     0.127 S 
ATOM     91  O   UNL A   1      46.507  24.208  37.549  1.00  0.00    -0.237 OA
ATOM     92  O   UNL A   1      44.107  24.729  37.731  1.00  0.00    -0.237 OA
ATOM     93  O   UNL A   1      44.872  23.113  36.051  1.00  0.00    -0.744 OA
ENDBRANCH  87  90
ENDBRANCH  60  83
ENDBRANCH  34  35
ENDBRANCH  26  29
ENDBRANCH  24  25
ENDBRANCH   1  24
TORSDOF 16
ENDMDL
MODEL 2
REMARK VINA RESULT:     -12.5      1.285      1.519
REMARK SMILES Cc1cccc(Nc2ccccc2C(=O)NCCCCNC(=O)c2ccc(-c3c4nc(c(-c5cccc(S(=O)(=O)[O-])c5F)c5ccc([nH]5)c(-c5cccc(S(=O)(=O)[O-])c5F)c5nc(c(-c6cccc(S(=O)(=O)[O-])c6F)c6ccc3[nH]6)C=C5)C=C4)cc2)c1C
REMARK SMILES IDX 19 1 18 2 17 3 16 4 14 5 15 6 13 8 8 9 9 10 10 11 12 12
REMARK SMILES IDX 11 13 7 14 6 16 1 17 2 18 3 19 87 20 4 21 88 22 5 23 20 24
REMARK SMILES IDX 21 25 22 26 23 28 24 29 25 30 86 31 26 32 85 33 27 34 28 35
REMARK SMILES IDX 29 36 79 37 30 38 84 39 78 40 80 41 31 42 83 43 77 44 76 45
REMARK SMILES IDX 32 47 64 48 44 49 63 50 45 51 48 52 62 53 81 54 46 55 47 56
REMARK SMILES IDX 61 58 82 59 49 60 33 61 34 62 42 63 35 64 37 65 43 66 36 67
REMARK SMILES IDX 38 68 39 69 40 70 41 71 65 72 66 73 74 74 67 75 69 76 75 77
REMARK SMILES IDX 68 78 70 79 71 80 72 81 73 82 50 83 51 84 59 85 52 86 54 87
REMARK SMILES IDX 60 88 53 89 55 90 56 91 57 92 58 93
REMARK H PARENT 16 7 7 15 21 27 80 46 48 57
REMARK Flexibility Score: inf
ROOT
ATOM      1  C   UNL A   1      31.611  28.852  26.119  1.00  0.00     0.023 C 
ENDROOT
BRANCH   1   2
ATOM      2  C   UNL A   1      31.995  27.679  27.026  1.00  0.00     0.023 C 
BRANCH   2   3
ATOM      3  C   UNL A   1      32.010  26.294  26.392  1.00  0.00     0.116 C 
BRANCH   3   4
ATOM      4  N   UNL A   1      30.992  25.383  26.855  1.00  0.00    -0.352 N 
ATOM      5  C   UNL A   1      30.801  24.053  26.557  1.00  0.00     0.253 C 
ATOM      6  O   UNL A   1      29.961  23.444  27.227  1.00  0.00    -0.269 OA
ATOM      7  H   UNL A   1      30.335  25.772  27.477  1.00  0.00     0.163 HD
BRANCH   5   8
ATOM      8  C   UNL A   1      31.424  23.340  25.395  1.00  0.00     0.063 A 
ATOM      9  C   UNL A   1      31.169  23.489  24.017  1.00  0.00     0.051 A 
ATOM     10  C   UNL A   1      31.845  22.624  23.117  1.00  0.00     0.027 A 
ATOM     11  C   UNL A   1      32.798  21.698  23.539  1.00  0.00     0.002 A 
ATOM     12  C   UNL A   1      32.416  22.407  25.798  1.00  0.00     0.016 A 
ATOM     13  C   UNL A   1      33.103  21.605  24.885  1.00  0.00     0.001 A 
BRANCH   9  14
ATOM     14  N   UNL A   1      30.403  24.489  23.383  1.00  0.00    -0.355 N 
ATOM     15  H   UNL A   1      29.594  24.134  22.948  1.00  0.00     0.167 HD
BRANCH  14  16
ATOM     16  C   UNL A   1      30.537  25.885  23.235  1.00  0.00     0.042 A 
ATOM     17  C   UNL A   1      28.608  29.189  23.058  1.00  0.00     0.044 C 
ATOM     18  C   UNL A   1      29.710  28.165  22.987  1.00  0.00    -0.046 A 
ATOM     19  C   UNL A   1      30.964  28.567  22.500  1.00  0.00     0.004 A 
ATOM     20  C   UNL A   1      29.505  26.827  23.412  1.00  0.00    -0.025 A 
ATOM     21  C   UNL A   1      32.012  27.661  22.423  1.00  0.00     0.002 A 
ATOM     22  C   UNL A   1      28.206  26.470  24.090  1.00  0.00     0.047 C 
ATOM     23  C   UNL A   1      31.798  26.337  22.785  1.00  0.00     0.026 A 
ENDBRANCH  14  16
ENDBRANCH   9  14
ENDBRANCH   5   8
ENDBRANCH   3   4
ENDBRANCH   2   3
ENDBRANCH   1   2
BRANCH   1  24
ATOM     24  C   UNL A   1      32.670  29.924  25.846  1.00  0.00     0.116 C 
BRANCH  24  25
ATOM     25  N   UNL A   1      32.408  31.219  26.456  1.00  0.00    -0.352 N 
ATOM     26  C   UNL A   1      33.214  31.971  27.286  1.00  0.00     0.251 C 
ATOM     27  H   UNL A   1      31.531  31.615  26.249  1.00  0.00     0.163 HD
ATOM     28  O   UNL A   1      32.831  33.066  27.679  1.00  0.00    -0.269 OA
BRANCH  26  29
ATOM     29  C   UNL A   1      34.522  31.437  27.738  1.00  0.00     0.039 A 
ATOM     30  C   UNL A   1      35.579  32.333  27.926  1.00  0.00     0.014 A 
ATOM     31  C   UNL A   1      34.703  30.080  28.012  1.00  0.00     0.014 A 
ATOM     32  C   UNL A   1      36.781  31.884  28.483  1.00  0.00     0.010 A 
ATOM     33  C   UNL A   1      35.879  29.645  28.625  1.00  0.00     0.010 A 
ATOM     34  C   UNL A   1      36.925  30.545  28.885  1.00  0.00    -0.014 A 
BRANCH  34  35
ATOM     35  C   UNL A   1      38.130  30.106  29.643  1.00  0.00     0.031 A 
ATOM     36  C   UNL A   1      38.395  30.596  31.041  1.00  0.00     0.074 A 
ATOM     37  C   UNL A   1      39.040  29.321  29.030  1.00  0.00     0.049 A 
ATOM     38  N   UNL A   1      39.378  30.283  31.847  1.00  0.00    -0.248 NA
ATOM     39  C   UNL A   1      37.457  31.582  31.599  1.00  0.00     0.031 C 
ATOM     40  C   UNL A   1      38.971  28.875  27.635  1.00  0.00     0.029 A 
ATOM     41  N   UNL A   1      40.215  28.777  29.489  1.00  0.00    -0.354 N 
ATOM     42  C   UNL A   1      39.199  31.055  32.989  1.00  0.00     0.074 A 
ATOM     43  C   UNL A   1      38.024  31.870  32.763  1.00  0.00     0.031 C 
ATOM     44  C   UNL A   1      40.050  28.127  27.354  1.00  0.00     0.029 A 
ATOM     45  C   UNL A   1      40.895  28.044  28.542  1.00  0.00     0.049 A 
ATOM     46  H   UNL A   1      40.542  28.900  30.409  1.00  0.00     0.167 HD
ATOM     47  C   UNL A   1      39.927  31.065  34.132  1.00  0.00     0.034 A 
ATOM     48  C   UNL A   1      42.062  27.374  28.619  1.00  0.00     0.034 A 
ATOM     49  C   UNL A   1      41.062  30.214  34.376  1.00  0.00     0.049 A 
ATOM     50  C   UNL A   1      42.787  27.318  29.937  1.00  0.00     0.074 A 
ATOM     51  C   UNL A   1      41.786  30.063  35.547  1.00  0.00     0.029 A 
ATOM     52  N   UNL A   1      41.647  29.382  33.437  1.00  0.00    -0.354 N 
ATOM     53  N   UNL A   1      42.471  27.879  31.077  1.00  0.00    -0.248 NA
ATOM     54  C   UNL A   1      44.003  26.491  29.994  1.00  0.00     0.031 C 
ATOM     55  C   UNL A   1      42.820  29.151  35.309  1.00  0.00     0.029 A 
ATOM     56  C   UNL A   1      42.727  28.720  33.997  1.00  0.00     0.049 A 
ATOM     57  H   UNL A   1      41.340  29.276  32.507  1.00  0.00     0.167 HD
ATOM     58  C   UNL A   1      43.426  27.449  31.992  1.00  0.00     0.074 A 
ATOM     59  C   UNL A   1      44.312  26.552  31.281  1.00  0.00     0.031 C 
ATOM     60  C   UNL A   1      43.569  27.784  33.298  1.00  0.00     0.034 A 
BRANCH  47  61
ATOM     61  C   UNL A   1      39.486  31.977  35.246  1.00  0.00     0.023 A 
ATOM     62  C   UNL A   1      39.728  33.363  35.141  1.00  0.00     0.012 A 
ATOM     63  C   UNL A   1      38.747  31.484  36.339  1.00  0.00     0.148 A 
ATOM     64  C   UNL A   1      39.260  34.240  36.118  1.00  0.00     0.002 A 
ATOM     65  C   UNL A   1      38.249  32.371  37.287  1.00  0.00     0.091 A 
ATOM     66  F   UNL A   1      38.542  30.163  36.427  1.00  0.00    -0.205 F 
ATOM     67  C   UNL A   1      38.511  33.747  37.183  1.00  0.00     0.022 A 
BRANCH  65  68
ATOM     68  S   UNL A   1      37.207  31.848  38.656  1.00  0.00     0.127 S 
ATOM     69  O   UNL A   1      36.045  32.721  38.490  1.00  0.00    -0.237 OA
ATOM     70  O   UNL A   1      36.964  30.442  38.336  1.00  0.00    -0.237 OA
ATOM     71  O   UNL A   1      37.986  32.075  39.865  1.00  0.00    -0.744 OA
ENDBRANCH  65  68
ENDBRANCH  47  61
BRANCH  48  72
ATOM     72  C   UNL A   1      42.580  26.629  27.436  1.00  0.00     0.023 A 
ATOM     73  C   UNL A   1      43.375  27.301  26.486  1.00  0.00     0.012 A 
ATOM     74  C   UNL A   1      42.296  25.264  27.247  1.00  0.00     0.148 A 
ATOM     75  C   UNL A   1      43.839  26.639  25.348  1.00  0.00     0.002 A 
ATOM     76  C   UNL A   1      42.810  24.596  26.141  1.00  0.00     0.091 A 
ATOM     77  F   UNL A   1      41.526  24.641  28.150  1.00  0.00    -0.205 F 
ATOM     78  C   UNL A   1      43.565  25.286  25.180  1.00  0.00     0.022 A 
BRANCH  76  79
ATOM     79  S   UNL A   1      42.617  22.822  25.930  1.00  0.00     0.127 S 
ATOM     80  O   UNL A   1      43.424  22.299  27.029  1.00  0.00    -0.237 OA
ATOM     81  O   UNL A   1      41.173  22.646  26.086  1.00  0.00    -0.237 OA
ATOM     82  O   UNL A   1      43.106  22.543  24.586  1.00  0.00    -0.744 OA
ENDBRANCH  76  79
ENDBRANCH  48  72
BRANCH  60  83
ATOM     83  C   UNL A   1      44.710  27.157  34.056  1.00  0.00     0.023 A 
ATOM     84  C   UNL A   1      45.981  27.767  34.038  1.00  0.00     0.012 A 
ATOM     85  C   UNL A   1      44.515  25.993  34.824  1.00  0.00     0.148 A 
ATOM     86  C   UNL A   1      47.049  27.202  34.735  1.00  0.00     0.002 A 
ATOM     87  C   UNL A   1      45.573  25.463  35.556  1.00  0.00     0.091 A 
ATOM     88  F   UNL A   1      43.307  25.411  34.815  1.00  0.00    -0.205 F 
ATOM     89  C   UNL A   1      46.843  26.058  35.501  1.00  0.00     0.022 A 
BRANCH  87  90
ATOM     90  S   UNL A   1      45.361  24.049  36.642  1.00  0.00     0.127 S 
ATOM     91  O   UNL A   1      46.715  23.859  37.156  1.00  0.00    -0.237 OA
ATOM     92  O   UNL A   1      44.399  24.547  37.628  1.00  0.00    -0.237 OA
ATOM     93  O   UNL A   1      44.847  22.978  35.795  1.00  0.00    -0.744 OA
ENDBRANCH  87  90
ENDBRANCH  60  83
ENDBRANCH  34  35
ENDBRANCH  26  29
ENDBRANCH  24  25
ENDBRANCH   1  24
TORSDOF 16
ENDMDL
MODEL 3
REMARK VINA RESULT:     -12.1      1.177      2.862
REMARK SMILES Cc1cccc(Nc2ccccc2C(=O)NCCCCNC(=O)c2ccc(-c3c4nc(c(-c5cccc(S(=O)(=O)[O-])c5F)c5ccc([nH]5)c(-c5cccc(S(=O)(=O)[O-])c5F)c5nc(c(-c6cccc(S(=O)(=O)[O-])c6F)c6ccc3[nH]6)C=C5)C=C4)cc2)c1C
REMARK SMILES IDX 19 1 18 2 17 3 16 4 14 5 15 6 13 8 8 9 9 10 10 11 12 12
REMARK SMILES IDX 11 13 7 14 6 16 1 17 2 18 3 19 87 20 4 21 88 22 5 23 20 24
REMARK SMILES IDX 21 25 22 26 23 28 24 29 25 30 86 31 26 32 85 33 27 34 28 35
REMARK SMILES IDX 29 36 79 37 30 38 84 39 78 40 80 41 31 42 83 43 77 44 76 45
REMARK SMILES IDX 32 47 64 48 44 49 63 50 45 51 48 52 62 53 81 54 46 55 47 56
REMARK SMILES IDX 61 58 82 59 49 60 33 61 34 62 42 63 35 64 37 65 43 66 36 67
REMARK SMILES IDX 38 68 39 69 40 70 41 71 65 72 66 73 74 74 67 75 69 76 75 77
REMARK SMILES IDX 68 78 70 79 71 80 72 81 73 82 50 83 51 84 59 85 52 86 54 87
REMARK SMILES IDX 60 88 53 89 55 90 56 91 57 92 58 93
REMARK H PARENT 16 7 7 15 21 27 80 46 48 57
REMARK Flexibility Score: inf
ROOT
ATOM      1  C   UNL A   1      32.346  29.493  25.080  1.00  0.00     0.023 C 
ENDROOT
BRANCH   1   2
ATOM      2  C   UNL A   1      33.600  28.705  24.690  1.00  0.00     0.023 C 
BRANCH   2   3
ATOM      3  C   UNL A   1      33.965  28.677  23.212  1.00  0.00     0.116 C 
BRANCH   3   4
ATOM      4  N   UNL A   1      33.940  27.378  22.586  1.00  0.00    -0.352 N 
ATOM      5  C   UNL A   1      32.872  26.555  22.310  1.00  0.00     0.253 C 
ATOM      6  O   UNL A   1      33.092  25.569  21.599  1.00  0.00    -0.269 OA
ATOM      7  H   UNL A   1      34.820  27.027  22.317  1.00  0.00     0.163 HD
BRANCH   5   8
ATOM      8  C   UNL A   1      31.510  26.689  22.923  1.00  0.00     0.063 A 
ATOM      9  C   UNL A   1      30.940  25.967  23.991  1.00  0.00     0.051 A 
ATOM     10  C   UNL A   1      29.587  26.235  24.329  1.00  0.00     0.027 A 
ATOM     11  C   UNL A   1      28.839  27.228  23.698  1.00  0.00     0.002 A 
ATOM     12  C   UNL A   1      30.736  27.710  22.312  1.00  0.00     0.016 A 
ATOM     13  C   UNL A   1      29.424  27.987  22.701  1.00  0.00     0.001 A 
BRANCH   9  14
ATOM     14  N   UNL A   1      31.585  25.078  24.875  1.00  0.00    -0.355 N 
ATOM     15  H   UNL A   1      31.452  25.315  25.822  1.00  0.00     0.167 HD
BRANCH  14  16
ATOM     16  C   UNL A   1      32.376  23.923  24.706  1.00  0.00     0.042 A 
ATOM     17  C   UNL A   1      35.956  22.656  24.210  1.00  0.00     0.044 C 
ATOM     18  C   UNL A   1      34.454  22.714  24.298  1.00  0.00    -0.046 A 
ATOM     19  C   UNL A   1      33.720  21.569  23.954  1.00  0.00     0.004 A 
ATOM     20  C   UNL A   1      33.784  23.887  24.732  1.00  0.00    -0.025 A 
ATOM     21  C   UNL A   1      32.335  21.572  24.027  1.00  0.00     0.002 A 
ATOM     22  C   UNL A   1      34.602  25.040  25.260  1.00  0.00     0.047 C 
ATOM     23  C   UNL A   1      31.674  22.737  24.397  1.00  0.00     0.026 A 
ENDBRANCH  14  16
ENDBRANCH   9  14
ENDBRANCH   5   8
ENDBRANCH   3   4
ENDBRANCH   2   3
ENDBRANCH   1   2
BRANCH   1  24
ATOM     24  C   UNL A   1      32.163  29.869  26.553  1.00  0.00     0.116 C 
BRANCH  24  25
ATOM     25  N   UNL A   1      32.092  31.298  26.821  1.00  0.00    -0.352 N 
ATOM     26  C   UNL A   1      33.055  32.136  27.345  1.00  0.00     0.251 C 
ATOM     27  H   UNL A   1      31.235  31.728  26.598  1.00  0.00     0.163 HD
ATOM     28  O   UNL A   1      32.820  33.331  27.469  1.00  0.00    -0.269 OA
BRANCH  26  29
ATOM     29  C   UNL A   1      34.355  31.584  27.800  1.00  0.00     0.039 A 
ATOM     30  C   UNL A   1      35.432  32.461  27.959  1.00  0.00     0.014 A 
ATOM     31  C   UNL A   1      34.509  30.230  28.104  1.00  0.00     0.014 A 
ATOM     32  C   UNL A   1      36.629  31.999  28.517  1.00  0.00     0.010 A 
ATOM     33  C   UNL A   1      35.681  29.785  28.719  1.00  0.00     0.010 A 
ATOM     34  C   UNL A   1      36.747  30.667  28.949  1.00  0.00    -0.014 A 
BRANCH  34  35
ATOM     35  C   UNL A   1      37.948  30.220  29.708  1.00  0.00     0.031 A 
ATOM     36  C   UNL A   1      38.209  30.698  31.113  1.00  0.00     0.074 A 
ATOM     37  C   UNL A   1      38.860  29.439  29.093  1.00  0.00     0.049 A 
ATOM     38  N   UNL A   1      39.188  30.377  31.920  1.00  0.00    -0.248 NA
ATOM     39  C   UNL A   1      37.270  31.680  31.675  1.00  0.00     0.031 C 
ATOM     40  C   UNL A   1      38.796  29.006  27.694  1.00  0.00     0.029 A 
ATOM     41  N   UNL A   1      40.033  28.890  29.552  1.00  0.00    -0.354 N 
ATOM     42  C   UNL A   1      39.005  31.139  33.068  1.00  0.00     0.074 A 
ATOM     43  C   UNL A   1      37.832  31.958  32.844  1.00  0.00     0.031 C 
ATOM     44  C   UNL A   1      39.876  28.259  27.411  1.00  0.00     0.029 A 
ATOM     45  C   UNL A   1      40.716  28.165  28.601  1.00  0.00     0.049 A 
ATOM     46  H   UNL A   1      40.356  29.004  30.475  1.00  0.00     0.167 HD
ATOM     47  C   UNL A   1      39.728  31.138  34.213  1.00  0.00     0.034 A 
ATOM     48  C   UNL A   1      41.881  27.492  28.678  1.00  0.00     0.034 A 
ATOM     49  C   UNL A   1      40.861  30.284  34.455  1.00  0.00     0.049 A 
ATOM     50  C   UNL A   1      42.601  27.424  29.998  1.00  0.00     0.074 A 
ATOM     51  C   UNL A   1      41.580  30.122  35.627  1.00  0.00     0.029 A 
ATOM     52  N   UNL A   1      41.449  29.459  33.511  1.00  0.00    -0.354 N 
ATOM     53  N   UNL A   1      42.281  27.976  31.142  1.00  0.00    -0.248 NA
ATOM     54  C   UNL A   1      43.815  26.595  30.053  1.00  0.00     0.031 C 
ATOM     55  C   UNL A   1      42.614  29.211  35.386  1.00  0.00     0.029 A 
ATOM     56  C   UNL A   1      42.526  28.791  34.070  1.00  0.00     0.049 A 
ATOM     57  H   UNL A   1      41.145  29.361  32.579  1.00  0.00     0.167 HD
ATOM     58  C   UNL A   1      43.231  27.536  32.057  1.00  0.00     0.074 A 
ATOM     59  C   UNL A   1      44.119  26.645  31.342  1.00  0.00     0.031 C 
ATOM     60  C   UNL A   1      43.369  27.860  33.366  1.00  0.00     0.034 A 
BRANCH  47  61
ATOM     61  C   UNL A   1      39.283  32.041  35.333  1.00  0.00     0.023 A 
ATOM     62  C   UNL A   1      38.432  31.532  36.336  1.00  0.00     0.012 A 
ATOM     63  C   UNL A   1      39.784  33.352  35.451  1.00  0.00     0.148 A 
ATOM     64  C   UNL A   1      38.069  32.321  37.427  1.00  0.00     0.002 A 
ATOM     65  C   UNL A   1      39.451  34.118  36.563  1.00  0.00     0.091 A 
ATOM     66  F   UNL A   1      40.579  33.822  34.480  1.00  0.00    -0.205 F 
ATOM     67  C   UNL A   1      38.587  33.607  37.546  1.00  0.00     0.022 A 
BRANCH  65  68
ATOM     68  S   UNL A   1      40.126  35.758  36.853  1.00  0.00     0.127 S 
ATOM     69  O   UNL A   1      39.544  36.090  38.154  1.00  0.00    -0.237 OA
ATOM     70  O   UNL A   1      41.565  35.498  36.877  1.00  0.00    -0.237 OA
ATOM     71  O   UNL A   1      39.673  36.584  35.742  1.00  0.00    -0.744 OA
ENDBRANCH  65  68
ENDBRANCH  47  61
BRANCH  48  72
ATOM     72  C   UNL A   1      42.403  26.757  27.490  1.00  0.00     0.023 A 
ATOM     73  C   UNL A   1      43.155  27.450  26.520  1.00  0.00     0.012 A 
ATOM     74  C   UNL A   1      42.166  25.381  27.317  1.00  0.00     0.148 A 
ATOM     75  C   UNL A   1      43.621  26.796  25.379  1.00  0.00     0.002 A 
ATOM     76  C   UNL A   1      42.682  24.722  26.206  1.00  0.00     0.091 A 
ATOM     77  F   UNL A   1      41.436  24.738  28.240  1.00  0.00    -0.205 F 
ATOM     78  C   UNL A   1      43.393  25.432  25.226  1.00  0.00     0.022 A 
BRANCH  76  79
ATOM     79  S   UNL A   1      42.551  22.941  26.012  1.00  0.00     0.127 S 
ATOM     80  O   UNL A   1      41.113  22.729  26.149  1.00  0.00    -0.237 OA
ATOM     81  O   UNL A   1      43.078  22.736  24.663  1.00  0.00    -0.237 OA
ATOM     82  O   UNL A   1      43.385  22.381  27.066  1.00  0.00    -0.744 OA
ENDBRANCH  76  79
ENDBRANCH  48  72
BRANCH  60  83
ATOM     83  C   UNL A   1      44.507  27.225  34.123  1.00  0.00     0.023 A 
ATOM     84  C   UNL A   1      45.789  27.809  34.079  1.00  0.00     0.012 A 
ATOM     85  C   UNL A   1      44.298  26.080  34.915  1.00  0.00     0.148 A 
ATOM     86  C   UNL A   1      46.854  27.237  34.775  1.00  0.00     0.002 A 
ATOM     87  C   UNL A   1      45.354  25.543  35.646  1.00  0.00     0.091 A 
ATOM     88  F   UNL A   1      43.079  25.522  34.931  1.00  0.00    -0.205 F 
ATOM     89  C   UNL A   1      46.634  26.112  35.565  1.00  0.00     0.022 A 
BRANCH  87  90
ATOM     90  S   UNL A   1      45.126  24.154  36.760  1.00  0.00     0.127 S 
ATOM     91  O   UNL A   1      46.486  23.933  37.248  1.00  0.00    -0.237 OA
ATOM     92  O   UNL A   1      44.202  24.697  37.759  1.00  0.00    -0.237 OA
ATOM     93  O   UNL A   1      44.563  23.085  35.945  1.00  0.00    -0.744 OA
ENDBRANCH  87  90
ENDBRANCH  60  83
ENDBRANCH  34  35
ENDBRANCH  26  29
ENDBRANCH  24  25
ENDBRANCH   1  24
TORSDOF 16
ENDMDL
