MODEL 1
REMARK VINA RESULT:     -12.6      0.000      0.000
REMARK SMILES C[C@@H]1CN(C(=O)NC[C@@H]2CC[C@H](C(=O)NCCCCNC(=O)c3ccc(-c4c5nc(c(-c6cccc(S(=O)(=O)[O-])c6F)c6ccc([nH]6)c(-c6cccc(S(=O)(=O)[O-])c6F)c6nc(c(-c7cccc(S(=O)(=O)[O-])c7F)c7ccc4[nH]7)C=C6)C=C5)cc3)O2)CC(C)(C)O1
REMARK SMILES IDX 17 1 16 2 15 3 13 4 14 5 12 7 9 8 10 9 86 10 11 11 8 12 7 13
REMARK SMILES IDX 5 14 6 15 4 17 1 18 2 19 3 20 91 21 88 22 87 23 89 24 90 25
REMARK SMILES IDX 18 26 19 27 20 28 21 29 22 31 23 32 24 33 85 34 25 35 84 36
REMARK SMILES IDX 26 37 27 38 28 39 78 40 29 41 83 42 77 43 79 44 30 45 82 46
REMARK SMILES IDX 76 47 75 48 31 50 63 51 43 52 62 53 44 54 47 55 61 56 80 57
REMARK SMILES IDX 45 58 46 59 60 61 81 62 48 63 32 64 33 65 41 66 34 67 36 68
REMARK SMILES IDX 42 69 35 70 37 71 38 72 39 73 40 74 64 75 65 76 73 77 66 78
REMARK SMILES IDX 68 79 74 80 67 81 69 82 70 83 71 84 72 85 49 86 50 87 58 88
REMARK SMILES IDX 51 89 53 90 59 91 52 92 54 93 55 94 56 95 57 96
REMARK H PARENT 15 6 7 16 20 30 79 49 47 60
REMARK Flexibility Score: inf
ROOT
ATOM      1  C   UNL A   1      35.585  23.146  23.583  1.00  0.00     0.023 C 
ENDROOT
BRANCH   1   2
ATOM      2  C   UNL A   1      34.133  22.875  23.980  1.00  0.00     0.116 C 
BRANCH   2   3
ATOM      3  N   UNL A   1      33.781  21.474  23.935  1.00  0.00    -0.354 N 
ATOM      4  C   UNL A   1      32.749  20.832  24.554  1.00  0.00     0.249 C 
ATOM      5  O   UNL A   1      32.544  19.650  24.260  1.00  0.00    -0.272 OA
ATOM      6  H   UNL A   1      34.366  20.907  23.382  1.00  0.00     0.163 HD
BRANCH   4   7
ATOM      7  C   UNL A   1      31.921  21.506  25.679  1.00  0.00     0.207 C 
ATOM      8  C   UNL A   1      31.064  23.584  26.301  1.00  0.00     0.138 C 
ATOM      9  C   UNL A   1      32.491  23.537  26.822  1.00  0.00     0.037 C 
ATOM     10  O   UNL A   1      30.974  22.524  25.337  1.00  0.00    -0.363 OA
ATOM     11  C   UNL A   1      32.829  22.068  26.770  1.00  0.00     0.045 C 
BRANCH   8  12
ATOM     12  C   UNL A   1      30.678  24.970  25.741  1.00  0.00     0.149 C 
BRANCH  12  13
ATOM     13  N   UNL A   1      30.699  26.056  26.708  1.00  0.00    -0.335 N 
ATOM     14  C   UNL A   1      31.131  27.330  26.738  1.00  0.00     0.317 C 
ATOM     15  O   UNL A   1      31.238  27.803  27.875  1.00  0.00    -0.249 OA
ATOM     16  H   UNL A   1      30.292  25.788  27.563  1.00  0.00     0.165 HD
BRANCH  14  17
ATOM     17  N   UNL A   1      31.362  28.081  25.626  1.00  0.00    -0.319 N 
ATOM     18  C   UNL A   1      34.018  29.230  26.719  1.00  0.00     0.040 C 
ATOM     19  C   UNL A   1      33.282  29.559  25.423  1.00  0.00     0.135 C 
ATOM     20  C   UNL A   1      31.753  29.475  25.527  1.00  0.00     0.153 C 
ATOM     21  O   UNL A   1      33.782  28.789  24.313  1.00  0.00    -0.369 OA
ATOM     22  C   UNL A   1      33.235  27.460  24.114  1.00  0.00     0.081 C 
ATOM     23  C   UNL A   1      31.701  27.379  24.383  1.00  0.00     0.156 C 
ATOM     24  C   UNL A   1      34.008  26.424  24.941  1.00  0.00     0.044 C 
ATOM     25  C   UNL A   1      33.498  27.161  22.629  1.00  0.00     0.044 C 
ENDBRANCH  14  17
ENDBRANCH  12  13
ENDBRANCH   8  12
ENDBRANCH   4   7
ENDBRANCH   2   3
ENDBRANCH   1   2
BRANCH   1  26
ATOM     26  C   UNL A   1      36.523  21.965  23.824  1.00  0.00     0.023 C 
BRANCH  26  27
ATOM     27  C   UNL A   1      37.034  21.832  25.257  1.00  0.00     0.116 C 
BRANCH  27  28
ATOM     28  N   UNL A   1      38.078  20.827  25.427  1.00  0.00    -0.352 N 
ATOM     29  C   UNL A   1      39.295  20.981  26.056  1.00  0.00     0.251 C 
ATOM     30  H   UNL A   1      37.892  19.937  25.049  1.00  0.00     0.163 HD
ATOM     31  O   UNL A   1      40.107  20.061  26.089  1.00  0.00    -0.269 OA
BRANCH  29  32
ATOM     32  C   UNL A   1      39.628  22.302  26.631  1.00  0.00     0.039 A 
ATOM     33  C   UNL A   1      40.672  22.391  27.555  1.00  0.00     0.014 A 
ATOM     34  C   UNL A   1      38.997  23.455  26.157  1.00  0.00     0.014 A 
ATOM     35  C   UNL A   1      41.155  23.648  27.928  1.00  0.00     0.010 A 
ATOM     36  C   UNL A   1      39.524  24.701  26.477  1.00  0.00     0.010 A 
ATOM     37  C   UNL A   1      40.619  24.811  27.348  1.00  0.00    -0.014 A 
BRANCH  37  38
ATOM     38  C   UNL A   1      41.217  26.150  27.594  1.00  0.00     0.031 A 
ATOM     39  C   UNL A   1      42.613  26.451  27.126  1.00  0.00     0.074 A 
ATOM     40  C   UNL A   1      40.552  27.049  28.349  1.00  0.00     0.049 A 
ATOM     41  N   UNL A   1      43.342  27.515  27.342  1.00  0.00    -0.248 NA
ATOM     42  C   UNL A   1      43.291  25.406  26.341  1.00  0.00     0.031 C 
ATOM     43  C   UNL A   1      39.227  26.845  28.940  1.00  0.00     0.029 A 
ATOM     44  N   UNL A   1      40.916  28.300  28.784  1.00  0.00    -0.354 N 
ATOM     45  C   UNL A   1      44.578  27.249  26.763  1.00  0.00     0.074 A 
ATOM     46  C   UNL A   1      44.506  25.916  26.206  1.00  0.00     0.031 C 
ATOM     47  C   UNL A   1      38.894  27.926  29.663  1.00  0.00     0.029 A 
ATOM     48  C   UNL A   1      39.988  28.891  29.611  1.00  0.00     0.049 A 
ATOM     49  H   UNL A   1      41.763  28.734  28.527  1.00  0.00     0.167 HD
ATOM     50  C   UNL A   1      45.663  28.053  26.676  1.00  0.00     0.034 A 
ATOM     51  C   UNL A   1      40.018  30.071  30.262  1.00  0.00     0.034 A 
ATOM     52  C   UNL A   1      45.710  29.402  27.170  1.00  0.00     0.049 A 
ATOM     53  C   UNL A   1      41.210  30.974  30.091  1.00  0.00     0.074 A 
ATOM     54  C   UNL A   1      46.723  30.333  27.030  1.00  0.00     0.029 A 
ATOM     55  N   UNL A   1      44.703  30.011  27.903  1.00  0.00    -0.354 N 
ATOM     56  N   UNL A   1      42.297  30.777  29.387  1.00  0.00    -0.248 NA
ATOM     57  C   UNL A   1      41.166  32.276  30.774  1.00  0.00     0.031 C 
ATOM     58  C   UNL A   1      46.330  31.507  27.684  1.00  0.00     0.029 A 
ATOM     59  C   UNL A   1      45.070  31.305  28.224  1.00  0.00     0.049 A 
ATOM     60  H   UNL A   1      43.852  29.586  28.156  1.00  0.00     0.167 HD
ATOM     61  C   UNL A   1      43.050  31.938  29.514  1.00  0.00     0.074 A 
ATOM     62  C   UNL A   1      42.288  32.843  30.348  1.00  0.00     0.031 C 
ATOM     63  C   UNL A   1      44.272  32.221  28.999  1.00  0.00     0.034 A 
BRANCH  50  64
ATOM     64  C   UNL A   1      46.870  27.518  25.954  1.00  0.00     0.023 A 
ATOM     65  C   UNL A   1      47.746  26.644  26.630  1.00  0.00     0.012 A 
ATOM     66  C   UNL A   1      47.108  27.828  24.602  1.00  0.00     0.148 A 
ATOM     67  C   UNL A   1      48.860  26.115  25.983  1.00  0.00     0.002 A 
ATOM     68  C   UNL A   1      48.200  27.263  23.950  1.00  0.00     0.091 A 
ATOM     69  F   UNL A   1      46.279  28.680  23.982  1.00  0.00    -0.205 F 
ATOM     70  C   UNL A   1      49.081  26.415  24.642  1.00  0.00     0.022 A 
BRANCH  68  71
ATOM     71  S   UNL A   1      48.524  27.534  22.204  1.00  0.00     0.127 S 
ATOM     72  O   UNL A   1      48.838  26.181  21.748  1.00  0.00    -0.237 OA
ATOM     73  O   UNL A   1      47.241  28.055  21.727  1.00  0.00    -0.237 OA
ATOM     74  O   UNL A   1      49.620  28.490  22.147  1.00  0.00    -0.744 OA
ENDBRANCH  68  71
ENDBRANCH  50  64
BRANCH  51  75
ATOM     75  C   UNL A   1      38.842  30.501  31.072  1.00  0.00     0.023 A 
ATOM     76  C   UNL A   1      38.860  30.302  32.466  1.00  0.00     0.012 A 
ATOM     77  C   UNL A   1      37.731  31.136  30.484  1.00  0.00     0.148 A 
ATOM     78  C   UNL A   1      37.784  30.703  33.258  1.00  0.00     0.002 A 
ATOM     79  C   UNL A   1      36.684  31.579  31.285  1.00  0.00     0.091 A 
ATOM     80  F   UNL A   1      37.722  31.302  29.154  1.00  0.00    -0.205 F 
ATOM     81  C   UNL A   1      36.702  31.352  32.670  1.00  0.00     0.022 A 
BRANCH  79  82
ATOM     82  S   UNL A   1      35.315  32.540  30.627  1.00  0.00     0.127 S 
ATOM     83  O   UNL A   1      35.932  33.849  30.436  1.00  0.00    -0.237 OA
ATOM     84  O   UNL A   1      35.001  31.820  29.392  1.00  0.00    -0.237 OA
ATOM     85  O   UNL A   1      34.269  32.469  31.639  1.00  0.00    -0.744 OA
ENDBRANCH  79  82
ENDBRANCH  51  75
BRANCH  63  86
ATOM     86  C   UNL A   1      44.862  33.576  29.287  1.00  0.00     0.023 A 
ATOM     87  C   UNL A   1      45.558  33.786  30.494  1.00  0.00     0.012 A 
ATOM     88  C   UNL A   1      44.819  34.601  28.322  1.00  0.00     0.148 A 
ATOM     89  C   UNL A   1      46.188  35.004  30.743  1.00  0.00     0.002 A 
ATOM     90  C   UNL A   1      45.485  35.798  28.560  1.00  0.00     0.091 A 
ATOM     91  F   UNL A   1      44.134  34.385  27.189  1.00  0.00    -0.205 F 
ATOM     92  C   UNL A   1      46.164  36.004  29.772  1.00  0.00     0.022 A 
BRANCH  90  93
ATOM     93  S   UNL A   1      45.584  37.104  27.330  1.00  0.00     0.127 S 
ATOM     94  O   UNL A   1      44.180  37.485  27.187  1.00  0.00    -0.237 OA
ATOM     95  O   UNL A   1      46.421  38.101  27.998  1.00  0.00    -0.237 OA
ATOM     96  O   UNL A   1      46.193  36.498  26.153  1.00  0.00    -0.744 OA
ENDBRANCH  90  93
ENDBRANCH  63  86
ENDBRANCH  37  38
ENDBRANCH  29  32
ENDBRANCH  27  28
ENDBRANCH  26  27
ENDBRANCH   1  26
TORSDOF 17
ENDMDL
MODEL 2
REMARK VINA RESULT:     -12.5      5.520      8.901
REMARK SMILES C[C@@H]1CN(C(=O)NC[C@@H]2CC[C@H](C(=O)NCCCCNC(=O)c3ccc(-c4c5nc(c(-c6cccc(S(=O)(=O)[O-])c6F)c6ccc([nH]6)c(-c6cccc(S(=O)(=O)[O-])c6F)c6nc(c(-c7cccc(S(=O)(=O)[O-])c7F)c7ccc4[nH]7)C=C6)C=C5)cc3)O2)CC(C)(C)O1
REMARK SMILES IDX 17 1 16 2 15 3 13 4 14 5 12 7 9 8 10 9 86 10 11 11 8 12 7 13
REMARK SMILES IDX 5 14 6 15 4 17 1 18 2 19 3 20 91 21 88 22 87 23 89 24 90 25
REMARK SMILES IDX 18 26 19 27 20 28 21 29 22 31 23 32 24 33 85 34 25 35 84 36
REMARK SMILES IDX 26 37 27 38 28 39 78 40 29 41 83 42 77 43 79 44 30 45 82 46
REMARK SMILES IDX 76 47 75 48 31 50 63 51 43 52 62 53 44 54 47 55 61 56 80 57
REMARK SMILES IDX 45 58 46 59 60 61 81 62 48 63 32 64 33 65 41 66 34 67 36 68
REMARK SMILES IDX 42 69 35 70 37 71 38 72 39 73 40 74 64 75 65 76 73 77 66 78
REMARK SMILES IDX 68 79 74 80 67 81 69 82 70 83 71 84 72 85 49 86 50 87 58 88
REMARK SMILES IDX 51 89 53 90 59 91 52 92 54 93 55 94 56 95 57 96
REMARK H PARENT 15 6 7 16 20 30 79 49 47 60
REMARK Flexibility Score: inf
ROOT
ATOM      1  C   UNL A   1      31.354  31.470  26.307  1.00  0.00     0.023 C 
ENDROOT
BRANCH   1   2
ATOM      2  C   UNL A   1      31.117  30.428  25.214  1.00  0.00     0.116 C 
BRANCH   2   3
ATOM      3  N   UNL A   1      32.261  29.575  24.982  1.00  0.00    -0.354 N 
ATOM      4  C   UNL A   1      32.298  28.220  24.825  1.00  0.00     0.249 C 
ATOM      5  O   UNL A   1      33.370  27.706  24.488  1.00  0.00    -0.272 OA
ATOM      6  H   UNL A   1      33.130  30.034  24.931  1.00  0.00     0.163 HD
BRANCH   4   7
ATOM      7  C   UNL A   1      31.080  27.321  25.165  1.00  0.00     0.207 C 
ATOM      8  C   UNL A   1      30.489  25.076  25.383  1.00  0.00     0.138 C 
ATOM      9  C   UNL A   1      30.343  25.415  23.909  1.00  0.00     0.037 C 
ATOM     10  O   UNL A   1      31.280  26.136  25.942  1.00  0.00    -0.363 OA
ATOM     11  C   UNL A   1      30.320  26.923  23.902  1.00  0.00     0.045 C 
BRANCH   8  12
ATOM     12  C   UNL A   1      31.079  23.669  25.616  1.00  0.00     0.149 C 
BRANCH  12  13
ATOM     13  N   UNL A   1      32.269  23.626  26.450  1.00  0.00    -0.335 N 
ATOM     14  C   UNL A   1      33.376  22.867  26.535  1.00  0.00     0.317 C 
ATOM     15  O   UNL A   1      33.991  22.982  27.602  1.00  0.00    -0.249 OA
ATOM     16  H   UNL A   1      32.262  24.339  27.129  1.00  0.00     0.165 HD
BRANCH  14  17
ATOM     17  N   UNL A   1      33.845  22.090  25.520  1.00  0.00    -0.319 N 
ATOM     18  C   UNL A   1      34.196  24.483  23.592  1.00  0.00     0.040 C 
ATOM     19  C   UNL A   1      34.404  22.993  23.333  1.00  0.00     0.135 C 
ATOM     20  C   UNL A   1      33.456  22.078  24.121  1.00  0.00     0.153 C 
ATOM     21  O   UNL A   1      35.780  22.607  23.503  1.00  0.00    -0.369 OA
ATOM     22  C   UNL A   1      36.229  22.286  24.845  1.00  0.00     0.081 C 
ATOM     23  C   UNL A   1      35.175  21.490  25.673  1.00  0.00     0.156 C 
ATOM     24  C   UNL A   1      36.686  23.551  25.582  1.00  0.00     0.044 C 
ATOM     25  C   UNL A   1      37.467  21.400  24.628  1.00  0.00     0.044 C 
ENDBRANCH  14  17
ENDBRANCH  12  13
ENDBRANCH   8  12
ENDBRANCH   4   7
ENDBRANCH   2   3
ENDBRANCH   1   2
BRANCH   1  26
ATOM     26  C   UNL A   1      32.545  31.160  27.211  1.00  0.00     0.023 C 
BRANCH  26  27
ATOM     27  C   UNL A   1      33.506  32.326  27.432  1.00  0.00     0.116 C 
BRANCH  27  28
ATOM     28  N   UNL A   1      32.846  33.604  27.678  1.00  0.00    -0.352 N 
ATOM     29  C   UNL A   1      33.197  34.563  28.604  1.00  0.00     0.251 C 
ATOM     30  H   UNL A   1      32.061  33.804  27.119  1.00  0.00     0.163 HD
ATOM     31  O   UNL A   1      32.525  35.580  28.742  1.00  0.00    -0.269 OA
BRANCH  29  32
ATOM     32  C   UNL A   1      34.363  34.306  29.477  1.00  0.00     0.039 A 
ATOM     33  C   UNL A   1      34.157  33.689  30.714  1.00  0.00     0.014 A 
ATOM     34  C   UNL A   1      35.657  34.554  29.013  1.00  0.00     0.014 A 
ATOM     35  C   UNL A   1      35.255  33.226  31.443  1.00  0.00     0.010 A 
ATOM     36  C   UNL A   1      36.743  34.031  29.707  1.00  0.00     0.010 A 
ATOM     37  C   UNL A   1      36.553  33.345  30.917  1.00  0.00    -0.014 A 
BRANCH  37  38
ATOM     38  C   UNL A   1      37.724  32.718  31.584  1.00  0.00     0.031 A 
ATOM     39  C   UNL A   1      38.434  31.563  30.935  1.00  0.00     0.074 A 
ATOM     40  C   UNL A   1      38.067  33.103  32.831  1.00  0.00     0.049 A 
ATOM     41  N   UNL A   1      39.398  30.818  31.409  1.00  0.00    -0.248 NA
ATOM     42  C   UNL A   1      37.977  31.174  29.591  1.00  0.00     0.031 C 
ATOM     43  C   UNL A   1      37.400  34.151  33.608  1.00  0.00     0.029 A 
ATOM     44  N   UNL A   1      39.038  32.631  33.681  1.00  0.00    -0.354 N 
ATOM     45  C   UNL A   1      39.631  29.844  30.445  1.00  0.00     0.074 A 
ATOM     46  C   UNL A   1      38.692  30.080  29.370  1.00  0.00     0.031 C 
ATOM     47  C   UNL A   1      37.974  34.237  34.818  1.00  0.00     0.029 A 
ATOM     48  C   UNL A   1      39.033  33.236  34.917  1.00  0.00     0.049 A 
ATOM     49  H   UNL A   1      39.677  31.926  33.429  1.00  0.00     0.167 HD
ATOM     50  C   UNL A   1      40.562  28.861  30.440  1.00  0.00     0.034 A 
ATOM     51  C   UNL A   1      39.788  33.006  36.010  1.00  0.00     0.034 A 
ATOM     52  C   UNL A   1      41.537  28.670  31.478  1.00  0.00     0.049 A 
ATOM     53  C   UNL A   1      40.861  31.953  35.952  1.00  0.00     0.074 A 
ATOM     54  C   UNL A   1      42.591  27.775  31.511  1.00  0.00     0.029 A 
ATOM     55  N   UNL A   1      41.577  29.381  32.667  1.00  0.00    -0.354 N 
ATOM     56  N   UNL A   1      41.184  31.161  34.960  1.00  0.00    -0.248 NA
ATOM     57  C   UNL A   1      41.697  31.782  37.151  1.00  0.00     0.031 C 
ATOM     58  C   UNL A   1      43.268  27.942  32.725  1.00  0.00     0.029 A 
ATOM     59  C   UNL A   1      42.636  28.945  33.443  1.00  0.00     0.049 A 
ATOM     60  H   UNL A   1      40.946  30.092  32.922  1.00  0.00     0.167 HD
ATOM     61  C   UNL A   1      42.279  30.425  35.399  1.00  0.00     0.074 A 
ATOM     62  C   UNL A   1      42.575  30.876  36.742  1.00  0.00     0.031 C 
ATOM     63  C   UNL A   1      42.964  29.449  34.752  1.00  0.00     0.034 A 
BRANCH  50  64
ATOM     64  C   UNL A   1      40.616  27.959  29.238  1.00  0.00     0.023 A 
ATOM     65  C   UNL A   1      39.734  26.861  29.159  1.00  0.00     0.012 A 
ATOM     66  C   UNL A   1      41.489  28.223  28.166  1.00  0.00     0.148 A 
ATOM     67  C   UNL A   1      39.745  26.020  28.049  1.00  0.00     0.002 A 
ATOM     68  C   UNL A   1      41.465  27.402  27.043  1.00  0.00     0.091 A 
ATOM     69  F   UNL A   1      42.338  29.256  28.268  1.00  0.00    -0.205 F 
ATOM     70  C   UNL A   1      40.601  26.296  26.988  1.00  0.00     0.022 A 
BRANCH  68  71
ATOM     71  S   UNL A   1      42.481  27.723  25.596  1.00  0.00     0.127 S 
ATOM     72  O   UNL A   1      41.919  28.982  25.113  1.00  0.00    -0.237 OA
ATOM     73  O   UNL A   1      43.821  27.835  26.175  1.00  0.00    -0.237 OA
ATOM     74  O   UNL A   1      42.299  26.573  24.721  1.00  0.00    -0.744 OA
ENDBRANCH  68  71
ENDBRANCH  50  64
BRANCH  51  75
ATOM     75  C   UNL A   1      39.607  33.849  37.227  1.00  0.00     0.023 A 
ATOM     76  C   UNL A   1      40.108  35.165  37.231  1.00  0.00     0.012 A 
ATOM     77  C   UNL A   1      38.915  33.375  38.358  1.00  0.00     0.148 A 
ATOM     78  C   UNL A   1      39.945  35.987  38.347  1.00  0.00     0.002 A 
ATOM     79  C   UNL A   1      38.711  34.216  39.447  1.00  0.00     0.091 A 
ATOM     80  F   UNL A   1      38.460  32.114  38.345  1.00  0.00    -0.205 F 
ATOM     81  C   UNL A   1      39.238  35.517  39.449  1.00  0.00     0.022 A 
BRANCH  79  82
ATOM     82  S   UNL A   1      37.698  33.736  40.853  1.00  0.00     0.127 S 
ATOM     83  O   UNL A   1      38.594  32.836  41.573  1.00  0.00    -0.237 OA
ATOM     84  O   UNL A   1      37.457  35.021  41.509  1.00  0.00    -0.237 OA
ATOM     85  O   UNL A   1      36.505  33.127  40.280  1.00  0.00    -0.744 OA
ENDBRANCH  79  82
ENDBRANCH  51  75
BRANCH  63  86
ATOM     86  C   UNL A   1      44.128  28.815  35.464  1.00  0.00     0.023 A 
ATOM     87  C   UNL A   1      45.422  29.339  35.281  1.00  0.00     0.012 A 
ATOM     88  C   UNL A   1      43.924  27.773  36.391  1.00  0.00     0.148 A 
ATOM     89  C   UNL A   1      46.501  28.823  35.998  1.00  0.00     0.002 A 
ATOM     90  C   UNL A   1      44.998  27.294  37.133  1.00  0.00     0.091 A 
ATOM     91  F   UNL A   1      42.687  27.277  36.534  1.00  0.00    -0.205 F 
ATOM     92  C   UNL A   1      46.287  27.813  36.933  1.00  0.00     0.022 A 
BRANCH  90  93
ATOM     93  S   UNL A   1      44.799  26.058  38.423  1.00  0.00     0.127 S 
ATOM     94  O   UNL A   1      46.173  25.897  38.895  1.00  0.00    -0.237 OA
ATOM     95  O   UNL A   1      43.906  26.732  39.367  1.00  0.00    -0.237 OA
ATOM     96  O   UNL A   1      44.218  24.891  37.773  1.00  0.00    -0.744 OA
ENDBRANCH  90  93
ENDBRANCH  63  86
ENDBRANCH  37  38
ENDBRANCH  29  32
ENDBRANCH  27  28
ENDBRANCH  26  27
ENDBRANCH   1  26
TORSDOF 17
ENDMDL
MODEL 3
REMARK VINA RESULT:     -12.5      5.210      7.890
REMARK SMILES C[C@@H]1CN(C(=O)NC[C@@H]2CC[C@H](C(=O)NCCCCNC(=O)c3ccc(-c4c5nc(c(-c6cccc(S(=O)(=O)[O-])c6F)c6ccc([nH]6)c(-c6cccc(S(=O)(=O)[O-])c6F)c6nc(c(-c7cccc(S(=O)(=O)[O-])c7F)c7ccc4[nH]7)C=C6)C=C5)cc3)O2)CC(C)(C)O1
REMARK SMILES IDX 17 1 16 2 15 3 13 4 14 5 12 7 9 8 10 9 86 10 11 11 8 12 7 13
REMARK SMILES IDX 5 14 6 15 4 17 1 18 2 19 3 20 91 21 88 22 87 23 89 24 90 25
REMARK SMILES IDX 18 26 19 27 20 28 21 29 22 31 23 32 24 33 85 34 25 35 84 36
REMARK SMILES IDX 26 37 27 38 28 39 78 40 29 41 83 42 77 43 79 44 30 45 82 46
REMARK SMILES IDX 76 47 75 48 31 50 63 51 43 52 62 53 44 54 47 55 61 56 80 57
REMARK SMILES IDX 45 58 46 59 60 61 81 62 48 63 32 64 33 65 41 66 34 67 36 68
REMARK SMILES IDX 42 69 35 70 37 71 38 72 39 73 40 74 64 75 65 76 73 77 66 78
REMARK SMILES IDX 68 79 74 80 67 81 69 82 70 83 71 84 72 85 49 86 50 87 58 88
REMARK SMILES IDX 51 89 53 90 59 91 52 92 54 93 55 94 56 95 57 96
REMARK H PARENT 15 6 7 16 20 30 79 49 47 60
REMARK Flexibility Score: inf
ROOT
ATOM      1  C   UNL A   1      31.968  26.962  26.229  1.00  0.00     0.023 C 
ENDROOT
BRANCH   1   2
ATOM      2  C   UNL A   1      31.023  26.294  25.230  1.00  0.00     0.116 C 
BRANCH   2   3
ATOM      3  N   UNL A   1      30.036  27.199  24.687  1.00  0.00    -0.354 N 
ATOM      4  C   UNL A   1      29.923  27.677  23.413  1.00  0.00     0.249 C 
ATOM      5  O   UNL A   1      28.913  28.326  23.127  1.00  0.00    -0.272 OA
ATOM      6  H   UNL A   1      29.351  27.512  25.322  1.00  0.00     0.163 HD
BRANCH   4   7
ATOM      7  C   UNL A   1      31.066  27.522  22.376  1.00  0.00     0.207 C 
ATOM      8  C   UNL A   1      33.029  26.318  22.009  1.00  0.00     0.138 C 
ATOM      9  C   UNL A   1      33.416  27.515  22.862  1.00  0.00     0.037 C 
ATOM     10  O   UNL A   1      31.601  26.221  22.112  1.00  0.00    -0.363 OA
ATOM     11  C   UNL A   1      32.238  28.443  22.707  1.00  0.00     0.045 C 
BRANCH   8  12
ATOM     12  C   UNL A   1      33.773  25.029  22.417  1.00  0.00     0.149 C 
BRANCH  12  13
ATOM     13  N   UNL A   1      32.926  23.867  22.630  1.00  0.00    -0.335 N 
ATOM     14  C   UNL A   1      32.821  22.889  23.549  1.00  0.00     0.317 C 
ATOM     15  O   UNL A   1      32.161  21.912  23.177  1.00  0.00    -0.249 OA
ATOM     16  H   UNL A   1      32.256  23.770  21.916  1.00  0.00     0.165 HD
BRANCH  14  17
ATOM     17  N   UNL A   1      33.322  22.976  24.812  1.00  0.00    -0.319 N 
ATOM     18  C   UNL A   1      34.297  20.041  24.834  1.00  0.00     0.040 C 
ATOM     19  C   UNL A   1      34.327  21.078  25.953  1.00  0.00     0.135 C 
ATOM     20  C   UNL A   1      33.151  22.065  25.930  1.00  0.00     0.153 C 
ATOM     21  O   UNL A   1      35.593  21.762  26.015  1.00  0.00    -0.369 OA
ATOM     22  C   UNL A   1      35.783  22.908  25.146  1.00  0.00     0.081 C 
ATOM     23  C   UNL A   1      34.514  23.804  25.022  1.00  0.00     0.156 C 
ATOM     24  C   UNL A   1      36.299  22.467  23.771  1.00  0.00     0.044 C 
ATOM     25  C   UNL A   1      36.901  23.716  25.826  1.00  0.00     0.044 C 
ENDBRANCH  14  17
ENDBRANCH  12  13
ENDBRANCH   8  12
ENDBRANCH   4   7
ENDBRANCH   2   3
ENDBRANCH   1   2
BRANCH   1  26
ATOM     26  C   UNL A   1      31.577  28.394  26.589  1.00  0.00     0.023 C 
BRANCH  26  27
ATOM     27  C   UNL A   1      32.593  29.459  26.182  1.00  0.00     0.116 C 
BRANCH  27  28
ATOM     28  N   UNL A   1      32.229  30.815  26.581  1.00  0.00    -0.352 N 
ATOM     29  C   UNL A   1      33.012  31.730  27.252  1.00  0.00     0.251 C 
ATOM     30  H   UNL A   1      31.319  31.109  26.344  1.00  0.00     0.163 HD
ATOM     31  O   UNL A   1      32.564  32.827  27.570  1.00  0.00    -0.269 OA
BRANCH  29  32
ATOM     32  C   UNL A   1      34.382  31.333  27.640  1.00  0.00     0.039 A 
ATOM     33  C   UNL A   1      35.349  32.327  27.812  1.00  0.00     0.014 A 
ATOM     34  C   UNL A   1      34.666  30.002  27.958  1.00  0.00     0.014 A 
ATOM     35  C   UNL A   1      36.573  32.000  28.403  1.00  0.00     0.010 A 
ATOM     36  C   UNL A   1      35.856  29.694  28.608  1.00  0.00     0.010 A 
ATOM     37  C   UNL A   1      36.813  30.692  28.855  1.00  0.00    -0.014 A 
BRANCH  37  38
ATOM     38  C   UNL A   1      38.031  30.348  29.635  1.00  0.00     0.031 A 
ATOM     39  C   UNL A   1      39.022  29.359  29.089  1.00  0.00     0.074 A 
ATOM     40  C   UNL A   1      38.179  30.828  30.887  1.00  0.00     0.049 A 
ATOM     41  N   UNL A   1      40.080  28.850  29.666  1.00  0.00    -0.248 NA
ATOM     42  C   UNL A   1      38.773  28.848  27.731  1.00  0.00     0.031 C 
ATOM     43  C   UNL A   1      37.242  31.726  31.567  1.00  0.00     0.029 A 
ATOM     44  N   UNL A   1      39.154  30.597  31.827  1.00  0.00    -0.354 N 
ATOM     45  C   UNL A   1      40.594  27.927  28.763  1.00  0.00     0.074 A 
ATOM     46  C   UNL A   1      39.720  27.930  27.610  1.00  0.00     0.031 C 
ATOM     47  C   UNL A   1      37.681  31.962  32.813  1.00  0.00     0.029 A 
ATOM     48  C   UNL A   1      38.917  31.216  33.033  1.00  0.00     0.049 A 
ATOM     49  H   UNL A   1      39.947  30.040  31.654  1.00  0.00     0.167 HD
ATOM     50  C   UNL A   1      41.711  27.168  28.870  1.00  0.00     0.034 A 
ATOM     51  C   UNL A   1      39.610  31.180  34.189  1.00  0.00     0.034 A 
ATOM     52  C   UNL A   1      42.614  27.216  29.986  1.00  0.00     0.049 A 
ATOM     53  C   UNL A   1      40.883  30.381  34.257  1.00  0.00     0.074 A 
ATOM     54  C   UNL A   1      43.829  26.571  30.136  1.00  0.00     0.029 A 
ATOM     55  N   UNL A   1      42.403  27.948  31.144  1.00  0.00    -0.354 N 
ATOM     56  N   UNL A   1      41.450  29.655  33.325  1.00  0.00    -0.248 NA
ATOM     57  C   UNL A   1      41.634  30.424  35.522  1.00  0.00     0.031 C 
ATOM     58  C   UNL A   1      44.350  26.908  31.390  1.00  0.00     0.029 A 
ATOM     59  C   UNL A   1      43.462  27.769  32.016  1.00  0.00     0.049 A 
ATOM     60  H   UNL A   1      41.615  28.512  31.321  1.00  0.00     0.167 HD
ATOM     61  C   UNL A   1      42.636  29.182  33.876  1.00  0.00     0.074 A 
ATOM     62  C   UNL A   1      42.716  29.719  35.218  1.00  0.00     0.031 C 
ATOM     63  C   UNL A   1      43.564  28.363  33.324  1.00  0.00     0.034 A 
BRANCH  50  64
ATOM     64  C   UNL A   1      42.056  26.270  27.713  1.00  0.00     0.023 A 
ATOM     65  C   UNL A   1      42.847  26.775  26.661  1.00  0.00     0.012 A 
ATOM     66  C   UNL A   1      41.651  24.922  27.690  1.00  0.00     0.148 A 
ATOM     67  C   UNL A   1      43.202  25.962  25.587  1.00  0.00     0.002 A 
ATOM     68  C   UNL A   1      42.044  24.106  26.634  1.00  0.00     0.091 A 
ATOM     69  F   UNL A   1      40.879  24.466  28.686  1.00  0.00    -0.205 F 
ATOM     70  C   UNL A   1      42.810  24.627  25.578  1.00  0.00     0.022 A 
BRANCH  68  71
ATOM     71  S   UNL A   1      41.648  22.354  26.574  1.00  0.00     0.127 S 
ATOM     72  O   UNL A   1      42.370  21.929  25.376  1.00  0.00    -0.237 OA
ATOM     73  O   UNL A   1      42.214  21.864  27.832  1.00  0.00    -0.237 OA
ATOM     74  O   UNL A   1      40.196  22.278  26.496  1.00  0.00    -0.744 OA
ENDBRANCH  68  71
ENDBRANCH  50  64
BRANCH  51  75
ATOM     75  C   UNL A   1      39.153  31.992  35.353  1.00  0.00     0.023 A 
ATOM     76  C   UNL A   1      39.354  33.386  35.338  1.00  0.00     0.012 A 
ATOM     77  C   UNL A   1      38.490  31.406  36.449  1.00  0.00     0.148 A 
ATOM     78  C   UNL A   1      38.927  34.180  36.404  1.00  0.00     0.002 A 
ATOM     79  C   UNL A   1      38.022  32.209  37.484  1.00  0.00     0.091 A 
ATOM     80  F   UNL A   1      38.323  30.076  36.455  1.00  0.00    -0.205 F 
ATOM     81  C   UNL A   1      38.252  33.594  37.470  1.00  0.00     0.022 A 
BRANCH  79  82
ATOM     82  S   UNL A   1      37.027  31.553  38.830  1.00  0.00     0.127 S 
ATOM     83  O   UNL A   1      36.821  30.173  38.405  1.00  0.00    -0.237 OA
ATOM     84  O   UNL A   1      37.920  31.717  39.979  1.00  0.00    -0.237 OA
ATOM     85  O   UNL A   1      35.837  32.393  38.877  1.00  0.00    -0.744 OA
ENDBRANCH  79  82
ENDBRANCH  51  75
BRANCH  63  86
ATOM     86  C   UNL A   1      44.773  28.011  34.149  1.00  0.00     0.023 A 
ATOM     87  C   UNL A   1      45.899  28.857  34.124  1.00  0.00     0.012 A 
ATOM     88  C   UNL A   1      44.752  26.907  35.024  1.00  0.00     0.148 A 
ATOM     89  C   UNL A   1      46.995  28.598  34.946  1.00  0.00     0.002 A 
ATOM     90  C   UNL A   1      45.831  26.681  35.871  1.00  0.00     0.091 A 
ATOM     91  F   UNL A   1      43.678  26.105  35.017  1.00  0.00    -0.205 F 
ATOM     92  C   UNL A   1      46.955  27.521  35.829  1.00  0.00     0.022 A 
BRANCH  90  93
ATOM     93  S   UNL A   1      45.827  25.373  37.104  1.00  0.00     0.127 S 
ATOM     94  O   UNL A   1      47.175  25.484  37.658  1.00  0.00    -0.237 OA
ATOM     95  O   UNL A   1      44.759  25.798  38.008  1.00  0.00    -0.237 OA
ATOM     96  O   UNL A   1      45.547  24.141  36.378  1.00  0.00    -0.744 OA
ENDBRANCH  90  93
ENDBRANCH  63  86
ENDBRANCH  37  38
ENDBRANCH  29  32
ENDBRANCH  27  28
ENDBRANCH  26  27
ENDBRANCH   1  26
TORSDOF 17
ENDMDL
