MODEL 1
REMARK VINA RESULT:     -11.1      0.000      0.000
REMARK SMILES CC1=C(C(=O)OCC(C)C)[C@@H](c2ccc(C(=O)NCCCCNC(=O)c3ccc(-c4c5nc(c(-c6cccc(S(=O)(=O)[O-])c6F)c6ccc([nH]6)c(-c6cccc(S(=O)(=O)[O-])c6F)c6nc(c(-c7cccc(S(=O)(=O)[O-])c7F)c7ccc4[nH]7)C=C6)C=C5)cc3)cc2)c2c(n(C)c(=O)n(C)c2=O)N1
REMARK SMILES IDX 19 1 18 2 16 3 17 4 15 6 12 7 13 8 90 9 14 10 89 11 11 12
REMARK SMILES IDX 1 13 2 14 3 15 101 16 92 17 91 19 93 20 99 21 94 22 95 23
REMARK SMILES IDX 97 24 100 25 96 26 98 27 4 28 5 29 6 30 7 31 8 32 9 33 10 34
REMARK SMILES IDX 20 35 21 36 22 37 23 38 24 39 25 41 26 42 27 43 88 44 28 45
REMARK SMILES IDX 87 46 29 47 30 48 31 49 81 50 32 51 86 52 80 53 82 54 33 55
REMARK SMILES IDX 85 56 79 57 78 58 34 60 66 61 46 62 65 63 47 64 50 65 64 66
REMARK SMILES IDX 83 67 48 68 49 69 63 71 84 72 51 73 35 74 36 75 44 76 37 77
REMARK SMILES IDX 39 78 45 79 38 80 40 81 41 82 42 83 43 84 67 85 68 86 76 87
REMARK SMILES IDX 69 88 71 89 77 90 70 91 72 92 73 93 74 94 75 95 52 96 53 97
REMARK SMILES IDX 61 98 54 99 56 100 62 101 55 102 57 103 58 104 59 105 60 106
REMARK H PARENT 18 5 101 18 23 40 82 59 50 70
REMARK Flexibility Score: inf
ROOT
ATOM      1  C   UNL A   1      39.671  24.125  26.613  1.00  0.00     0.116 C 
ENDROOT
BRANCH   1   2
ATOM      2  N   UNL A   1      39.783  22.710  26.327  1.00  0.00    -0.352 N 
ATOM      3  C   UNL A   1      38.879  21.795  25.857  1.00  0.00     0.251 C 
ATOM      4  O   UNL A   1      39.273  20.637  25.705  1.00  0.00    -0.269 OA
ATOM      5  H   UNL A   1      40.677  22.337  26.505  1.00  0.00     0.163 HD
BRANCH   3   6
ATOM      6  C   UNL A   1      37.478  22.133  25.467  1.00  0.00     0.039 A 
ATOM      7  C   UNL A   1      34.745  22.618  24.915  1.00  0.00    -0.035 A 
ATOM      8  C   UNL A   1      35.175  22.373  26.228  1.00  0.00     0.005 A 
ATOM      9  C   UNL A   1      35.702  22.683  23.899  1.00  0.00     0.005 A 
ATOM     10  C   UNL A   1      36.522  22.123  26.495  1.00  0.00     0.014 A 
ATOM     11  C   UNL A   1      37.054  22.475  24.181  1.00  0.00     0.014 A 
BRANCH   7  12
ATOM     12  C   UNL A   1      33.268  22.822  24.574  1.00  0.00     0.098 C 
ATOM     13  C   UNL A   1      31.812  20.895  21.467  1.00  0.00     0.065 C 
ATOM     14  C   UNL A   1      32.350  21.922  22.430  1.00  0.00     0.025 C 
ATOM     15  C   UNL A   1      32.771  21.682  23.692  1.00  0.00     0.068 C 
ATOM     16  N   UNL A   1      32.352  23.227  21.950  1.00  0.00    -0.344 N 
ATOM     17  C   UNL A   1      32.638  24.364  22.691  1.00  0.00     0.123 A 
ATOM     18  H   UNL A   1      32.132  23.355  20.998  1.00  0.00     0.168 HD
ATOM     19  C   UNL A   1      33.047  24.197  23.961  1.00  0.00     0.071 A 
ATOM     20  N   UNL A   1      32.512  25.645  22.177  1.00  0.00    -0.282 N 
ATOM     21  C   UNL A   1      33.286  25.370  24.825  1.00  0.00     0.262 A 
ATOM     22  C   UNL A   1      32.024  25.831  20.817  1.00  0.00     0.157 C 
ATOM     23  C   UNL A   1      32.860  26.790  22.893  1.00  0.00     0.332 A 
ATOM     24  N   UNL A   1      33.299  26.591  24.191  1.00  0.00    -0.263 N 
ATOM     25  O   UNL A   1      33.435  25.226  26.035  1.00  0.00    -0.269 OA
ATOM     26  O   UNL A   1      32.763  27.923  22.412  1.00  0.00    -0.247 OA
ATOM     27  C   UNL A   1      33.669  27.768  24.956  1.00  0.00     0.158 C 
BRANCH  15  28
ATOM     28  C   UNL A   1      32.711  20.374  24.388  1.00  0.00     0.336 C 
ATOM     29  O   UNL A   1      31.870  20.121  25.236  1.00  0.00    -0.246 OA
BRANCH  28  30
ATOM     30  O   UNL A   1      33.725  19.564  24.000  1.00  0.00    -0.462 OA
BRANCH  30  31
ATOM     31  C   UNL A   1      34.107  18.526  24.921  1.00  0.00     0.236 C 
BRANCH  31  32
ATOM     32  C   UNL A   1      34.708  17.337  24.163  1.00  0.00     0.021 C 
ATOM     33  C   UNL A   1      34.894  16.126  25.075  1.00  0.00     0.011 C 
ATOM     34  C   UNL A   1      33.832  16.969  22.967  1.00  0.00     0.011 C 
ENDBRANCH  31  32
ENDBRANCH  30  31
ENDBRANCH  28  30
ENDBRANCH  15  28
ENDBRANCH   7  12
ENDBRANCH   3   6
ENDBRANCH   1   2
BRANCH   1  35
ATOM     35  C   UNL A   1      40.181  24.424  28.024  1.00  0.00     0.023 C 
BRANCH  35  36
ATOM     36  C   UNL A   1      41.362  25.394  28.060  1.00  0.00     0.023 C 
BRANCH  36  37
ATOM     37  C   UNL A   1      42.663  24.785  28.559  1.00  0.00     0.116 C 
BRANCH  37  38
ATOM     38  N   UNL A   1      43.044  23.574  27.844  1.00  0.00    -0.352 N 
ATOM     39  C   UNL A   1      44.108  23.402  26.992  1.00  0.00     0.251 C 
ATOM     40  H   UNL A   1      42.471  22.785  27.988  1.00  0.00     0.163 HD
ATOM     41  O   UNL A   1      44.256  22.358  26.367  1.00  0.00    -0.269 OA
BRANCH  39  42
ATOM     42  C   UNL A   1      45.046  24.526  26.824  1.00  0.00     0.039 A 
ATOM     43  C   UNL A   1      45.161  25.130  25.572  1.00  0.00     0.014 A 
ATOM     44  C   UNL A   1      45.719  25.038  27.937  1.00  0.00     0.014 A 
ATOM     45  C   UNL A   1      45.917  26.295  25.449  1.00  0.00     0.010 A 
ATOM     46  C   UNL A   1      46.397  26.244  27.828  1.00  0.00     0.010 A 
ATOM     47  C   UNL A   1      46.515  26.875  26.581  1.00  0.00    -0.014 A 
BRANCH  47  48
ATOM     48  C   UNL A   1      47.288  28.135  26.471  1.00  0.00     0.031 A 
ATOM     49  C   UNL A   1      48.779  28.081  26.294  1.00  0.00     0.074 A 
ATOM     50  C   UNL A   1      46.657  29.320  26.572  1.00  0.00     0.049 A 
ATOM     51  N   UNL A   1      49.627  29.065  26.157  1.00  0.00    -0.248 NA
ATOM     52  C   UNL A   1      49.405  26.746  26.294  1.00  0.00     0.031 C 
ATOM     53  C   UNL A   1      45.224  29.495  26.814  1.00  0.00     0.029 A 
ATOM     54  N   UNL A   1      47.139  30.602  26.485  1.00  0.00    -0.354 N 
ATOM     55  C   UNL A   1      50.879  28.473  26.066  1.00  0.00     0.074 A 
ATOM     56  C   UNL A   1      50.692  27.051  26.235  1.00  0.00     0.031 C 
ATOM     57  C   UNL A   1      44.937  30.807  26.819  1.00  0.00     0.029 A 
ATOM     58  C   UNL A   1      46.167  31.566  26.611  1.00  0.00     0.049 A 
ATOM     59  H   UNL A   1      48.091  30.811  26.348  1.00  0.00     0.167 HD
ATOM     60  C   UNL A   1      52.075  29.054  25.810  1.00  0.00     0.034 A 
ATOM     61  C   UNL A   1      46.256  32.910  26.548  1.00  0.00     0.034 A 
ATOM     62  C   UNL A   1      52.249  30.466  25.613  1.00  0.00     0.049 A 
ATOM     63  C   UNL A   1      47.597  33.538  26.276  1.00  0.00     0.074 A 
ATOM     64  C   UNL A   1      53.405  31.151  25.293  1.00  0.00     0.029 A 
ATOM     65  N   UNL A   1      51.239  31.409  25.723  1.00  0.00    -0.354 N 
ATOM     66  N   UNL A   1      48.749  32.954  26.045  1.00  0.00    -0.248 NA
ATOM     67  C   UNL A   1      47.649  35.007  26.229  1.00  0.00     0.031 C 
ATOM     68  C   UNL A   1      53.100  32.514  25.238  1.00  0.00     0.029 A 
ATOM     69  C   UNL A   1      51.748  32.675  25.496  1.00  0.00     0.049 A 
ATOM     70  H   UNL A   1      50.297  31.208  25.934  1.00  0.00     0.167 HD
ATOM     71  C   UNL A   1      49.657  33.980  25.803  1.00  0.00     0.074 A 
ATOM     72  C   UNL A   1      48.914  35.221  25.892  1.00  0.00     0.031 C 
ATOM     73  C   UNL A   1      50.987  33.900  25.548  1.00  0.00     0.034 A 
BRANCH  60  74
ATOM     74  C   UNL A   1      53.270  28.148  25.663  1.00  0.00     0.023 A 
ATOM     75  C   UNL A   1      53.675  27.746  24.371  1.00  0.00     0.012 A 
ATOM     76  C   UNL A   1      54.015  27.728  26.780  1.00  0.00     0.148 A 
ATOM     77  C   UNL A   1      54.773  26.908  24.196  1.00  0.00     0.002 A 
ATOM     78  C   UNL A   1      55.141  26.932  26.594  1.00  0.00     0.091 A 
ATOM     79  F   UNL A   1      53.605  28.099  28.000  1.00  0.00    -0.205 F 
ATOM     80  C   UNL A   1      55.513  26.511  25.306  1.00  0.00     0.022 A 
BRANCH  78  81
ATOM     81  S   UNL A   1      56.214  26.436  27.946  1.00  0.00     0.127 S 
ATOM     82  O   UNL A   1      55.315  25.602  28.744  1.00  0.00    -0.237 OA
ATOM     83  O   UNL A   1      57.268  25.701  27.248  1.00  0.00    -0.237 OA
ATOM     84  O   UNL A   1      56.651  27.669  28.586  1.00  0.00    -0.744 OA
ENDBRANCH  78  81
ENDBRANCH  60  74
BRANCH  61  85
ATOM     85  C   UNL A   1      45.016  33.735  26.641  1.00  0.00     0.023 A 
ATOM     86  C   UNL A   1      44.339  34.087  25.458  1.00  0.00     0.012 A 
ATOM     87  C   UNL A   1      44.465  34.105  27.884  1.00  0.00     0.148 A 
ATOM     88  C   UNL A   1      43.142  34.802  25.508  1.00  0.00     0.002 A 
ATOM     89  C   UNL A   1      43.244  34.770  27.928  1.00  0.00     0.091 A 
ATOM     90  F   UNL A   1      45.128  33.765  28.997  1.00  0.00    -0.205 F 
ATOM     91  C   UNL A   1      42.588  35.132  26.741  1.00  0.00     0.022 A 
BRANCH  89  92
ATOM     92  S   UNL A   1      42.383  35.121  29.467  1.00  0.00     0.127 S 
ATOM     93  O   UNL A   1      43.206  36.186  30.034  1.00  0.00    -0.237 OA
ATOM     94  O   UNL A   1      41.071  35.545  28.982  1.00  0.00    -0.237 OA
ATOM     95  O   UNL A   1      42.379  33.870  30.213  1.00  0.00    -0.744 OA
ENDBRANCH  89  92
ENDBRANCH  61  85
BRANCH  73  96
ATOM     96  C   UNL A   1      51.750  35.185  25.350  1.00  0.00     0.023 A 
ATOM     97  C   UNL A   1      51.889  35.712  24.051  1.00  0.00     0.012 A 
ATOM     98  C   UNL A   1      52.200  35.936  26.455  1.00  0.00     0.148 A 
ATOM     99  C   UNL A   1      52.477  36.961  23.854  1.00  0.00     0.002 A 
ATOM    100  C   UNL A   1      52.737  37.202  26.255  1.00  0.00     0.091 A 
ATOM    101  F   UNL A   1      52.067  35.410  27.682  1.00  0.00    -0.205 F 
ATOM    102  C   UNL A   1      52.885  37.711  24.954  1.00  0.00     0.022 A 
BRANCH 100 103
ATOM    103  S   UNL A   1      53.188  38.291  27.610  1.00  0.00     0.127 S 
ATOM    104  O   UNL A   1      53.675  39.470  26.895  1.00  0.00    -0.237 OA
ATOM    105  O   UNL A   1      51.909  38.478  28.294  1.00  0.00    -0.237 OA
ATOM    106  O   UNL A   1      54.195  37.578  28.384  1.00  0.00    -0.744 OA
ENDBRANCH 100 103
ENDBRANCH  73  96
ENDBRANCH  47  48
ENDBRANCH  39  42
ENDBRANCH  37  38
ENDBRANCH  36  37
ENDBRANCH  35  36
ENDBRANCH   1  35
TORSDOF 19
ENDMDL
MODEL 2
REMARK VINA RESULT:     -11.0      4.767      7.639
REMARK SMILES CC1=C(C(=O)OCC(C)C)[C@@H](c2ccc(C(=O)NCCCCNC(=O)c3ccc(-c4c5nc(c(-c6cccc(S(=O)(=O)[O-])c6F)c6ccc([nH]6)c(-c6cccc(S(=O)(=O)[O-])c6F)c6nc(c(-c7cccc(S(=O)(=O)[O-])c7F)c7ccc4[nH]7)C=C6)C=C5)cc3)cc2)c2c(n(C)c(=O)n(C)c2=O)N1
REMARK SMILES IDX 19 1 18 2 16 3 17 4 15 6 12 7 13 8 90 9 14 10 89 11 11 12
REMARK SMILES IDX 1 13 2 14 3 15 101 16 92 17 91 19 93 20 99 21 94 22 95 23
REMARK SMILES IDX 97 24 100 25 96 26 98 27 4 28 5 29 6 30 7 31 8 32 9 33 10 34
REMARK SMILES IDX 20 35 21 36 22 37 23 38 24 39 25 41 26 42 27 43 88 44 28 45
REMARK SMILES IDX 87 46 29 47 30 48 31 49 81 50 32 51 86 52 80 53 82 54 33 55
REMARK SMILES IDX 85 56 79 57 78 58 34 60 66 61 46 62 65 63 47 64 50 65 64 66
REMARK SMILES IDX 83 67 48 68 49 69 63 71 84 72 51 73 35 74 36 75 44 76 37 77
REMARK SMILES IDX 39 78 45 79 38 80 40 81 41 82 42 83 43 84 67 85 68 86 76 87
REMARK SMILES IDX 69 88 71 89 77 90 70 91 72 92 73 93 74 94 75 95 52 96 53 97
REMARK SMILES IDX 61 98 54 99 56 100 62 101 55 102 57 103 58 104 59 105 60 106
REMARK H PARENT 18 5 101 18 23 40 82 59 50 70
REMARK Flexibility Score: inf
ROOT
ATOM      1  C   UNL A   1      39.229  24.052  27.494  1.00  0.00     0.116 C 
ENDROOT
BRANCH   1   2
ATOM      2  N   UNL A   1      39.508  22.773  26.876  1.00  0.00    -0.352 N 
ATOM      3  C   UNL A   1      38.745  21.945  26.096  1.00  0.00     0.251 C 
ATOM      4  O   UNL A   1      39.267  20.900  25.703  1.00  0.00    -0.269 OA
ATOM      5  H   UNL A   1      40.417  22.436  27.051  1.00  0.00     0.163 HD
BRANCH   3   6
ATOM      6  C   UNL A   1      37.355  22.265  25.654  1.00  0.00     0.039 A 
ATOM      7  C   UNL A   1      34.640  22.703  24.992  1.00  0.00    -0.035 A 
ATOM      8  C   UNL A   1      35.013  22.407  26.311  1.00  0.00     0.005 A 
ATOM      9  C   UNL A   1      35.642  22.843  24.028  1.00  0.00     0.005 A 
ATOM     10  C   UNL A   1      36.353  22.179  26.632  1.00  0.00     0.014 A 
ATOM     11  C   UNL A   1      36.985  22.656  24.366  1.00  0.00     0.014 A 
BRANCH   7  12
ATOM     12  C   UNL A   1      33.175  22.884  24.588  1.00  0.00     0.098 C 
ATOM     13  C   UNL A   1      31.873  20.908  21.444  1.00  0.00     0.065 C 
ATOM     14  C   UNL A   1      32.358  21.951  22.418  1.00  0.00     0.025 C 
ATOM     15  C   UNL A   1      32.730  21.730  23.698  1.00  0.00     0.068 C 
ATOM     16  N   UNL A   1      32.363  23.251  21.924  1.00  0.00    -0.344 N 
ATOM     17  C   UNL A   1      32.604  24.399  22.665  1.00  0.00     0.123 A 
ATOM     18  H   UNL A   1      32.181  23.367  20.964  1.00  0.00     0.168 HD
ATOM     19  C   UNL A   1      32.963  24.250  23.952  1.00  0.00     0.071 A 
ATOM     20  N   UNL A   1      32.483  25.674  22.132  1.00  0.00    -0.282 N 
ATOM     21  C   UNL A   1      33.151  25.434  24.813  1.00  0.00     0.262 A 
ATOM     22  C   UNL A   1      32.049  25.840  20.752  1.00  0.00     0.157 C 
ATOM     23  C   UNL A   1      32.786  26.830  22.851  1.00  0.00     0.332 A 
ATOM     24  N   UNL A   1      33.174  26.650  24.168  1.00  0.00    -0.263 N 
ATOM     25  O   UNL A   1      33.252  25.305  26.030  1.00  0.00    -0.269 OA
ATOM     26  O   UNL A   1      32.695  27.956  22.354  1.00  0.00    -0.247 OA
ATOM     27  C   UNL A   1      33.497  27.838  24.935  1.00  0.00     0.158 C 
BRANCH  15  28
ATOM     28  C   UNL A   1      32.658  20.427  24.405  1.00  0.00     0.336 C 
ATOM     29  O   UNL A   1      31.861  20.214  25.306  1.00  0.00    -0.246 OA
BRANCH  28  30
ATOM     30  O   UNL A   1      33.610  19.573  23.959  1.00  0.00    -0.462 OA
BRANCH  30  31
ATOM     31  C   UNL A   1      34.181  18.682  24.934  1.00  0.00     0.236 C 
BRANCH  31  32
ATOM     32  C   UNL A   1      34.494  17.325  24.294  1.00  0.00     0.021 C 
ATOM     33  C   UNL A   1      34.190  16.170  25.247  1.00  0.00     0.011 C 
ATOM     34  C   UNL A   1      33.715  17.155  22.992  1.00  0.00     0.011 C 
ENDBRANCH  31  32
ENDBRANCH  30  31
ENDBRANCH  28  30
ENDBRANCH  15  28
ENDBRANCH   7  12
ENDBRANCH   3   6
ENDBRANCH   1   2
BRANCH   1  35
ATOM     35  C   UNL A   1      40.532  24.805  27.770  1.00  0.00     0.023 C 
BRANCH  35  36
ATOM     36  C   UNL A   1      40.377  26.326  27.769  1.00  0.00     0.023 C 
BRANCH  36  37
ATOM     37  C   UNL A   1      40.776  26.999  26.464  1.00  0.00     0.116 C 
BRANCH  37  38
ATOM     38  N   UNL A   1      41.951  26.402  25.843  1.00  0.00    -0.352 N 
ATOM     39  C   UNL A   1      43.244  26.864  25.876  1.00  0.00     0.251 C 
ATOM     40  H   UNL A   1      41.801  25.568  25.340  1.00  0.00     0.163 HD
ATOM     41  O   UNL A   1      44.126  26.324  25.219  1.00  0.00    -0.269 OA
BRANCH  39  42
ATOM     42  C   UNL A   1      43.531  28.054  26.697  1.00  0.00     0.039 A 
ATOM     43  C   UNL A   1      43.108  29.304  26.248  1.00  0.00     0.014 A 
ATOM     44  C   UNL A   1      44.119  27.900  27.955  1.00  0.00     0.014 A 
ATOM     45  C   UNL A   1      43.227  30.405  27.096  1.00  0.00     0.010 A 
ATOM     46  C   UNL A   1      44.155  28.979  28.828  1.00  0.00     0.010 A 
ATOM     47  C   UNL A   1      43.724  30.244  28.401  1.00  0.00    -0.014 A 
BRANCH  47  48
ATOM     48  C   UNL A   1      43.818  31.398  29.326  1.00  0.00     0.031 A 
ATOM     49  C   UNL A   1      44.997  32.325  29.241  1.00  0.00     0.074 A 
ATOM     50  C   UNL A   1      42.870  31.585  30.264  1.00  0.00     0.049 A 
ATOM     51  N   UNL A   1      45.251  33.398  29.943  1.00  0.00    -0.248 NA
ATOM     52  C   UNL A   1      46.041  31.994  28.255  1.00  0.00     0.031 C 
ATOM     53  C   UNL A   1      41.718  30.710  30.486  1.00  0.00     0.029 A 
ATOM     54  N   UNL A   1      42.726  32.570  31.207  1.00  0.00    -0.354 N 
ATOM     55  C   UNL A   1      46.481  33.859  29.492  1.00  0.00     0.074 A 
ATOM     56  C   UNL A   1      46.957  32.914  28.509  1.00  0.00     0.031 C 
ATOM     57  C   UNL A   1      40.965  31.218  31.475  1.00  0.00     0.029 A 
ATOM     58  C   UNL A   1      41.594  32.436  31.977  1.00  0.00     0.049 A 
ATOM     59  H   UNL A   1      43.373  33.304  31.323  1.00  0.00     0.167 HD
ATOM     60  C   UNL A   1      47.133  34.997  29.827  1.00  0.00     0.034 A 
ATOM     61  C   UNL A   1      41.111  33.217  32.965  1.00  0.00     0.034 A 
ATOM     62  C   UNL A   1      46.639  35.947  30.784  1.00  0.00     0.049 A 
ATOM     63  C   UNL A   1      41.858  34.471  33.331  1.00  0.00     0.074 A 
ATOM     64  C   UNL A   1      47.191  37.159  31.153  1.00  0.00     0.029 A 
ATOM     65  N   UNL A   1      45.478  35.791  31.525  1.00  0.00    -0.354 N 
ATOM     66  N   UNL A   1      42.945  34.971  32.792  1.00  0.00    -0.248 NA
ATOM     67  C   UNL A   1      41.302  35.285  34.422  1.00  0.00     0.031 C 
ATOM     68  C   UNL A   1      46.379  37.721  32.142  1.00  0.00     0.029 A 
ATOM     69  C   UNL A   1      45.305  36.875  32.367  1.00  0.00     0.049 A 
ATOM     70  H   UNL A   1      44.866  35.020  31.463  1.00  0.00     0.167 HD
ATOM     71  C   UNL A   1      43.190  36.166  33.460  1.00  0.00     0.074 A 
ATOM     72  C   UNL A   1      42.124  36.327  34.427  1.00  0.00     0.031 C 
ATOM     73  C   UNL A   1      44.215  37.040  33.297  1.00  0.00     0.034 A 
BRANCH  60  74
ATOM     74  C   UNL A   1      48.417  35.301  29.098  1.00  0.00     0.023 A 
ATOM     75  C   UNL A   1      49.649  35.087  29.754  1.00  0.00     0.012 A 
ATOM     76  C   UNL A   1      48.415  35.752  27.765  1.00  0.00     0.148 A 
ATOM     77  C   UNL A   1      50.855  35.358  29.112  1.00  0.00     0.002 A 
ATOM     78  C   UNL A   1      49.624  35.971  27.113  1.00  0.00     0.091 A 
ATOM     79  F   UNL A   1      47.237  35.971  27.165  1.00  0.00    -0.205 F 
ATOM     80  C   UNL A   1      50.843  35.788  27.788  1.00  0.00     0.022 A 
BRANCH  78  81
ATOM     81  S   UNL A   1      49.722  36.444  25.383  1.00  0.00     0.127 S 
ATOM     82  O   UNL A   1      51.132  36.816  25.260  1.00  0.00    -0.237 OA
ATOM     83  O   UNL A   1      49.359  35.200  24.704  1.00  0.00    -0.237 OA
ATOM     84  O   UNL A   1      48.772  37.533  25.209  1.00  0.00    -0.744 OA
ENDBRANCH  78  81
ENDBRANCH  60  74
BRANCH  61  85
ATOM     85  C   UNL A   1      39.801  32.880  33.594  1.00  0.00     0.023 A 
ATOM     86  C   UNL A   1      39.788  32.107  34.771  1.00  0.00     0.012 A 
ATOM     87  C   UNL A   1      38.585  33.378  33.085  1.00  0.00     0.148 A 
ATOM     88  C   UNL A   1      38.587  31.824  35.424  1.00  0.00     0.002 A 
ATOM     89  C   UNL A   1      37.399  33.139  33.771  1.00  0.00     0.091 A 
ATOM     90  F   UNL A   1      38.620  34.107  31.961  1.00  0.00    -0.205 F 
ATOM     91  C   UNL A   1      37.396  32.350  34.933  1.00  0.00     0.022 A 
BRANCH  89  92
ATOM     92  S   UNL A   1      35.834  33.882  33.294  1.00  0.00     0.127 S 
ATOM     93  O   UNL A   1      36.060  35.289  33.617  1.00  0.00    -0.237 OA
ATOM     94  O   UNL A   1      35.784  33.577  31.865  1.00  0.00    -0.237 OA
ATOM     95  O   UNL A   1      34.817  33.213  34.094  1.00  0.00    -0.744 OA
ENDBRANCH  89  92
ENDBRANCH  61  85
BRANCH  73  96
ATOM     96  C   UNL A   1      44.256  38.259  34.184  1.00  0.00     0.023 A 
ATOM     97  C   UNL A   1      45.020  38.227  35.366  1.00  0.00     0.012 A 
ATOM     98  C   UNL A   1      43.660  39.470  33.776  1.00  0.00     0.148 A 
ATOM     99  C   UNL A   1      45.179  39.378  36.138  1.00  0.00     0.002 A 
ATOM    100  C   UNL A   1      43.866  40.625  34.521  1.00  0.00     0.091 A 
ATOM    101  F   UNL A   1      42.928  39.475  32.652  1.00  0.00    -0.205 F 
ATOM    102  C   UNL A   1      44.618  40.578  35.707  1.00  0.00     0.022 A 
BRANCH 100 103
ATOM    103  S   UNL A   1      43.280  42.238  33.994  1.00  0.00     0.127 S 
ATOM    104  O   UNL A   1      41.849  41.994  33.821  1.00  0.00    -0.237 OA
ATOM    105  O   UNL A   1      43.621  43.079  35.141  1.00  0.00    -0.237 OA
ATOM    106  O   UNL A   1      44.006  42.553  32.770  1.00  0.00    -0.744 OA
ENDBRANCH 100 103
ENDBRANCH  73  96
ENDBRANCH  47  48
ENDBRANCH  39  42
ENDBRANCH  37  38
ENDBRANCH  36  37
ENDBRANCH  35  36
ENDBRANCH   1  35
TORSDOF 19
ENDMDL
MODEL 3
REMARK VINA RESULT:     -10.6      7.322      9.624
REMARK SMILES CC1=C(C(=O)OCC(C)C)[C@@H](c2ccc(C(=O)NCCCCNC(=O)c3ccc(-c4c5nc(c(-c6cccc(S(=O)(=O)[O-])c6F)c6ccc([nH]6)c(-c6cccc(S(=O)(=O)[O-])c6F)c6nc(c(-c7cccc(S(=O)(=O)[O-])c7F)c7ccc4[nH]7)C=C6)C=C5)cc3)cc2)c2c(n(C)c(=O)n(C)c2=O)N1
REMARK SMILES IDX 19 1 18 2 16 3 17 4 15 6 12 7 13 8 90 9 14 10 89 11 11 12
REMARK SMILES IDX 1 13 2 14 3 15 101 16 92 17 91 19 93 20 99 21 94 22 95 23
REMARK SMILES IDX 97 24 100 25 96 26 98 27 4 28 5 29 6 30 7 31 8 32 9 33 10 34
REMARK SMILES IDX 20 35 21 36 22 37 23 38 24 39 25 41 26 42 27 43 88 44 28 45
REMARK SMILES IDX 87 46 29 47 30 48 31 49 81 50 32 51 86 52 80 53 82 54 33 55
REMARK SMILES IDX 85 56 79 57 78 58 34 60 66 61 46 62 65 63 47 64 50 65 64 66
REMARK SMILES IDX 83 67 48 68 49 69 63 71 84 72 51 73 35 74 36 75 44 76 37 77
REMARK SMILES IDX 39 78 45 79 38 80 40 81 41 82 42 83 43 84 67 85 68 86 76 87
REMARK SMILES IDX 69 88 71 89 77 90 70 91 72 92 73 93 74 94 75 95 52 96 53 97
REMARK SMILES IDX 61 98 54 99 56 100 62 101 55 102 57 103 58 104 59 105 60 106
REMARK H PARENT 18 5 101 18 23 40 82 59 50 70
REMARK Flexibility Score: inf
ROOT
ATOM      1  C   UNL A   1      39.609  23.997  27.024  1.00  0.00     0.116 C 
ENDROOT
BRANCH   1   2
ATOM      2  N   UNL A   1      39.754  22.634  26.559  1.00  0.00    -0.352 N 
ATOM      3  C   UNL A   1      38.894  21.790  25.909  1.00  0.00     0.251 C 
ATOM      4  O   UNL A   1      39.309  20.663  25.632  1.00  0.00    -0.269 OA
ATOM      5  H   UNL A   1      40.637  22.240  26.748  1.00  0.00     0.163 HD
BRANCH   3   6
ATOM      6  C   UNL A   1      37.520  22.177  25.470  1.00  0.00     0.039 A 
ATOM      7  C   UNL A   1      34.827  22.770  24.834  1.00  0.00    -0.035 A 
ATOM      8  C   UNL A   1      35.220  22.584  26.168  1.00  0.00     0.005 A 
ATOM      9  C   UNL A   1      35.805  22.723  23.835  1.00  0.00     0.005 A 
ATOM     10  C   UNL A   1      36.548  22.280  26.477  1.00  0.00     0.014 A 
ATOM     11  C   UNL A   1      37.138  22.461  24.157  1.00  0.00     0.014 A 
BRANCH   7  12
ATOM     12  C   UNL A   1      33.370  23.031  24.450  1.00  0.00     0.098 C 
ATOM     13  C   UNL A   1      31.818  20.883  21.541  1.00  0.00     0.065 C 
ATOM     14  C   UNL A   1      32.414  21.969  22.399  1.00  0.00     0.025 C 
ATOM     15  C   UNL A   1      32.808  21.838  23.685  1.00  0.00     0.068 C 
ATOM     16  N   UNL A   1      32.505  23.213  21.784  1.00  0.00    -0.344 N 
ATOM     17  C   UNL A   1      32.857  24.402  22.406  1.00  0.00     0.123 A 
ATOM     18  H   UNL A   1      32.302  23.254  20.821  1.00  0.00     0.168 HD
ATOM     19  C   UNL A   1      33.244  24.344  23.693  1.00  0.00     0.071 A 
ATOM     20  N   UNL A   1      32.820  25.627  21.758  1.00  0.00    -0.282 N 
ATOM     21  C   UNL A   1      33.551  25.584  24.433  1.00  0.00     0.262 A 
ATOM     22  C   UNL A   1      32.356  25.699  20.379  1.00  0.00     0.157 C 
ATOM     23  C   UNL A   1      33.234  26.817  22.356  1.00  0.00     0.332 A 
ATOM     24  N   UNL A   1      33.649  26.729  23.674  1.00  0.00    -0.263 N 
ATOM     25  O   UNL A   1      33.680  25.560  25.654  1.00  0.00    -0.269 OA
ATOM     26  O   UNL A   1      33.215  27.896  21.757  1.00  0.00    -0.247 OA
ATOM     27  C   UNL A   1      34.088  27.954  24.317  1.00  0.00     0.158 C 
BRANCH  15  28
ATOM     28  C   UNL A   1      32.657  20.617  24.513  1.00  0.00     0.336 C 
ATOM     29  O   UNL A   1      31.812  20.520  25.390  1.00  0.00    -0.246 OA
BRANCH  28  30
ATOM     30  O   UNL A   1      33.598  19.694  24.204  1.00  0.00    -0.462 OA
BRANCH  30  31
ATOM     31  C   UNL A   1      33.614  18.498  25.004  1.00  0.00     0.236 C 
BRANCH  31  32
ATOM     32  C   UNL A   1      33.050  17.317  24.207  1.00  0.00     0.021 C 
ATOM     33  C   UNL A   1      33.719  17.193  22.839  1.00  0.00     0.011 C 
ATOM     34  C   UNL A   1      33.209  16.017  24.993  1.00  0.00     0.011 C 
ENDBRANCH  31  32
ENDBRANCH  30  31
ENDBRANCH  28  30
ENDBRANCH  15  28
ENDBRANCH   7  12
ENDBRANCH   3   6
ENDBRANCH   1   2
BRANCH   1  35
ATOM     35  C   UNL A   1      40.982  24.648  27.200  1.00  0.00     0.023 C 
BRANCH  35  36
ATOM     36  C   UNL A   1      41.850  24.607  25.941  1.00  0.00     0.023 C 
BRANCH  36  37
ATOM     37  C   UNL A   1      43.076  25.507  25.991  1.00  0.00     0.116 C 
BRANCH  37  38
ATOM     38  N   UNL A   1      42.803  26.877  25.574  1.00  0.00    -0.352 N 
ATOM     39  C   UNL A   1      42.752  27.999  26.363  1.00  0.00     0.251 C 
ATOM     40  H   UNL A   1      42.636  27.013  24.613  1.00  0.00     0.163 HD
ATOM     41  O   UNL A   1      42.405  29.081  25.903  1.00  0.00    -0.269 OA
BRANCH  39  42
ATOM     42  C   UNL A   1      43.092  27.856  27.789  1.00  0.00     0.039 A 
ATOM     43  C   UNL A   1      44.391  28.141  28.208  1.00  0.00     0.014 A 
ATOM     44  C   UNL A   1      42.088  27.547  28.712  1.00  0.00     0.014 A 
ATOM     45  C   UNL A   1      44.673  28.170  29.574  1.00  0.00     0.010 A 
ATOM     46  C   UNL A   1      42.351  27.663  30.070  1.00  0.00     0.010 A 
ATOM     47  C   UNL A   1      43.648  27.960  30.513  1.00  0.00    -0.014 A 
BRANCH  47  48
ATOM     48  C   UNL A   1      43.925  28.028  31.968  1.00  0.00     0.031 A 
ATOM     49  C   UNL A   1      44.474  26.823  32.677  1.00  0.00     0.074 A 
ATOM     50  C   UNL A   1      43.645  29.153  32.652  1.00  0.00     0.049 A 
ATOM     51  N   UNL A   1      44.802  26.689  33.935  1.00  0.00    -0.248 NA
ATOM     52  C   UNL A   1      44.659  25.600  31.876  1.00  0.00     0.031 C 
ATOM     53  C   UNL A   1      43.045  30.360  32.082  1.00  0.00     0.029 A 
ATOM     54  N   UNL A   1      43.825  29.464  33.976  1.00  0.00    -0.354 N 
ATOM     55  C   UNL A   1      45.218  25.371  34.076  1.00  0.00     0.074 A 
ATOM     56  C   UNL A   1      45.035  24.727  32.797  1.00  0.00     0.031 C 
ATOM     57  C   UNL A   1      42.941  31.294  33.042  1.00  0.00     0.029 A 
ATOM     58  C   UNL A   1      43.439  30.743  34.300  1.00  0.00     0.049 A 
ATOM     59  H   UNL A   1      44.194  28.830  34.633  1.00  0.00     0.167 HD
ATOM     60  C   UNL A   1      45.756  24.764  35.161  1.00  0.00     0.034 A 
ATOM     61  C   UNL A   1      43.495  31.403  35.475  1.00  0.00     0.034 A 
ATOM     62  C   UNL A   1      45.962  25.421  36.421  1.00  0.00     0.049 A 
ATOM     63  C   UNL A   1      44.084  30.706  36.672  1.00  0.00     0.074 A 
ATOM     64  C   UNL A   1      46.551  24.916  37.564  1.00  0.00     0.029 A 
ATOM     65  N   UNL A   1      45.582  26.723  36.705  1.00  0.00    -0.354 N 
ATOM     66  N   UNL A   1      44.611  29.507  36.751  1.00  0.00    -0.248 NA
ATOM     67  C   UNL A   1      44.114  31.458  37.935  1.00  0.00     0.031 C 
ATOM     68  C   UNL A   1      46.500  25.904  38.551  1.00  0.00     0.029 A 
ATOM     69  C   UNL A   1      45.906  27.036  38.013  1.00  0.00     0.049 A 
ATOM     70  H   UNL A   1      45.144  27.336  36.069  1.00  0.00     0.167 HD
ATOM     71  C   UNL A   1      45.054  29.368  38.062  1.00  0.00     0.074 A 
ATOM     72  C   UNL A   1      44.756  30.616  38.735  1.00  0.00     0.031 C 
ATOM     73  C   UNL A   1      45.639  28.298  38.658  1.00  0.00     0.034 A 
BRANCH  60  74
ATOM     74  C   UNL A   1      46.218  23.339  34.999  1.00  0.00     0.023 A 
ATOM     75  C   UNL A   1      45.261  22.300  34.997  1.00  0.00     0.012 A 
ATOM     76  C   UNL A   1      47.576  23.025  34.808  1.00  0.00     0.148 A 
ATOM     77  C   UNL A   1      45.652  20.971  34.851  1.00  0.00     0.002 A 
ATOM     78  C   UNL A   1      47.954  21.701  34.612  1.00  0.00     0.091 A 
ATOM     79  F   UNL A   1      48.474  24.020  34.835  1.00  0.00    -0.205 F 
ATOM     80  C   UNL A   1      46.996  20.673  34.647  1.00  0.00     0.022 A 
BRANCH  78  81
ATOM     81  S   UNL A   1      49.646  21.216  34.255  1.00  0.00     0.127 S 
ATOM     82  O   UNL A   1      50.279  21.371  35.565  1.00  0.00    -0.237 OA
ATOM     83  O   UNL A   1      49.481  19.829  33.818  1.00  0.00    -0.237 OA
ATOM     84  O   UNL A   1      50.116  22.128  33.222  1.00  0.00    -0.744 OA
ENDBRANCH  78  81
ENDBRANCH  60  74
BRANCH  61  85
ATOM     85  C   UNL A   1      43.075  32.833  35.536  1.00  0.00     0.023 A 
ATOM     86  C   UNL A   1      44.013  33.835  35.221  1.00  0.00     0.012 A 
ATOM     87  C   UNL A   1      41.747  33.203  35.828  1.00  0.00     0.148 A 
ATOM     88  C   UNL A   1      43.641  35.180  35.205  1.00  0.00     0.002 A 
ATOM     89  C   UNL A   1      41.370  34.540  35.757  1.00  0.00     0.091 A 
ATOM     90  F   UNL A   1      40.872  32.235  36.131  1.00  0.00    -0.205 F 
ATOM     91  C   UNL A   1      42.319  35.531  35.460  1.00  0.00     0.022 A 
BRANCH  89  92
ATOM     92  S   UNL A   1      39.666  35.080  35.936  1.00  0.00     0.127 S 
ATOM     93  O   UNL A   1      39.387  34.734  37.328  1.00  0.00    -0.237 OA
ATOM     94  O   UNL A   1      39.779  36.513  35.667  1.00  0.00    -0.237 OA
ATOM     95  O   UNL A   1      38.906  34.334  34.942  1.00  0.00    -0.744 OA
ENDBRANCH  89  92
ENDBRANCH  61  85
BRANCH  73  96
ATOM     96  C   UNL A   1      45.998  28.407  40.118  1.00  0.00     0.023 A 
ATOM     97  C   UNL A   1      45.108  27.905  41.087  1.00  0.00     0.012 A 
ATOM     98  C   UNL A   1      47.269  28.870  40.517  1.00  0.00     0.148 A 
ATOM     99  C   UNL A   1      45.471  27.876  42.433  1.00  0.00     0.002 A 
ATOM    100  C   UNL A   1      47.643  28.789  41.852  1.00  0.00     0.091 A 
ATOM    101  F   UNL A   1      48.096  29.353  39.578  1.00  0.00    -0.205 F 
ATOM    102  C   UNL A   1      46.742  28.301  42.813  1.00  0.00     0.022 A 
BRANCH 100 103
ATOM    103  S   UNL A   1      49.293  29.206  42.425  1.00  0.00     0.127 S 
ATOM    104  O   UNL A   1      50.120  28.278  41.656  1.00  0.00    -0.237 OA
ATOM    105  O   UNL A   1      49.414  30.607  42.023  1.00  0.00    -0.237 OA
ATOM    106  O   UNL A   1      49.290  28.983  43.865  1.00  0.00    -0.744 OA
ENDBRANCH 100 103
ENDBRANCH  73  96
ENDBRANCH  47  48
ENDBRANCH  39  42
ENDBRANCH  37  38
ENDBRANCH  36  37
ENDBRANCH  35  36
ENDBRANCH   1  35
TORSDOF 19
ENDMDL
