MODEL 1
REMARK VINA RESULT:     -13.2      0.000      0.000
REMARK SMILES COc1ccc(Cl)cc1C(=O)Nc1ccc(C(=O)NCCCCNC(=O)c2ccc(-c3c4nc(c(-c5cccc(S(=O)(=O)[O-])c5F)c5ccc([nH]5)c(-c5cccc(S(=O)(=O)[O-])c5F)c5nc(c(-c6cccc(S(=O)(=O)[O-])c6F)c6ccc3[nH]6)C=C5)C=C4)cc2)cc1C
REMARK SMILES IDX 21 1 20 2 19 3 17 4 18 5 16 7 13 8 14 9 91 10 15 11 90 12
REMARK SMILES IDX 92 13 12 14 10 15 11 16 9 18 3 19 4 20 5 21 8 22 6 23 7 24
REMARK SMILES IDX 2 25 1 26 22 27 23 28 24 29 25 30 26 32 27 33 28 34 89 35
REMARK SMILES IDX 29 36 88 37 30 38 31 39 32 40 82 41 33 42 87 43 81 44 83 45
REMARK SMILES IDX 34 46 86 47 80 48 79 49 35 51 67 52 47 53 66 54 48 55 51 56
REMARK SMILES IDX 65 57 84 58 49 59 50 60 64 62 85 63 52 64 36 65 37 66 45 67
REMARK SMILES IDX 38 68 40 69 46 70 39 71 41 72 42 73 43 74 44 75 68 76 69 77
REMARK SMILES IDX 77 78 70 79 72 80 78 81 71 82 73 83 74 84 75 85 76 86 53 87
REMARK SMILES IDX 54 88 62 89 55 90 57 91 63 92 56 93 58 94 59 95 60 96 61 97
REMARK H PARENT 19 6 12 17 24 31 83 50 51 61
REMARK Flexibility Score: inf
ROOT
ATOM      1  C   UNL A   1      37.058  20.955  24.542  1.00  0.00     0.023 C 
ENDROOT
BRANCH   1   2
ATOM      2  C   UNL A   1      35.829  21.098  25.451  1.00  0.00     0.116 C 
BRANCH   2   3
ATOM      3  N   UNL A   1      34.819  20.108  25.110  1.00  0.00    -0.352 N 
ATOM      4  C   UNL A   1      33.488  20.209  24.792  1.00  0.00     0.251 C 
ATOM      5  O   UNL A   1      32.849  19.169  24.629  1.00  0.00    -0.269 OA
ATOM      6  H   UNL A   1      35.157  19.184  25.108  1.00  0.00     0.163 HD
BRANCH   4   7
ATOM      7  C   UNL A   1      32.831  21.516  24.510  1.00  0.00     0.040 A 
ATOM      8  C   UNL A   1      31.017  23.582  24.016  1.00  0.00     0.044 A 
ATOM      9  C   UNL A   1      31.846  23.119  22.996  1.00  0.00     0.027 A 
ATOM     10  C   UNL A   1      31.241  23.176  25.342  1.00  0.00    -0.027 A 
ATOM     11  C   UNL A   1      32.793  22.128  23.261  1.00  0.00     0.016 A 
ATOM     12  C   UNL A   1      32.114  22.099  25.564  1.00  0.00     0.019 A 
ATOM     13  C   UNL A   1      30.464  23.694  26.520  1.00  0.00     0.046 C 
BRANCH   8  14
ATOM     14  N   UNL A   1      29.970  24.458  23.734  1.00  0.00    -0.322 N 
ATOM     15  C   UNL A   1      29.820  25.810  23.933  1.00  0.00     0.259 C 
ATOM     16  O   UNL A   1      28.662  26.238  23.847  1.00  0.00    -0.269 OA
ATOM     17  H   UNL A   1      29.190  24.028  23.313  1.00  0.00     0.170 HD
BRANCH  15  18
ATOM     18  C   UNL A   1      30.922  26.815  24.137  1.00  0.00     0.083 A 
ATOM     19  C   UNL A   1      31.771  27.379  23.162  1.00  0.00     0.131 A 
ATOM     20  C   UNL A   1      32.650  28.422  23.526  1.00  0.00     0.049 A 
ATOM     21  C   UNL A   1      32.674  28.934  24.822  1.00  0.00     0.024 A 
ATOM     22  C   UNL A   1      30.967  27.353  25.444  1.00  0.00     0.038 A 
ATOM     23  C   UNL A   1      31.820  28.404  25.775  1.00  0.00     0.042 A 
ATOM     24  Cl  UNL A   1      31.777  29.082  27.354  1.00  0.00    -0.084 Cl
BRANCH  19  25
ATOM     25  O   UNL A   1      31.660  26.998  21.851  1.00  0.00    -0.496 OA
ATOM     26  C   UNL A   1      32.633  26.056  21.390  1.00  0.00     0.278 C 
ENDBRANCH  19  25
ENDBRANCH  15  18
ENDBRANCH   8  14
ENDBRANCH   4   7
ENDBRANCH   2   3
ENDBRANCH   1   2
BRANCH   1  27
ATOM     27  C   UNL A   1      38.364  20.754  25.309  1.00  0.00     0.023 C 
BRANCH  27  28
ATOM     28  C   UNL A   1      38.743  21.953  26.158  1.00  0.00     0.116 C 
BRANCH  28  29
ATOM     29  N   UNL A   1      40.160  22.050  26.426  1.00  0.00    -0.352 N 
ATOM     30  C   UNL A   1      40.970  23.169  26.549  1.00  0.00     0.251 C 
ATOM     31  H   UNL A   1      40.622  21.187  26.538  1.00  0.00     0.163 HD
ATOM     32  O   UNL A   1      42.172  23.007  26.500  1.00  0.00    -0.269 OA
BRANCH  30  33
ATOM     33  C   UNL A   1      40.380  24.498  26.895  1.00  0.00     0.039 A 
ATOM     34  C   UNL A   1      40.834  25.605  26.163  1.00  0.00     0.014 A 
ATOM     35  C   UNL A   1      39.621  24.705  28.040  1.00  0.00     0.014 A 
ATOM     36  C   UNL A   1      40.785  26.878  26.726  1.00  0.00     0.010 A 
ATOM     37  C   UNL A   1      39.650  25.938  28.646  1.00  0.00     0.010 A 
ATOM     38  C   UNL A   1      40.313  26.996  28.023  1.00  0.00    -0.014 A 
BRANCH  38  39
ATOM     39  C   UNL A   1      40.489  28.152  28.878  1.00  0.00     0.031 A 
ATOM     40  C   UNL A   1      39.599  29.308  28.738  1.00  0.00     0.074 A 
ATOM     41  C   UNL A   1      41.263  27.987  29.975  1.00  0.00     0.049 A 
ATOM     42  N   UNL A   1      39.782  30.417  29.363  1.00  0.00    -0.248 NA
ATOM     43  C   UNL A   1      38.440  29.320  27.852  1.00  0.00     0.031 C 
ATOM     44  C   UNL A   1      41.225  28.741  31.220  1.00  0.00     0.029 A 
ATOM     45  N   UNL A   1      42.405  27.187  30.098  1.00  0.00    -0.354 N 
ATOM     46  C   UNL A   1      38.609  31.126  29.255  1.00  0.00     0.074 A 
ATOM     47  C   UNL A   1      37.895  30.499  28.173  1.00  0.00     0.031 C 
ATOM     48  C   UNL A   1      42.401  28.594  31.849  1.00  0.00     0.029 A 
ATOM     49  C   UNL A   1      43.286  27.910  30.922  1.00  0.00     0.049 A 
ATOM     50  H   UNL A   1      42.560  26.303  29.693  1.00  0.00     0.167 HD
ATOM     51  C   UNL A   1      38.323  32.037  30.225  1.00  0.00     0.034 A 
ATOM     52  C   UNL A   1      44.486  28.390  30.482  1.00  0.00     0.034 A 
ATOM     53  C   UNL A   1      39.505  32.280  31.076  1.00  0.00     0.049 A 
ATOM     54  C   UNL A   1      44.594  29.907  30.573  1.00  0.00     0.074 A 
ATOM     55  C   UNL A   1      39.842  31.964  32.381  1.00  0.00     0.029 A 
ATOM     56  N   UNL A   1      40.679  32.731  30.477  1.00  0.00    -0.354 N 
ATOM     57  N   UNL A   1      43.651  30.710  30.985  1.00  0.00    -0.248 NA
ATOM     58  C   UNL A   1      45.783  30.635  30.152  1.00  0.00     0.031 C 
ATOM     59  C   UNL A   1      41.248  32.161  32.535  1.00  0.00     0.029 A 
ATOM     60  C   UNL A   1      41.760  32.642  31.342  1.00  0.00     0.049 A 
ATOM     61  H   UNL A   1      40.734  33.071  29.555  1.00  0.00     0.167 HD
ATOM     62  C   UNL A   1      43.999  32.020  30.740  1.00  0.00     0.074 A 
ATOM     63  C   UNL A   1      45.378  31.910  30.285  1.00  0.00     0.031 C 
ATOM     64  C   UNL A   1      43.091  33.050  30.873  1.00  0.00     0.034 A 
BRANCH  51  65
ATOM     65  C   UNL A   1      36.940  32.587  30.552  1.00  0.00     0.023 A 
ATOM     66  C   UNL A   1      36.432  32.311  31.843  1.00  0.00     0.012 A 
ATOM     67  C   UNL A   1      36.051  33.260  29.676  1.00  0.00     0.148 A 
ATOM     68  C   UNL A   1      35.132  32.660  32.234  1.00  0.00     0.002 A 
ATOM     69  C   UNL A   1      34.775  33.666  30.086  1.00  0.00     0.091 A 
ATOM     70  F   UNL A   1      36.374  33.446  28.396  1.00  0.00    -0.205 F 
ATOM     71  C   UNL A   1      34.305  33.351  31.360  1.00  0.00     0.022 A 
BRANCH  69  72
ATOM     72  S   UNL A   1      33.666  34.606  29.015  1.00  0.00     0.127 S 
ATOM     73  O   UNL A   1      33.267  33.600  28.030  1.00  0.00    -0.237 OA
ATOM     74  O   UNL A   1      32.603  35.007  29.936  1.00  0.00    -0.237 OA
ATOM     75  O   UNL A   1      34.449  35.714  28.482  1.00  0.00    -0.744 OA
ENDBRANCH  69  72
ENDBRANCH  51  65
BRANCH  52  76
ATOM     76  C   UNL A   1      45.103  27.536  29.417  1.00  0.00     0.023 A 
ATOM     77  C   UNL A   1      45.498  26.230  29.799  1.00  0.00     0.012 A 
ATOM     78  C   UNL A   1      44.908  27.812  28.052  1.00  0.00     0.148 A 
ATOM     79  C   UNL A   1      45.529  25.191  28.867  1.00  0.00     0.002 A 
ATOM     80  C   UNL A   1      44.953  26.769  27.126  1.00  0.00     0.091 A 
ATOM     81  F   UNL A   1      44.596  29.061  27.687  1.00  0.00    -0.205 F 
ATOM     82  C   UNL A   1      45.214  25.453  27.538  1.00  0.00     0.022 A 
BRANCH  80  83
ATOM     83  S   UNL A   1      44.550  27.040  25.394  1.00  0.00     0.127 S 
ATOM     84  O   UNL A   1      45.849  27.427  24.850  1.00  0.00    -0.237 OA
ATOM     85  O   UNL A   1      44.072  25.726  24.969  1.00  0.00    -0.237 OA
ATOM     86  O   UNL A   1      43.523  28.071  25.411  1.00  0.00    -0.744 OA
ENDBRANCH  80  83
ENDBRANCH  52  76
BRANCH  64  87
ATOM     87  C   UNL A   1      43.307  34.534  30.518  1.00  0.00     0.023 A 
ATOM     88  C   UNL A   1      43.515  35.542  31.477  1.00  0.00     0.012 A 
ATOM     89  C   UNL A   1      43.336  34.980  29.163  1.00  0.00     0.148 A 
ATOM     90  C   UNL A   1      43.799  36.873  31.137  1.00  0.00     0.002 A 
ATOM     91  C   UNL A   1      43.678  36.290  28.822  1.00  0.00     0.091 A 
ATOM     92  F   UNL A   1      42.966  34.157  28.173  1.00  0.00    -0.205 F 
ATOM     93  C   UNL A   1      43.911  37.242  29.809  1.00  0.00     0.022 A 
BRANCH  91  94
ATOM     94  S   UNL A   1      43.907  36.791  27.107  1.00  0.00     0.127 S 
ATOM     95  O   UNL A   1      44.233  38.209  27.253  1.00  0.00    -0.237 OA
ATOM     96  O   UNL A   1      45.028  35.949  26.686  1.00  0.00    -0.237 OA
ATOM     97  O   UNL A   1      42.648  36.487  26.442  1.00  0.00    -0.744 OA
ENDBRANCH  91  94
ENDBRANCH  64  87
ENDBRANCH  38  39
ENDBRANCH  30  33
ENDBRANCH  28  29
ENDBRANCH  27  28
ENDBRANCH   1  27
TORSDOF 17
ENDMDL
MODEL 2
REMARK VINA RESULT:     -12.9      3.922      9.491
REMARK SMILES COc1ccc(Cl)cc1C(=O)Nc1ccc(C(=O)NCCCCNC(=O)c2ccc(-c3c4nc(c(-c5cccc(S(=O)(=O)[O-])c5F)c5ccc([nH]5)c(-c5cccc(S(=O)(=O)[O-])c5F)c5nc(c(-c6cccc(S(=O)(=O)[O-])c6F)c6ccc3[nH]6)C=C5)C=C4)cc2)cc1C
REMARK SMILES IDX 21 1 20 2 19 3 17 4 18 5 16 7 13 8 14 9 91 10 15 11 90 12
REMARK SMILES IDX 92 13 12 14 10 15 11 16 9 18 3 19 4 20 5 21 8 22 6 23 7 24
REMARK SMILES IDX 2 25 1 26 22 27 23 28 24 29 25 30 26 32 27 33 28 34 89 35
REMARK SMILES IDX 29 36 88 37 30 38 31 39 32 40 82 41 33 42 87 43 81 44 83 45
REMARK SMILES IDX 34 46 86 47 80 48 79 49 35 51 67 52 47 53 66 54 48 55 51 56
REMARK SMILES IDX 65 57 84 58 49 59 50 60 64 62 85 63 52 64 36 65 37 66 45 67
REMARK SMILES IDX 38 68 40 69 46 70 39 71 41 72 42 73 43 74 44 75 68 76 69 77
REMARK SMILES IDX 77 78 70 79 72 80 78 81 71 82 73 83 74 84 75 85 76 86 53 87
REMARK SMILES IDX 54 88 62 89 55 90 57 91 63 92 56 93 58 94 59 95 60 96 61 97
REMARK H PARENT 19 6 12 17 24 31 83 50 51 61
REMARK Flexibility Score: inf
ROOT
ATOM      1  C   UNL A   1      31.766  29.413  25.797  1.00  0.00     0.023 C 
ENDROOT
BRANCH   1   2
ATOM      2  C   UNL A   1      31.050  29.557  24.446  1.00  0.00     0.116 C 
BRANCH   2   3
ATOM      3  N   UNL A   1      31.981  29.357  23.347  1.00  0.00    -0.352 N 
ATOM      4  C   UNL A   1      32.939  28.407  23.101  1.00  0.00     0.251 C 
ATOM      5  O   UNL A   1      33.650  28.541  22.106  1.00  0.00    -0.269 OA
ATOM      6  H   UNL A   1      31.910  30.038  22.640  1.00  0.00     0.163 HD
BRANCH   4   7
ATOM      7  C   UNL A   1      33.058  27.163  23.914  1.00  0.00     0.040 A 
ATOM      8  C   UNL A   1      32.742  25.113  25.785  1.00  0.00     0.044 A 
ATOM      9  C   UNL A   1      33.852  25.953  25.847  1.00  0.00     0.027 A 
ATOM     10  C   UNL A   1      31.900  25.144  24.662  1.00  0.00    -0.027 A 
ATOM     11  C   UNL A   1      34.038  26.938  24.876  1.00  0.00     0.016 A 
ATOM     12  C   UNL A   1      32.038  26.213  23.762  1.00  0.00     0.019 A 
ATOM     13  C   UNL A   1      30.737  24.212  24.459  1.00  0.00     0.046 C 
BRANCH   8  14
ATOM     14  N   UNL A   1      32.465  24.228  26.826  1.00  0.00    -0.322 N 
ATOM     15  C   UNL A   1      32.810  22.915  27.037  1.00  0.00     0.259 C 
ATOM     16  O   UNL A   1      32.163  22.325  27.912  1.00  0.00    -0.269 OA
ATOM     17  H   UNL A   1      31.918  24.617  27.547  1.00  0.00     0.170 HD
BRANCH  15  18
ATOM     18  C   UNL A   1      33.950  22.171  26.393  1.00  0.00     0.083 A 
ATOM     19  C   UNL A   1      33.886  21.009  25.596  1.00  0.00     0.131 A 
ATOM     20  C   UNL A   1      35.054  20.542  24.954  1.00  0.00     0.049 A 
ATOM     21  C   UNL A   1      36.265  21.223  25.062  1.00  0.00     0.024 A 
ATOM     22  C   UNL A   1      35.191  22.843  26.485  1.00  0.00     0.038 A 
ATOM     23  C   UNL A   1      36.325  22.381  25.818  1.00  0.00     0.042 A 
ATOM     24  Cl  UNL A   1      37.790  23.279  25.890  1.00  0.00    -0.084 Cl
BRANCH  19  25
ATOM     25  O   UNL A   1      32.679  20.408  25.353  1.00  0.00    -0.496 OA
ATOM     26  C   UNL A   1      32.568  19.709  24.110  1.00  0.00     0.278 C 
ENDBRANCH  19  25
ENDBRANCH  15  18
ENDBRANCH   8  14
ENDBRANCH   4   7
ENDBRANCH   2   3
ENDBRANCH   1   2
BRANCH   1  27
ATOM     27  C   UNL A   1      32.573  30.648  26.194  1.00  0.00     0.023 C 
BRANCH  27  28
ATOM     28  C   UNL A   1      33.396  30.438  27.452  1.00  0.00     0.116 C 
BRANCH  28  29
ATOM     29  N   UNL A   1      34.268  31.547  27.765  1.00  0.00    -0.352 N 
ATOM     30  C   UNL A   1      35.507  31.558  28.390  1.00  0.00     0.251 C 
ATOM     31  H   UNL A   1      33.932  32.432  27.493  1.00  0.00     0.163 HD
ATOM     32  O   UNL A   1      35.928  32.622  28.794  1.00  0.00    -0.269 OA
BRANCH  30  33
ATOM     33  C   UNL A   1      36.356  30.329  28.414  1.00  0.00     0.039 A 
ATOM     34  C   UNL A   1      36.579  29.733  29.664  1.00  0.00     0.014 A 
ATOM     35  C   UNL A   1      37.111  29.920  27.322  1.00  0.00     0.014 A 
ATOM     36  C   UNL A   1      37.725  28.971  29.876  1.00  0.00     0.010 A 
ATOM     37  C   UNL A   1      38.291  29.249  27.539  1.00  0.00     0.010 A 
ATOM     38  C   UNL A   1      38.632  28.859  28.834  1.00  0.00    -0.014 A 
BRANCH  38  39
ATOM     39  C   UNL A   1      40.000  28.401  28.959  1.00  0.00     0.031 A 
ATOM     40  C   UNL A   1      40.310  26.975  28.820  1.00  0.00     0.074 A 
ATOM     41  C   UNL A   1      40.967  29.343  28.886  1.00  0.00     0.049 A 
ATOM     42  N   UNL A   1      41.474  26.482  29.055  1.00  0.00    -0.248 NA
ATOM     43  C   UNL A   1      39.319  25.977  28.433  1.00  0.00     0.031 C 
ATOM     44  C   UNL A   1      42.356  29.172  28.484  1.00  0.00     0.029 A 
ATOM     45  N   UNL A   1      40.912  30.658  29.362  1.00  0.00    -0.354 N 
ATOM     46  C   UNL A   1      41.482  25.219  28.513  1.00  0.00     0.074 A 
ATOM     47  C   UNL A   1      40.093  24.892  28.313  1.00  0.00     0.031 C 
ATOM     48  C   UNL A   1      43.075  30.196  28.970  1.00  0.00     0.029 A 
ATOM     49  C   UNL A   1      42.198  30.934  29.862  1.00  0.00     0.049 A 
ATOM     50  H   UNL A   1      40.136  31.265  29.351  1.00  0.00     0.167 HD
ATOM     51  C   UNL A   1      42.680  24.694  28.134  1.00  0.00     0.034 A 
ATOM     52  C   UNL A   1      42.443  31.174  31.183  1.00  0.00     0.034 A 
ATOM     53  C   UNL A   1      43.794  25.510  28.657  1.00  0.00     0.049 A 
ATOM     54  C   UNL A   1      43.401  30.169  31.808  1.00  0.00     0.074 A 
ATOM     55  C   UNL A   1      44.722  26.362  28.086  1.00  0.00     0.029 A 
ATOM     56  N   UNL A   1      43.892  25.705  30.033  1.00  0.00    -0.354 N 
ATOM     57  N   UNL A   1      43.928  29.144  31.195  1.00  0.00    -0.248 NA
ATOM     58  C   UNL A   1      43.798  30.228  33.208  1.00  0.00     0.031 C 
ATOM     59  C   UNL A   1      45.326  27.125  29.132  1.00  0.00     0.029 A 
ATOM     60  C   UNL A   1      44.801  26.705  30.343  1.00  0.00     0.049 A 
ATOM     61  H   UNL A   1      43.378  25.197  30.701  1.00  0.00     0.167 HD
ATOM     62  C   UNL A   1      44.571  28.325  32.098  1.00  0.00     0.074 A 
ATOM     63  C   UNL A   1      44.517  29.099  33.331  1.00  0.00     0.031 C 
ATOM     64  C   UNL A   1      45.018  27.068  31.750  1.00  0.00     0.034 A 
BRANCH  51  65
ATOM     65  C   UNL A   1      42.881  23.558  27.138  1.00  0.00     0.023 A 
ATOM     66  C   UNL A   1      43.564  23.873  25.940  1.00  0.00     0.012 A 
ATOM     67  C   UNL A   1      42.373  22.237  27.224  1.00  0.00     0.148 A 
ATOM     68  C   UNL A   1      43.718  22.953  24.895  1.00  0.00     0.002 A 
ATOM     69  C   UNL A   1      42.581  21.298  26.207  1.00  0.00     0.091 A 
ATOM     70  F   UNL A   1      41.596  21.876  28.245  1.00  0.00    -0.205 F 
ATOM     71  C   UNL A   1      43.238  21.658  25.032  1.00  0.00     0.022 A 
BRANCH  69  72
ATOM     72  S   UNL A   1      42.023  19.586  26.339  1.00  0.00     0.127 S 
ATOM     73  O   UNL A   1      40.601  19.701  26.014  1.00  0.00    -0.237 OA
ATOM     74  O   UNL A   1      42.826  18.912  25.319  1.00  0.00    -0.237 OA
ATOM     75  O   UNL A   1      42.310  19.163  27.705  1.00  0.00    -0.744 OA
ENDBRANCH  69  72
ENDBRANCH  51  65
BRANCH  52  76
ATOM     76  C   UNL A   1      41.290  31.829  31.883  1.00  0.00     0.023 A 
ATOM     77  C   UNL A   1      40.902  33.106  31.409  1.00  0.00     0.012 A 
ATOM     78  C   UNL A   1      40.373  31.079  32.640  1.00  0.00     0.148 A 
ATOM     79  C   UNL A   1      39.584  33.547  31.540  1.00  0.00     0.002 A 
ATOM     80  C   UNL A   1      39.061  31.534  32.777  1.00  0.00     0.091 A 
ATOM     81  F   UNL A   1      40.762  29.901  33.140  1.00  0.00    -0.205 F 
ATOM     82  C   UNL A   1      38.653  32.741  32.187  1.00  0.00     0.022 A 
BRANCH  80  83
ATOM     83  S   UNL A   1      37.808  30.538  33.596  1.00  0.00     0.127 S 
ATOM     84  O   UNL A   1      38.006  30.910  34.994  1.00  0.00    -0.237 OA
ATOM     85  O   UNL A   1      36.568  31.030  32.998  1.00  0.00    -0.237 OA
ATOM     86  O   UNL A   1      38.136  29.165  33.239  1.00  0.00    -0.744 OA
ENDBRANCH  80  83
ENDBRANCH  52  76
BRANCH  64  87
ATOM     87  C   UNL A   1      45.638  26.009  32.682  1.00  0.00     0.023 A 
ATOM     88  C   UNL A   1      47.021  25.775  32.783  1.00  0.00     0.012 A 
ATOM     89  C   UNL A   1      44.829  25.202  33.536  1.00  0.00     0.148 A 
ATOM     90  C   UNL A   1      47.578  24.870  33.700  1.00  0.00     0.002 A 
ATOM     91  C   UNL A   1      45.383  24.346  34.489  1.00  0.00     0.091 A 
ATOM     92  F   UNL A   1      43.497  25.196  33.397  1.00  0.00    -0.205 F 
ATOM     93  C   UNL A   1      46.762  24.177  34.575  1.00  0.00     0.022 A 
BRANCH  91  94
ATOM     94  S   UNL A   1      44.360  23.485  35.695  1.00  0.00     0.127 S 
ATOM     95  O   UNL A   1      45.181  22.314  36.000  1.00  0.00    -0.237 OA
ATOM     96  O   UNL A   1      44.269  24.464  36.780  1.00  0.00    -0.237 OA
ATOM     97  O   UNL A   1      43.098  23.224  35.018  1.00  0.00    -0.744 OA
ENDBRANCH  91  94
ENDBRANCH  64  87
ENDBRANCH  38  39
ENDBRANCH  30  33
ENDBRANCH  28  29
ENDBRANCH  27  28
ENDBRANCH   1  27
TORSDOF 17
ENDMDL
MODEL 3
REMARK VINA RESULT:     -12.7      4.130      9.713
REMARK SMILES COc1ccc(Cl)cc1C(=O)Nc1ccc(C(=O)NCCCCNC(=O)c2ccc(-c3c4nc(c(-c5cccc(S(=O)(=O)[O-])c5F)c5ccc([nH]5)c(-c5cccc(S(=O)(=O)[O-])c5F)c5nc(c(-c6cccc(S(=O)(=O)[O-])c6F)c6ccc3[nH]6)C=C5)C=C4)cc2)cc1C
REMARK SMILES IDX 21 1 20 2 19 3 17 4 18 5 16 7 13 8 14 9 91 10 15 11 90 12
REMARK SMILES IDX 92 13 12 14 10 15 11 16 9 18 3 19 4 20 5 21 8 22 6 23 7 24
REMARK SMILES IDX 2 25 1 26 22 27 23 28 24 29 25 30 26 32 27 33 28 34 89 35
REMARK SMILES IDX 29 36 88 37 30 38 31 39 32 40 82 41 33 42 87 43 81 44 83 45
REMARK SMILES IDX 34 46 86 47 80 48 79 49 35 51 67 52 47 53 66 54 48 55 51 56
REMARK SMILES IDX 65 57 84 58 49 59 50 60 64 62 85 63 52 64 36 65 37 66 45 67
REMARK SMILES IDX 38 68 40 69 46 70 39 71 41 72 42 73 43 74 44 75 68 76 69 77
REMARK SMILES IDX 77 78 70 79 72 80 78 81 71 82 73 83 74 84 75 85 76 86 53 87
REMARK SMILES IDX 54 88 62 89 55 90 57 91 63 92 56 93 58 94 59 95 60 96 61 97
REMARK H PARENT 19 6 12 17 24 31 83 50 51 61
REMARK Flexibility Score: inf
ROOT
ATOM      1  C   UNL A   1      32.645  30.331  27.012  1.00  0.00     0.023 C 
ENDROOT
BRANCH   1   2
ATOM      2  C   UNL A   1      32.811  29.855  25.562  1.00  0.00     0.116 C 
BRANCH   2   3
ATOM      3  N   UNL A   1      31.567  30.012  24.825  1.00  0.00    -0.352 N 
ATOM      4  C   UNL A   1      30.846  29.160  24.027  1.00  0.00     0.251 C 
ATOM      5  O   UNL A   1      29.852  29.604  23.452  1.00  0.00    -0.269 OA
ATOM      6  H   UNL A   1      31.164  30.905  24.915  1.00  0.00     0.163 HD
BRANCH   4   7
ATOM      7  C   UNL A   1      31.144  27.703  23.940  1.00  0.00     0.040 A 
ATOM      8  C   UNL A   1      31.245  24.998  23.249  1.00  0.00     0.044 A 
ATOM      9  C   UNL A   1      30.641  25.394  24.441  1.00  0.00     0.027 A 
ATOM     10  C   UNL A   1      31.998  25.919  22.503  1.00  0.00    -0.027 A 
ATOM     11  C   UNL A   1      30.646  26.740  24.812  1.00  0.00     0.016 A 
ATOM     12  C   UNL A   1      31.890  27.280  22.831  1.00  0.00     0.019 A 
ATOM     13  C   UNL A   1      32.764  25.563  21.259  1.00  0.00     0.046 C 
BRANCH   8  14
ATOM     14  N   UNL A   1      31.118  23.686  22.794  1.00  0.00    -0.322 N 
ATOM     15  C   UNL A   1      31.887  22.564  22.988  1.00  0.00     0.259 C 
ATOM     16  O   UNL A   1      31.671  21.626  22.210  1.00  0.00    -0.269 OA
ATOM     17  H   UNL A   1      30.328  23.535  22.225  1.00  0.00     0.170 HD
BRANCH  15  18
ATOM     18  C   UNL A   1      32.872  22.333  24.102  1.00  0.00     0.083 A 
ATOM     19  C   UNL A   1      32.626  21.783  25.378  1.00  0.00     0.131 A 
ATOM     20  C   UNL A   1      33.712  21.507  26.237  1.00  0.00     0.049 A 
ATOM     21  C   UNL A   1      35.029  21.734  25.841  1.00  0.00     0.024 A 
ATOM     22  C   UNL A   1      34.218  22.554  23.726  1.00  0.00     0.038 A 
ATOM     23  C   UNL A   1      35.277  22.245  24.578  1.00  0.00     0.042 A 
ATOM     24  Cl  UNL A   1      36.898  22.449  24.044  1.00  0.00    -0.084 Cl
BRANCH  19  25
ATOM     25  O   UNL A   1      31.355  21.412  25.731  1.00  0.00    -0.496 OA
ATOM     26  C   UNL A   1      30.531  22.447  26.274  1.00  0.00     0.278 C 
ENDBRANCH  19  25
ENDBRANCH  15  18
ENDBRANCH   8  14
ENDBRANCH   4   7
ENDBRANCH   2   3
ENDBRANCH   1   2
BRANCH   1  27
ATOM     27  C   UNL A   1      33.945  30.303  27.816  1.00  0.00     0.023 C 
BRANCH  27  28
ATOM     28  C   UNL A   1      34.774  31.563  27.645  1.00  0.00     0.116 C 
BRANCH  28  29
ATOM     29  N   UNL A   1      34.122  32.757  28.135  1.00  0.00    -0.352 N 
ATOM     30  C   UNL A   1      34.373  33.505  29.275  1.00  0.00     0.251 C 
ATOM     31  H   UNL A   1      33.387  33.090  27.571  1.00  0.00     0.163 HD
ATOM     32  O   UNL A   1      33.529  34.302  29.627  1.00  0.00    -0.269 OA
BRANCH  30  33
ATOM     33  C   UNL A   1      35.708  33.443  29.945  1.00  0.00     0.039 A 
ATOM     34  C   UNL A   1      36.823  33.815  29.178  1.00  0.00     0.014 A 
ATOM     35  C   UNL A   1      35.905  32.811  31.166  1.00  0.00     0.014 A 
ATOM     36  C   UNL A   1      38.079  33.300  29.483  1.00  0.00     0.010 A 
ATOM     37  C   UNL A   1      37.119  32.222  31.426  1.00  0.00     0.010 A 
ATOM     38  C   UNL A   1      38.175  32.398  30.532  1.00  0.00    -0.014 A 
BRANCH  38  39
ATOM     39  C   UNL A   1      39.300  31.524  30.786  1.00  0.00     0.031 A 
ATOM     40  C   UNL A   1      39.341  30.188  30.182  1.00  0.00     0.074 A 
ATOM     41  C   UNL A   1      40.408  32.094  31.312  1.00  0.00     0.049 A 
ATOM     42  N   UNL A   1      40.235  29.312  30.473  1.00  0.00    -0.248 NA
ATOM     43  C   UNL A   1      38.352  29.719  29.218  1.00  0.00     0.031 C 
ATOM     44  C   UNL A   1      41.786  31.633  31.213  1.00  0.00     0.029 A 
ATOM     45  N   UNL A   1      40.469  33.146  32.234  1.00  0.00    -0.354 N 
ATOM     46  C   UNL A   1      40.164  28.341  29.502  1.00  0.00     0.074 A 
ATOM     47  C   UNL A   1      38.884  28.540  28.872  1.00  0.00     0.031 C 
ATOM     48  C   UNL A   1      42.496  32.180  32.211  1.00  0.00     0.029 A 
ATOM     49  C   UNL A   1      41.544  32.840  33.087  1.00  0.00     0.049 A 
ATOM     50  H   UNL A   1      39.881  33.935  32.277  1.00  0.00     0.167 HD
ATOM     51  C   UNL A   1      41.285  27.615  29.241  1.00  0.00     0.034 A 
ATOM     52  C   UNL A   1      41.382  32.571  34.416  1.00  0.00     0.034 A 
ATOM     53  C   UNL A   1      42.305  27.841  30.285  1.00  0.00     0.049 A 
ATOM     54  C   UNL A   1      41.853  31.177  34.808  1.00  0.00     0.074 A 
ATOM     55  C   UNL A   1      43.524  28.496  30.323  1.00  0.00     0.029 A 
ATOM     56  N   UNL A   1      41.981  27.561  31.610  1.00  0.00    -0.354 N 
ATOM     57  N   UNL A   1      42.332  30.282  33.987  1.00  0.00    -0.248 NA
ATOM     58  C   UNL A   1      41.768  30.675  36.172  1.00  0.00     0.031 C 
ATOM     59  C   UNL A   1      43.890  28.671  31.692  1.00  0.00     0.029 A 
ATOM     60  C   UNL A   1      42.920  28.082  32.487  1.00  0.00     0.049 A 
ATOM     61  H   UNL A   1      41.183  27.057  31.888  1.00  0.00     0.167 HD
ATOM     62  C   UNL A   1      42.459  29.067  34.626  1.00  0.00     0.074 A 
ATOM     63  C   UNL A   1      42.159  29.399  36.012  1.00  0.00     0.031 C 
ATOM     64  C   UNL A   1      42.728  27.906  33.933  1.00  0.00     0.034 A 
BRANCH  51  65
ATOM     65  C   UNL A   1      41.568  26.840  27.960  1.00  0.00     0.023 A 
ATOM     66  C   UNL A   1      41.541  27.573  26.751  1.00  0.00     0.012 A 
ATOM     67  C   UNL A   1      41.758  25.440  27.824  1.00  0.00     0.148 A 
ATOM     68  C   UNL A   1      41.673  26.964  25.496  1.00  0.00     0.002 A 
ATOM     69  C   UNL A   1      41.953  24.840  26.575  1.00  0.00     0.091 A 
ATOM     70  F   UNL A   1      41.662  24.639  28.884  1.00  0.00    -0.205 F 
ATOM     71  C   UNL A   1      41.893  25.597  25.406  1.00  0.00     0.022 A 
BRANCH  69  72
ATOM     72  S   UNL A   1      42.288  23.075  26.389  1.00  0.00     0.127 S 
ATOM     73  O   UNL A   1      43.378  22.869  27.344  1.00  0.00    -0.237 OA
ATOM     74  O   UNL A   1      41.016  22.470  26.782  1.00  0.00    -0.237 OA
ATOM     75  O   UNL A   1      42.646  22.869  24.992  1.00  0.00    -0.744 OA
ENDBRANCH  69  72
ENDBRANCH  51  65
BRANCH  52  76
ATOM     76  C   UNL A   1      40.223  33.301  35.023  1.00  0.00     0.023 A 
ATOM     77  C   UNL A   1      38.945  32.709  34.867  1.00  0.00     0.012 A 
ATOM     78  C   UNL A   1      40.410  34.248  36.046  1.00  0.00     0.148 A 
ATOM     79  C   UNL A   1      37.936  32.926  35.808  1.00  0.00     0.002 A 
ATOM     80  C   UNL A   1      39.391  34.468  36.974  1.00  0.00     0.091 A 
ATOM     81  F   UNL A   1      41.599  34.852  36.153  1.00  0.00    -0.205 F 
ATOM     82  C   UNL A   1      38.175  33.773  36.885  1.00  0.00     0.022 A 
BRANCH  80  83
ATOM     83  S   UNL A   1      39.637  35.545  38.393  1.00  0.00     0.127 S 
ATOM     84  O   UNL A   1      39.602  36.864  37.768  1.00  0.00    -0.237 OA
ATOM     85  O   UNL A   1      38.484  35.232  39.235  1.00  0.00    -0.237 OA
ATOM     86  O   UNL A   1      40.914  35.129  38.955  1.00  0.00    -0.744 OA
ENDBRANCH  80  83
ENDBRANCH  52  76
BRANCH  64  87
ATOM     87  C   UNL A   1      42.775  26.473  34.499  1.00  0.00     0.023 A 
ATOM     88  C   UNL A   1      41.779  25.932  35.331  1.00  0.00     0.012 A 
ATOM     89  C   UNL A   1      43.844  25.582  34.184  1.00  0.00     0.148 A 
ATOM     90  C   UNL A   1      41.788  24.598  35.766  1.00  0.00     0.002 A 
ATOM     91  C   UNL A   1      43.825  24.239  34.566  1.00  0.00     0.091 A 
ATOM     92  F   UNL A   1      44.940  26.034  33.561  1.00  0.00    -0.205 F 
ATOM     93  C   UNL A   1      42.795  23.742  35.359  1.00  0.00     0.022 A 
BRANCH  91  94
ATOM     94  S   UNL A   1      45.075  23.077  33.995  1.00  0.00     0.127 S 
ATOM     95  O   UNL A   1      44.921  23.162  32.544  1.00  0.00    -0.237 OA
ATOM     96  O   UNL A   1      46.310  23.670  34.513  1.00  0.00    -0.237 OA
ATOM     97  O   UNL A   1      44.725  21.801  34.603  1.00  0.00    -0.744 OA
ENDBRANCH  91  94
ENDBRANCH  64  87
ENDBRANCH  38  39
ENDBRANCH  30  33
ENDBRANCH  28  29
ENDBRANCH  27  28
ENDBRANCH   1  27
TORSDOF 17
ENDMDL
