MODEL 1
REMARK VINA RESULT:      -9.0      0.000      0.000
REMARK SMILES COc1cc([C@@H]2CC(NCCCCNC(=O)c3ccc(-c4c5nc(c(-c6cccc(S(=O)(=O)[O-])c6F)c6ccc([nH]6)c(-c6cccc(S(=O)(=O)[O-])c6F)c6nc(c(-c7cccc(S(=O)(=O)[O-])c7F)c7ccc4[nH]7)C=C6)C=C5)cc3)=[NH+]c3c(C(=O)[O-])cn(-c4ccc(Cl)cc4)c32)cc(OC)c1O
REMARK SMILES IDX 12 1 11 2 10 3 9 4 6 5 7 6 95 7 8 8 81 9 87 10 80 11 82 12
REMARK SMILES IDX 86 13 5 16 3 17 4 18 100 19 97 20 96 21 2 22 1 23 101 24
REMARK SMILES IDX 98 26 99 27 88 28 89 29 94 30 90 31 93 32 91 33 92 34 83 35
REMARK SMILES IDX 84 36 85 37 13 38 14 39 15 40 16 42 17 43 18 44 79 45 19 46
REMARK SMILES IDX 78 47 20 48 21 49 22 50 72 51 23 52 77 53 71 54 73 55 24 56
REMARK SMILES IDX 76 57 70 58 69 59 25 61 57 62 37 63 56 64 38 65 41 66 55 67
REMARK SMILES IDX 74 68 39 69 40 70 54 72 75 73 42 74 26 75 27 76 35 77 28 78
REMARK SMILES IDX 30 79 36 80 29 81 31 82 32 83 33 84 34 85 58 86 59 87 67 88
REMARK SMILES IDX 60 89 62 90 68 91 61 92 63 93 64 94 65 95 66 96 43 97 44 98
REMARK SMILES IDX 52 99 45 100 47 101 53 102 46 103 48 104 49 105 50 106
REMARK SMILES IDX 51 107
REMARK H PARENT 9 14 80 15 101 25 14 41 73 60 41 71
REMARK Flexibility Score: inf
ROOT
ATOM      1  C   UNL A   1      35.166  33.838  31.693  1.00  0.00     0.025 C 
ENDROOT
BRANCH   1   2
ATOM      2  C   UNL A   1      35.260  34.024  33.214  1.00  0.00     0.048 C 
BRANCH   2   3
ATOM      3  C   UNL A   1      36.171  33.041  33.953  1.00  0.00     0.233 C 
BRANCH   3   4
ATOM      4  N   UNL A   1      37.477  32.943  33.324  1.00  0.00    -0.278 N 
ATOM      5  C   UNL A   1      41.267  32.771  33.923  1.00  0.00     0.083 C 
ATOM      6  C   UNL A   1      39.909  32.474  33.251  1.00  0.00     0.142 C 
ATOM      7  C   UNL A   1      41.072  32.895  35.401  1.00  0.00     0.078 A 
ATOM      8  C   UNL A   1      38.664  32.915  34.037  1.00  0.00     0.248 C 
ATOM      9  C   UNL A   1      39.845  33.015  35.999  1.00  0.00     0.155 A 
ATOM     10  N   UNL A   1      42.006  32.736  36.408  1.00  0.00    -0.315 N 
ATOM     11  N   UNL A   1      38.652  33.184  35.312  1.00  0.00    -0.243 N 
ATOM     12  C   UNL A   1      39.972  32.881  37.396  1.00  0.00     0.062 A 
ATOM     13  C   UNL A   1      41.325  32.663  37.611  1.00  0.00     0.106 A 
ATOM     14  H   UNL A   1      37.521  32.893  32.342  1.00  0.00     0.304 HD
ATOM     15  H   UNL A   1      37.834  33.493  35.767  1.00  0.00     0.312 HD
BRANCH   5  16
ATOM     16  C   UNL A   1      41.957  33.967  33.288  1.00  0.00    -0.031 A 
ATOM     17  C   UNL A   1      43.297  34.875  31.450  1.00  0.00     0.164 A 
ATOM     18  C   UNL A   1      42.557  33.834  32.025  1.00  0.00     0.055 A 
ATOM     19  C   UNL A   1      43.396  36.098  32.132  1.00  0.00     0.200 A 
ATOM     20  C   UNL A   1      42.783  36.264  33.387  1.00  0.00     0.164 A 
ATOM     21  C   UNL A   1      42.063  35.198  33.945  1.00  0.00     0.055 A 
BRANCH  17  22
ATOM     22  O   UNL A   1      43.828  34.532  30.235  1.00  0.00    -0.493 OA
ATOM     23  C   UNL A   1      43.028  33.854  29.281  1.00  0.00     0.278 C 
ENDBRANCH  17  22
BRANCH  19  24
ATOM     24  O   UNL A   1      44.036  37.155  31.546  1.00  0.00    -0.502 OA
ATOM     25  H   UNL A   1      44.137  37.960  32.015  1.00  0.00     0.293 HD
ENDBRANCH  19  24
BRANCH  20  26
ATOM     26  O   UNL A   1      42.766  37.373  34.191  1.00  0.00    -0.493 OA
ATOM     27  C   UNL A   1      43.726  37.482  35.227  1.00  0.00     0.278 C 
ENDBRANCH  20  26
ENDBRANCH   5  16
BRANCH  10  28
ATOM     28  C   UNL A   1      43.418  32.690  36.316  1.00  0.00     0.046 A 
ATOM     29  C   UNL A   1      44.174  33.826  36.615  1.00  0.00     0.028 A 
ATOM     30  C   UNL A   1      44.057  31.482  36.019  1.00  0.00     0.028 A 
ATOM     31  C   UNL A   1      45.567  33.781  36.542  1.00  0.00     0.022 A 
ATOM     32  C   UNL A   1      45.453  31.439  35.946  1.00  0.00     0.022 A 
ATOM     33  C   UNL A   1      46.201  32.589  36.199  1.00  0.00     0.041 A 
ATOM     34  Cl  UNL A   1      47.919  32.534  36.114  1.00  0.00    -0.084 Cl
ENDBRANCH  10  28
BRANCH  12  35
ATOM     35  C   UNL A   1      38.978  32.917  38.454  1.00  0.00     0.077 C 
ATOM     36  O   UNL A   1      37.799  33.175  38.299  1.00  0.00    -0.545 OA
ATOM     37  O   UNL A   1      39.435  32.636  39.697  1.00  0.00    -0.545 OA
ENDBRANCH  12  35
ENDBRANCH   3   4
ENDBRANCH   2   3
ENDBRANCH   1   2
BRANCH   1  38
ATOM     38  C   UNL A   1      34.632  32.482  31.248  1.00  0.00     0.116 C 
BRANCH  38  39
ATOM     39  N   UNL A   1      34.383  32.408  29.808  1.00  0.00    -0.352 N 
ATOM     40  C   UNL A   1      35.286  32.103  28.808  1.00  0.00     0.251 C 
ATOM     41  H   UNL A   1      33.461  32.599  29.517  1.00  0.00     0.163 HD
ATOM     42  O   UNL A   1      35.078  32.442  27.648  1.00  0.00    -0.269 OA
BRANCH  40  43
ATOM     43  C   UNL A   1      36.510  31.357  29.158  1.00  0.00     0.039 A 
ATOM     44  C   UNL A   1      36.525  29.960  29.189  1.00  0.00     0.014 A 
ATOM     45  C   UNL A   1      37.664  32.087  29.433  1.00  0.00     0.014 A 
ATOM     46  C   UNL A   1      37.733  29.304  29.411  1.00  0.00     0.010 A 
ATOM     47  C   UNL A   1      38.874  31.444  29.513  1.00  0.00     0.010 A 
ATOM     48  C   UNL A   1      38.912  30.053  29.548  1.00  0.00    -0.014 A 
BRANCH  48  49
ATOM     49  C   UNL A   1      40.215  29.391  29.578  1.00  0.00     0.031 A 
ATOM     50  C   UNL A   1      40.759  29.170  30.948  1.00  0.00     0.074 A 
ATOM     51  C   UNL A   1      40.767  28.802  28.493  1.00  0.00     0.049 A 
ATOM     52  N   UNL A   1      41.819  29.691  31.475  1.00  0.00    -0.248 NA
ATOM     53  C   UNL A   1      39.948  28.389  31.896  1.00  0.00     0.031 C 
ATOM     54  C   UNL A   1      40.175  28.647  27.158  1.00  0.00     0.029 A 
ATOM     55  N   UNL A   1      41.911  28.069  28.396  1.00  0.00    -0.354 N 
ATOM     56  C   UNL A   1      41.943  29.097  32.731  1.00  0.00     0.074 A 
ATOM     57  C   UNL A   1      40.667  28.499  33.016  1.00  0.00     0.031 C 
ATOM     58  C   UNL A   1      40.815  27.659  26.495  1.00  0.00     0.029 A 
ATOM     59  C   UNL A   1      41.960  27.239  27.277  1.00  0.00     0.049 A 
ATOM     60  H   UNL A   1      42.638  28.121  29.058  1.00  0.00     0.167 HD
ATOM     61  C   UNL A   1      43.166  28.899  33.299  1.00  0.00     0.034 A 
ATOM     62  C   UNL A   1      42.849  26.244  27.040  1.00  0.00     0.034 A 
ATOM     63  C   UNL A   1      44.175  29.710  32.659  1.00  0.00     0.049 A 
ATOM     64  C   UNL A   1      44.018  26.490  27.913  1.00  0.00     0.074 A 
ATOM     65  C   UNL A   1      44.327  31.057  32.395  1.00  0.00     0.029 A 
ATOM     66  N   UNL A   1      45.058  29.067  31.827  1.00  0.00    -0.354 N 
ATOM     67  N   UNL A   1      44.826  27.501  27.771  1.00  0.00    -0.248 NA
ATOM     68  C   UNL A   1      44.047  25.834  29.208  1.00  0.00     0.031 C 
ATOM     69  C   UNL A   1      44.904  31.109  31.091  1.00  0.00     0.029 A 
ATOM     70  C   UNL A   1      45.142  29.799  30.674  1.00  0.00     0.049 A 
ATOM     71  H   UNL A   1      45.542  28.233  32.024  1.00  0.00     0.167 HD
ATOM     72  C   UNL A   1      45.099  27.900  29.073  1.00  0.00     0.074 A 
ATOM     73  C   UNL A   1      44.693  26.770  29.908  1.00  0.00     0.031 C 
ATOM     74  C   UNL A   1      45.347  29.209  29.369  1.00  0.00     0.034 A 
BRANCH  61  75
ATOM     75  C   UNL A   1      43.548  27.697  34.147  1.00  0.00     0.023 A 
ATOM     76  C   UNL A   1      44.118  27.961  35.416  1.00  0.00     0.012 A 
ATOM     77  C   UNL A   1      43.651  26.367  33.674  1.00  0.00     0.148 A 
ATOM     78  C   UNL A   1      44.824  26.984  36.127  1.00  0.00     0.002 A 
ATOM     79  C   UNL A   1      44.281  25.379  34.424  1.00  0.00     0.091 A 
ATOM     80  F   UNL A   1      43.262  26.057  32.437  1.00  0.00    -0.205 F 
ATOM     81  C   UNL A   1      44.905  25.690  35.633  1.00  0.00     0.022 A 
BRANCH  79  82
ATOM     82  S   UNL A   1      44.363  23.675  33.854  1.00  0.00     0.127 S 
ATOM     83  O   UNL A   1      44.864  23.846  32.494  1.00  0.00    -0.237 OA
ATOM     84  O   UNL A   1      45.315  23.091  34.800  1.00  0.00    -0.237 OA
ATOM     85  O   UNL A   1      43.007  23.154  33.978  1.00  0.00    -0.744 OA
ENDBRANCH  79  82
ENDBRANCH  61  75
BRANCH  62  86
ATOM     86  C   UNL A   1      42.702  24.967  26.301  1.00  0.00     0.023 A 
ATOM     87  C   UNL A   1      43.735  24.554  25.433  1.00  0.00     0.012 A 
ATOM     88  C   UNL A   1      41.726  24.017  26.671  1.00  0.00     0.148 A 
ATOM     89  C   UNL A   1      43.826  23.228  24.993  1.00  0.00     0.002 A 
ATOM     90  C   UNL A   1      41.818  22.699  26.229  1.00  0.00     0.091 A 
ATOM     91  F   UNL A   1      40.765  24.378  27.532  1.00  0.00    -0.205 F 
ATOM     92  C   UNL A   1      42.876  22.297  25.403  1.00  0.00     0.022 A 
BRANCH  90  93
ATOM     93  S   UNL A   1      40.648  21.433  26.744  1.00  0.00     0.127 S 
ATOM     94  O   UNL A   1      41.188  20.236  26.098  1.00  0.00    -0.237 OA
ATOM     95  O   UNL A   1      40.790  21.463  28.197  1.00  0.00    -0.237 OA
ATOM     96  O   UNL A   1      39.352  21.858  26.228  1.00  0.00    -0.744 OA
ENDBRANCH  90  93
ENDBRANCH  62  86
BRANCH  74  97
ATOM     97  C   UNL A   1      45.602  30.168  28.233  1.00  0.00     0.023 A 
ATOM     98  C   UNL A   1      44.565  30.752  27.475  1.00  0.00     0.012 A 
ATOM     99  C   UNL A   1      46.920  30.611  28.029  1.00  0.00     0.148 A 
ATOM    100  C   UNL A   1      44.841  31.733  26.518  1.00  0.00     0.002 A 
ATOM    101  C   UNL A   1      47.186  31.620  27.112  1.00  0.00     0.091 A 
ATOM    102  F   UNL A   1      47.898  30.048  28.756  1.00  0.00    -0.205 F 
ATOM    103  C   UNL A   1      46.150  32.177  26.346  1.00  0.00     0.022 A 
BRANCH 101 104
ATOM    104  S   UNL A   1      48.831  32.312  26.943  1.00  0.00     0.127 S 
ATOM    105  O   UNL A   1      49.606  31.154  26.509  1.00  0.00    -0.237 OA
ATOM    106  O   UNL A   1      48.639  33.339  25.917  1.00  0.00    -0.237 OA
ATOM    107  O   UNL A   1      49.175  32.846  28.255  1.00  0.00    -0.744 OA
ENDBRANCH 101 104
ENDBRANCH  74  97
ENDBRANCH  48  49
ENDBRANCH  40  43
ENDBRANCH  38  39
ENDBRANCH   1  38
TORSDOF 19
ENDMDL
MODEL 2
REMARK VINA RESULT:      -9.0      2.788      6.901
REMARK SMILES COc1cc([C@@H]2CC(NCCCCNC(=O)c3ccc(-c4c5nc(c(-c6cccc(S(=O)(=O)[O-])c6F)c6ccc([nH]6)c(-c6cccc(S(=O)(=O)[O-])c6F)c6nc(c(-c7cccc(S(=O)(=O)[O-])c7F)c7ccc4[nH]7)C=C6)C=C5)cc3)=[NH+]c3c(C(=O)[O-])cn(-c4ccc(Cl)cc4)c32)cc(OC)c1O
REMARK SMILES IDX 12 1 11 2 10 3 9 4 6 5 7 6 95 7 8 8 81 9 87 10 80 11 82 12
REMARK SMILES IDX 86 13 5 16 3 17 4 18 100 19 97 20 96 21 2 22 1 23 101 24
REMARK SMILES IDX 98 26 99 27 88 28 89 29 94 30 90 31 93 32 91 33 92 34 83 35
REMARK SMILES IDX 84 36 85 37 13 38 14 39 15 40 16 42 17 43 18 44 79 45 19 46
REMARK SMILES IDX 78 47 20 48 21 49 22 50 72 51 23 52 77 53 71 54 73 55 24 56
REMARK SMILES IDX 76 57 70 58 69 59 25 61 57 62 37 63 56 64 38 65 41 66 55 67
REMARK SMILES IDX 74 68 39 69 40 70 54 72 75 73 42 74 26 75 27 76 35 77 28 78
REMARK SMILES IDX 30 79 36 80 29 81 31 82 32 83 33 84 34 85 58 86 59 87 67 88
REMARK SMILES IDX 60 89 62 90 68 91 61 92 63 93 64 94 65 95 66 96 43 97 44 98
REMARK SMILES IDX 52 99 45 100 47 101 53 102 46 103 48 104 49 105 50 106
REMARK SMILES IDX 51 107
REMARK H PARENT 9 14 80 15 101 25 14 41 73 60 41 71
REMARK Flexibility Score: inf
ROOT
ATOM      1  C   UNL A   1      35.717  32.338  31.521  1.00  0.00     0.025 C 
ENDROOT
BRANCH   1   2
ATOM      2  C   UNL A   1      35.425  33.843  31.577  1.00  0.00     0.048 C 
BRANCH   2   3
ATOM      3  C   UNL A   1      36.390  34.681  32.421  1.00  0.00     0.233 C 
BRANCH   3   4
ATOM      4  N   UNL A   1      37.728  34.692  31.854  1.00  0.00    -0.278 N 
ATOM      5  C   UNL A   1      41.398  33.704  32.400  1.00  0.00     0.083 C 
ATOM      6  C   UNL A   1      40.084  33.957  31.633  1.00  0.00     0.142 C 
ATOM      7  C   UNL A   1      41.084  33.156  33.756  1.00  0.00     0.078 A 
ATOM      8  C   UNL A   1      38.832  34.162  32.501  1.00  0.00     0.248 C 
ATOM      9  C   UNL A   1      39.829  33.165  34.308  1.00  0.00     0.155 A 
ATOM     10  N   UNL A   1      41.895  32.412  34.593  1.00  0.00    -0.315 N 
ATOM     11  N   UNL A   1      38.733  33.808  33.751  1.00  0.00    -0.243 N 
ATOM     12  C   UNL A   1      39.809  32.381  35.479  1.00  0.00     0.062 A 
ATOM     13  C   UNL A   1      41.102  31.891  35.601  1.00  0.00     0.106 A 
ATOM     14  H   UNL A   1      37.856  35.098  30.967  1.00  0.00     0.304 HD
ATOM     15  H   UNL A   1      37.920  33.988  34.276  1.00  0.00     0.312 HD
BRANCH   5  16
ATOM     16  C   UNL A   1      42.282  34.941  32.423  1.00  0.00    -0.031 A 
ATOM     17  C   UNL A   1      44.027  36.284  31.353  1.00  0.00     0.164 A 
ATOM     18  C   UNL A   1      43.119  35.219  31.331  1.00  0.00     0.055 A 
ATOM     19  C   UNL A   1      44.063  37.125  32.476  1.00  0.00     0.200 A 
ATOM     20  C   UNL A   1      43.217  36.883  33.574  1.00  0.00     0.164 A 
ATOM     21  C   UNL A   1      42.330  35.798  33.528  1.00  0.00     0.055 A 
BRANCH  17  22
ATOM     22  O   UNL A   1      44.774  36.361  30.208  1.00  0.00    -0.493 OA
ATOM     23  C   UNL A   1      44.475  37.350  29.236  1.00  0.00     0.278 C 
ENDBRANCH  17  22
BRANCH  19  24
ATOM     24  O   UNL A   1      44.878  38.224  32.479  1.00  0.00    -0.502 OA
ATOM     25  H   UNL A   1      44.867  38.817  31.754  1.00  0.00     0.293 HD
ENDBRANCH  19  24
BRANCH  20  26
ATOM     26  O   UNL A   1      43.107  37.590  34.742  1.00  0.00    -0.493 OA
ATOM     27  C   UNL A   1      42.597  36.937  35.891  1.00  0.00     0.278 C 
ENDBRANCH  20  26
ENDBRANCH   5  16
BRANCH  10  28
ATOM     28  C   UNL A   1      43.294  32.206  34.528  1.00  0.00     0.046 A 
ATOM     29  C   UNL A   1      44.162  33.113  35.138  1.00  0.00     0.028 A 
ATOM     30  C   UNL A   1      43.799  31.044  33.933  1.00  0.00     0.028 A 
ATOM     31  C   UNL A   1      45.542  32.905  35.091  1.00  0.00     0.022 A 
ATOM     32  C   UNL A   1      45.181  30.838  33.886  1.00  0.00     0.022 A 
ATOM     33  C   UNL A   1      46.046  31.772  34.457  1.00  0.00     0.041 A 
ATOM     34  Cl  UNL A   1      47.747  31.515  34.403  1.00  0.00    -0.084 Cl
ENDBRANCH  10  28
BRANCH  12  35
ATOM     35  C   UNL A   1      38.732  32.070  36.402  1.00  0.00     0.077 C 
ATOM     36  O   UNL A   1      37.594  31.787  36.081  1.00  0.00    -0.545 OA
ATOM     37  O   UNL A   1      39.059  32.107  37.716  1.00  0.00    -0.545 OA
ENDBRANCH  12  35
ENDBRANCH   3   4
ENDBRANCH   2   3
ENDBRANCH   1   2
BRANCH   1  38
ATOM     38  C   UNL A   1      36.238  31.838  30.179  1.00  0.00     0.116 C 
BRANCH  38  39
ATOM     39  N   UNL A   1      35.365  30.841  29.559  1.00  0.00    -0.352 N 
ATOM     40  C   UNL A   1      35.714  29.854  28.658  1.00  0.00     0.251 C 
ATOM     41  H   UNL A   1      34.414  30.878  29.815  1.00  0.00     0.163 HD
ATOM     42  O   UNL A   1      34.873  29.344  27.926  1.00  0.00    -0.269 OA
BRANCH  40  43
ATOM     43  C   UNL A   1      37.123  29.419  28.590  1.00  0.00     0.039 A 
ATOM     44  C   UNL A   1      37.946  29.790  27.522  1.00  0.00     0.014 A 
ATOM     45  C   UNL A   1      37.620  28.647  29.637  1.00  0.00     0.014 A 
ATOM     46  C   UNL A   1      39.297  29.452  27.565  1.00  0.00     0.010 A 
ATOM     47  C   UNL A   1      38.972  28.436  29.745  1.00  0.00     0.010 A 
ATOM     48  C   UNL A   1      39.810  28.793  28.693  1.00  0.00    -0.014 A 
BRANCH  48  49
ATOM     49  C   UNL A   1      41.251  28.608  28.855  1.00  0.00     0.031 A 
ATOM     50  C   UNL A   1      41.843  27.583  27.948  1.00  0.00     0.074 A 
ATOM     51  C   UNL A   1      42.027  29.454  29.571  1.00  0.00     0.049 A 
ATOM     52  N   UNL A   1      42.392  26.458  28.273  1.00  0.00    -0.248 NA
ATOM     53  C   UNL A   1      41.674  27.764  26.497  1.00  0.00     0.031 C 
ATOM     54  C   UNL A   1      41.622  30.702  30.231  1.00  0.00     0.029 A 
ATOM     55  N   UNL A   1      43.380  29.465  29.722  1.00  0.00    -0.354 N 
ATOM     56  C   UNL A   1      42.867  25.916  27.079  1.00  0.00     0.074 A 
ATOM     57  C   UNL A   1      42.204  26.634  26.024  1.00  0.00     0.031 C 
ATOM     58  C   UNL A   1      42.713  31.465  30.458  1.00  0.00     0.029 A 
ATOM     59  C   UNL A   1      43.896  30.695  30.127  1.00  0.00     0.049 A 
ATOM     60  H   UNL A   1      43.944  28.674  29.560  1.00  0.00     0.167 HD
ATOM     61  C   UNL A   1      43.976  25.124  27.057  1.00  0.00     0.034 A 
ATOM     62  C   UNL A   1      45.199  31.069  30.138  1.00  0.00     0.034 A 
ATOM     63  C   UNL A   1      44.291  24.632  28.378  1.00  0.00     0.049 A 
ATOM     64  C   UNL A   1      46.005  29.828  30.105  1.00  0.00     0.074 A 
ATOM     65  C   UNL A   1      43.605  23.936  29.354  1.00  0.00     0.029 A 
ATOM     66  N   UNL A   1      45.369  25.197  29.014  1.00  0.00    -0.354 N 
ATOM     67  N   UNL A   1      46.048  28.968  31.081  1.00  0.00    -0.248 NA
ATOM     68  C   UNL A   1      46.442  29.337  28.810  1.00  0.00     0.031 C 
ATOM     69  C   UNL A   1      44.015  24.534  30.583  1.00  0.00     0.029 A 
ATOM     70  C   UNL A   1      44.981  25.498  30.291  1.00  0.00     0.049 A 
ATOM     71  H   UNL A   1      46.258  25.357  28.623  1.00  0.00     0.167 HD
ATOM     72  C   UNL A   1      46.052  27.734  30.445  1.00  0.00     0.074 A 
ATOM     73  C   UNL A   1      46.414  28.026  29.058  1.00  0.00     0.031 C 
ATOM     74  C   UNL A   1      45.474  26.642  31.025  1.00  0.00     0.034 A 
BRANCH  61  75
ATOM     75  C   UNL A   1      45.013  25.109  25.947  1.00  0.00     0.023 A 
ATOM     76  C   UNL A   1      45.463  23.842  25.504  1.00  0.00     0.012 A 
ATOM     77  C   UNL A   1      45.769  26.229  25.525  1.00  0.00     0.148 A 
ATOM     78  C   UNL A   1      46.641  23.692  24.764  1.00  0.00     0.002 A 
ATOM     79  C   UNL A   1      46.893  26.081  24.718  1.00  0.00     0.091 A 
ATOM     80  F   UNL A   1      45.499  27.445  26.000  1.00  0.00    -0.205 F 
ATOM     81  C   UNL A   1      47.357  24.813  24.367  1.00  0.00     0.022 A 
BRANCH  79  82
ATOM     82  S   UNL A   1      47.822  27.505  24.129  1.00  0.00     0.127 S 
ATOM     83  O   UNL A   1      48.925  26.861  23.423  1.00  0.00    -0.237 OA
ATOM     84  O   UNL A   1      46.837  28.168  23.274  1.00  0.00    -0.237 OA
ATOM     85  O   UNL A   1      48.178  28.262  25.323  1.00  0.00    -0.744 OA
ENDBRANCH  79  82
ENDBRANCH  61  75
BRANCH  62  86
ATOM     86  C   UNL A   1      45.830  32.396  29.943  1.00  0.00     0.023 A 
ATOM     87  C   UNL A   1      46.646  32.925  30.966  1.00  0.00     0.012 A 
ATOM     88  C   UNL A   1      45.895  32.993  28.665  1.00  0.00     0.148 A 
ATOM     89  C   UNL A   1      47.537  33.974  30.712  1.00  0.00     0.002 A 
ATOM     90  C   UNL A   1      46.781  34.039  28.418  1.00  0.00     0.091 A 
ATOM     91  F   UNL A   1      45.163  32.475  27.670  1.00  0.00    -0.205 F 
ATOM     92  C   UNL A   1      47.616  34.522  29.435  1.00  0.00     0.022 A 
BRANCH  90  93
ATOM     93  S   UNL A   1      46.963  34.773  26.786  1.00  0.00     0.127 S 
ATOM     94  O   UNL A   1      45.602  35.228  26.501  1.00  0.00    -0.237 OA
ATOM     95  O   UNL A   1      47.925  35.842  27.040  1.00  0.00    -0.237 OA
ATOM     96  O   UNL A   1      47.429  33.699  25.918  1.00  0.00    -0.744 OA
ENDBRANCH  90  93
ENDBRANCH  62  86
BRANCH  74  97
ATOM     97  C   UNL A   1      45.088  26.721  32.481  1.00  0.00     0.023 A 
ATOM     98  C   UNL A   1      46.025  26.605  33.530  1.00  0.00     0.012 A 
ATOM     99  C   UNL A   1      43.766  27.081  32.793  1.00  0.00     0.148 A 
ATOM    100  C   UNL A   1      45.643  26.814  34.859  1.00  0.00     0.002 A 
ATOM    101  C   UNL A   1      43.401  27.336  34.109  1.00  0.00     0.091 A 
ATOM    102  F   UNL A   1      42.884  27.189  31.787  1.00  0.00    -0.205 F 
ATOM    103  C   UNL A   1      44.335  27.193  35.147  1.00  0.00     0.022 A 
BRANCH 101 104
ATOM    104  S   UNL A   1      41.766  27.946  34.518  1.00  0.00     0.127 S 
ATOM    105  O   UNL A   1      41.988  28.561  35.824  1.00  0.00    -0.237 OA
ATOM    106  O   UNL A   1      41.500  28.893  33.434  1.00  0.00    -0.237 OA
ATOM    107  O   UNL A   1      40.892  26.779  34.511  1.00  0.00    -0.744 OA
ENDBRANCH 101 104
ENDBRANCH  74  97
ENDBRANCH  48  49
ENDBRANCH  40  43
ENDBRANCH  38  39
ENDBRANCH   1  38
TORSDOF 19
ENDMDL
MODEL 3
REMARK VINA RESULT:      -9.0      1.945      2.396
REMARK SMILES COc1cc([C@@H]2CC(NCCCCNC(=O)c3ccc(-c4c5nc(c(-c6cccc(S(=O)(=O)[O-])c6F)c6ccc([nH]6)c(-c6cccc(S(=O)(=O)[O-])c6F)c6nc(c(-c7cccc(S(=O)(=O)[O-])c7F)c7ccc4[nH]7)C=C6)C=C5)cc3)=[NH+]c3c(C(=O)[O-])cn(-c4ccc(Cl)cc4)c32)cc(OC)c1O
REMARK SMILES IDX 12 1 11 2 10 3 9 4 6 5 7 6 95 7 8 8 81 9 87 10 80 11 82 12
REMARK SMILES IDX 86 13 5 16 3 17 4 18 100 19 97 20 96 21 2 22 1 23 101 24
REMARK SMILES IDX 98 26 99 27 88 28 89 29 94 30 90 31 93 32 91 33 92 34 83 35
REMARK SMILES IDX 84 36 85 37 13 38 14 39 15 40 16 42 17 43 18 44 79 45 19 46
REMARK SMILES IDX 78 47 20 48 21 49 22 50 72 51 23 52 77 53 71 54 73 55 24 56
REMARK SMILES IDX 76 57 70 58 69 59 25 61 57 62 37 63 56 64 38 65 41 66 55 67
REMARK SMILES IDX 74 68 39 69 40 70 54 72 75 73 42 74 26 75 27 76 35 77 28 78
REMARK SMILES IDX 30 79 36 80 29 81 31 82 32 83 33 84 34 85 58 86 59 87 67 88
REMARK SMILES IDX 60 89 62 90 68 91 61 92 63 93 64 94 65 95 66 96 43 97 44 98
REMARK SMILES IDX 52 99 45 100 47 101 53 102 46 103 48 104 49 105 50 106
REMARK SMILES IDX 51 107
REMARK H PARENT 9 14 80 15 101 25 14 41 73 60 41 71
REMARK Flexibility Score: inf
ROOT
ATOM      1  C   UNL A   1      34.484  32.868  32.217  1.00  0.00     0.025 C 
ENDROOT
BRANCH   1   2
ATOM      2  C   UNL A   1      34.814  34.294  31.755  1.00  0.00     0.048 C 
BRANCH   2   3
ATOM      3  C   UNL A   1      35.777  35.080  32.649  1.00  0.00     0.233 C 
BRANCH   3   4
ATOM      4  N   UNL A   1      37.164  34.817  32.306  1.00  0.00    -0.278 N 
ATOM      5  C   UNL A   1      40.576  33.648  33.626  1.00  0.00     0.083 C 
ATOM      6  C   UNL A   1      39.411  33.823  32.629  1.00  0.00     0.142 C 
ATOM      7  C   UNL A   1      40.027  33.498  35.009  1.00  0.00     0.078 A 
ATOM      8  C   UNL A   1      38.100  34.364  33.221  1.00  0.00     0.248 C 
ATOM      9  C   UNL A   1      38.727  33.770  35.345  1.00  0.00     0.155 A 
ATOM     10  N   UNL A   1      40.623  32.917  36.113  1.00  0.00    -0.315 N 
ATOM     11  N   UNL A   1      37.802  34.352  34.490  1.00  0.00    -0.243 N 
ATOM     12  C   UNL A   1      38.458  33.317  36.652  1.00  0.00     0.062 A 
ATOM     13  C   UNL A   1      39.650  32.751  37.083  1.00  0.00     0.106 A 
ATOM     14  H   UNL A   1      37.453  34.968  31.378  1.00  0.00     0.304 HD
ATOM     15  H   UNL A   1      36.961  34.739  34.826  1.00  0.00     0.312 HD
BRANCH   5  16
ATOM     16  C   UNL A   1      41.606  34.759  33.487  1.00  0.00    -0.031 A 
ATOM     17  C   UNL A   1      43.530  35.688  32.291  1.00  0.00     0.164 A 
ATOM     18  C   UNL A   1      42.497  34.749  32.402  1.00  0.00     0.055 A 
ATOM     19  C   UNL A   1      43.643  36.694  33.263  1.00  0.00     0.200 A 
ATOM     20  C   UNL A   1      42.747  36.740  34.347  1.00  0.00     0.164 A 
ATOM     21  C   UNL A   1      41.733  35.776  34.439  1.00  0.00     0.055 A 
BRANCH  17  22
ATOM     22  O   UNL A   1      44.309  35.483  31.183  1.00  0.00    -0.493 OA
ATOM     23  C   UNL A   1      43.711  35.448  29.898  1.00  0.00     0.278 C 
ENDBRANCH  17  22
BRANCH  19  24
ATOM     24  O   UNL A   1      44.588  37.673  33.124  1.00  0.00    -0.502 OA
ATOM     25  H   UNL A   1      44.713  38.089  32.293  1.00  0.00     0.293 HD
ENDBRANCH  19  24
BRANCH  20  26
ATOM     26  O   UNL A   1      42.697  37.640  35.378  1.00  0.00    -0.493 OA
ATOM     27  C   UNL A   1      43.505  37.416  36.521  1.00  0.00     0.278 C 
ENDBRANCH  20  26
ENDBRANCH   5  16
BRANCH  10  28
ATOM     28  C   UNL A   1      41.980  32.566  36.313  1.00  0.00     0.046 A 
ATOM     29  C   UNL A   1      42.349  31.222  36.392  1.00  0.00     0.028 A 
ATOM     30  C   UNL A   1      42.961  33.564  36.336  1.00  0.00     0.028 A 
ATOM     31  C   UNL A   1      43.688  30.870  36.572  1.00  0.00     0.022 A 
ATOM     32  C   UNL A   1      44.301  33.210  36.517  1.00  0.00     0.022 A 
ATOM     33  C   UNL A   1      44.658  31.867  36.642  1.00  0.00     0.041 A 
ATOM     34  Cl  UNL A   1      46.309  31.432  36.860  1.00  0.00    -0.084 Cl
ENDBRANCH  10  28
BRANCH  12  35
ATOM     35  C   UNL A   1      37.245  33.357  37.448  1.00  0.00     0.077 C 
ATOM     36  O   UNL A   1      36.130  33.578  37.014  1.00  0.00    -0.545 OA
ATOM     37  O   UNL A   1      37.405  33.126  38.772  1.00  0.00    -0.545 OA
ENDBRANCH  12  35
ENDBRANCH   3   4
ENDBRANCH   2   3
ENDBRANCH   1   2
BRANCH   1  38
ATOM     38  C   UNL A   1      35.349  31.778  31.595  1.00  0.00     0.116 C 
BRANCH  38  39
ATOM     39  N   UNL A   1      35.236  31.718  30.137  1.00  0.00    -0.352 N 
ATOM     40  C   UNL A   1      36.234  31.443  29.222  1.00  0.00     0.251 C 
ATOM     41  H   UNL A   1      34.342  31.895  29.763  1.00  0.00     0.163 HD
ATOM     42  O   UNL A   1      36.129  31.794  28.052  1.00  0.00    -0.269 OA
BRANCH  40  43
ATOM     43  C   UNL A   1      37.435  30.717  29.677  1.00  0.00     0.039 A 
ATOM     44  C   UNL A   1      37.399  29.342  29.931  1.00  0.00     0.014 A 
ATOM     45  C   UNL A   1      38.619  31.436  29.822  1.00  0.00     0.014 A 
ATOM     46  C   UNL A   1      38.586  28.684  30.244  1.00  0.00     0.010 A 
ATOM     47  C   UNL A   1      39.806  30.768  29.993  1.00  0.00     0.010 A 
ATOM     48  C   UNL A   1      39.794  29.400  30.250  1.00  0.00    -0.014 A 
BRANCH  48  49
ATOM     49  C   UNL A   1      41.072  28.702  30.374  1.00  0.00     0.031 A 
ATOM     50  C   UNL A   1      41.562  28.564  31.776  1.00  0.00     0.074 A 
ATOM     51  C   UNL A   1      41.641  28.019  29.355  1.00  0.00     0.049 A 
ATOM     52  N   UNL A   1      42.620  29.089  32.302  1.00  0.00    -0.248 NA
ATOM     53  C   UNL A   1      40.693  27.880  32.747  1.00  0.00     0.031 C 
ATOM     54  C   UNL A   1      41.089  27.786  28.014  1.00  0.00     0.029 A 
ATOM     55  N   UNL A   1      42.762  27.246  29.352  1.00  0.00    -0.354 N 
ATOM     56  C   UNL A   1      42.681  28.584  33.601  1.00  0.00     0.074 A 
ATOM     57  C   UNL A   1      41.376  28.048  33.881  1.00  0.00     0.031 C 
ATOM     58  C   UNL A   1      41.718  26.733  27.447  1.00  0.00     0.029 A 
ATOM     59  C   UNL A   1      42.821  26.336  28.298  1.00  0.00     0.049 A 
ATOM     60  H   UNL A   1      43.467  27.323  30.035  1.00  0.00     0.167 HD
ATOM     61  C   UNL A   1      43.877  28.390  34.226  1.00  0.00     0.034 A 
ATOM     62  C   UNL A   1      43.683  25.299  28.165  1.00  0.00     0.034 A 
ATOM     63  C   UNL A   1      44.933  29.121  33.567  1.00  0.00     0.049 A 
ATOM     64  C   UNL A   1      44.829  25.571  29.060  1.00  0.00     0.074 A 
ATOM     65  C   UNL A   1      45.139  30.440  33.212  1.00  0.00     0.029 A 
ATOM     66  N   UNL A   1      45.822  28.392  32.815  1.00  0.00    -0.354 N 
ATOM     67  N   UNL A   1      45.675  26.544  28.876  1.00  0.00    -0.248 NA
ATOM     68  C   UNL A   1      44.793  25.010  30.399  1.00  0.00     0.031 C 
ATOM     69  C   UNL A   1      45.762  30.379  31.930  1.00  0.00     0.029 A 
ATOM     70  C   UNL A   1      45.970  29.035  31.617  1.00  0.00     0.049 A 
ATOM     71  H   UNL A   1      46.271  27.560  33.088  1.00  0.00     0.167 HD
ATOM     72  C   UNL A   1      45.918  27.027  30.154  1.00  0.00     0.074 A 
ATOM     73  C   UNL A   1      45.446  25.974  31.053  1.00  0.00     0.031 C 
ATOM     74  C   UNL A   1      46.199  28.347  30.366  1.00  0.00     0.034 A 
BRANCH  61  75
ATOM     75  C   UNL A   1      44.189  27.241  35.171  1.00  0.00     0.023 A 
ATOM     76  C   UNL A   1      44.855  27.565  36.378  1.00  0.00     0.012 A 
ATOM     77  C   UNL A   1      44.135  25.869  34.830  1.00  0.00     0.148 A 
ATOM     78  C   UNL A   1      45.503  26.594  37.149  1.00  0.00     0.002 A 
ATOM     79  C   UNL A   1      44.710  24.898  35.643  1.00  0.00     0.091 A 
ATOM     80  F   UNL A   1      43.647  25.485  33.650  1.00  0.00    -0.205 F 
ATOM     81  C   UNL A   1      45.429  25.257  36.783  1.00  0.00     0.022 A 
BRANCH  79  82
ATOM     82  S   UNL A   1      44.593  23.147  35.244  1.00  0.00     0.127 S 
ATOM     83  O   UNL A   1      45.153  22.537  36.446  1.00  0.00    -0.237 OA
ATOM     84  O   UNL A   1      43.149  22.978  35.075  1.00  0.00    -0.237 OA
ATOM     85  O   UNL A   1      45.360  22.972  34.017  1.00  0.00    -0.744 OA
ENDBRANCH  79  82
ENDBRANCH  61  75
BRANCH  62  86
ATOM     86  C   UNL A   1      43.519  23.977  27.514  1.00  0.00     0.023 A 
ATOM     87  C   UNL A   1      42.271  23.323  27.593  1.00  0.00     0.012 A 
ATOM     88  C   UNL A   1      44.457  23.505  26.570  1.00  0.00     0.148 A 
ATOM     89  C   UNL A   1      41.946  22.275  26.724  1.00  0.00     0.002 A 
ATOM     90  C   UNL A   1      44.131  22.460  25.710  1.00  0.00     0.091 A 
ATOM     91  F   UNL A   1      45.629  24.144  26.448  1.00  0.00    -0.205 F 
ATOM     92  C   UNL A   1      42.869  21.852  25.773  1.00  0.00     0.022 A 
BRANCH  90  93
ATOM     93  S   UNL A   1      45.259  21.883  24.433  1.00  0.00     0.127 S 
ATOM     94  O   UNL A   1      46.435  21.498  25.215  1.00  0.00    -0.237 OA
ATOM     95  O   UNL A   1      44.516  20.768  23.854  1.00  0.00    -0.237 OA
ATOM     96  O   UNL A   1      45.474  23.023  23.550  1.00  0.00    -0.744 OA
ENDBRANCH  90  93
ENDBRANCH  62  86
BRANCH  74  97
ATOM     97  C   UNL A   1      46.524  29.212  29.174  1.00  0.00     0.023 A 
ATOM     98  C   UNL A   1      47.773  29.174  28.518  1.00  0.00     0.012 A 
ATOM     99  C   UNL A   1      45.485  29.969  28.606  1.00  0.00     0.148 A 
ATOM    100  C   UNL A   1      47.986  29.897  27.340  1.00  0.00     0.002 A 
ATOM    101  C   UNL A   1      45.685  30.647  27.411  1.00  0.00     0.091 A 
ATOM    102  F   UNL A   1      44.302  29.997  29.240  1.00  0.00    -0.205 F 
ATOM    103  C   UNL A   1      46.938  30.623  26.779  1.00  0.00     0.022 A 
BRANCH 101 104
ATOM    104  S   UNL A   1      44.337  31.491  26.584  1.00  0.00     0.127 S 
ATOM    105  O   UNL A   1      43.396  30.400  26.343  1.00  0.00    -0.237 OA
ATOM    106  O   UNL A   1      43.904  32.460  27.593  1.00  0.00    -0.237 OA
ATOM    107  O   UNL A   1      44.918  32.098  25.393  1.00  0.00    -0.744 OA
ENDBRANCH 101 104
ENDBRANCH  74  97
ENDBRANCH  48  49
ENDBRANCH  40  43
ENDBRANCH  38  39
ENDBRANCH   1  38
TORSDOF 19
ENDMDL
