MODEL 1
REMARK VINA RESULT:     -10.7      0.000      0.000
REMARK SMILES C[C@H](CNS(=O)(=O)c1ccc(C(=O)NCCCCNC(=O)c2ccc(-c3c4nc(c(-c5cccc(S(=O)(=O)[O-])c5F)c5ccc([nH]5)c(-c5cccc(S(=O)(=O)[O-])c5F)c5nc(c(-c6cccc(S(=O)(=O)[O-])c6F)c6ccc3[nH]6)C=C5)C=C4)cc2)cc1F)[NH+](C)C
REMARK SMILES IDX 15 1 14 2 12 3 13 4 11 6 8 7 9 8 86 9 10 10 85 11 87 12 5 13
REMARK SMILES IDX 6 14 7 15 4 16 3 18 2 19 1 20 88 21 89 22 90 23 16 25 17 26
REMARK SMILES IDX 18 27 19 28 20 29 21 31 22 32 23 33 84 34 24 35 83 36 25 37
REMARK SMILES IDX 26 38 27 39 77 40 28 41 82 42 76 43 78 44 29 45 81 46 75 47
REMARK SMILES IDX 74 48 30 50 62 51 42 52 61 53 43 54 46 55 60 56 79 57 44 58
REMARK SMILES IDX 45 59 59 61 80 62 47 63 31 64 32 65 40 66 33 67 35 68 41 69
REMARK SMILES IDX 34 70 36 71 37 72 38 73 39 74 63 75 64 76 72 77 65 78 67 79
REMARK SMILES IDX 73 80 66 81 68 82 69 83 70 84 71 85 48 86 49 87 57 88 50 89
REMARK SMILES IDX 52 90 58 91 51 92 53 93 54 94 55 95 56 96
REMARK H PARENT 14 5 4 17 88 24 19 30 78 49 46 60
REMARK Flexibility Score: inf
ROOT
ATOM      1  C   UNL A   1      35.491  21.080  25.660  1.00  0.00     0.116 C 
ENDROOT
BRANCH   1   2
ATOM      2  N   UNL A   1      34.369  20.190  25.440  1.00  0.00    -0.352 N 
ATOM      3  C   UNL A   1      33.020  20.414  25.370  1.00  0.00     0.251 C 
ATOM      4  O   UNL A   1      32.287  19.437  25.218  1.00  0.00    -0.269 OA
ATOM      5  H   UNL A   1      34.625  19.248  25.318  1.00  0.00     0.163 HD
BRANCH   3   6
ATOM      6  C   UNL A   1      32.402  21.773  25.382  1.00  0.00     0.042 A 
ATOM      7  C   UNL A   1      31.038  24.208  25.716  1.00  0.00     0.118 A 
ATOM      8  C   UNL A   1      31.786  23.682  26.768  1.00  0.00     0.026 A 
ATOM      9  C   UNL A   1      31.063  23.581  24.481  1.00  0.00     0.144 A 
ATOM     10  C   UNL A   1      32.452  22.465  26.602  1.00  0.00     0.015 A 
ATOM     11  C   UNL A   1      31.765  22.389  24.304  1.00  0.00     0.054 A 
ATOM     12  F   UNL A   1      30.378  24.063  23.436  1.00  0.00    -0.205 F 
BRANCH   7  13
ATOM     13  S   UNL A   1      29.975  25.592  25.931  1.00  0.00     0.243 S 
ATOM     14  O   UNL A   1      28.941  25.214  26.871  1.00  0.00    -0.207 OA
ATOM     15  O   UNL A   1      29.677  26.152  24.636  1.00  0.00    -0.207 OA
BRANCH  13  16
ATOM     16  N   UNL A   1      30.934  26.763  26.655  1.00  0.00    -0.205 NA
ATOM     17  H   UNL A   1      30.307  27.391  27.157  1.00  0.00     0.141 HD
BRANCH  16  18
ATOM     18  C   UNL A   1      31.806  27.606  25.821  1.00  0.00     0.163 C 
BRANCH  18  19
ATOM     19  C   UNL A   1      33.283  27.522  26.307  1.00  0.00     0.195 C 
ATOM     20  C   UNL A   1      34.015  26.323  25.685  1.00  0.00     0.076 C 
BRANCH  19  21
ATOM     21  N   UNL A   1      33.977  28.831  26.167  1.00  0.00    -0.337 N 
ATOM     22  C   UNL A   1      33.005  29.916  25.989  1.00  0.00     0.332 C 
ATOM     23  C   UNL A   1      34.878  29.190  27.267  1.00  0.00     0.332 C 
ATOM     24  H   UNL A   1      34.565  28.713  25.343  1.00  0.00     0.347 HD
ENDBRANCH  19  21
ENDBRANCH  18  19
ENDBRANCH  16  18
ENDBRANCH  13  16
ENDBRANCH   7  13
ENDBRANCH   3   6
ENDBRANCH   1   2
BRANCH   1  25
ATOM     25  C   UNL A   1      35.961  21.671  24.329  1.00  0.00     0.023 C 
BRANCH  25  26
ATOM     26  C   UNL A   1      36.911  22.862  24.478  1.00  0.00     0.023 C 
BRANCH  26  27
ATOM     27  C   UNL A   1      37.658  22.914  25.806  1.00  0.00     0.116 C 
BRANCH  27  28
ATOM     28  N   UNL A   1      38.868  22.106  25.812  1.00  0.00    -0.352 N 
ATOM     29  C   UNL A   1      40.135  22.473  26.190  1.00  0.00     0.251 C 
ATOM     30  H   UNL A   1      38.765  21.176  25.504  1.00  0.00     0.163 HD
ATOM     31  O   UNL A   1      41.074  21.699  26.032  1.00  0.00    -0.269 OA
BRANCH  29  32
ATOM     32  C   UNL A   1      40.362  23.820  26.749  1.00  0.00     0.039 A 
ATOM     33  C   UNL A   1      40.819  23.929  28.064  1.00  0.00     0.014 A 
ATOM     34  C   UNL A   1      40.153  24.965  25.975  1.00  0.00     0.014 A 
ATOM     35  C   UNL A   1      41.113  25.188  28.588  1.00  0.00     0.010 A 
ATOM     36  C   UNL A   1      40.516  26.211  26.473  1.00  0.00     0.010 A 
ATOM     37  C   UNL A   1      40.988  26.337  27.788  1.00  0.00    -0.014 A 
BRANCH  37  38
ATOM     38  C   UNL A   1      41.352  27.672  28.317  1.00  0.00     0.031 A 
ATOM     39  C   UNL A   1      42.790  28.108  28.351  1.00  0.00     0.074 A 
ATOM     40  C   UNL A   1      40.389  28.470  28.818  1.00  0.00     0.049 A 
ATOM     41  N   UNL A   1      43.294  29.243  28.761  1.00  0.00    -0.248 NA
ATOM     42  C   UNL A   1      43.800  27.138  27.892  1.00  0.00     0.031 C 
ATOM     43  C   UNL A   1      38.971  28.117  28.921  1.00  0.00     0.029 A 
ATOM     44  N   UNL A   1      40.455  29.735  29.346  1.00  0.00    -0.354 N 
ATOM     45  C   UNL A   1      44.671  29.115  28.635  1.00  0.00     0.074 A 
ATOM     46  C   UNL A   1      44.932  27.779  28.152  1.00  0.00     0.031 C 
ATOM     47  C   UNL A   1      38.299  29.149  29.457  1.00  0.00     0.029 A 
ATOM     48  C   UNL A   1      39.237  30.228  29.754  1.00  0.00     0.049 A 
ATOM     49  H   UNL A   1      41.295  30.243  29.425  1.00  0.00     0.167 HD
ATOM     50  C   UNL A   1      45.629  30.043  28.863  1.00  0.00     0.034 A 
ATOM     51  C   UNL A   1      38.910  31.419  30.294  1.00  0.00     0.034 A 
ATOM     52  C   UNL A   1      45.355  31.389  29.283  1.00  0.00     0.049 A 
ATOM     53  C   UNL A   1      39.985  32.454  30.481  1.00  0.00     0.074 A 
ATOM     54  C   UNL A   1      46.247  32.434  29.439  1.00  0.00     0.029 A 
ATOM     55  N   UNL A   1      44.100  31.876  29.612  1.00  0.00    -0.354 N 
ATOM     56  N   UNL A   1      41.263  32.373  30.194  1.00  0.00    -0.248 NA
ATOM     57  C   UNL A   1      39.578  33.755  31.033  1.00  0.00     0.031 C 
ATOM     58  C   UNL A   1      45.534  33.550  29.882  1.00  0.00     0.029 A 
ATOM     59  C   UNL A   1      44.194  33.205  29.981  1.00  0.00     0.049 A 
ATOM     60  H   UNL A   1      43.267  31.354  29.586  1.00  0.00     0.167 HD
ATOM     61  C   UNL A   1      41.804  33.616  30.499  1.00  0.00     0.074 A 
ATOM     62  C   UNL A   1      40.715  34.440  30.980  1.00  0.00     0.031 C 
ATOM     63  C   UNL A   1      43.090  34.030  30.402  1.00  0.00     0.034 A 
BRANCH  50  64
ATOM     64  C   UNL A   1      47.059  29.668  28.586  1.00  0.00     0.023 A 
ATOM     65  C   UNL A   1      47.616  29.961  27.324  1.00  0.00     0.012 A 
ATOM     66  C   UNL A   1      47.878  29.122  29.594  1.00  0.00     0.148 A 
ATOM     67  C   UNL A   1      48.960  29.696  27.062  1.00  0.00     0.002 A 
ATOM     68  C   UNL A   1      49.227  28.902  29.339  1.00  0.00     0.091 A 
ATOM     69  F   UNL A   1      47.324  28.833  30.780  1.00  0.00    -0.205 F 
ATOM     70  C   UNL A   1      49.767  29.180  28.072  1.00  0.00     0.022 A 
BRANCH  68  71
ATOM     71  S   UNL A   1      50.370  28.317  30.595  1.00  0.00     0.127 S 
ATOM     72  O   UNL A   1      49.497  27.492  31.427  1.00  0.00    -0.237 OA
ATOM     73  O   UNL A   1      51.342  27.567  29.800  1.00  0.00    -0.237 OA
ATOM     74  O   UNL A   1      50.902  29.508  31.241  1.00  0.00    -0.744 OA
ENDBRANCH  68  71
ENDBRANCH  50  64
BRANCH  51  75
ATOM     75  C   UNL A   1      37.481  31.720  30.593  1.00  0.00     0.023 A 
ATOM     76  C   UNL A   1      36.968  31.422  31.870  1.00  0.00     0.012 A 
ATOM     77  C   UNL A   1      36.653  32.366  29.654  1.00  0.00     0.148 A 
ATOM     78  C   UNL A   1      35.653  31.748  32.203  1.00  0.00     0.002 A 
ATOM     79  C   UNL A   1      35.362  32.738  30.010  1.00  0.00     0.091 A 
ATOM     80  F   UNL A   1      37.156  32.630  28.440  1.00  0.00    -0.205 F 
ATOM     81  C   UNL A   1      34.855  32.417  31.280  1.00  0.00     0.022 A 
BRANCH  79  82
ATOM     82  S   UNL A   1      34.312  33.726  28.938  1.00  0.00     0.127 S 
ATOM     83  O   UNL A   1      33.803  32.722  28.007  1.00  0.00    -0.237 OA
ATOM     84  O   UNL A   1      33.323  34.248  29.882  1.00  0.00    -0.237 OA
ATOM     85  O   UNL A   1      35.183  34.741  28.362  1.00  0.00    -0.744 OA
ENDBRANCH  79  82
ENDBRANCH  51  75
BRANCH  63  86
ATOM     86  C   UNL A   1      43.421  35.442  30.803  1.00  0.00     0.023 A 
ATOM     87  C   UNL A   1      43.911  35.695  32.099  1.00  0.00     0.012 A 
ATOM     88  C   UNL A   1      43.404  36.480  29.850  1.00  0.00     0.148 A 
ATOM     89  C   UNL A   1      44.377  36.964  32.442  1.00  0.00     0.002 A 
ATOM     90  C   UNL A   1      43.912  37.729  30.185  1.00  0.00     0.091 A 
ATOM     91  F   UNL A   1      42.923  36.215  28.627  1.00  0.00    -0.205 F 
ATOM     92  C   UNL A   1      44.394  37.973  31.482  1.00  0.00     0.022 A 
BRANCH  90  93
ATOM     93  S   UNL A   1      44.075  39.061  28.991  1.00  0.00     0.127 S 
ATOM     94  O   UNL A   1      44.879  38.428  27.947  1.00  0.00    -0.237 OA
ATOM     95  O   UNL A   1      42.683  39.314  28.620  1.00  0.00    -0.237 OA
ATOM     96  O   UNL A   1      44.727  40.157  29.693  1.00  0.00    -0.744 OA
ENDBRANCH  90  93
ENDBRANCH  63  86
ENDBRANCH  37  38
ENDBRANCH  29  32
ENDBRANCH  27  28
ENDBRANCH  26  27
ENDBRANCH  25  26
ENDBRANCH   1  25
TORSDOF 19
ENDMDL
MODEL 2
REMARK VINA RESULT:     -10.4      1.687      2.164
REMARK SMILES C[C@H](CNS(=O)(=O)c1ccc(C(=O)NCCCCNC(=O)c2ccc(-c3c4nc(c(-c5cccc(S(=O)(=O)[O-])c5F)c5ccc([nH]5)c(-c5cccc(S(=O)(=O)[O-])c5F)c5nc(c(-c6cccc(S(=O)(=O)[O-])c6F)c6ccc3[nH]6)C=C5)C=C4)cc2)cc1F)[NH+](C)C
REMARK SMILES IDX 15 1 14 2 12 3 13 4 11 6 8 7 9 8 86 9 10 10 85 11 87 12 5 13
REMARK SMILES IDX 6 14 7 15 4 16 3 18 2 19 1 20 88 21 89 22 90 23 16 25 17 26
REMARK SMILES IDX 18 27 19 28 20 29 21 31 22 32 23 33 84 34 24 35 83 36 25 37
REMARK SMILES IDX 26 38 27 39 77 40 28 41 82 42 76 43 78 44 29 45 81 46 75 47
REMARK SMILES IDX 74 48 30 50 62 51 42 52 61 53 43 54 46 55 60 56 79 57 44 58
REMARK SMILES IDX 45 59 59 61 80 62 47 63 31 64 32 65 40 66 33 67 35 68 41 69
REMARK SMILES IDX 34 70 36 71 37 72 38 73 39 74 63 75 64 76 72 77 65 78 67 79
REMARK SMILES IDX 73 80 66 81 68 82 69 83 70 84 71 85 48 86 49 87 57 88 50 89
REMARK SMILES IDX 52 90 58 91 51 92 53 93 54 94 55 95 56 96
REMARK H PARENT 14 5 4 17 88 24 19 30 78 49 46 60
REMARK Flexibility Score: inf
ROOT
ATOM      1  C   UNL A   1      35.196  21.337  25.606  1.00  0.00     0.116 C 
ENDROOT
BRANCH   1   2
ATOM      2  N   UNL A   1      33.818  20.893  25.555  1.00  0.00    -0.352 N 
ATOM      3  C   UNL A   1      32.656  21.538  25.227  1.00  0.00     0.251 C 
ATOM      4  O   UNL A   1      31.604  20.906  25.323  1.00  0.00    -0.269 OA
ATOM      5  H   UNL A   1      33.694  19.948  25.803  1.00  0.00     0.163 HD
BRANCH   3   6
ATOM      6  C   UNL A   1      32.603  22.928  24.683  1.00  0.00     0.042 A 
ATOM      7  C   UNL A   1      32.594  25.384  23.315  1.00  0.00     0.118 A 
ATOM      8  C   UNL A   1      31.776  24.343  22.878  1.00  0.00     0.026 A 
ATOM      9  C   UNL A   1      33.323  25.234  24.484  1.00  0.00     0.144 A 
ATOM     10  C   UNL A   1      31.793  23.121  23.553  1.00  0.00     0.015 A 
ATOM     11  C   UNL A   1      33.304  24.027  25.182  1.00  0.00     0.054 A 
ATOM     12  F   UNL A   1      34.105  26.214  24.953  1.00  0.00    -0.205 F 
BRANCH   7  13
ATOM     13  S   UNL A   1      32.816  26.851  22.372  1.00  0.00     0.243 S 
ATOM     14  O   UNL A   1      33.564  26.504  21.182  1.00  0.00    -0.207 OA
ATOM     15  O   UNL A   1      33.222  27.914  23.259  1.00  0.00    -0.207 OA
BRANCH  13  16
ATOM     16  N   UNL A   1      31.268  27.299  21.903  1.00  0.00    -0.205 NA
ATOM     17  H   UNL A   1      31.368  28.108  21.290  1.00  0.00     0.141 HD
BRANCH  16  18
ATOM     18  C   UNL A   1      30.274  27.658  22.927  1.00  0.00     0.163 C 
BRANCH  18  19
ATOM     19  C   UNL A   1      29.563  28.995  22.560  1.00  0.00     0.195 C 
ATOM     20  C   UNL A   1      28.035  28.856  22.614  1.00  0.00     0.076 C 
BRANCH  19  21
ATOM     21  N   UNL A   1      30.125  30.138  23.332  1.00  0.00    -0.337 N 
ATOM     22  C   UNL A   1      29.082  31.130  23.620  1.00  0.00     0.332 C 
ATOM     23  C   UNL A   1      30.791  29.785  24.589  1.00  0.00     0.332 C 
ATOM     24  H   UNL A   1      30.847  30.517  22.721  1.00  0.00     0.347 HD
ENDBRANCH  19  21
ENDBRANCH  18  19
ENDBRANCH  16  18
ENDBRANCH  13  16
ENDBRANCH   7  13
ENDBRANCH   3   6
ENDBRANCH   1   2
BRANCH   1  25
ATOM     25  C   UNL A   1      35.612  21.913  24.250  1.00  0.00     0.023 C 
BRANCH  25  26
ATOM     26  C   UNL A   1      36.970  22.619  24.265  1.00  0.00     0.023 C 
BRANCH  26  27
ATOM     27  C   UNL A   1      37.554  22.841  25.655  1.00  0.00     0.116 C 
BRANCH  27  28
ATOM     28  N   UNL A   1      38.678  21.965  25.949  1.00  0.00    -0.352 N 
ATOM     29  C   UNL A   1      39.887  22.290  26.511  1.00  0.00     0.251 C 
ATOM     30  H   UNL A   1      38.555  21.016  25.714  1.00  0.00     0.163 HD
ATOM     31  O   UNL A   1      40.775  21.447  26.592  1.00  0.00    -0.269 OA
BRANCH  29  32
ATOM     32  C   UNL A   1      40.121  23.671  26.976  1.00  0.00     0.039 A 
ATOM     33  C   UNL A   1      40.406  23.881  28.327  1.00  0.00     0.014 A 
ATOM     34  C   UNL A   1      40.086  24.747  26.084  1.00  0.00     0.014 A 
ATOM     35  C   UNL A   1      40.705  25.168  28.774  1.00  0.00     0.010 A 
ATOM     36  C   UNL A   1      40.456  26.015  26.516  1.00  0.00     0.010 A 
ATOM     37  C   UNL A   1      40.757  26.241  27.867  1.00  0.00    -0.014 A 
BRANCH  37  38
ATOM     38  C   UNL A   1      41.130  27.601  28.324  1.00  0.00     0.031 A 
ATOM     39  C   UNL A   1      42.572  28.023  28.349  1.00  0.00     0.074 A 
ATOM     40  C   UNL A   1      40.170  28.436  28.767  1.00  0.00     0.049 A 
ATOM     41  N   UNL A   1      43.084  29.175  28.699  1.00  0.00    -0.248 NA
ATOM     42  C   UNL A   1      43.577  27.019  27.958  1.00  0.00     0.031 C 
ATOM     43  C   UNL A   1      38.748  28.104  28.874  1.00  0.00     0.029 A 
ATOM     44  N   UNL A   1      40.244  29.729  29.222  1.00  0.00    -0.354 N 
ATOM     45  C   UNL A   1      44.460  29.026  28.595  1.00  0.00     0.074 A 
ATOM     46  C   UNL A   1      44.712  27.662  28.193  1.00  0.00     0.031 C 
ATOM     47  C   UNL A   1      38.081  29.171  29.342  1.00  0.00     0.029 A 
ATOM     48  C   UNL A   1      39.027  30.256  29.587  1.00  0.00     0.049 A 
ATOM     49  H   UNL A   1      41.088  30.232  29.281  1.00  0.00     0.167 HD
ATOM     50  C   UNL A   1      45.426  29.956  28.781  1.00  0.00     0.034 A 
ATOM     51  C   UNL A   1      38.707  31.480  30.054  1.00  0.00     0.034 A 
ATOM     52  C   UNL A   1      45.162  31.326  29.119  1.00  0.00     0.049 A 
ATOM     53  C   UNL A   1      39.791  32.513  30.194  1.00  0.00     0.074 A 
ATOM     54  C   UNL A   1      46.063  32.370  29.226  1.00  0.00     0.029 A 
ATOM     55  N   UNL A   1      43.909  31.844  29.406  1.00  0.00    -0.354 N 
ATOM     56  N   UNL A   1      41.071  32.402  29.926  1.00  0.00    -0.248 NA
ATOM     57  C   UNL A   1      39.392  33.847  30.665  1.00  0.00     0.031 C 
ATOM     58  C   UNL A   1      45.357  33.517  29.595  1.00  0.00     0.029 A 
ATOM     59  C   UNL A   1      44.013  33.191  29.699  1.00  0.00     0.049 A 
ATOM     60  H   UNL A   1      43.070  31.330  29.401  1.00  0.00     0.167 HD
ATOM     61  C   UNL A   1      41.622  33.656  30.165  1.00  0.00     0.074 A 
ATOM     62  C   UNL A   1      40.536  34.516  30.586  1.00  0.00     0.031 C 
ATOM     63  C   UNL A   1      42.913  34.050  30.059  1.00  0.00     0.034 A 
BRANCH  50  64
ATOM     64  C   UNL A   1      46.855  29.552  28.542  1.00  0.00     0.023 A 
ATOM     65  C   UNL A   1      47.430  29.770  27.273  1.00  0.00     0.012 A 
ATOM     66  C   UNL A   1      47.656  29.053  29.588  1.00  0.00     0.148 A 
ATOM     67  C   UNL A   1      48.773  29.477  27.042  1.00  0.00     0.002 A 
ATOM     68  C   UNL A   1      49.005  28.805  29.362  1.00  0.00     0.091 A 
ATOM     69  F   UNL A   1      47.085  28.834  30.782  1.00  0.00    -0.205 F 
ATOM     70  C   UNL A   1      49.563  29.008  28.088  1.00  0.00     0.022 A 
BRANCH  68  71
ATOM     71  S   UNL A   1      50.127  28.278  30.662  1.00  0.00     0.127 S 
ATOM     72  O   UNL A   1      49.990  29.365  31.628  1.00  0.00    -0.237 OA
ATOM     73  O   UNL A   1      49.533  27.008  31.083  1.00  0.00    -0.237 OA
ATOM     74  O   UNL A   1      51.437  28.159  30.039  1.00  0.00    -0.744 OA
ENDBRANCH  68  71
ENDBRANCH  50  64
BRANCH  51  75
ATOM     75  C   UNL A   1      37.278  31.811  30.319  1.00  0.00     0.023 A 
ATOM     76  C   UNL A   1      36.794  31.760  31.640  1.00  0.00     0.012 A 
ATOM     77  C   UNL A   1      36.422  32.248  29.290  1.00  0.00     0.148 A 
ATOM     78  C   UNL A   1      35.479  32.125  31.931  1.00  0.00     0.002 A 
ATOM     79  C   UNL A   1      35.130  32.663  29.595  1.00  0.00     0.091 A 
ATOM     80  F   UNL A   1      36.898  32.278  28.037  1.00  0.00    -0.205 F 
ATOM     81  C   UNL A   1      34.652  32.589  30.913  1.00  0.00     0.022 A 
BRANCH  79  82
ATOM     82  S   UNL A   1      34.042  33.407  28.373  1.00  0.00     0.127 S 
ATOM     83  O   UNL A   1      33.119  34.164  29.214  1.00  0.00    -0.237 OA
ATOM     84  O   UNL A   1      34.976  34.222  27.595  1.00  0.00    -0.237 OA
ATOM     85  O   UNL A   1      33.460  32.294  27.635  1.00  0.00    -0.744 OA
ENDBRANCH  79  82
ENDBRANCH  51  75
BRANCH  63  86
ATOM     86  C   UNL A   1      43.254  35.480  30.383  1.00  0.00     0.023 A 
ATOM     87  C   UNL A   1      43.775  35.795  31.653  1.00  0.00     0.012 A 
ATOM     88  C   UNL A   1      43.217  36.469  29.380  1.00  0.00     0.148 A 
ATOM     89  C   UNL A   1      44.250  37.078  31.921  1.00  0.00     0.002 A 
ATOM     90  C   UNL A   1      43.734  37.732  29.641  1.00  0.00     0.091 A 
ATOM     91  F   UNL A   1      42.708  36.146  28.183  1.00  0.00    -0.205 F 
ATOM     92  C   UNL A   1      44.246  38.039  30.913  1.00  0.00     0.022 A 
BRANCH  90  93
ATOM     93  S   UNL A   1      43.871  39.003  28.379  1.00  0.00     0.127 S 
ATOM     94  O   UNL A   1      42.467  39.281  28.083  1.00  0.00    -0.237 OA
ATOM     95  O   UNL A   1      44.567  40.073  29.094  1.00  0.00    -0.237 OA
ATOM     96  O   UNL A   1      44.627  38.409  27.285  1.00  0.00    -0.744 OA
ENDBRANCH  90  93
ENDBRANCH  63  86
ENDBRANCH  37  38
ENDBRANCH  29  32
ENDBRANCH  27  28
ENDBRANCH  26  27
ENDBRANCH  25  26
ENDBRANCH   1  25
TORSDOF 19
ENDMDL
MODEL 3
REMARK VINA RESULT:      -9.4      2.577      3.153
REMARK SMILES C[C@H](CNS(=O)(=O)c1ccc(C(=O)NCCCCNC(=O)c2ccc(-c3c4nc(c(-c5cccc(S(=O)(=O)[O-])c5F)c5ccc([nH]5)c(-c5cccc(S(=O)(=O)[O-])c5F)c5nc(c(-c6cccc(S(=O)(=O)[O-])c6F)c6ccc3[nH]6)C=C5)C=C4)cc2)cc1F)[NH+](C)C
REMARK SMILES IDX 15 1 14 2 12 3 13 4 11 6 8 7 9 8 86 9 10 10 85 11 87 12 5 13
REMARK SMILES IDX 6 14 7 15 4 16 3 18 2 19 1 20 88 21 89 22 90 23 16 25 17 26
REMARK SMILES IDX 18 27 19 28 20 29 21 31 22 32 23 33 84 34 24 35 83 36 25 37
REMARK SMILES IDX 26 38 27 39 77 40 28 41 82 42 76 43 78 44 29 45 81 46 75 47
REMARK SMILES IDX 74 48 30 50 62 51 42 52 61 53 43 54 46 55 60 56 79 57 44 58
REMARK SMILES IDX 45 59 59 61 80 62 47 63 31 64 32 65 40 66 33 67 35 68 41 69
REMARK SMILES IDX 34 70 36 71 37 72 38 73 39 74 63 75 64 76 72 77 65 78 67 79
REMARK SMILES IDX 73 80 66 81 68 82 69 83 70 84 71 85 48 86 49 87 57 88 50 89
REMARK SMILES IDX 52 90 58 91 51 92 53 93 54 94 55 95 56 96
REMARK H PARENT 14 5 4 17 88 24 19 30 78 49 46 60
REMARK Flexibility Score: inf
ROOT
ATOM      1  C   UNL A   1      34.914  21.437  25.014  1.00  0.00     0.116 C 
ENDROOT
BRANCH   1   2
ATOM      2  N   UNL A   1      33.695  20.866  24.480  1.00  0.00    -0.352 N 
ATOM      3  C   UNL A   1      32.518  21.432  24.067  1.00  0.00     0.251 C 
ATOM      4  O   UNL A   1      31.619  20.677  23.697  1.00  0.00    -0.269 OA
ATOM      5  H   UNL A   1      33.716  19.885  24.398  1.00  0.00     0.163 HD
BRANCH   3   6
ATOM      6  C   UNL A   1      32.299  22.905  23.962  1.00  0.00     0.042 A 
ATOM      7  C   UNL A   1      31.875  25.622  23.376  1.00  0.00     0.118 A 
ATOM      8  C   UNL A   1      30.978  24.664  22.908  1.00  0.00     0.026 A 
ATOM      9  C   UNL A   1      32.907  25.237  24.217  1.00  0.00     0.144 A 
ATOM     10  C   UNL A   1      31.199  23.314  23.190  1.00  0.00     0.015 A 
ATOM     11  C   UNL A   1      33.100  23.894  24.535  1.00  0.00     0.054 A 
ATOM     12  F   UNL A   1      33.779  26.126  24.709  1.00  0.00    -0.205 F 
BRANCH   7  13
ATOM     13  S   UNL A   1      31.804  27.299  22.850  1.00  0.00     0.243 S 
ATOM     14  O   UNL A   1      30.681  27.432  21.946  1.00  0.00    -0.207 OA
ATOM     15  O   UNL A   1      33.135  27.730  22.500  1.00  0.00    -0.207 OA
BRANCH  13  16
ATOM     16  N   UNL A   1      31.461  28.172  24.241  1.00  0.00    -0.205 NA
ATOM     17  H   UNL A   1      30.474  28.020  24.450  1.00  0.00     0.141 HD
BRANCH  16  18
ATOM     18  C   UNL A   1      31.683  29.627  24.260  1.00  0.00     0.163 C 
BRANCH  18  19
ATOM     19  C   UNL A   1      30.356  30.383  24.564  1.00  0.00     0.195 C 
ATOM     20  C   UNL A   1      30.591  31.587  25.486  1.00  0.00     0.076 C 
BRANCH  19  21
ATOM     21  N   UNL A   1      29.599  30.676  23.316  1.00  0.00    -0.337 N 
ATOM     22  C   UNL A   1      28.475  29.745  23.160  1.00  0.00     0.332 C 
ATOM     23  C   UNL A   1      29.090  32.046  23.193  1.00  0.00     0.332 C 
ATOM     24  H   UNL A   1      30.290  30.560  22.575  1.00  0.00     0.347 HD
ENDBRANCH  19  21
ENDBRANCH  18  19
ENDBRANCH  16  18
ENDBRANCH  13  16
ENDBRANCH   7  13
ENDBRANCH   3   6
ENDBRANCH   1   2
BRANCH   1  25
ATOM     25  C   UNL A   1      35.713  22.108  23.895  1.00  0.00     0.023 C 
BRANCH  25  26
ATOM     26  C   UNL A   1      37.216  22.202  24.174  1.00  0.00     0.023 C 
BRANCH  26  27
ATOM     27  C   UNL A   1      37.590  22.159  25.651  1.00  0.00     0.116 C 
BRANCH  27  28
ATOM     28  N   UNL A   1      38.598  21.155  25.956  1.00  0.00    -0.352 N 
ATOM     29  C   UNL A   1      39.837  21.336  26.516  1.00  0.00     0.251 C 
ATOM     30  H   UNL A   1      38.361  20.227  25.730  1.00  0.00     0.163 HD
ATOM     31  O   UNL A   1      40.616  20.392  26.608  1.00  0.00    -0.269 OA
BRANCH  29  32
ATOM     32  C   UNL A   1      40.238  22.683  26.968  1.00  0.00     0.039 A 
ATOM     33  C   UNL A   1      41.189  22.791  27.985  1.00  0.00     0.014 A 
ATOM     34  C   UNL A   1      39.701  23.830  26.376  1.00  0.00     0.014 A 
ATOM     35  C   UNL A   1      41.638  24.052  28.375  1.00  0.00     0.010 A 
ATOM     36  C   UNL A   1      40.204  25.081  26.715  1.00  0.00     0.010 A 
ATOM     37  C   UNL A   1      41.168  25.206  27.726  1.00  0.00    -0.014 A 
BRANCH  37  38
ATOM     38  C   UNL A   1      41.682  26.546  28.095  1.00  0.00     0.031 A 
ATOM     39  C   UNL A   1      43.096  26.934  27.764  1.00  0.00     0.074 A 
ATOM     40  C   UNL A   1      40.888  27.394  28.778  1.00  0.00     0.049 A 
ATOM     41  N   UNL A   1      43.711  28.064  27.992  1.00  0.00    -0.248 NA
ATOM     42  C   UNL A   1      43.940  25.914  27.117  1.00  0.00     0.031 C 
ATOM     43  C   UNL A   1      39.529  27.093  29.234  1.00  0.00     0.029 A 
ATOM     44  N   UNL A   1      41.111  28.674  29.220  1.00  0.00    -0.354 N 
ATOM     45  C   UNL A   1      45.013  27.886  27.543  1.00  0.00     0.074 A 
ATOM     46  C   UNL A   1      45.117  26.524  27.069  1.00  0.00     0.031 C 
ATOM     47  C   UNL A   1      39.032  28.165  29.871  1.00  0.00     0.029 A 
ATOM     48  C   UNL A   1      40.039  29.222  29.887  1.00  0.00     0.049 A 
ATOM     49  H   UNL A   1      41.957  29.155  29.073  1.00  0.00     0.167 HD
ATOM     50  C   UNL A   1      46.021  28.788  27.494  1.00  0.00     0.034 A 
ATOM     51  C   UNL A   1      39.882  30.442  30.439  1.00  0.00     0.034 A 
ATOM     52  C   UNL A   1      45.890  30.156  27.910  1.00  0.00     0.049 A 
ATOM     53  C   UNL A   1      40.996  31.446  30.318  1.00  0.00     0.074 A 
ATOM     54  C   UNL A   1      46.818  31.175  27.803  1.00  0.00     0.029 A 
ATOM     55  N   UNL A   1      44.764  30.697  28.510  1.00  0.00    -0.354 N 
ATOM     56  N   UNL A   1      42.164  31.311  29.735  1.00  0.00    -0.248 NA
ATOM     57  C   UNL A   1      40.766  32.778  30.895  1.00  0.00     0.031 C 
ATOM     58  C   UNL A   1      46.260  32.330  28.356  1.00  0.00     0.029 A 
ATOM     59  C   UNL A   1      44.976  32.034  28.789  1.00  0.00     0.049 A 
ATOM     60  H   UNL A   1      43.936  30.203  28.708  1.00  0.00     0.167 HD
ATOM     61  C   UNL A   1      42.793  32.545  29.848  1.00  0.00     0.074 A 
ATOM     62  C   UNL A   1      41.873  33.422  30.542  1.00  0.00     0.031 C 
ATOM     63  C   UNL A   1      44.027  32.911  29.427  1.00  0.00     0.034 A 
BRANCH  50  64
ATOM     64  C   UNL A   1      47.332  28.354  26.898  1.00  0.00     0.023 A 
ATOM     65  C   UNL A   1      48.416  28.066  27.752  1.00  0.00     0.012 A 
ATOM     66  C   UNL A   1      47.466  28.137  25.512  1.00  0.00     0.148 A 
ATOM     67  C   UNL A   1      49.620  27.589  27.236  1.00  0.00     0.002 A 
ATOM     68  C   UNL A   1      48.654  27.620  25.010  1.00  0.00     0.091 A 
ATOM     69  F   UNL A   1      46.430  28.436  24.715  1.00  0.00    -0.205 F 
ATOM     70  C   UNL A   1      49.734  27.354  25.868  1.00  0.00     0.022 A 
BRANCH  68  71
ATOM     71  S   UNL A   1      48.876  27.204  23.277  1.00  0.00     0.127 S 
ATOM     72  O   UNL A   1      48.172  25.926  23.187  1.00  0.00    -0.237 OA
ATOM     73  O   UNL A   1      48.207  28.318  22.605  1.00  0.00    -0.237 OA
ATOM     74  O   UNL A   1      50.315  27.138  23.060  1.00  0.00    -0.744 OA
ENDBRANCH  68  71
ENDBRANCH  50  64
BRANCH  51  75
ATOM     75  C   UNL A   1      38.576  30.801  31.060  1.00  0.00     0.023 A 
ATOM     76  C   UNL A   1      38.388  30.589  32.438  1.00  0.00     0.012 A 
ATOM     77  C   UNL A   1      37.553  31.420  30.315  1.00  0.00     0.148 A 
ATOM     78  C   UNL A   1      37.201  30.972  33.063  1.00  0.00     0.002 A 
ATOM     79  C   UNL A   1      36.395  31.850  30.953  1.00  0.00     0.091 A 
ATOM     80  F   UNL A   1      37.746  31.603  29.001  1.00  0.00    -0.205 F 
ATOM     81  C   UNL A   1      36.211  31.614  32.325  1.00  0.00     0.022 A 
BRANCH  79  82
ATOM     82  S   UNL A   1      35.130  32.811  30.113  1.00  0.00     0.127 S 
ATOM     83  O   UNL A   1      35.901  33.939  29.599  1.00  0.00    -0.237 OA
ATOM     84  O   UNL A   1      34.663  31.868  29.095  1.00  0.00    -0.237 OA
ATOM     85  O   UNL A   1      34.139  33.132  31.131  1.00  0.00    -0.744 OA
ENDBRANCH  79  82
ENDBRANCH  51  75
BRANCH  63  86
ATOM     86  C   UNL A   1      44.480  34.324  29.677  1.00  0.00     0.023 A 
ATOM     87  C   UNL A   1      45.088  34.648  30.905  1.00  0.00     0.012 A 
ATOM     88  C   UNL A   1      44.453  35.278  28.640  1.00  0.00     0.148 A 
ATOM     89  C   UNL A   1      45.661  35.905  31.098  1.00  0.00     0.002 A 
ATOM     90  C   UNL A   1      45.066  36.511  28.824  1.00  0.00     0.091 A 
ATOM     91  F   UNL A   1      43.859  34.948  27.484  1.00  0.00    -0.205 F 
ATOM     92  C   UNL A   1      45.665  36.827  30.055  1.00  0.00     0.022 A 
BRANCH  90  93
ATOM     93  S   UNL A   1      45.218  37.725  27.508  1.00  0.00     0.127 S 
ATOM     94  O   UNL A   1      45.993  38.777  28.163  1.00  0.00    -0.237 OA
ATOM     95  O   UNL A   1      45.947  36.978  26.483  1.00  0.00    -0.237 OA
ATOM     96  O   UNL A   1      43.859  38.096  27.141  1.00  0.00    -0.744 OA
ENDBRANCH  90  93
ENDBRANCH  63  86
ENDBRANCH  37  38
ENDBRANCH  29  32
ENDBRANCH  27  28
ENDBRANCH  26  27
ENDBRANCH  25  26
ENDBRANCH   1  25
TORSDOF 19
ENDMDL
