MODEL 1
REMARK VINA RESULT:     -13.1      0.000      0.000
REMARK SMILES O=C(Nc1cccc(C(=O)NCCCCNC(=O)c2ccc(-c3c4nc(c(-c5cccc(S(=O)(=O)[O-])c5F)c5ccc([nH]5)c(-c5cccc(S(=O)(=O)[O-])c5F)c5nc(c(-c6cccc(S(=O)(=O)[O-])c6F)c6ccc3[nH]6)C=C5)C=C4)cc2)c1)Nc1cc(Cl)c(Cl)cc1Cl
REMARK SMILES IDX 14 1 13 2 12 3 11 4 9 5 10 6 8 8 4 9 5 10 82 11 6 12 7 13
REMARK SMILES IDX 3 14 1 15 2 16 83 17 84 20 85 21 91 22 86 23 90 24 92 25
REMARK SMILES IDX 87 26 88 27 89 28 15 29 16 30 17 31 18 33 19 34 20 35 81 36
REMARK SMILES IDX 21 37 80 38 22 39 23 40 24 41 74 42 25 43 79 44 73 45 75 46
REMARK SMILES IDX 26 47 78 48 72 49 71 50 27 52 59 53 39 54 58 55 40 56 43 57
REMARK SMILES IDX 57 58 76 59 41 60 42 61 56 63 77 64 44 65 28 66 29 67 37 68
REMARK SMILES IDX 30 69 32 70 38 71 31 72 33 73 34 74 35 75 36 76 60 77 61 78
REMARK SMILES IDX 69 79 62 80 64 81 70 82 63 83 65 84 66 85 67 86 68 87 45 88
REMARK SMILES IDX 46 89 54 90 47 91 49 92 55 93 48 94 50 95 51 96 52 97 53 98
REMARK H PARENT 11 7 3 18 83 19 16 32 75 51 43 62
REMARK Flexibility Score: inf
ROOT
ATOM      1  C   UNL A   1      31.823  32.094  26.638  1.00  0.00     0.023 C 
ENDROOT
BRANCH   1   2
ATOM      2  C   UNL A   1      31.869  30.567  26.735  1.00  0.00     0.023 C 
BRANCH   2   3
ATOM      3  C   UNL A   1      33.185  29.944  26.261  1.00  0.00     0.116 C 
BRANCH   3   4
ATOM      4  N   UNL A   1      33.188  29.742  24.825  1.00  0.00    -0.352 N 
ATOM      5  C   UNL A   1      32.566  28.847  23.994  1.00  0.00     0.251 C 
ATOM      6  O   UNL A   1      32.766  28.982  22.785  1.00  0.00    -0.269 OA
ATOM      7  H   UNL A   1      33.758  30.386  24.345  1.00  0.00     0.163 HD
BRANCH   5   8
ATOM      8  C   UNL A   1      31.650  27.750  24.441  1.00  0.00     0.041 A 
ATOM      9  C   UNL A   1      31.013  25.803  25.768  1.00  0.00     0.043 A 
ATOM     10  C   UNL A   1      29.791  25.732  25.104  1.00  0.00     0.026 A 
ATOM     11  C   UNL A   1      31.953  26.772  25.389  1.00  0.00     0.040 A 
ATOM     12  C   UNL A   1      29.473  26.682  24.138  1.00  0.00     0.003 A 
ATOM     13  C   UNL A   1      30.388  27.690  23.824  1.00  0.00     0.014 A 
BRANCH   9  14
ATOM     14  N   UNL A   1      31.271  24.874  26.791  1.00  0.00    -0.308 N 
ATOM     15  O   UNL A   1      32.041  22.973  27.713  1.00  0.00    -0.248 OA
ATOM     16  C   UNL A   1      32.113  23.785  26.796  1.00  0.00     0.323 C 
ATOM     17  N   UNL A   1      33.106  23.812  25.845  1.00  0.00    -0.306 N 
ATOM     18  H   UNL A   1      30.775  25.023  27.629  1.00  0.00     0.171 HD
ATOM     19  H   UNL A   1      33.169  24.626  25.295  1.00  0.00     0.171 HD
BRANCH  17  20
ATOM     20  C   UNL A   1      34.043  22.791  25.578  1.00  0.00     0.063 A 
ATOM     21  C   UNL A   1      35.388  23.136  25.780  1.00  0.00     0.049 A 
ATOM     22  C   UNL A   1      33.740  21.503  25.102  1.00  0.00     0.066 A 
ATOM     23  C   UNL A   1      36.407  22.196  25.600  1.00  0.00     0.061 A 
ATOM     24  C   UNL A   1      34.764  20.567  24.908  1.00  0.00     0.044 A 
ATOM     25  Cl  UNL A   1      32.166  21.046  24.551  1.00  0.00    -0.082 Cl
ATOM     26  Cl  UNL A   1      38.026  22.698  25.934  1.00  0.00    -0.083 Cl
ATOM     27  C   UNL A   1      36.093  20.903  25.175  1.00  0.00     0.061 A 
ATOM     28  Cl  UNL A   1      37.298  19.688  24.948  1.00  0.00    -0.083 Cl
ENDBRANCH  17  20
ENDBRANCH   9  14
ENDBRANCH   5   8
ENDBRANCH   3   4
ENDBRANCH   2   3
ENDBRANCH   1   2
BRANCH   1  29
ATOM     29  C   UNL A   1      32.869  32.818  27.479  1.00  0.00     0.116 C 
BRANCH  29  30
ATOM     30  N   UNL A   1      32.527  34.204  27.772  1.00  0.00    -0.352 N 
ATOM     31  C   UNL A   1      33.104  35.021  28.722  1.00  0.00     0.251 C 
ATOM     32  H   UNL A   1      31.804  34.600  27.234  1.00  0.00     0.163 HD
ATOM     33  O   UNL A   1      32.686  36.149  28.920  1.00  0.00    -0.269 OA
BRANCH  31  34
ATOM     34  C   UNL A   1      34.213  34.467  29.530  1.00  0.00     0.039 A 
ATOM     35  C   UNL A   1      33.916  33.768  30.703  1.00  0.00     0.014 A 
ATOM     36  C   UNL A   1      35.527  34.561  29.069  1.00  0.00     0.014 A 
ATOM     37  C   UNL A   1      34.938  33.095  31.380  1.00  0.00     0.010 A 
ATOM     38  C   UNL A   1      36.529  33.843  29.712  1.00  0.00     0.010 A 
ATOM     39  C   UNL A   1      36.245  33.097  30.868  1.00  0.00    -0.014 A 
BRANCH  39  40
ATOM     40  C   UNL A   1      37.344  32.327  31.505  1.00  0.00     0.031 A 
ATOM     41  C   UNL A   1      37.897  32.780  32.828  1.00  0.00     0.074 A 
ATOM     42  C   UNL A   1      37.930  31.314  30.836  1.00  0.00     0.049 A 
ATOM     43  N   UNL A   1      38.952  32.354  33.471  1.00  0.00    -0.248 NA
ATOM     44  C   UNL A   1      37.190  33.885  33.501  1.00  0.00     0.031 C 
ATOM     45  C   UNL A   1      37.532  30.824  29.514  1.00  0.00     0.029 A 
ATOM     46  N   UNL A   1      39.018  30.540  31.160  1.00  0.00    -0.354 N 
ATOM     47  C   UNL A   1      39.074  33.175  34.585  1.00  0.00     0.074 A 
ATOM     48  C   UNL A   1      37.989  34.131  34.530  1.00  0.00     0.031 C 
ATOM     49  C   UNL A   1      38.368  29.842  29.137  1.00  0.00     0.029 A 
ATOM     50  C   UNL A   1      39.378  29.649  30.173  1.00  0.00     0.049 A 
ATOM     51  H   UNL A   1      39.496  30.615  32.017  1.00  0.00     0.167 HD
ATOM     52  C   UNL A   1      39.993  33.124  35.577  1.00  0.00     0.034 A 
ATOM     53  C   UNL A   1      40.411  28.786  30.108  1.00  0.00     0.034 A 
ATOM     54  C   UNL A   1      41.015  32.118  35.675  1.00  0.00     0.049 A 
ATOM     55  C   UNL A   1      41.370  28.700  31.266  1.00  0.00     0.074 A 
ATOM     56  C   UNL A   1      41.916  31.910  36.704  1.00  0.00     0.029 A 
ATOM     57  N   UNL A   1      41.264  31.149  34.718  1.00  0.00    -0.354 N 
ATOM     58  N   UNL A   1      41.367  29.375  32.390  1.00  0.00    -0.248 NA
ATOM     59  C   UNL A   1      42.456  27.712  31.164  1.00  0.00     0.031 C 
ATOM     60  C   UNL A   1      42.716  30.814  36.366  1.00  0.00     0.029 A 
ATOM     61  C   UNL A   1      42.306  30.338  35.131  1.00  0.00     0.049 A 
ATOM     62  H   UNL A   1      40.774  31.052  33.871  1.00  0.00     0.167 HD
ATOM     63  C   UNL A   1      42.415  28.863  33.145  1.00  0.00     0.074 A 
ATOM     64  C   UNL A   1      43.028  27.813  32.357  1.00  0.00     0.031 C 
ATOM     65  C   UNL A   1      42.845  29.240  34.374  1.00  0.00     0.034 A 
BRANCH  52  66
ATOM     66  C   UNL A   1      39.902  34.143  36.677  1.00  0.00     0.023 A 
ATOM     67  C   UNL A   1      40.220  35.488  36.404  1.00  0.00     0.012 A 
ATOM     68  C   UNL A   1      39.421  33.789  37.954  1.00  0.00     0.148 A 
ATOM     69  C   UNL A   1      40.085  36.464  37.391  1.00  0.00     0.002 A 
ATOM     70  C   UNL A   1      39.254  34.775  38.921  1.00  0.00     0.091 A 
ATOM     71  F   UNL A   1      39.145  32.501  38.199  1.00  0.00    -0.205 F 
ATOM     72  C   UNL A   1      39.591  36.109  38.643  1.00  0.00     0.022 A 
BRANCH  70  73
ATOM     73  S   UNL A   1      38.555  34.432  40.540  1.00  0.00     0.127 S 
ATOM     74  O   UNL A   1      39.571  33.554  41.120  1.00  0.00    -0.237 OA
ATOM     75  O   UNL A   1      38.490  35.766  41.138  1.00  0.00    -0.237 OA
ATOM     76  O   UNL A   1      37.260  33.812  40.296  1.00  0.00    -0.744 OA
ENDBRANCH  70  73
ENDBRANCH  52  66
BRANCH  53  77
ATOM     77  C   UNL A   1      40.554  27.870  28.940  1.00  0.00     0.023 A 
ATOM     78  C   UNL A   1      39.719  26.738  28.854  1.00  0.00     0.012 A 
ATOM     79  C   UNL A   1      41.494  28.105  27.919  1.00  0.00     0.148 A 
ATOM     80  C   UNL A   1      39.841  25.840  27.793  1.00  0.00     0.002 A 
ATOM     81  C   UNL A   1      41.576  27.233  26.838  1.00  0.00     0.091 A 
ATOM     82  F   UNL A   1      42.297  29.175  28.023  1.00  0.00    -0.205 F 
ATOM     83  C   UNL A   1      40.762  26.091  26.781  1.00  0.00     0.022 A 
BRANCH  81  84
ATOM     84  S   UNL A   1      42.652  27.563  25.438  1.00  0.00     0.127 S 
ATOM     85  O   UNL A   1      42.492  26.350  24.641  1.00  0.00    -0.237 OA
ATOM     86  O   UNL A   1      42.051  28.765  24.857  1.00  0.00    -0.237 OA
ATOM     87  O   UNL A   1      43.970  27.783  26.020  1.00  0.00    -0.744 OA
ENDBRANCH  81  84
ENDBRANCH  53  77
BRANCH  65  88
ATOM     88  C   UNL A   1      43.994  28.486  34.984  1.00  0.00     0.023 A 
ATOM     89  C   UNL A   1      45.314  28.834  34.642  1.00  0.00     0.012 A 
ATOM     90  C   UNL A   1      43.766  27.515  35.979  1.00  0.00     0.148 A 
ATOM     91  C   UNL A   1      46.393  28.216  35.273  1.00  0.00     0.002 A 
ATOM     92  C   UNL A   1      44.846  26.934  36.633  1.00  0.00     0.091 A 
ATOM     93  F   UNL A   1      42.500  27.185  36.274  1.00  0.00    -0.205 F 
ATOM     94  C   UNL A   1      46.159  27.277  36.276  1.00  0.00     0.022 A 
BRANCH  92  95
ATOM     95  S   UNL A   1      44.635  25.790  38.002  1.00  0.00     0.127 S 
ATOM     96  O   UNL A   1      43.945  24.674  37.356  1.00  0.00    -0.237 OA
ATOM     97  O   UNL A   1      46.016  25.510  38.393  1.00  0.00    -0.237 OA
ATOM     98  O   UNL A   1      43.859  26.508  39.006  1.00  0.00    -0.744 OA
ENDBRANCH  92  95
ENDBRANCH  65  88
ENDBRANCH  39  40
ENDBRANCH  31  34
ENDBRANCH  29  30
ENDBRANCH   1  29
TORSDOF 16
ENDMDL
MODEL 2
REMARK VINA RESULT:     -13.0      6.410     10.197
REMARK SMILES O=C(Nc1cccc(C(=O)NCCCCNC(=O)c2ccc(-c3c4nc(c(-c5cccc(S(=O)(=O)[O-])c5F)c5ccc([nH]5)c(-c5cccc(S(=O)(=O)[O-])c5F)c5nc(c(-c6cccc(S(=O)(=O)[O-])c6F)c6ccc3[nH]6)C=C5)C=C4)cc2)c1)Nc1cc(Cl)c(Cl)cc1Cl
REMARK SMILES IDX 14 1 13 2 12 3 11 4 9 5 10 6 8 8 4 9 5 10 82 11 6 12 7 13
REMARK SMILES IDX 3 14 1 15 2 16 83 17 84 20 85 21 91 22 86 23 90 24 92 25
REMARK SMILES IDX 87 26 88 27 89 28 15 29 16 30 17 31 18 33 19 34 20 35 81 36
REMARK SMILES IDX 21 37 80 38 22 39 23 40 24 41 74 42 25 43 79 44 73 45 75 46
REMARK SMILES IDX 26 47 78 48 72 49 71 50 27 52 59 53 39 54 58 55 40 56 43 57
REMARK SMILES IDX 57 58 76 59 41 60 42 61 56 63 77 64 44 65 28 66 29 67 37 68
REMARK SMILES IDX 30 69 32 70 38 71 31 72 33 73 34 74 35 75 36 76 60 77 61 78
REMARK SMILES IDX 69 79 62 80 64 81 70 82 63 83 65 84 66 85 67 86 68 87 45 88
REMARK SMILES IDX 46 89 54 90 47 91 49 92 55 93 48 94 50 95 51 96 52 97 53 98
REMARK H PARENT 11 7 3 18 83 19 16 32 75 51 43 62
REMARK Flexibility Score: inf
ROOT
ATOM      1  C   UNL A   1      37.990  19.544  25.001  1.00  0.00     0.023 C 
ENDROOT
BRANCH   1   2
ATOM      2  C   UNL A   1      37.115  20.715  24.546  1.00  0.00     0.023 C 
BRANCH   2   3
ATOM      3  C   UNL A   1      37.063  21.886  25.531  1.00  0.00     0.116 C 
BRANCH   3   4
ATOM      4  N   UNL A   1      35.976  21.733  26.478  1.00  0.00    -0.352 N 
ATOM      5  C   UNL A   1      34.612  21.667  26.350  1.00  0.00     0.251 C 
ATOM      6  O   UNL A   1      33.967  21.494  27.386  1.00  0.00    -0.269 OA
ATOM      7  H   UNL A   1      36.282  21.661  27.410  1.00  0.00     0.163 HD
BRANCH   5   8
ATOM      8  C   UNL A   1      33.863  21.759  25.057  1.00  0.00     0.041 A 
ATOM      9  C   UNL A   1      33.283  22.749  22.902  1.00  0.00     0.043 A 
ATOM     10  C   UNL A   1      32.309  21.774  22.701  1.00  0.00     0.026 A 
ATOM     11  C   UNL A   1      34.007  22.768  24.103  1.00  0.00     0.040 A 
ATOM     12  C   UNL A   1      32.130  20.770  23.648  1.00  0.00     0.003 A 
ATOM     13  C   UNL A   1      32.912  20.755  24.805  1.00  0.00     0.014 A 
BRANCH   9  14
ATOM     14  N   UNL A   1      33.490  23.703  21.892  1.00  0.00    -0.308 N 
ATOM     15  O   UNL A   1      33.090  25.559  20.686  1.00  0.00    -0.248 OA
ATOM     16  C   UNL A   1      32.948  24.961  21.748  1.00  0.00     0.323 C 
ATOM     17  N   UNL A   1      32.446  25.515  22.902  1.00  0.00    -0.306 N 
ATOM     18  H   UNL A   1      34.114  23.433  21.180  1.00  0.00     0.171 HD
ATOM     19  H   UNL A   1      32.576  25.001  23.732  1.00  0.00     0.171 HD
BRANCH  17  20
ATOM     20  C   UNL A   1      31.765  26.745  23.018  1.00  0.00     0.063 A 
ATOM     21  C   UNL A   1      30.370  26.656  23.138  1.00  0.00     0.049 A 
ATOM     22  C   UNL A   1      32.361  28.019  22.985  1.00  0.00     0.066 A 
ATOM     23  C   UNL A   1      29.588  27.803  23.312  1.00  0.00     0.061 A 
ATOM     24  C   UNL A   1      31.574  29.166  23.145  1.00  0.00     0.044 A 
ATOM     25  Cl  UNL A   1      34.019  28.276  22.567  1.00  0.00    -0.082 Cl
ATOM     26  Cl  UNL A   1      27.886  27.586  23.513  1.00  0.00    -0.083 Cl
ATOM     27  C   UNL A   1      30.194  29.061  23.329  1.00  0.00     0.061 A 
ATOM     28  Cl  UNL A   1      29.292  30.516  23.555  1.00  0.00    -0.083 Cl
ENDBRANCH  17  20
ENDBRANCH   9  14
ENDBRANCH   5   8
ENDBRANCH   3   4
ENDBRANCH   2   3
ENDBRANCH   1   2
BRANCH   1  29
ATOM     29  C   UNL A   1      39.071  19.912  26.012  1.00  0.00     0.116 C 
BRANCH  29  30
ATOM     30  N   UNL A   1      40.288  19.121  25.882  1.00  0.00    -0.352 N 
ATOM     31  C   UNL A   1      41.584  19.548  26.080  1.00  0.00     0.251 C 
ATOM     32  H   UNL A   1      40.171  18.178  25.623  1.00  0.00     0.163 HD
ATOM     33  O   UNL A   1      42.530  18.806  25.876  1.00  0.00    -0.269 OA
BRANCH  31  34
ATOM     34  C   UNL A   1      41.793  20.952  26.499  1.00  0.00     0.039 A 
ATOM     35  C   UNL A   1      42.096  21.224  27.836  1.00  0.00     0.014 A 
ATOM     36  C   UNL A   1      41.784  21.973  25.548  1.00  0.00     0.014 A 
ATOM     37  C   UNL A   1      42.464  22.520  28.208  1.00  0.00     0.010 A 
ATOM     38  C   UNL A   1      42.207  23.247  25.910  1.00  0.00     0.010 A 
ATOM     39  C   UNL A   1      42.558  23.533  27.240  1.00  0.00    -0.014 A 
BRANCH  39  40
ATOM     40  C   UNL A   1      43.028  24.902  27.573  1.00  0.00     0.031 A 
ATOM     41  C   UNL A   1      42.075  25.880  28.205  1.00  0.00     0.074 A 
ATOM     42  C   UNL A   1      44.254  25.306  27.184  1.00  0.00     0.049 A 
ATOM     43  N   UNL A   1      42.229  27.159  28.423  1.00  0.00    -0.248 NA
ATOM     44  C   UNL A   1      40.759  25.356  28.613  1.00  0.00     0.031 C 
ATOM     45  C   UNL A   1      45.246  24.473  26.499  1.00  0.00     0.029 A 
ATOM     46  N   UNL A   1      44.860  26.535  27.273  1.00  0.00    -0.354 N 
ATOM     47  C   UNL A   1      41.015  27.605  28.931  1.00  0.00     0.074 A 
ATOM     48  C   UNL A   1      40.130  26.462  28.984  1.00  0.00     0.031 C 
ATOM     49  C   UNL A   1      46.330  25.217  26.222  1.00  0.00     0.029 A 
ATOM     50  C   UNL A   1      46.103  26.584  26.681  1.00  0.00     0.049 A 
ATOM     51  H   UNL A   1      44.446  27.309  27.717  1.00  0.00     0.167 HD
ATOM     52  C   UNL A   1      40.675  28.850  29.339  1.00  0.00     0.034 A 
ATOM     53  C   UNL A   1      46.955  27.616  26.518  1.00  0.00     0.034 A 
ATOM     54  C   UNL A   1      41.585  29.962  29.369  1.00  0.00     0.049 A 
ATOM     55  C   UNL A   1      46.576  28.971  27.055  1.00  0.00     0.074 A 
ATOM     56  C   UNL A   1      41.370  31.232  29.876  1.00  0.00     0.029 A 
ATOM     57  N   UNL A   1      42.881  29.937  28.881  1.00  0.00    -0.354 N 
ATOM     58  N   UNL A   1      45.485  29.333  27.685  1.00  0.00    -0.248 NA
ATOM     59  C   UNL A   1      47.559  30.054  26.889  1.00  0.00     0.031 C 
ATOM     60  C   UNL A   1      42.539  31.977  29.693  1.00  0.00     0.029 A 
ATOM     61  C   UNL A   1      43.480  31.168  29.076  1.00  0.00     0.049 A 
ATOM     62  H   UNL A   1      43.311  29.159  28.459  1.00  0.00     0.167 HD
ATOM     63  C   UNL A   1      45.669  30.667  28.031  1.00  0.00     0.074 A 
ATOM     64  C   UNL A   1      46.980  31.049  27.550  1.00  0.00     0.031 C 
ATOM     65  C   UNL A   1      44.820  31.505  28.673  1.00  0.00     0.034 A 
BRANCH  52  66
ATOM     66  C   UNL A   1      39.279  29.069  29.850  1.00  0.00     0.023 A 
ATOM     67  C   UNL A   1      38.961  28.704  31.173  1.00  0.00     0.012 A 
ATOM     68  C   UNL A   1      38.310  29.711  29.054  1.00  0.00     0.148 A 
ATOM     69  C   UNL A   1      37.691  28.953  31.691  1.00  0.00     0.002 A 
ATOM     70  C   UNL A   1      37.057  29.989  29.591  1.00  0.00     0.091 A 
ATOM     71  F   UNL A   1      38.627  30.030  27.791  1.00  0.00    -0.205 F 
ATOM     72  C   UNL A   1      36.745  29.604  30.904  1.00  0.00     0.022 A 
BRANCH  70  73
ATOM     73  S   UNL A   1      35.795  30.890  28.685  1.00  0.00     0.127 S 
ATOM     74  O   UNL A   1      35.199  29.828  27.874  1.00  0.00    -0.237 OA
ATOM     75  O   UNL A   1      34.938  31.389  29.761  1.00  0.00    -0.237 OA
ATOM     76  O   UNL A   1      36.497  31.925  27.939  1.00  0.00    -0.744 OA
ENDBRANCH  70  73
ENDBRANCH  52  66
BRANCH  53  77
ATOM     77  C   UNL A   1      48.289  27.399  25.888  1.00  0.00     0.023 A 
ATOM     78  C   UNL A   1      49.381  27.050  26.706  1.00  0.00     0.012 A 
ATOM     79  C   UNL A   1      48.487  27.527  24.500  1.00  0.00     0.148 A 
ATOM     80  C   UNL A   1      50.652  26.867  26.161  1.00  0.00     0.002 A 
ATOM     81  C   UNL A   1      49.746  27.294  23.956  1.00  0.00     0.091 A 
ATOM     82  F   UNL A   1      47.443  27.879  23.735  1.00  0.00    -0.205 F 
ATOM     83  C   UNL A   1      50.834  26.981  24.786  1.00  0.00     0.022 A 
BRANCH  81  84
ATOM     84  S   UNL A   1      50.023  27.299  22.181  1.00  0.00     0.127 S 
ATOM     85  O   UNL A   1      49.819  28.706  21.848  1.00  0.00    -0.237 OA
ATOM     86  O   UNL A   1      51.408  26.836  22.078  1.00  0.00    -0.237 OA
ATOM     87  O   UNL A   1      49.044  26.362  21.646  1.00  0.00    -0.744 OA
ENDBRANCH  81  84
ENDBRANCH  53  77
BRANCH  65  88
ATOM     88  C   UNL A   1      45.287  32.906  28.955  1.00  0.00     0.023 A 
ATOM     89  C   UNL A   1      46.025  33.171  30.124  1.00  0.00     0.012 A 
ATOM     90  C   UNL A   1      45.093  33.931  28.008  1.00  0.00     0.148 A 
ATOM     91  C   UNL A   1      46.552  34.441  30.354  1.00  0.00     0.002 A 
ATOM     92  C   UNL A   1      45.658  35.183  28.223  1.00  0.00     0.091 A 
ATOM     93  F   UNL A   1      44.369  33.661  26.911  1.00  0.00    -0.205 F 
ATOM     94  C   UNL A   1      46.381  35.441  29.399  1.00  0.00     0.022 A 
BRANCH  92  95
ATOM     95  S   UNL A   1      45.569  36.498  27.002  1.00  0.00     0.127 S 
ATOM     96  O   UNL A   1      46.202  35.872  25.843  1.00  0.00    -0.237 OA
ATOM     97  O   UNL A   1      44.127  36.707  26.872  1.00  0.00    -0.237 OA
ATOM     98  O   UNL A   1      46.291  37.625  27.578  1.00  0.00    -0.744 OA
ENDBRANCH  92  95
ENDBRANCH  65  88
ENDBRANCH  39  40
ENDBRANCH  31  34
ENDBRANCH  29  30
ENDBRANCH   1  29
TORSDOF 16
ENDMDL
MODEL 3
REMARK VINA RESULT:     -12.9      1.168      7.779
REMARK SMILES O=C(Nc1cccc(C(=O)NCCCCNC(=O)c2ccc(-c3c4nc(c(-c5cccc(S(=O)(=O)[O-])c5F)c5ccc([nH]5)c(-c5cccc(S(=O)(=O)[O-])c5F)c5nc(c(-c6cccc(S(=O)(=O)[O-])c6F)c6ccc3[nH]6)C=C5)C=C4)cc2)c1)Nc1cc(Cl)c(Cl)cc1Cl
REMARK SMILES IDX 14 1 13 2 12 3 11 4 9 5 10 6 8 8 4 9 5 10 82 11 6 12 7 13
REMARK SMILES IDX 3 14 1 15 2 16 83 17 84 20 85 21 91 22 86 23 90 24 92 25
REMARK SMILES IDX 87 26 88 27 89 28 15 29 16 30 17 31 18 33 19 34 20 35 81 36
REMARK SMILES IDX 21 37 80 38 22 39 23 40 24 41 74 42 25 43 79 44 73 45 75 46
REMARK SMILES IDX 26 47 78 48 72 49 71 50 27 52 59 53 39 54 58 55 40 56 43 57
REMARK SMILES IDX 57 58 76 59 41 60 42 61 56 63 77 64 44 65 28 66 29 67 37 68
REMARK SMILES IDX 30 69 32 70 38 71 31 72 33 73 34 74 35 75 36 76 60 77 61 78
REMARK SMILES IDX 69 79 62 80 64 81 70 82 63 83 65 84 66 85 67 86 68 87 45 88
REMARK SMILES IDX 46 89 54 90 47 91 49 92 55 93 48 94 50 95 51 96 52 97 53 98
REMARK H PARENT 11 7 3 18 83 19 16 32 75 51 43 62
REMARK Flexibility Score: inf
ROOT
ATOM      1  C   UNL A   1      32.302  31.214  27.034  1.00  0.00     0.023 C 
ENDROOT
BRANCH   1   2
ATOM      2  C   UNL A   1      32.874  29.833  26.700  1.00  0.00     0.023 C 
BRANCH   2   3
ATOM      3  C   UNL A   1      32.920  29.514  25.203  1.00  0.00     0.116 C 
BRANCH   3   4
ATOM      4  N   UNL A   1      31.662  29.828  24.556  1.00  0.00    -0.352 N 
ATOM      5  C   UNL A   1      30.719  29.076  23.904  1.00  0.00     0.251 C 
ATOM      6  O   UNL A   1      29.722  29.673  23.492  1.00  0.00    -0.269 OA
ATOM      7  H   UNL A   1      31.437  30.786  24.593  1.00  0.00     0.163 HD
BRANCH   5   8
ATOM      8  C   UNL A   1      30.799  27.597  23.685  1.00  0.00     0.041 A 
ATOM      9  C   UNL A   1      30.606  25.252  24.334  1.00  0.00     0.043 A 
ATOM     10  C   UNL A   1      31.058  24.852  23.078  1.00  0.00     0.026 A 
ATOM     11  C   UNL A   1      30.538  26.617  24.645  1.00  0.00     0.040 A 
ATOM     12  C   UNL A   1      31.346  25.811  22.111  1.00  0.00     0.003 A 
ATOM     13  C   UNL A   1      31.200  27.168  22.408  1.00  0.00     0.014 A 
BRANCH   9  14
ATOM     14  N   UNL A   1      30.252  24.257  25.262  1.00  0.00    -0.308 N 
ATOM     15  O   UNL A   1      30.181  22.197  26.160  1.00  0.00    -0.248 OA
ATOM     16  C   UNL A   1      30.767  22.992  25.432  1.00  0.00     0.323 C 
ATOM     17  N   UNL A   1      32.021  22.797  24.903  1.00  0.00    -0.306 N 
ATOM     18  H   UNL A   1      29.528  24.501  25.883  1.00  0.00     0.171 HD
ATOM     19  H   UNL A   1      32.464  23.585  24.513  1.00  0.00     0.171 HD
BRANCH  17  20
ATOM     20  C   UNL A   1      32.738  21.582  24.862  1.00  0.00     0.063 A 
ATOM     21  C   UNL A   1      32.268  20.632  23.943  1.00  0.00     0.049 A 
ATOM     22  C   UNL A   1      33.834  21.249  25.678  1.00  0.00     0.066 A 
ATOM     23  C   UNL A   1      32.925  19.409  23.773  1.00  0.00     0.061 A 
ATOM     24  C   UNL A   1      34.482  20.018  25.516  1.00  0.00     0.044 A 
ATOM     25  Cl  UNL A   1      34.333  22.207  27.028  1.00  0.00    -0.082 Cl
ATOM     26  Cl  UNL A   1      32.307  18.331  22.573  1.00  0.00    -0.083 Cl
ATOM     27  C   UNL A   1      34.044  19.107  24.552  1.00  0.00     0.061 A 
ATOM     28  Cl  UNL A   1      34.912  17.624  24.383  1.00  0.00    -0.083 Cl
ENDBRANCH  17  20
ENDBRANCH   9  14
ENDBRANCH   5   8
ENDBRANCH   3   4
ENDBRANCH   2   3
ENDBRANCH   1   2
BRANCH   1  29
ATOM     29  C   UNL A   1      33.346  32.274  27.366  1.00  0.00     0.116 C 
BRANCH  29  30
ATOM     30  N   UNL A   1      32.783  33.596  27.604  1.00  0.00    -0.352 N 
ATOM     31  C   UNL A   1      33.196  34.522  28.540  1.00  0.00     0.251 C 
ATOM     32  H   UNL A   1      32.023  33.857  27.035  1.00  0.00     0.163 HD
ATOM     33  O   UNL A   1      32.600  35.575  28.690  1.00  0.00    -0.269 OA
BRANCH  31  34
ATOM     34  C   UNL A   1      34.354  34.173  29.393  1.00  0.00     0.039 A 
ATOM     35  C   UNL A   1      34.148  33.389  30.531  1.00  0.00     0.014 A 
ATOM     36  C   UNL A   1      35.643  34.543  29.005  1.00  0.00     0.014 A 
ATOM     37  C   UNL A   1      35.250  32.912  31.246  1.00  0.00     0.010 A 
ATOM     38  C   UNL A   1      36.737  34.018  29.685  1.00  0.00     0.010 A 
ATOM     39  C   UNL A   1      36.553  33.192  30.806  1.00  0.00    -0.014 A 
BRANCH  39  40
ATOM     40  C   UNL A   1      37.752  32.635  31.483  1.00  0.00     0.031 A 
ATOM     41  C   UNL A   1      38.507  31.503  30.841  1.00  0.00     0.074 A 
ATOM     42  C   UNL A   1      38.077  33.048  32.724  1.00  0.00     0.049 A 
ATOM     43  N   UNL A   1      39.470  30.771  31.333  1.00  0.00    -0.248 NA
ATOM     44  C   UNL A   1      38.098  31.121  29.477  1.00  0.00     0.031 C 
ATOM     45  C   UNL A   1      37.380  34.090  33.484  1.00  0.00     0.029 A 
ATOM     46  N   UNL A   1      39.053  32.610  33.586  1.00  0.00    -0.354 N 
ATOM     47  C   UNL A   1      39.739  29.804  30.372  1.00  0.00     0.074 A 
ATOM     48  C   UNL A   1      38.833  30.038  29.268  1.00  0.00     0.031 C 
ATOM     49  C   UNL A   1      37.944  34.202  34.698  1.00  0.00     0.029 A 
ATOM     50  C   UNL A   1      39.023  33.225  34.818  1.00  0.00     0.049 A 
ATOM     51  H   UNL A   1      39.713  31.921  33.345  1.00  0.00     0.167 HD
ATOM     52  C   UNL A   1      40.672  28.823  30.395  1.00  0.00     0.034 A 
ATOM     53  C   UNL A   1      39.770  33.016  35.919  1.00  0.00     0.034 A 
ATOM     54  C   UNL A   1      41.629  28.650  31.453  1.00  0.00     0.049 A 
ATOM     55  C   UNL A   1      40.853  31.970  35.883  1.00  0.00     0.074 A 
ATOM     56  C   UNL A   1      42.690  27.764  31.512  1.00  0.00     0.029 A 
ATOM     57  N   UNL A   1      41.649  29.382  32.629  1.00  0.00    -0.354 N 
ATOM     58  N   UNL A   1      41.200  31.177  34.898  1.00  0.00    -0.248 NA
ATOM     59  C   UNL A   1      41.669  31.809  37.097  1.00  0.00     0.031 C 
ATOM     60  C   UNL A   1      43.351  27.957  32.729  1.00  0.00     0.029 A 
ATOM     61  C   UNL A   1      42.704  28.968  33.421  1.00  0.00     0.049 A 
ATOM     62  H   UNL A   1      41.008  30.090  32.865  1.00  0.00     0.167 HD
ATOM     63  C   UNL A   1      42.300  30.461  35.356  1.00  0.00     0.074 A 
ATOM     64  C   UNL A   1      42.570  30.919  36.703  1.00  0.00     0.031 C 
ATOM     65  C   UNL A   1      43.013  29.497  34.724  1.00  0.00     0.034 A 
BRANCH  52  66
ATOM     66  C   UNL A   1      40.754  27.898  29.214  1.00  0.00     0.023 A 
ATOM     67  C   UNL A   1      39.899  26.780  29.150  1.00  0.00     0.012 A 
ATOM     68  C   UNL A   1      41.612  28.179  28.133  1.00  0.00     0.148 A 
ATOM     69  C   UNL A   1      39.912  25.941  28.037  1.00  0.00     0.002 A 
ATOM     70  C   UNL A   1      41.592  27.358  27.010  1.00  0.00     0.091 A 
ATOM     71  F   UNL A   1      42.432  29.235  28.224  1.00  0.00    -0.205 F 
ATOM     72  C   UNL A   1      40.749  26.236  26.964  1.00  0.00     0.022 A 
BRANCH  70  73
ATOM     73  S   UNL A   1      42.577  27.696  25.547  1.00  0.00     0.127 S 
ATOM     74  O   UNL A   1      42.345  26.491  24.750  1.00  0.00    -0.237 OA
ATOM     75  O   UNL A   1      41.945  28.906  25.020  1.00  0.00    -0.237 OA
ATOM     76  O   UNL A   1      43.943  27.879  26.016  1.00  0.00    -0.744 OA
ENDBRANCH  70  73
ENDBRANCH  52  66
BRANCH  53  77
ATOM     77  C   UNL A   1      39.582  33.866  37.130  1.00  0.00     0.023 A 
ATOM     78  C   UNL A   1      40.033  35.201  37.103  1.00  0.00     0.012 A 
ATOM     79  C   UNL A   1      38.961  33.377  38.295  1.00  0.00     0.148 A 
ATOM     80  C   UNL A   1      39.904  36.020  38.225  1.00  0.00     0.002 A 
ATOM     81  C   UNL A   1      38.790  34.215  39.392  1.00  0.00     0.091 A 
ATOM     82  F   UNL A   1      38.554  32.099  38.314  1.00  0.00    -0.205 F 
ATOM     83  C   UNL A   1      39.274  35.532  39.366  1.00  0.00     0.022 A 
BRANCH  81  84
ATOM     84  S   UNL A   1      37.876  33.690  40.847  1.00  0.00     0.127 S 
ATOM     85  O   UNL A   1      38.712  32.605  41.353  1.00  0.00    -0.237 OA
ATOM     86  O   UNL A   1      37.874  34.900  41.671  1.00  0.00    -0.237 OA
ATOM     87  O   UNL A   1      36.560  33.311  40.348  1.00  0.00    -0.744 OA
ENDBRANCH  81  84
ENDBRANCH  53  77
BRANCH  65  88
ATOM     88  C   UNL A   1      44.192  28.902  35.442  1.00  0.00     0.023 A 
ATOM     89  C   UNL A   1      45.463  29.492  35.300  1.00  0.00     0.012 A 
ATOM     90  C   UNL A   1      44.018  27.833  36.343  1.00  0.00     0.148 A 
ATOM     91  C   UNL A   1      46.548  29.016  36.035  1.00  0.00     0.002 A 
ATOM     92  C   UNL A   1      45.095  27.393  37.104  1.00  0.00     0.091 A 
ATOM     93  F   UNL A   1      42.803  27.274  36.446  1.00  0.00    -0.205 F 
ATOM     94  C   UNL A   1      46.361  27.978  36.945  1.00  0.00     0.022 A 
BRANCH  92  95
ATOM     95  S   UNL A   1      44.921  26.128  38.368  1.00  0.00     0.127 S 
ATOM     96  O   UNL A   1      44.495  24.973  37.579  1.00  0.00    -0.237 OA
ATOM     97  O   UNL A   1      46.279  26.033  38.904  1.00  0.00    -0.237 OA
ATOM     98  O   UNL A   1      43.936  26.640  39.311  1.00  0.00    -0.744 OA
ENDBRANCH  92  95
ENDBRANCH  65  88
ENDBRANCH  39  40
ENDBRANCH  31  34
ENDBRANCH  29  30
ENDBRANCH   1  29
TORSDOF 16
ENDMDL
