MODEL 1
REMARK VINA RESULT:     -10.8      0.000      0.000
REMARK SMILES O=C(CCCNC(=O)CN1CSCC1=O)NCCCCNC(=O)c1ccc(-c2c3nc(c(-c4cccc(S(=O)(=O)[O-])c4F)c4ccc([nH]4)c(-c4cccc(S(=O)(=O)[O-])c4F)c4nc(c(-c5cccc(S(=O)(=O)[O-])c5F)c5ccc2[nH]5)C=C4)C=C3)cc1
REMARK SMILES IDX 17 1 16 2 1 3 2 4 3 6 4 7 5 8 6 9 7 10 8 12 9 13 10 14 11 15
REMARK SMILES IDX 14 16 12 17 13 18 15 19 18 20 19 21 20 22 21 23 22 24 23 26
REMARK SMILES IDX 24 27 25 28 86 29 26 30 85 31 27 32 28 33 29 34 79 35 30 36
REMARK SMILES IDX 84 37 78 38 80 39 31 40 83 41 77 42 76 43 32 45 64 46 44 47
REMARK SMILES IDX 63 48 45 49 48 50 62 51 81 52 46 53 47 54 61 56 82 57 49 58
REMARK SMILES IDX 33 59 34 60 42 61 35 62 37 63 43 64 36 65 38 66 39 67 40 68
REMARK SMILES IDX 41 69 65 70 66 71 74 72 67 73 69 74 75 75 68 76 70 77 71 78
REMARK SMILES IDX 72 79 73 80 50 81 51 82 59 83 52 84 54 85 60 86 53 87 55 88
REMARK SMILES IDX 56 89 57 90 58 91
REMARK H PARENT 16 5 6 11 21 25 80 44 48 55
REMARK Flexibility Score: inf
ROOT
ATOM      1  C   UNL A   1      32.308  28.684  23.606  1.00  0.00     0.116 C 
ENDROOT
BRANCH   1   2
ATOM      2  N   UNL A   1      31.373  27.638  23.964  1.00  0.00    -0.356 N 
ATOM      3  O   UNL A   1      29.590  28.464  22.774  1.00  0.00    -0.275 OA
ATOM      4  C   UNL A   1      30.088  27.593  23.478  1.00  0.00     0.220 C 
ATOM      5  H   UNL A   1      31.670  26.929  24.580  1.00  0.00     0.163 HD
BRANCH   4   6
ATOM      6  C   UNL A   1      29.336  26.335  23.857  1.00  0.00     0.102 C 
BRANCH   6   7
ATOM      7  C   UNL A   1      30.096  25.069  23.447  1.00  0.00     0.031 C 
BRANCH   7   8
ATOM      8  C   UNL A   1      31.002  24.478  24.532  1.00  0.00     0.116 C 
BRANCH   8   9
ATOM      9  N   UNL A   1      30.233  23.945  25.640  1.00  0.00    -0.355 N 
ATOM     10  C   UNL A   1      30.668  23.333  26.778  1.00  0.00     0.239 C 
ATOM     11  H   UNL A   1      29.257  24.039  25.558  1.00  0.00     0.163 HD
ATOM     12  O   UNL A   1      29.814  22.907  27.556  1.00  0.00    -0.273 OA
BRANCH  10  13
ATOM     13  C   UNL A   1      32.159  23.174  27.056  1.00  0.00     0.220 C 
BRANCH  13  14
ATOM     14  N   UNL A   1      32.835  22.320  26.085  1.00  0.00    -0.323 N 
ATOM     15  C   UNL A   1      32.239  21.073  25.687  1.00  0.00     0.190 C 
ATOM     16  C   UNL A   1      34.069  22.648  25.564  1.00  0.00     0.233 C 
ATOM     17  S   UNL A   1      33.429  20.216  24.648  1.00  0.00    -0.130 SA
ATOM     18  C   UNL A   1      34.601  21.590  24.627  1.00  0.00     0.171 C 
ATOM     19  O   UNL A   1      34.661  23.694  25.790  1.00  0.00    -0.274 OA
ENDBRANCH  13  14
ENDBRANCH  10  13
ENDBRANCH   8   9
ENDBRANCH   7   8
ENDBRANCH   6   7
ENDBRANCH   4   6
ENDBRANCH   1   2
BRANCH   1  20
ATOM     20  C   UNL A   1      32.805  29.448  24.831  1.00  0.00     0.023 C 
BRANCH  20  21
ATOM     21  C   UNL A   1      31.744  30.280  25.561  1.00  0.00     0.023 C 
BRANCH  21  22
ATOM     22  C   UNL A   1      32.141  30.788  26.944  1.00  0.00     0.116 C 
BRANCH  22  23
ATOM     23  N   UNL A   1      32.343  32.228  26.971  1.00  0.00    -0.352 N 
ATOM     24  C   UNL A   1      33.349  32.963  27.550  1.00  0.00     0.251 C 
ATOM     25  H   UNL A   1      31.654  32.756  26.505  1.00  0.00     0.163 HD
ATOM     26  O   UNL A   1      33.243  34.187  27.615  1.00  0.00    -0.269 OA
BRANCH  24  27
ATOM     27  C   UNL A   1      34.545  32.296  28.112  1.00  0.00     0.039 A 
ATOM     28  C   UNL A   1      35.718  33.040  28.278  1.00  0.00     0.014 A 
ATOM     29  C   UNL A   1      34.526  30.943  28.461  1.00  0.00     0.014 A 
ATOM     30  C   UNL A   1      36.845  32.445  28.853  1.00  0.00     0.010 A 
ATOM     31  C   UNL A   1      35.625  30.374  29.103  1.00  0.00     0.010 A 
ATOM     32  C   UNL A   1      36.797  31.116  29.305  1.00  0.00    -0.014 A 
BRANCH  32  33
ATOM     33  C   UNL A   1      37.955  30.499  30.008  1.00  0.00     0.031 A 
ATOM     34  C   UNL A   1      38.283  30.883  31.427  1.00  0.00     0.074 A 
ATOM     35  C   UNL A   1      38.766  29.653  29.341  1.00  0.00     0.049 A 
ATOM     36  N   UNL A   1      39.284  30.497  32.176  1.00  0.00    -0.248 NA
ATOM     37  C   UNL A   1      37.384  31.846  32.084  1.00  0.00     0.031 C 
ATOM     38  C   UNL A   1      38.605  29.256  27.941  1.00  0.00     0.029 A 
ATOM     39  N   UNL A   1      39.903  28.995  29.742  1.00  0.00    -0.354 N 
ATOM     40  C   UNL A   1      39.156  31.189  33.375  1.00  0.00     0.074 A 
ATOM     41  C   UNL A   1      37.998  32.047  33.240  1.00  0.00     0.031 C 
ATOM     42  C   UNL A   1      39.604  28.426  27.600  1.00  0.00     0.029 A 
ATOM     43  C   UNL A   1      40.496  28.258  28.742  1.00  0.00     0.049 A 
ATOM     44  H   UNL A   1      40.262  29.047  30.657  1.00  0.00     0.167 HD
ATOM     45  C   UNL A   1      39.911  31.099  34.496  1.00  0.00     0.034 A 
ATOM     46  C   UNL A   1      41.636  27.540  28.737  1.00  0.00     0.034 A 
ATOM     47  C   UNL A   1      41.044  30.224  34.638  1.00  0.00     0.049 A 
ATOM     48  C   UNL A   1      42.446  27.440  30.001  1.00  0.00     0.074 A 
ATOM     49  C   UNL A   1      41.825  30.004  35.760  1.00  0.00     0.029 A 
ATOM     50  N   UNL A   1      41.567  29.432  33.628  1.00  0.00    -0.354 N 
ATOM     51  N   UNL A   1      42.220  27.984  31.172  1.00  0.00    -0.248 NA
ATOM     52  C   UNL A   1      43.649  26.596  29.955  1.00  0.00     0.031 C 
ATOM     53  C   UNL A   1      42.840  29.105  35.418  1.00  0.00     0.029 A 
ATOM     54  C   UNL A   1      42.667  28.733  34.096  1.00  0.00     0.049 A 
ATOM     55  H   UNL A   1      41.209  29.375  32.713  1.00  0.00     0.167 HD
ATOM     56  C   UNL A   1      43.228  27.521  32.009  1.00  0.00     0.074 A 
ATOM     57  C   UNL A   1      44.054  26.633  31.217  1.00  0.00     0.031 C 
ATOM     58  C   UNL A   1      43.456  27.814  33.314  1.00  0.00     0.034 A 
BRANCH  45  59
ATOM     59  C   UNL A   1      39.510  31.942  35.680  1.00  0.00     0.023 A 
ATOM     60  C   UNL A   1      39.943  33.282  35.759  1.00  0.00     0.012 A 
ATOM     61  C   UNL A   1      38.657  31.433  36.680  1.00  0.00     0.148 A 
ATOM     62  C   UNL A   1      39.569  34.089  36.833  1.00  0.00     0.002 A 
ATOM     63  C   UNL A   1      38.248  32.258  37.720  1.00  0.00     0.091 A 
ATOM     64  F   UNL A   1      38.267  30.153  36.596  1.00  0.00    -0.205 F 
ATOM     65  C   UNL A   1      38.713  33.580  37.807  1.00  0.00     0.022 A 
BRANCH  63  66
ATOM     66  S   UNL A   1      37.082  31.727  38.980  1.00  0.00     0.127 S 
ATOM     67  O   UNL A   1      36.733  30.385  38.513  1.00  0.00    -0.237 OA
ATOM     68  O   UNL A   1      37.903  31.758  40.190  1.00  0.00    -0.237 OA
ATOM     69  O   UNL A   1      35.994  32.696  38.957  1.00  0.00    -0.744 OA
ENDBRANCH  63  66
ENDBRANCH  45  59
BRANCH  46  70
ATOM     70  C   UNL A   1      42.057  26.818  27.502  1.00  0.00     0.023 A 
ATOM     71  C   UNL A   1      42.643  27.535  26.441  1.00  0.00     0.012 A 
ATOM     72  C   UNL A   1      41.898  25.424  27.382  1.00  0.00     0.148 A 
ATOM     73  C   UNL A   1      43.029  26.884  25.270  1.00  0.00     0.002 A 
ATOM     74  C   UNL A   1      42.338  24.773  26.235  1.00  0.00     0.091 A 
ATOM     75  F   UNL A   1      41.329  24.761  28.399  1.00  0.00    -0.205 F 
ATOM     76  C   UNL A   1      42.886  25.503  25.171  1.00  0.00     0.022 A 
BRANCH  74  77
ATOM     77  S   UNL A   1      42.316  22.984  26.074  1.00  0.00     0.127 S 
ATOM     78  O   UNL A   1      42.912  22.796  24.754  1.00  0.00    -0.237 OA
ATOM     79  O   UNL A   1      43.158  22.570  27.197  1.00  0.00    -0.237 OA
ATOM     80  O   UNL A   1      40.917  22.595  26.197  1.00  0.00    -0.744 OA
ENDBRANCH  74  77
ENDBRANCH  46  70
BRANCH  58  81
ATOM     81  C   UNL A   1      44.619  27.137  33.992  1.00  0.00     0.023 A 
ATOM     82  C   UNL A   1      45.901  27.721  33.946  1.00  0.00     0.012 A 
ATOM     83  C   UNL A   1      44.425  25.955  34.736  1.00  0.00     0.148 A 
ATOM     84  C   UNL A   1      46.977  27.120  34.599  1.00  0.00     0.002 A 
ATOM     85  C   UNL A   1      45.490  25.392  35.427  1.00  0.00     0.091 A 
ATOM     86  F   UNL A   1      43.202  25.405  34.752  1.00  0.00    -0.205 F 
ATOM     87  C   UNL A   1      46.769  25.965  35.349  1.00  0.00     0.022 A 
BRANCH  85  88
ATOM     88  S   UNL A   1      45.298  23.962  36.496  1.00  0.00     0.127 S 
ATOM     89  O   UNL A   1      44.508  24.514  37.594  1.00  0.00    -0.237 OA
ATOM     90  O   UNL A   1      44.574  23.026  35.634  1.00  0.00    -0.237 OA
ATOM     91  O   UNL A   1      46.646  23.538  36.849  1.00  0.00    -0.744 OA
ENDBRANCH  85  88
ENDBRANCH  58  81
ENDBRANCH  32  33
ENDBRANCH  24  27
ENDBRANCH  22  23
ENDBRANCH  21  22
ENDBRANCH  20  21
ENDBRANCH   1  20
TORSDOF 19
ENDMDL
MODEL 2
REMARK VINA RESULT:     -10.8      2.938      8.755
REMARK SMILES O=C(CCCNC(=O)CN1CSCC1=O)NCCCCNC(=O)c1ccc(-c2c3nc(c(-c4cccc(S(=O)(=O)[O-])c4F)c4ccc([nH]4)c(-c4cccc(S(=O)(=O)[O-])c4F)c4nc(c(-c5cccc(S(=O)(=O)[O-])c5F)c5ccc2[nH]5)C=C4)C=C3)cc1
REMARK SMILES IDX 17 1 16 2 1 3 2 4 3 6 4 7 5 8 6 9 7 10 8 12 9 13 10 14 11 15
REMARK SMILES IDX 14 16 12 17 13 18 15 19 18 20 19 21 20 22 21 23 22 24 23 26
REMARK SMILES IDX 24 27 25 28 86 29 26 30 85 31 27 32 28 33 29 34 79 35 30 36
REMARK SMILES IDX 84 37 78 38 80 39 31 40 83 41 77 42 76 43 32 45 64 46 44 47
REMARK SMILES IDX 63 48 45 49 48 50 62 51 81 52 46 53 47 54 61 56 82 57 49 58
REMARK SMILES IDX 33 59 34 60 42 61 35 62 37 63 43 64 36 65 38 66 39 67 40 68
REMARK SMILES IDX 41 69 65 70 66 71 74 72 67 73 69 74 75 75 68 76 70 77 71 78
REMARK SMILES IDX 72 79 73 80 50 81 51 82 59 83 52 84 54 85 60 86 53 87 55 88
REMARK SMILES IDX 56 89 57 90 58 91
REMARK H PARENT 16 5 6 11 21 25 80 44 48 55
REMARK Flexibility Score: inf
ROOT
ATOM      1  C   UNL A   1      33.229  29.920  26.846  1.00  0.00     0.116 C 
ENDROOT
BRANCH   1   2
ATOM      2  N   UNL A   1      33.618  29.591  25.491  1.00  0.00    -0.356 N 
ATOM      3  O   UNL A   1      33.534  27.309  25.743  1.00  0.00    -0.275 OA
ATOM      4  C   UNL A   1      33.698  28.296  25.036  1.00  0.00     0.220 C 
ATOM      5  H   UNL A   1      33.833  30.324  24.870  1.00  0.00     0.163 HD
BRANCH   4   6
ATOM      6  C   UNL A   1      33.972  28.188  23.551  1.00  0.00     0.102 C 
BRANCH   6   7
ATOM      7  C   UNL A   1      33.265  26.980  22.926  1.00  0.00     0.031 C 
BRANCH   7   8
ATOM      8  C   UNL A   1      32.082  27.322  22.015  1.00  0.00     0.116 C 
BRANCH   8   9
ATOM      9  N   UNL A   1      30.818  26.934  22.609  1.00  0.00    -0.355 N 
ATOM     10  C   UNL A   1      29.989  27.648  23.422  1.00  0.00     0.239 C 
ATOM     11  H   UNL A   1      30.515  26.022  22.395  1.00  0.00     0.163 HD
ATOM     12  O   UNL A   1      28.987  27.079  23.855  1.00  0.00    -0.273 OA
BRANCH  10  13
ATOM     13  C   UNL A   1      30.312  29.095  23.785  1.00  0.00     0.220 C 
BRANCH  13  14
ATOM     14  N   UNL A   1      29.463  30.061  23.097  1.00  0.00    -0.323 N 
ATOM     15  C   UNL A   1      28.908  29.741  21.809  1.00  0.00     0.190 C 
ATOM     16  C   UNL A   1      29.210  31.311  23.623  1.00  0.00     0.233 C 
ATOM     17  S   UNL A   1      28.094  31.220  21.192  1.00  0.00    -0.130 SA
ATOM     18  C   UNL A   1      28.359  32.160  22.711  1.00  0.00     0.171 C 
ATOM     19  O   UNL A   1      29.588  31.689  24.723  1.00  0.00    -0.274 OA
ENDBRANCH  13  14
ENDBRANCH  10  13
ENDBRANCH   8   9
ENDBRANCH   7   8
ENDBRANCH   6   7
ENDBRANCH   4   6
ENDBRANCH   1   2
BRANCH   1  20
ATOM     20  C   UNL A   1      34.303  30.731  27.568  1.00  0.00     0.023 C 
BRANCH  20  21
ATOM     21  C   UNL A   1      34.067  32.245  27.604  1.00  0.00     0.023 C 
BRANCH  21  22
ATOM     22  C   UNL A   1      32.607  32.686  27.554  1.00  0.00     0.116 C 
BRANCH  22  23
ATOM     23  N   UNL A   1      32.446  34.108  27.818  1.00  0.00    -0.352 N 
ATOM     24  C   UNL A   1      33.099  34.912  28.720  1.00  0.00     0.251 C 
ATOM     25  H   UNL A   1      31.766  34.562  27.268  1.00  0.00     0.163 HD
ATOM     26  O   UNL A   1      32.691  36.056  28.916  1.00  0.00    -0.269 OA
BRANCH  24  27
ATOM     27  C   UNL A   1      34.272  34.410  29.470  1.00  0.00     0.039 A 
ATOM     28  C   UNL A   1      34.063  33.728  30.673  1.00  0.00     0.014 A 
ATOM     29  C   UNL A   1      35.575  34.618  29.007  1.00  0.00     0.014 A 
ATOM     30  C   UNL A   1      35.152  33.200  31.373  1.00  0.00     0.010 A 
ATOM     31  C   UNL A   1      36.651  34.026  29.667  1.00  0.00     0.010 A 
ATOM     32  C   UNL A   1      36.454  33.312  30.858  1.00  0.00    -0.014 A 
BRANCH  32  33
ATOM     33  C   UNL A   1      37.610  32.671  31.540  1.00  0.00     0.031 A 
ATOM     34  C   UNL A   1      38.319  31.499  30.911  1.00  0.00     0.074 A 
ATOM     35  C   UNL A   1      37.975  33.089  32.769  1.00  0.00     0.049 A 
ATOM     36  N   UNL A   1      39.302  30.779  31.385  1.00  0.00    -0.248 NA
ATOM     37  C   UNL A   1      37.844  31.064  29.587  1.00  0.00     0.031 C 
ATOM     38  C   UNL A   1      37.324  34.164  33.523  1.00  0.00     0.029 A 
ATOM     39  N   UNL A   1      38.961  32.643  33.614  1.00  0.00    -0.354 N 
ATOM     40  C   UNL A   1      39.544  29.790  30.439  1.00  0.00     0.074 A 
ATOM     41  C   UNL A   1      38.578  29.981  29.378  1.00  0.00     0.031 C 
ATOM     42  C   UNL A   1      37.927  34.293  34.716  1.00  0.00     0.029 A 
ATOM     43  C   UNL A   1      38.983  33.292  34.829  1.00  0.00     0.049 A 
ATOM     44  H   UNL A   1      39.593  31.927  33.375  1.00  0.00     0.167 HD
ATOM     45  C   UNL A   1      40.498  28.829  30.435  1.00  0.00     0.034 A 
ATOM     46  C   UNL A   1      39.752  33.094  35.917  1.00  0.00     0.034 A 
ATOM     47  C   UNL A   1      41.477  28.657  31.476  1.00  0.00     0.049 A 
ATOM     48  C   UNL A   1      40.818  32.034  35.880  1.00  0.00     0.074 A 
ATOM     49  C   UNL A   1      42.532  27.763  31.526  1.00  0.00     0.029 A 
ATOM     50  N   UNL A   1      41.516  29.386  32.655  1.00  0.00    -0.354 N 
ATOM     51  N   UNL A   1      41.128  31.208  34.910  1.00  0.00    -0.248 NA
ATOM     52  C   UNL A   1      41.667  31.901  37.073  1.00  0.00     0.031 C 
ATOM     53  C   UNL A   1      43.188  27.928  32.749  1.00  0.00     0.029 A 
ATOM     54  C   UNL A   1      42.568  28.953  33.444  1.00  0.00     0.049 A 
ATOM     55  H   UNL A   1      40.888  30.104  32.896  1.00  0.00     0.167 HD
ATOM     56  C   UNL A   1      42.227  30.486  35.360  1.00  0.00     0.074 A 
ATOM     57  C   UNL A   1      42.544  30.986  36.681  1.00  0.00     0.031 C 
ATOM     58  C   UNL A   1      42.906  29.489  34.739  1.00  0.00     0.034 A 
BRANCH  45  59
ATOM     59  C   UNL A   1      40.561  27.908  29.243  1.00  0.00     0.023 A 
ATOM     60  C   UNL A   1      39.672  26.816  29.159  1.00  0.00     0.012 A 
ATOM     61  C   UNL A   1      41.450  28.156  28.178  1.00  0.00     0.148 A 
ATOM     62  C   UNL A   1      39.694  25.961  28.057  1.00  0.00     0.002 A 
ATOM     63  C   UNL A   1      41.432  27.329  27.060  1.00  0.00     0.091 A 
ATOM     64  F   UNL A   1      42.298  29.189  28.281  1.00  0.00    -0.205 F 
ATOM     65  C   UNL A   1      40.567  26.224  27.004  1.00  0.00     0.022 A 
BRANCH  63  66
ATOM     66  S   UNL A   1      42.456  27.629  25.615  1.00  0.00     0.127 S 
ATOM     67  O   UNL A   1      43.796  27.651  26.201  1.00  0.00    -0.237 OA
ATOM     68  O   UNL A   1      42.170  26.456  24.788  1.00  0.00    -0.237 OA
ATOM     69  O   UNL A   1      42.001  28.894  25.054  1.00  0.00    -0.744 OA
ENDBRANCH  63  66
ENDBRANCH  45  59
BRANCH  46  70
ATOM     70  C   UNL A   1      39.573  33.953  37.122  1.00  0.00     0.023 A 
ATOM     71  C   UNL A   1      40.041  35.282  37.107  1.00  0.00     0.012 A 
ATOM     72  C   UNL A   1      38.925  33.468  38.275  1.00  0.00     0.148 A 
ATOM     73  C   UNL A   1      39.900  36.099  38.229  1.00  0.00     0.002 A 
ATOM     74  C   UNL A   1      38.737  34.306  39.368  1.00  0.00     0.091 A 
ATOM     75  F   UNL A   1      38.495  32.198  38.274  1.00  0.00    -0.205 F 
ATOM     76  C   UNL A   1      39.240  35.615  39.355  1.00  0.00     0.022 A 
BRANCH  74  77
ATOM     77  S   UNL A   1      37.783  33.812  40.808  1.00  0.00     0.127 S 
ATOM     78  O   UNL A   1      38.781  33.094  41.595  1.00  0.00    -0.237 OA
ATOM     79  O   UNL A   1      37.378  35.106  41.358  1.00  0.00    -0.237 OA
ATOM     80  O   UNL A   1      36.683  33.006  40.295  1.00  0.00    -0.744 OA
ENDBRANCH  74  77
ENDBRANCH  46  70
BRANCH  58  81
ATOM     81  C   UNL A   1      44.092  28.896  35.455  1.00  0.00     0.023 A 
ATOM     82  C   UNL A   1      45.373  29.458  35.287  1.00  0.00     0.012 A 
ATOM     83  C   UNL A   1      43.922  27.823  36.353  1.00  0.00     0.148 A 
ATOM     84  C   UNL A   1      46.471  28.939  35.972  1.00  0.00     0.002 A 
ATOM     85  C   UNL A   1      45.010  27.345  37.072  1.00  0.00     0.091 A 
ATOM     86  F   UNL A   1      42.698  27.290  36.487  1.00  0.00    -0.205 F 
ATOM     87  C   UNL A   1      46.287  27.892  36.873  1.00  0.00     0.022 A 
BRANCH  85  88
ATOM     88  S   UNL A   1      44.853  26.068  38.324  1.00  0.00     0.127 S 
ATOM     89  O   UNL A   1      43.824  26.630  39.197  1.00  0.00    -0.237 OA
ATOM     90  O   UNL A   1      44.421  24.913  37.536  1.00  0.00    -0.237 OA
ATOM     91  O   UNL A   1      46.173  25.928  38.926  1.00  0.00    -0.744 OA
ENDBRANCH  85  88
ENDBRANCH  58  81
ENDBRANCH  32  33
ENDBRANCH  24  27
ENDBRANCH  22  23
ENDBRANCH  21  22
ENDBRANCH  20  21
ENDBRANCH   1  20
TORSDOF 19
ENDMDL
MODEL 3
REMARK VINA RESULT:     -10.8      5.563      9.080
REMARK SMILES O=C(CCCNC(=O)CN1CSCC1=O)NCCCCNC(=O)c1ccc(-c2c3nc(c(-c4cccc(S(=O)(=O)[O-])c4F)c4ccc([nH]4)c(-c4cccc(S(=O)(=O)[O-])c4F)c4nc(c(-c5cccc(S(=O)(=O)[O-])c5F)c5ccc2[nH]5)C=C4)C=C3)cc1
REMARK SMILES IDX 17 1 16 2 1 3 2 4 3 6 4 7 5 8 6 9 7 10 8 12 9 13 10 14 11 15
REMARK SMILES IDX 14 16 12 17 13 18 15 19 18 20 19 21 20 22 21 23 22 24 23 26
REMARK SMILES IDX 24 27 25 28 86 29 26 30 85 31 27 32 28 33 29 34 79 35 30 36
REMARK SMILES IDX 84 37 78 38 80 39 31 40 83 41 77 42 76 43 32 45 64 46 44 47
REMARK SMILES IDX 63 48 45 49 48 50 62 51 81 52 46 53 47 54 61 56 82 57 49 58
REMARK SMILES IDX 33 59 34 60 42 61 35 62 37 63 43 64 36 65 38 66 39 67 40 68
REMARK SMILES IDX 41 69 65 70 66 71 74 72 67 73 69 74 75 75 68 76 70 77 71 78
REMARK SMILES IDX 72 79 73 80 50 81 51 82 59 83 52 84 54 85 60 86 53 87 55 88
REMARK SMILES IDX 56 89 57 90 58 91
REMARK H PARENT 16 5 6 11 21 25 80 44 48 55
REMARK Flexibility Score: inf
ROOT
ATOM      1  C   UNL A   1      35.855  20.972  25.410  1.00  0.00     0.116 C 
ENDROOT
BRANCH   1   2
ATOM      2  N   UNL A   1      34.827  21.915  25.023  1.00  0.00    -0.356 N 
ATOM      3  O   UNL A   1      34.431  22.746  27.128  1.00  0.00    -0.275 OA
ATOM      4  C   UNL A   1      34.223  22.763  25.920  1.00  0.00     0.220 C 
ATOM      5  H   UNL A   1      34.551  21.951  24.079  1.00  0.00     0.163 HD
BRANCH   4   6
ATOM      6  C   UNL A   1      33.292  23.769  25.276  1.00  0.00     0.102 C 
BRANCH   6   7
ATOM      7  C   UNL A   1      32.069  23.093  24.646  1.00  0.00     0.031 C 
BRANCH   7   8
ATOM      8  C   UNL A   1      31.751  23.535  23.214  1.00  0.00     0.116 C 
BRANCH   8   9
ATOM      9  N   UNL A   1      32.825  24.326  22.646  1.00  0.00    -0.355 N 
ATOM     10  C   UNL A   1      32.779  25.563  22.076  1.00  0.00     0.239 C 
ATOM     11  H   UNL A   1      33.716  23.909  22.677  1.00  0.00     0.163 HD
ATOM     12  O   UNL A   1      33.825  26.012  21.605  1.00  0.00    -0.273 OA
BRANCH  10  13
ATOM     13  C   UNL A   1      31.471  26.345  22.016  1.00  0.00     0.220 C 
BRANCH  13  14
ATOM     14  N   UNL A   1      31.390  27.404  23.016  1.00  0.00    -0.323 N 
ATOM     15  C   UNL A   1      32.131  27.290  24.244  1.00  0.00     0.190 C 
ATOM     16  C   UNL A   1      30.577  28.505  22.844  1.00  0.00     0.233 C 
ATOM     17  S   UNL A   1      31.640  28.663  25.296  1.00  0.00    -0.130 SA
ATOM     18  C   UNL A   1      30.609  29.437  24.031  1.00  0.00     0.171 C 
ATOM     19  O   UNL A   1      29.931  28.739  21.833  1.00  0.00    -0.274 OA
ENDBRANCH  13  14
ENDBRANCH  10  13
ENDBRANCH   8   9
ENDBRANCH   7   8
ENDBRANCH   6   7
ENDBRANCH   4   6
ENDBRANCH   1   2
BRANCH   1  20
ATOM     20  C   UNL A   1      36.910  20.797  24.320  1.00  0.00     0.023 C 
BRANCH  20  21
ATOM     21  C   UNL A   1      38.038  19.814  24.651  1.00  0.00     0.023 C 
BRANCH  21  22
ATOM     22  C   UNL A   1      38.761  20.060  25.972  1.00  0.00     0.116 C 
BRANCH  22  23
ATOM     23  N   UNL A   1      39.964  19.253  26.108  1.00  0.00    -0.352 N 
ATOM     24  C   UNL A   1      41.264  19.644  26.318  1.00  0.00     0.251 C 
ATOM     25  H   UNL A   1      39.825  18.280  26.039  1.00  0.00     0.163 HD
ATOM     26  O   UNL A   1      42.167  18.813  26.224  1.00  0.00    -0.269 OA
BRANCH  24  27
ATOM     27  C   UNL A   1      41.589  21.053  26.633  1.00  0.00     0.039 A 
ATOM     28  C   UNL A   1      42.052  21.368  27.915  1.00  0.00     0.014 A 
ATOM     29  C   UNL A   1      41.426  22.066  25.685  1.00  0.00     0.014 A 
ATOM     30  C   UNL A   1      42.413  22.684  28.221  1.00  0.00     0.010 A 
ATOM     31  C   UNL A   1      41.857  23.362  25.969  1.00  0.00     0.010 A 
ATOM     32  C   UNL A   1      42.353  23.687  27.239  1.00  0.00    -0.014 A 
BRANCH  32  33
ATOM     33  C   UNL A   1      42.826  25.069  27.521  1.00  0.00     0.031 A 
ATOM     34  C   UNL A   1      41.904  26.083  28.148  1.00  0.00     0.074 A 
ATOM     35  C   UNL A   1      44.064  25.442  27.135  1.00  0.00     0.049 A 
ATOM     36  N   UNL A   1      42.123  27.345  28.410  1.00  0.00    -0.248 NA
ATOM     37  C   UNL A   1      40.552  25.624  28.506  1.00  0.00     0.031 C 
ATOM     38  C   UNL A   1      45.030  24.581  26.449  1.00  0.00     0.029 A 
ATOM     39  N   UNL A   1      44.711  26.649  27.237  1.00  0.00    -0.354 N 
ATOM     40  C   UNL A   1      40.933  27.840  28.931  1.00  0.00     0.074 A 
ATOM     41  C   UNL A   1      39.983  26.748  28.914  1.00  0.00     0.031 C 
ATOM     42  C   UNL A   1      46.144  25.285  26.193  1.00  0.00     0.029 A 
ATOM     43  C   UNL A   1      45.962  26.654  26.662  1.00  0.00     0.049 A 
ATOM     44  H   UNL A   1      44.319  27.436  27.679  1.00  0.00     0.167 HD
ATOM     45  C   UNL A   1      40.660  29.079  29.407  1.00  0.00     0.034 A 
ATOM     46  C   UNL A   1      46.857  27.651  26.513  1.00  0.00     0.034 A 
ATOM     47  C   UNL A   1      41.614  30.156  29.449  1.00  0.00     0.049 A 
ATOM     48  C   UNL A   1      46.538  29.012  27.069  1.00  0.00     0.074 A 
ATOM     49  C   UNL A   1      41.457  31.422  29.984  1.00  0.00     0.029 A 
ATOM     50  N   UNL A   1      42.898  30.099  28.930  1.00  0.00    -0.354 N 
ATOM     51  N   UNL A   1      45.460  29.417  27.696  1.00  0.00    -0.248 NA
ATOM     52  C   UNL A   1      47.574  30.047  26.931  1.00  0.00     0.031 C 
ATOM     53  C   UNL A   1      42.634  32.143  29.757  1.00  0.00     0.029 A 
ATOM     54  C   UNL A   1      43.539  31.312  29.119  1.00  0.00     0.049 A 
ATOM     55  H   UNL A   1      43.295  29.313  28.491  1.00  0.00     0.167 HD
ATOM     56  C   UNL A   1      45.702  30.737  28.059  1.00  0.00     0.074 A 
ATOM     57  C   UNL A   1      47.038  31.058  27.601  1.00  0.00     0.031 C 
ATOM     58  C   UNL A   1      44.886  31.608  28.702  1.00  0.00     0.034 A 
BRANCH  45  59
ATOM     59  C   UNL A   1      39.281  29.328  29.963  1.00  0.00     0.023 A 
ATOM     60  C   UNL A   1      38.966  28.888  31.266  1.00  0.00     0.012 A 
ATOM     61  C   UNL A   1      38.320  30.050  29.228  1.00  0.00     0.148 A 
ATOM     62  C   UNL A   1      37.705  29.125  31.813  1.00  0.00     0.002 A 
ATOM     63  C   UNL A   1      37.083  30.326  29.799  1.00  0.00     0.091 A 
ATOM     64  F   UNL A   1      38.631  30.448  27.987  1.00  0.00    -0.205 F 
ATOM     65  C   UNL A   1      36.768  29.853  31.083  1.00  0.00     0.022 A 
BRANCH  63  66
ATOM     66  S   UNL A   1      35.836  31.326  28.978  1.00  0.00     0.127 S 
ATOM     67  O   UNL A   1      34.934  31.641  30.086  1.00  0.00    -0.237 OA
ATOM     68  O   UNL A   1      36.624  32.460  28.492  1.00  0.00    -0.237 OA
ATOM     69  O   UNL A   1      35.269  30.486  27.932  1.00  0.00    -0.744 OA
ENDBRANCH  63  66
ENDBRANCH  45  59
BRANCH  46  70
ATOM     70  C   UNL A   1      48.164  27.386  25.847  1.00  0.00     0.023 A 
ATOM     71  C   UNL A   1      49.261  26.948  26.613  1.00  0.00     0.012 A 
ATOM     72  C   UNL A   1      48.320  27.548  24.456  1.00  0.00     0.148 A 
ATOM     73  C   UNL A   1      50.498  26.711  26.015  1.00  0.00     0.002 A 
ATOM     74  C   UNL A   1      49.539  27.253  23.858  1.00  0.00     0.091 A 
ATOM     75  F   UNL A   1      47.266  27.975  23.745  1.00  0.00    -0.205 F 
ATOM     76  C   UNL A   1      50.635  26.854  24.637  1.00  0.00     0.022 A 
BRANCH  74  77
ATOM     77  S   UNL A   1      49.770  27.281  22.076  1.00  0.00     0.127 S 
ATOM     78  O   UNL A   1      49.544  28.690  21.768  1.00  0.00    -0.237 OA
ATOM     79  O   UNL A   1      51.158  26.835  21.946  1.00  0.00    -0.237 OA
ATOM     80  O   UNL A   1      48.788  26.350  21.537  1.00  0.00    -0.744 OA
ENDBRANCH  74  77
ENDBRANCH  46  70
BRANCH  58  81
ATOM     81  C   UNL A   1      45.424  32.986  28.996  1.00  0.00     0.023 A 
ATOM     82  C   UNL A   1      46.127  33.229  30.193  1.00  0.00     0.012 A 
ATOM     83  C   UNL A   1      45.292  34.022  28.050  1.00  0.00     0.148 A 
ATOM     84  C   UNL A   1      46.658  34.491  30.459  1.00  0.00     0.002 A 
ATOM     85  C   UNL A   1      45.869  35.261  28.298  1.00  0.00     0.091 A 
ATOM     86  F   UNL A   1      44.604  33.776  26.925  1.00  0.00    -0.205 F 
ATOM     87  C   UNL A   1      46.541  35.501  29.507  1.00  0.00     0.022 A 
BRANCH  85  88
ATOM     88  S   UNL A   1      45.854  36.591  27.091  1.00  0.00     0.127 S 
ATOM     89  O   UNL A   1      46.412  35.931  25.913  1.00  0.00    -0.237 OA
ATOM     90  O   UNL A   1      44.428  36.906  26.997  1.00  0.00    -0.237 OA
ATOM     91  O   UNL A   1      46.672  37.656  27.656  1.00  0.00    -0.744 OA
ENDBRANCH  85  88
ENDBRANCH  58  81
ENDBRANCH  32  33
ENDBRANCH  24  27
ENDBRANCH  22  23
ENDBRANCH  21  22
ENDBRANCH  20  21
ENDBRANCH   1  20
TORSDOF 19
ENDMDL
