MODEL 1
REMARK VINA RESULT:     -11.8      0.000      0.000
REMARK SMILES CC[NH2+][C@@]1(C(=O)NCCCCNC(=O)c2ccc(-c3c4nc(c(-c5cccc(S(=O)(=O)[O-])c5F)c5ccc([nH]5)c(-c5cccc(S(=O)(=O)[O-])c5F)c5nc(c(-c6cccc(S(=O)(=O)[O-])c6F)c6ccc3[nH]6)C=C5)C=C4)cc2)CC[C@H]([NH+]2CCS(=O)(=O)CC2)C1
REMARK SMILES IDX 10 1 9 2 8 3 7 4 5 5 6 6 4 8 78 9 89 10 79 11 80 12 3 13
REMARK SMILES IDX 2 16 1 17 81 18 82 19 88 20 83 22 87 23 84 24 85 25 86 26
REMARK SMILES IDX 11 27 12 28 13 29 14 31 15 32 16 33 77 34 17 35 76 36 18 37
REMARK SMILES IDX 19 38 20 39 70 40 21 41 75 42 69 43 71 44 22 45 74 46 68 47
REMARK SMILES IDX 67 48 23 50 55 51 35 52 54 53 36 54 39 55 53 56 72 57 37 58
REMARK SMILES IDX 38 59 52 61 73 62 40 63 24 64 25 65 33 66 26 67 28 68 34 69
REMARK SMILES IDX 27 70 29 71 30 72 31 73 32 74 56 75 57 76 65 77 58 78 60 79
REMARK SMILES IDX 66 80 59 81 61 82 62 83 63 84 64 85 41 86 42 87 50 88 43 89
REMARK SMILES IDX 45 90 51 91 44 92 46 93 47 94 48 95 49 96
REMARK H PARENT 7 7 3 14 3 15 81 21 12 30 71 49 39 60
REMARK Flexibility Score: inf
ROOT
ATOM      1  C   UNL A   1      37.098  21.474  24.067  1.00  0.00     0.023 C 
ENDROOT
BRANCH   1   2
ATOM      2  C   UNL A   1      36.709  22.947  23.872  1.00  0.00     0.023 C 
BRANCH   2   3
ATOM      3  C   UNL A   1      36.049  23.659  25.078  1.00  0.00     0.116 C 
BRANCH   3   4
ATOM      4  N   UNL A   1      34.582  23.527  25.036  1.00  0.00    -0.351 N 
ATOM      5  C   UNL A   1      33.892  22.558  25.755  1.00  0.00     0.281 C 
ATOM      6  O   UNL A   1      34.383  22.026  26.751  1.00  0.00    -0.268 OA
ATOM      7  H   UNL A   1      34.068  24.153  24.474  1.00  0.00     0.163 HD
BRANCH   5   8
ATOM      8  C   UNL A   1      32.493  22.103  25.169  1.00  0.00     0.181 C 
ATOM      9  C   UNL A   1      32.465  22.093  23.615  1.00  0.00     0.085 C 
ATOM     10  C   UNL A   1      31.375  23.129  25.511  1.00  0.00     0.144 C 
ATOM     11  C   UNL A   1      31.579  23.235  23.122  1.00  0.00     0.072 C 
ATOM     12  C   UNL A   1      31.241  24.114  24.316  1.00  0.00     0.191 C 
BRANCH   8  13
ATOM     13  N   UNL A   1      32.166  20.747  25.712  1.00  0.00    -0.334 N 
ATOM     14  H   UNL A   1      32.667  20.619  26.591  1.00  0.00     0.347 HD
ATOM     15  H   UNL A   1      31.155  20.705  25.839  1.00  0.00     0.347 HD
BRANCH  13  16
ATOM     16  C   UNL A   1      32.542  19.651  24.793  1.00  0.00     0.257 C 
ATOM     17  C   UNL A   1      32.649  18.324  25.538  1.00  0.00     0.071 C 
ENDBRANCH  13  16
ENDBRANCH   8  13
BRANCH  12  18
ATOM     18  N   UNL A   1      31.920  25.411  24.403  1.00  0.00    -0.331 N 
ATOM     19  C   UNL A   1      31.256  26.498  25.124  1.00  0.00     0.278 C 
ATOM     20  C   UNL A   1      32.686  25.926  23.288  1.00  0.00     0.278 C 
ATOM     21  H   UNL A   1      32.631  25.017  25.020  1.00  0.00     0.348 HD
ATOM     22  C   UNL A   1      30.360  27.428  24.316  1.00  0.00     0.198 C 
ATOM     23  C   UNL A   1      31.914  26.569  22.169  1.00  0.00     0.198 C 
ATOM     24  S   UNL A   1      31.081  27.991  22.793  1.00  0.00     0.161 S 
ATOM     25  O   UNL A   1      29.993  28.297  21.885  1.00  0.00    -0.228 OA
ATOM     26  O   UNL A   1      32.083  28.991  23.104  1.00  0.00    -0.228 OA
ENDBRANCH  12  18
ENDBRANCH   5   8
ENDBRANCH   3   4
ENDBRANCH   2   3
ENDBRANCH   1   2
BRANCH   1  27
ATOM     27  C   UNL A   1      37.529  21.012  25.463  1.00  0.00     0.116 C 
BRANCH  27  28
ATOM     28  N   UNL A   1      38.797  20.287  25.520  1.00  0.00    -0.352 N 
ATOM     29  C   UNL A   1      39.982  20.668  26.131  1.00  0.00     0.251 C 
ATOM     30  H   UNL A   1      38.812  19.414  25.066  1.00  0.00     0.163 HD
ATOM     31  O   UNL A   1      40.990  19.976  26.028  1.00  0.00    -0.269 OA
BRANCH  29  32
ATOM     32  C   UNL A   1      40.056  21.992  26.793  1.00  0.00     0.039 A 
ATOM     33  C   UNL A   1      40.898  22.125  27.902  1.00  0.00     0.014 A 
ATOM     34  C   UNL A   1      39.452  23.116  26.227  1.00  0.00     0.014 A 
ATOM     35  C   UNL A   1      41.264  23.400  28.340  1.00  0.00     0.010 A 
ATOM     36  C   UNL A   1      39.879  24.384  26.615  1.00  0.00     0.010 A 
ATOM     37  C   UNL A   1      40.823  24.536  27.643  1.00  0.00    -0.014 A 
BRANCH  37  38
ATOM     38  C   UNL A   1      41.420  25.874  27.905  1.00  0.00     0.031 A 
ATOM     39  C   UNL A   1      42.824  26.186  27.475  1.00  0.00     0.074 A 
ATOM     40  C   UNL A   1      40.730  26.770  28.644  1.00  0.00     0.049 A 
ATOM     41  N   UNL A   1      43.515  27.283  27.657  1.00  0.00    -0.248 NA
ATOM     42  C   UNL A   1      43.560  25.119  26.781  1.00  0.00     0.031 C 
ATOM     43  C   UNL A   1      39.398  26.551  29.213  1.00  0.00     0.029 A 
ATOM     44  N   UNL A   1      41.061  28.036  29.060  1.00  0.00    -0.354 N 
ATOM     45  C   UNL A   1      44.776  27.024  27.138  1.00  0.00     0.074 A 
ATOM     46  C   UNL A   1      44.766  25.655  26.669  1.00  0.00     0.031 C 
ATOM     47  C   UNL A   1      39.017  27.651  29.882  1.00  0.00     0.029 A 
ATOM     48  C   UNL A   1      40.082  28.645  29.813  1.00  0.00     0.049 A 
ATOM     49  H   UNL A   1      41.918  28.468  28.842  1.00  0.00     0.167 HD
ATOM     50  C   UNL A   1      45.839  27.859  27.029  1.00  0.00     0.034 A 
ATOM     51  C   UNL A   1      40.041  29.871  30.373  1.00  0.00     0.034 A 
ATOM     52  C   UNL A   1      45.828  29.235  27.445  1.00  0.00     0.049 A 
ATOM     53  C   UNL A   1      41.207  30.803  30.182  1.00  0.00     0.074 A 
ATOM     54  C   UNL A   1      46.809  30.195  27.273  1.00  0.00     0.029 A 
ATOM     55  N   UNL A   1      44.784  29.848  28.122  1.00  0.00    -0.354 N 
ATOM     56  N   UNL A   1      42.320  30.603  29.520  1.00  0.00    -0.248 NA
ATOM     57  C   UNL A   1      41.095  32.141  30.782  1.00  0.00     0.031 C 
ATOM     58  C   UNL A   1      46.362  31.386  27.857  1.00  0.00     0.029 A 
ATOM     59  C   UNL A   1      45.098  31.171  28.383  1.00  0.00     0.049 A 
ATOM     60  H   UNL A   1      43.942  29.406  28.379  1.00  0.00     0.167 HD
ATOM     61  C   UNL A   1      43.027  31.798  29.591  1.00  0.00     0.074 A 
ATOM     62  C   UNL A   1      42.206  32.723  30.348  1.00  0.00     0.031 C 
ATOM     63  C   UNL A   1      44.249  32.098  29.088  1.00  0.00     0.034 A 
BRANCH  50  64
ATOM     64  C   UNL A   1      47.077  27.311  26.370  1.00  0.00     0.023 A 
ATOM     65  C   UNL A   1      47.259  27.491  24.983  1.00  0.00     0.012 A 
ATOM     66  C   UNL A   1      48.064  26.635  27.113  1.00  0.00     0.148 A 
ATOM     67  C   UNL A   1      48.375  26.963  24.337  1.00  0.00     0.002 A 
ATOM     68  C   UNL A   1      49.197  26.149  26.467  1.00  0.00     0.091 A 
ATOM     69  F   UNL A   1      47.867  26.449  28.426  1.00  0.00    -0.205 F 
ATOM     70  C   UNL A   1      49.347  26.299  25.079  1.00  0.00     0.022 A 
BRANCH  68  71
ATOM     71  S   UNL A   1      50.534  25.349  27.361  1.00  0.00     0.127 S 
ATOM     72  O   UNL A   1      51.460  25.019  26.278  1.00  0.00    -0.237 OA
ATOM     73  O   UNL A   1      50.997  26.413  28.253  1.00  0.00    -0.237 OA
ATOM     74  O   UNL A   1      49.926  24.216  28.045  1.00  0.00    -0.744 OA
ENDBRANCH  68  71
ENDBRANCH  50  64
BRANCH  51  75
ATOM     75  C   UNL A   1      38.803  30.327  31.069  1.00  0.00     0.023 A 
ATOM     76  C   UNL A   1      38.681  30.101  32.454  1.00  0.00     0.012 A 
ATOM     77  C   UNL A   1      37.776  31.015  30.393  1.00  0.00     0.148 A 
ATOM     78  C   UNL A   1      37.552  30.531  33.151  1.00  0.00     0.002 A 
ATOM     79  C   UNL A   1      36.674  31.483  31.101  1.00  0.00     0.091 A 
ATOM     80  F   UNL A   1      37.907  31.213  29.073  1.00  0.00    -0.205 F 
ATOM     81  C   UNL A   1      36.553  31.229  32.478  1.00  0.00     0.022 A 
BRANCH  79  82
ATOM     82  S   UNL A   1      35.395  32.496  30.349  1.00  0.00     0.127 S 
ATOM     83  O   UNL A   1      36.147  33.682  29.948  1.00  0.00    -0.237 OA
ATOM     84  O   UNL A   1      34.948  31.646  29.244  1.00  0.00    -0.237 OA
ATOM     85  O   UNL A   1      34.395  32.705  31.388  1.00  0.00    -0.744 OA
ENDBRANCH  79  82
ENDBRANCH  51  75
BRANCH  63  86
ATOM     86  C   UNL A   1      44.777  33.491  29.313  1.00  0.00     0.023 A 
ATOM     87  C   UNL A   1      45.471  33.788  30.502  1.00  0.00     0.012 A 
ATOM     88  C   UNL A   1      44.662  34.476  28.312  1.00  0.00     0.148 A 
ATOM     89  C   UNL A   1      46.023  35.054  30.702  1.00  0.00     0.002 A 
ATOM     90  C   UNL A   1      45.253  35.721  28.501  1.00  0.00     0.091 A 
ATOM     91  F   UNL A   1      43.978  34.181  27.197  1.00  0.00    -0.205 F 
ATOM     92  C   UNL A   1      45.925  36.014  29.698  1.00  0.00     0.022 A 
BRANCH  90  93
ATOM     93  S   UNL A   1      45.257  36.982  27.221  1.00  0.00     0.127 S 
ATOM     94  O   UNL A   1      46.035  38.047  27.854  1.00  0.00    -0.237 OA
ATOM     95  O   UNL A   1      45.937  36.306  26.116  1.00  0.00    -0.237 OA
ATOM     96  O   UNL A   1      43.857  37.294  26.964  1.00  0.00    -0.744 OA
ENDBRANCH  90  93
ENDBRANCH  63  86
ENDBRANCH  37  38
ENDBRANCH  29  32
ENDBRANCH  27  28
ENDBRANCH   1  27
TORSDOF 17
ENDMDL
MODEL 2
REMARK VINA RESULT:     -11.7      5.126     10.421
REMARK SMILES CC[NH2+][C@@]1(C(=O)NCCCCNC(=O)c2ccc(-c3c4nc(c(-c5cccc(S(=O)(=O)[O-])c5F)c5ccc([nH]5)c(-c5cccc(S(=O)(=O)[O-])c5F)c5nc(c(-c6cccc(S(=O)(=O)[O-])c6F)c6ccc3[nH]6)C=C5)C=C4)cc2)CC[C@H]([NH+]2CCS(=O)(=O)CC2)C1
REMARK SMILES IDX 10 1 9 2 8 3 7 4 5 5 6 6 4 8 78 9 89 10 79 11 80 12 3 13
REMARK SMILES IDX 2 16 1 17 81 18 82 19 88 20 83 22 87 23 84 24 85 25 86 26
REMARK SMILES IDX 11 27 12 28 13 29 14 31 15 32 16 33 77 34 17 35 76 36 18 37
REMARK SMILES IDX 19 38 20 39 70 40 21 41 75 42 69 43 71 44 22 45 74 46 68 47
REMARK SMILES IDX 67 48 23 50 55 51 35 52 54 53 36 54 39 55 53 56 72 57 37 58
REMARK SMILES IDX 38 59 52 61 73 62 40 63 24 64 25 65 33 66 26 67 28 68 34 69
REMARK SMILES IDX 27 70 29 71 30 72 31 73 32 74 56 75 57 76 65 77 58 78 60 79
REMARK SMILES IDX 66 80 59 81 61 82 62 83 63 84 64 85 41 86 42 87 50 88 43 89
REMARK SMILES IDX 45 90 51 91 44 92 46 93 47 94 48 95 49 96
REMARK H PARENT 7 7 3 14 3 15 81 21 12 30 71 49 39 60
REMARK Flexibility Score: inf
ROOT
ATOM      1  C   UNL A   1      31.534  30.301  27.031  1.00  0.00     0.023 C 
ENDROOT
BRANCH   1   2
ATOM      2  C   UNL A   1      32.009  28.858  27.260  1.00  0.00     0.023 C 
BRANCH   2   3
ATOM      3  C   UNL A   1      33.128  28.337  26.327  1.00  0.00     0.116 C 
BRANCH   3   4
ATOM      4  N   UNL A   1      32.577  27.479  25.262  1.00  0.00    -0.351 N 
ATOM      5  C   UNL A   1      32.478  27.893  23.939  1.00  0.00     0.281 C 
ATOM      6  O   UNL A   1      33.181  28.800  23.493  1.00  0.00    -0.268 OA
ATOM      7  H   UNL A   1      32.267  26.575  25.499  1.00  0.00     0.163 HD
BRANCH   5   8
ATOM      8  C   UNL A   1      31.346  27.210  23.067  1.00  0.00     0.181 C 
ATOM      9  C   UNL A   1      30.194  26.620  23.929  1.00  0.00     0.085 C 
ATOM     10  C   UNL A   1      31.882  25.950  22.329  1.00  0.00     0.144 C 
ATOM     11  C   UNL A   1      30.261  25.095  23.880  1.00  0.00     0.072 C 
ATOM     12  C   UNL A   1      31.568  24.705  23.207  1.00  0.00     0.191 C 
BRANCH   8  13
ATOM     13  N   UNL A   1      30.816  28.218  22.096  1.00  0.00    -0.334 N 
ATOM     14  H   UNL A   1      31.588  28.808  21.786  1.00  0.00     0.347 HD
ATOM     15  H   UNL A   1      30.392  27.705  21.323  1.00  0.00     0.347 HD
BRANCH  13  16
ATOM     16  C   UNL A   1      29.768  29.084  22.678  1.00  0.00     0.257 C 
ATOM     17  C   UNL A   1      29.404  30.220  21.727  1.00  0.00     0.071 C 
ENDBRANCH  13  16
ENDBRANCH   8  13
BRANCH  12  18
ATOM     18  N   UNL A   1      32.630  24.176  24.069  1.00  0.00    -0.331 N 
ATOM     19  C   UNL A   1      33.583  23.224  23.496  1.00  0.00     0.278 C 
ATOM     20  C   UNL A   1      32.376  23.874  25.461  1.00  0.00     0.278 C 
ATOM     21  H   UNL A   1      33.083  25.089  24.101  1.00  0.00     0.348 HD
ATOM     22  C   UNL A   1      33.247  21.743  23.611  1.00  0.00     0.198 C 
ATOM     23  C   UNL A   1      31.683  22.573  25.762  1.00  0.00     0.198 C 
ATOM     24  S   UNL A   1      32.709  21.243  25.229  1.00  0.00     0.161 S 
ATOM     25  O   UNL A   1      31.864  20.076  25.064  1.00  0.00    -0.228 OA
ATOM     26  O   UNL A   1      33.864  21.197  26.102  1.00  0.00    -0.228 OA
ENDBRANCH  12  18
ENDBRANCH   5   8
ENDBRANCH   3   4
ENDBRANCH   2   3
ENDBRANCH   1   2
BRANCH   1  27
ATOM     27  C   UNL A   1      32.551  31.333  26.531  1.00  0.00     0.116 C 
BRANCH  27  28
ATOM     28  N   UNL A   1      32.597  32.584  27.285  1.00  0.00    -0.352 N 
ATOM     29  C   UNL A   1      33.649  33.110  28.019  1.00  0.00     0.251 C 
ATOM     30  H   UNL A   1      31.774  33.124  27.269  1.00  0.00     0.163 HD
ATOM     31  O   UNL A   1      33.507  34.147  28.661  1.00  0.00    -0.269 OA
BRANCH  29  32
ATOM     32  C   UNL A   1      34.906  32.334  28.133  1.00  0.00     0.039 A 
ATOM     33  C   UNL A   1      36.113  33.039  28.174  1.00  0.00     0.014 A 
ATOM     34  C   UNL A   1      34.884  30.959  28.376  1.00  0.00     0.014 A 
ATOM     35  C   UNL A   1      37.271  32.398  28.619  1.00  0.00     0.010 A 
ATOM     36  C   UNL A   1      36.021  30.342  28.893  1.00  0.00     0.010 A 
ATOM     37  C   UNL A   1      37.212  31.067  29.062  1.00  0.00    -0.014 A 
BRANCH  37  38
ATOM     38  C   UNL A   1      38.349  30.457  29.802  1.00  0.00     0.031 A 
ATOM     39  C   UNL A   1      38.665  30.877  31.209  1.00  0.00     0.074 A 
ATOM     40  C   UNL A   1      39.174  29.605  29.156  1.00  0.00     0.049 A 
ATOM     41  N   UNL A   1      39.640  30.479  31.986  1.00  0.00    -0.248 NA
ATOM     42  C   UNL A   1      37.796  31.900  31.809  1.00  0.00     0.031 C 
ATOM     43  C   UNL A   1      39.040  29.196  27.755  1.00  0.00     0.029 A 
ATOM     44  N   UNL A   1      40.301  28.946  29.583  1.00  0.00    -0.354 N 
ATOM     45  C   UNL A   1      39.526  31.231  33.148  1.00  0.00     0.074 A 
ATOM     46  C   UNL A   1      38.411  32.134  32.958  1.00  0.00     0.031 C 
ATOM     47  C   UNL A   1      40.028  28.340  27.448  1.00  0.00     0.029 A 
ATOM     48  C   UNL A   1      40.881  28.156  28.617  1.00  0.00     0.049 A 
ATOM     49  H   UNL A   1      40.660  29.030  30.496  1.00  0.00     0.167 HD
ATOM     50  C   UNL A   1      40.260  31.155  34.285  1.00  0.00     0.034 A 
ATOM     51  C   UNL A   1      41.969  27.362  28.669  1.00  0.00     0.034 A 
ATOM     52  C   UNL A   1      41.331  30.219  34.492  1.00  0.00     0.049 A 
ATOM     53  C   UNL A   1      42.729  27.245  29.963  1.00  0.00     0.074 A 
ATOM     54  C   UNL A   1      42.058  29.982  35.645  1.00  0.00     0.029 A 
ATOM     55  N   UNL A   1      41.834  29.367  33.520  1.00  0.00    -0.354 N 
ATOM     56  N   UNL A   1      42.488  27.824  31.114  1.00  0.00    -0.248 NA
ATOM     57  C   UNL A   1      43.886  26.338  29.977  1.00  0.00     0.031 C 
ATOM     58  C   UNL A   1      43.009  28.994  35.365  1.00  0.00     0.029 A 
ATOM     59  C   UNL A   1      42.867  28.607  34.043  1.00  0.00     0.049 A 
ATOM     60  H   UNL A   1      41.504  29.310  32.594  1.00  0.00     0.167 HD
ATOM     61  C   UNL A   1      43.439  27.326  31.999  1.00  0.00     0.074 A 
ATOM     62  C   UNL A   1      44.249  26.385  31.252  1.00  0.00     0.031 C 
ATOM     63  C   UNL A   1      43.630  27.632  33.305  1.00  0.00     0.034 A 
BRANCH  50  64
ATOM     64  C   UNL A   1      39.872  32.073  35.415  1.00  0.00     0.023 A 
ATOM     65  C   UNL A   1      40.472  33.345  35.508  1.00  0.00     0.012 A 
ATOM     66  C   UNL A   1      38.911  31.691  36.371  1.00  0.00     0.148 A 
ATOM     67  C   UNL A   1      40.164  34.202  36.563  1.00  0.00     0.002 A 
ATOM     68  C   UNL A   1      38.576  32.570  37.396  1.00  0.00     0.091 A 
ATOM     69  F   UNL A   1      38.366  30.469  36.284  1.00  0.00    -0.205 F 
ATOM     70  C   UNL A   1      39.211  33.819  37.502  1.00  0.00     0.022 A 
BRANCH  68  71
ATOM     71  S   UNL A   1      37.302  32.187  38.603  1.00  0.00     0.127 S 
ATOM     72  O   UNL A   1      36.149  32.899  38.056  1.00  0.00    -0.237 OA
ATOM     73  O   UNL A   1      37.213  30.728  38.515  1.00  0.00    -0.237 OA
ATOM     74  O   UNL A   1      37.809  32.680  39.877  1.00  0.00    -0.744 OA
ENDBRANCH  68  71
ENDBRANCH  50  64
BRANCH  51  75
ATOM     75  C   UNL A   1      42.335  26.527  27.489  1.00  0.00     0.023 A 
ATOM     76  C   UNL A   1      43.075  27.115  26.444  1.00  0.00     0.012 A 
ATOM     77  C   UNL A   1      42.004  25.160  27.410  1.00  0.00     0.148 A 
ATOM     78  C   UNL A   1      43.459  26.367  25.332  1.00  0.00     0.002 A 
ATOM     79  C   UNL A   1      42.431  24.407  26.321  1.00  0.00     0.091 A 
ATOM     80  F   UNL A   1      41.293  24.620  28.410  1.00  0.00    -0.205 F 
ATOM     81  C   UNL A   1      43.146  25.012  25.274  1.00  0.00     0.022 A 
BRANCH  79  82
ATOM     82  S   UNL A   1      42.182  22.630  26.211  1.00  0.00     0.127 S 
ATOM     83  O   UNL A   1      40.725  22.532  26.188  1.00  0.00    -0.237 OA
ATOM     84  O   UNL A   1      42.842  22.312  24.944  1.00  0.00    -0.237 OA
ATOM     85  O   UNL A   1      42.833  22.067  27.386  1.00  0.00    -0.744 OA
ENDBRANCH  79  82
ENDBRANCH  51  75
BRANCH  63  86
ATOM     86  C   UNL A   1      44.746  26.928  34.032  1.00  0.00     0.023 A 
ATOM     87  C   UNL A   1      46.019  27.527  34.100  1.00  0.00     0.012 A 
ATOM     88  C   UNL A   1      44.511  25.721  34.719  1.00  0.00     0.148 A 
ATOM     89  C   UNL A   1      47.049  26.924  34.822  1.00  0.00     0.002 A 
ATOM     90  C   UNL A   1      45.530  25.147  35.473  1.00  0.00     0.091 A 
ATOM     91  F   UNL A   1      43.300  25.154  34.623  1.00  0.00    -0.205 F 
ATOM     92  C   UNL A   1      46.801  25.742  35.518  1.00  0.00     0.022 A 
BRANCH  90  93
ATOM     93  S   UNL A   1      45.270  23.679  36.476  1.00  0.00     0.127 S 
ATOM     94  O   UNL A   1      44.620  24.238  37.660  1.00  0.00    -0.237 OA
ATOM     95  O   UNL A   1      44.397  22.869  35.626  1.00  0.00    -0.237 OA
ATOM     96  O   UNL A   1      46.592  23.108  36.695  1.00  0.00    -0.744 OA
ENDBRANCH  90  93
ENDBRANCH  63  86
ENDBRANCH  37  38
ENDBRANCH  29  32
ENDBRANCH  27  28
ENDBRANCH   1  27
TORSDOF 17
ENDMDL
MODEL 3
REMARK VINA RESULT:     -11.5      1.380      7.937
REMARK SMILES CC[NH2+][C@@]1(C(=O)NCCCCNC(=O)c2ccc(-c3c4nc(c(-c5cccc(S(=O)(=O)[O-])c5F)c5ccc([nH]5)c(-c5cccc(S(=O)(=O)[O-])c5F)c5nc(c(-c6cccc(S(=O)(=O)[O-])c6F)c6ccc3[nH]6)C=C5)C=C4)cc2)CC[C@H]([NH+]2CCS(=O)(=O)CC2)C1
REMARK SMILES IDX 10 1 9 2 8 3 7 4 5 5 6 6 4 8 78 9 89 10 79 11 80 12 3 13
REMARK SMILES IDX 2 16 1 17 81 18 82 19 88 20 83 22 87 23 84 24 85 25 86 26
REMARK SMILES IDX 11 27 12 28 13 29 14 31 15 32 16 33 77 34 17 35 76 36 18 37
REMARK SMILES IDX 19 38 20 39 70 40 21 41 75 42 69 43 71 44 22 45 74 46 68 47
REMARK SMILES IDX 67 48 23 50 55 51 35 52 54 53 36 54 39 55 53 56 72 57 37 58
REMARK SMILES IDX 38 59 52 61 73 62 40 63 24 64 25 65 33 66 26 67 28 68 34 69
REMARK SMILES IDX 27 70 29 71 30 72 31 73 32 74 56 75 57 76 65 77 58 78 60 79
REMARK SMILES IDX 66 80 59 81 61 82 62 83 63 84 64 85 41 86 42 87 50 88 43 89
REMARK SMILES IDX 45 90 51 91 44 92 46 93 47 94 48 95 49 96
REMARK H PARENT 7 7 3 14 3 15 81 21 12 30 71 49 39 60
REMARK Flexibility Score: inf
ROOT
ATOM      1  C   UNL A   1      36.768  21.781  24.021  1.00  0.00     0.023 C 
ENDROOT
BRANCH   1   2
ATOM      2  C   UNL A   1      36.135  23.171  23.854  1.00  0.00     0.023 C 
BRANCH   2   3
ATOM      3  C   UNL A   1      34.779  23.235  23.112  1.00  0.00     0.116 C 
BRANCH   3   4
ATOM      4  N   UNL A   1      33.676  23.537  24.042  1.00  0.00    -0.351 N 
ATOM      5  C   UNL A   1      33.079  24.790  24.120  1.00  0.00     0.281 C 
ATOM      6  O   UNL A   1      33.137  25.590  23.186  1.00  0.00    -0.268 OA
ATOM      7  H   UNL A   1      33.348  22.820  24.632  1.00  0.00     0.163 HD
BRANCH   5   8
ATOM      8  C   UNL A   1      32.414  25.172  25.506  1.00  0.00     0.181 C 
ATOM      9  C   UNL A   1      30.912  24.776  25.583  1.00  0.00     0.085 C 
ATOM     10  C   UNL A   1      32.358  26.714  25.701  1.00  0.00     0.144 C 
ATOM     11  C   UNL A   1      30.059  26.043  25.551  1.00  0.00     0.072 C 
ATOM     12  C   UNL A   1      30.969  27.213  25.213  1.00  0.00     0.191 C 
BRANCH   8  13
ATOM     13  N   UNL A   1      33.190  24.516  26.606  1.00  0.00    -0.334 N 
ATOM     14  H   UNL A   1      34.168  24.459  26.324  1.00  0.00     0.347 HD
ATOM     15  H   UNL A   1      33.066  25.082  27.445  1.00  0.00     0.347 HD
BRANCH  13  16
ATOM     16  C   UNL A   1      32.710  23.152  26.916  1.00  0.00     0.257 C 
ATOM     17  C   UNL A   1      33.714  22.403  27.787  1.00  0.00     0.071 C 
ENDBRANCH  13  16
ENDBRANCH   8  13
BRANCH  12  18
ATOM     18  N   UNL A   1      30.865  27.770  23.861  1.00  0.00    -0.331 N 
ATOM     19  C   UNL A   1      31.124  29.198  23.674  1.00  0.00     0.278 C 
ATOM     20  C   UNL A   1      29.846  27.308  22.943  1.00  0.00     0.278 C 
ATOM     21  H   UNL A   1      31.699  27.261  23.569  1.00  0.00     0.348 HD
ATOM     22  C   UNL A   1      29.933  30.143  23.766  1.00  0.00     0.198 C 
ATOM     23  C   UNL A   1      28.461  27.866  23.123  1.00  0.00     0.198 C 
ATOM     24  S   UNL A   1      28.507  29.607  22.850  1.00  0.00     0.161 S 
ATOM     25  O   UNL A   1      27.339  30.182  23.488  1.00  0.00    -0.228 OA
ATOM     26  O   UNL A   1      28.759  29.828  21.440  1.00  0.00    -0.228 OA
ENDBRANCH  12  18
ENDBRANCH   5   8
ENDBRANCH   3   4
ENDBRANCH   2   3
ENDBRANCH   1   2
BRANCH   1  27
ATOM     27  C   UNL A   1      37.227  21.353  25.419  1.00  0.00     0.116 C 
BRANCH  27  28
ATOM     28  N   UNL A   1      38.407  20.490  25.454  1.00  0.00    -0.352 N 
ATOM     29  C   UNL A   1      39.617  20.711  26.092  1.00  0.00     0.251 C 
ATOM     30  H   UNL A   1      38.332  19.641  24.961  1.00  0.00     0.163 HD
ATOM     31  O   UNL A   1      40.545  19.916  25.967  1.00  0.00    -0.269 OA
BRANCH  29  32
ATOM     32  C   UNL A   1      39.827  21.987  26.815  1.00  0.00     0.039 A 
ATOM     33  C   UNL A   1      40.848  22.041  27.771  1.00  0.00     0.014 A 
ATOM     34  C   UNL A   1      39.157  23.150  26.432  1.00  0.00     0.014 A 
ATOM     35  C   UNL A   1      41.305  23.282  28.219  1.00  0.00     0.010 A 
ATOM     36  C   UNL A   1      39.666  24.387  26.822  1.00  0.00     0.010 A 
ATOM     37  C   UNL A   1      40.774  24.465  27.682  1.00  0.00    -0.014 A 
BRANCH  37  38
ATOM     38  C   UNL A   1      41.431  25.777  27.923  1.00  0.00     0.031 A 
ATOM     39  C   UNL A   1      40.707  26.879  28.643  1.00  0.00     0.074 A 
ATOM     40  C   UNL A   1      42.644  26.016  27.381  1.00  0.00     0.049 A 
ATOM     41  N   UNL A   1      41.112  28.096  28.903  1.00  0.00    -0.248 NA
ATOM     42  C   UNL A   1      39.340  26.588  29.100  1.00  0.00     0.031 C 
ATOM     43  C   UNL A   1      43.410  25.067  26.568  1.00  0.00     0.029 A 
ATOM     44  N   UNL A   1      43.439  27.136  27.412  1.00  0.00    -0.354 N 
ATOM     45  C   UNL A   1      40.038  28.727  29.516  1.00  0.00     0.074 A 
ATOM     46  C   UNL A   1      38.952  27.771  29.554  1.00  0.00     0.031 C 
ATOM     47  C   UNL A   1      44.570  25.635  26.201  1.00  0.00     0.029 A 
ATOM     48  C   UNL A   1      44.624  26.994  26.727  1.00  0.00     0.049 A 
ATOM     49  H   UNL A   1      43.185  27.963  27.881  1.00  0.00     0.167 HD
ATOM     50  C   UNL A   1      39.969  29.978  30.033  1.00  0.00     0.034 A 
ATOM     51  C   UNL A   1      45.646  27.856  26.552  1.00  0.00     0.034 A 
ATOM     52  C   UNL A   1      41.067  30.907  30.043  1.00  0.00     0.049 A 
ATOM     53  C   UNL A   1      45.573  29.217  27.191  1.00  0.00     0.074 A 
ATOM     54  C   UNL A   1      41.136  32.152  30.643  1.00  0.00     0.029 A 
ATOM     55  N   UNL A   1      42.287  30.696  29.419  1.00  0.00    -0.354 N 
ATOM     56  N   UNL A   1      44.621  29.728  27.933  1.00  0.00    -0.248 NA
ATOM     57  C   UNL A   1      46.730  30.104  27.001  1.00  0.00     0.031 C 
ATOM     58  C   UNL A   1      42.397  32.697  30.371  1.00  0.00     0.029 A 
ATOM     59  C   UNL A   1      43.115  31.788  29.612  1.00  0.00     0.049 A 
ATOM     60  H   UNL A   1      42.529  29.886  28.914  1.00  0.00     0.167 HD
ATOM     61  C   UNL A   1      45.077  30.980  28.329  1.00  0.00     0.074 A 
ATOM     62  C   UNL A   1      46.398  31.143  27.756  1.00  0.00     0.031 C 
ATOM     63  C   UNL A   1      44.451  31.915  29.085  1.00  0.00     0.034 A 
BRANCH  50  64
ATOM     64  C   UNL A   1      38.675  30.380  30.690  1.00  0.00     0.023 A 
ATOM     65  C   UNL A   1      38.384  29.911  31.987  1.00  0.00     0.012 A 
ATOM     66  C   UNL A   1      37.754  31.225  30.039  1.00  0.00     0.148 A 
ATOM     67  C   UNL A   1      37.178  30.232  32.608  1.00  0.00     0.002 A 
ATOM     68  C   UNL A   1      36.572  31.577  30.683  1.00  0.00     0.091 A 
ATOM     69  F   UNL A   1      38.032  31.643  28.796  1.00  0.00    -0.205 F 
ATOM     70  C   UNL A   1      36.276  31.071  31.959  1.00  0.00     0.022 A 
BRANCH  68  71
ATOM     71  S   UNL A   1      35.390  32.714  29.951  1.00  0.00     0.127 S 
ATOM     72  O   UNL A   1      35.072  32.044  28.692  1.00  0.00    -0.237 OA
ATOM     73  O   UNL A   1      34.304  32.714  30.932  1.00  0.00    -0.237 OA
ATOM     74  O   UNL A   1      36.092  33.986  29.834  1.00  0.00    -0.744 OA
ENDBRANCH  68  71
ENDBRANCH  50  64
BRANCH  51  75
ATOM     75  C   UNL A   1      46.876  27.412  25.834  1.00  0.00     0.023 A 
ATOM     76  C   UNL A   1      46.990  27.681  24.455  1.00  0.00     0.012 A 
ATOM     77  C   UNL A   1      47.942  26.777  26.500  1.00  0.00     0.148 A 
ATOM     78  C   UNL A   1      48.131  27.306  23.748  1.00  0.00     0.002 A 
ATOM     79  C   UNL A   1      49.097  26.448  25.799  1.00  0.00     0.091 A 
ATOM     80  F   UNL A   1      47.811  26.524  27.810  1.00  0.00    -0.205 F 
ATOM     81  C   UNL A   1      49.188  26.698  24.420  1.00  0.00     0.022 A 
BRANCH  79  82
ATOM     82  S   UNL A   1      50.559  25.773  26.597  1.00  0.00     0.127 S 
ATOM     83  O   UNL A   1      50.039  24.540  27.182  1.00  0.00    -0.237 OA
ATOM     84  O   UNL A   1      51.463  25.584  25.462  1.00  0.00    -0.237 OA
ATOM     85  O   UNL A   1      50.993  26.787  27.548  1.00  0.00    -0.744 OA
ENDBRANCH  79  82
ENDBRANCH  51  75
BRANCH  63  86
ATOM     86  C   UNL A   1      45.190  33.198  29.366  1.00  0.00     0.023 A 
ATOM     87  C   UNL A   1      46.032  33.283  30.492  1.00  0.00     0.012 A 
ATOM     88  C   UNL A   1      45.117  34.283  28.471  1.00  0.00     0.148 A 
ATOM     89  C   UNL A   1      46.774  34.439  30.735  1.00  0.00     0.002 A 
ATOM     90  C   UNL A   1      45.892  35.416  28.697  1.00  0.00     0.091 A 
ATOM     91  F   UNL A   1      44.291  34.192  27.419  1.00  0.00    -0.205 F 
ATOM     92  C   UNL A   1      46.714  35.498  29.832  1.00  0.00     0.022 A 
BRANCH  90  93
ATOM     93  S   UNL A   1      45.948  36.785  27.535  1.00  0.00     0.127 S 
ATOM     94  O   UNL A   1      44.556  37.233  27.534  1.00  0.00    -0.237 OA
ATOM     95  O   UNL A   1      46.884  37.706  28.180  1.00  0.00    -0.237 OA
ATOM     96  O   UNL A   1      46.428  36.223  26.280  1.00  0.00    -0.744 OA
ENDBRANCH  90  93
ENDBRANCH  63  86
ENDBRANCH  37  38
ENDBRANCH  29  32
ENDBRANCH  27  28
ENDBRANCH   1  27
TORSDOF 17
ENDMDL
