MODEL 1
REMARK VINA RESULT:     -11.6      0.000      0.000
REMARK SMILES C[N@@H+](CC(=O)NCCCCNC(=O)c1ccc(-c2c3nc(c(-c4cccc(S(=O)(=O)[O-])c4F)c4ccc([nH]4)c(-c4cccc(S(=O)(=O)[O-])c4F)c4nc(c(-c5cccc(S(=O)(=O)[O-])c5F)c5ccc2[nH]5)C=C4)C=C3)cc1)Cc1cccc2c1OCCO2
REMARK SMILES IDX 8 1 7 2 6 3 4 4 5 5 3 7 2 8 1 9 77 11 78 12 79 13 83 14
REMARK SMILES IDX 80 15 82 16 84 17 81 18 87 19 85 20 86 21 9 22 10 23 11 24
REMARK SMILES IDX 12 25 13 27 14 28 15 29 76 30 16 31 75 32 17 33 18 34 19 35
REMARK SMILES IDX 69 36 20 37 74 38 68 39 70 40 21 41 73 42 67 43 66 44 22 46
REMARK SMILES IDX 54 47 34 48 53 49 35 50 38 51 52 52 71 53 36 54 37 55 51 57
REMARK SMILES IDX 72 58 39 59 23 60 24 61 32 62 25 63 27 64 33 65 26 66 28 67
REMARK SMILES IDX 29 68 30 69 31 70 55 71 56 72 64 73 57 74 59 75 65 76 58 77
REMARK SMILES IDX 60 78 61 79 62 80 63 81 40 82 41 83 49 84 42 85 44 86 50 87
REMARK SMILES IDX 43 88 45 89 46 90 47 91 48 92
REMARK H PARENT 6 6 2 10 11 26 70 45 38 56
REMARK Flexibility Score: inf
ROOT
ATOM      1  C   UNL A   1      35.518  22.128  26.291  1.00  0.00     0.023 C 
ENDROOT
BRANCH   1   2
ATOM      2  C   UNL A   1      34.241  21.858  27.096  1.00  0.00     0.116 C 
BRANCH   2   3
ATOM      3  N   UNL A   1      33.280  20.980  26.465  1.00  0.00    -0.351 N 
ATOM      4  C   UNL A   1      32.493  21.179  25.360  1.00  0.00     0.275 C 
ATOM      5  O   UNL A   1      31.830  20.223  24.946  1.00  0.00    -0.269 OA
ATOM      6  H   UNL A   1      33.173  20.102  26.897  1.00  0.00     0.163 HD
BRANCH   4   7
ATOM      7  C   UNL A   1      32.490  22.514  24.624  1.00  0.00     0.363 C 
BRANCH   7   8
ATOM      8  N   UNL A   1      31.367  23.393  24.922  1.00  0.00    -0.326 N 
ATOM      9  C   UNL A   1      30.655  23.238  26.162  1.00  0.00     0.333 C 
ATOM     10  H   UNL A   1      31.969  24.160  25.224  1.00  0.00     0.348 HD
BRANCH   8  11
ATOM     11  C   UNL A   1      30.703  24.090  23.835  1.00  0.00     0.303 C 
BRANCH  11  12
ATOM     12  C   UNL A   1      30.666  25.599  23.659  1.00  0.00     0.052 A 
ATOM     13  C   UNL A   1      29.376  26.179  23.742  1.00  0.00     0.014 A 
ATOM     14  C   UNL A   1      31.711  26.477  23.357  1.00  0.00     0.170 A 
ATOM     15  C   UNL A   1      29.137  27.528  23.456  1.00  0.00     0.005 A 
ATOM     16  C   UNL A   1      31.455  27.812  22.959  1.00  0.00     0.161 A 
ATOM     17  O   UNL A   1      33.014  26.095  23.568  1.00  0.00    -0.486 OA
ATOM     18  C   UNL A   1      30.172  28.335  23.011  1.00  0.00     0.050 A 
ATOM     19  O   UNL A   1      32.440  28.702  22.587  1.00  0.00    -0.486 OA
ATOM     20  C   UNL A   1      33.716  27.263  24.024  1.00  0.00     0.271 C 
ATOM     21  C   UNL A   1      33.762  28.211  22.847  1.00  0.00     0.271 C 
ENDBRANCH  11  12
ENDBRANCH   8  11
ENDBRANCH   7   8
ENDBRANCH   4   7
ENDBRANCH   2   3
ENDBRANCH   1   2
BRANCH   1  22
ATOM     22  C   UNL A   1      36.064  21.058  25.345  1.00  0.00     0.023 C 
BRANCH  22  23
ATOM     23  C   UNL A   1      37.444  21.301  24.755  1.00  0.00     0.116 C 
BRANCH  23  24
ATOM     24  N   UNL A   1      38.397  20.373  25.330  1.00  0.00    -0.352 N 
ATOM     25  C   UNL A   1      39.583  20.623  25.974  1.00  0.00     0.251 C 
ATOM     26  H   UNL A   1      38.158  19.422  25.245  1.00  0.00     0.163 HD
ATOM     27  O   UNL A   1      40.435  19.736  25.976  1.00  0.00    -0.269 OA
BRANCH  25  28
ATOM     28  C   UNL A   1      39.849  21.901  26.690  1.00  0.00     0.039 A 
ATOM     29  C   UNL A   1      39.250  23.070  26.202  1.00  0.00     0.014 A 
ATOM     30  C   UNL A   1      40.797  22.003  27.711  1.00  0.00     0.014 A 
ATOM     31  C   UNL A   1      39.650  24.323  26.681  1.00  0.00     0.010 A 
ATOM     32  C   UNL A   1      41.109  23.243  28.271  1.00  0.00     0.010 A 
ATOM     33  C   UNL A   1      40.612  24.421  27.699  1.00  0.00    -0.014 A 
BRANCH  33  34
ATOM     34  C   UNL A   1      41.234  25.728  28.048  1.00  0.00     0.031 A 
ATOM     35  C   UNL A   1      42.648  26.024  27.590  1.00  0.00     0.074 A 
ATOM     36  C   UNL A   1      40.565  26.636  28.783  1.00  0.00     0.049 A 
ATOM     37  N   UNL A   1      43.393  27.076  27.820  1.00  0.00    -0.248 NA
ATOM     38  C   UNL A   1      43.331  24.981  26.805  1.00  0.00     0.031 C 
ATOM     39  C   UNL A   1      39.228  26.451  29.348  1.00  0.00     0.029 A 
ATOM     40  N   UNL A   1      40.928  27.895  29.194  1.00  0.00    -0.354 N 
ATOM     41  C   UNL A   1      44.638  26.792  27.266  1.00  0.00     0.074 A 
ATOM     42  C   UNL A   1      44.567  25.452  26.732  1.00  0.00     0.031 C 
ATOM     43  C   UNL A   1      38.875  27.561  30.016  1.00  0.00     0.029 A 
ATOM     44  C   UNL A   1      39.965  28.530  29.944  1.00  0.00     0.049 A 
ATOM     45  H   UNL A   1      41.795  28.305  28.972  1.00  0.00     0.167 HD
ATOM     46  C   UNL A   1      45.732  27.585  27.164  1.00  0.00     0.034 A 
ATOM     47  C   UNL A   1      39.960  29.760  30.495  1.00  0.00     0.034 A 
ATOM     48  C   UNL A   1      45.765  28.954  27.601  1.00  0.00     0.049 A 
ATOM     49  C   UNL A   1      41.141  30.666  30.266  1.00  0.00     0.074 A 
ATOM     50  C   UNL A   1      46.785  29.878  27.465  1.00  0.00     0.029 A 
ATOM     51  N   UNL A   1      44.718  29.599  28.240  1.00  0.00    -0.354 N 
ATOM     52  N   UNL A   1      42.257  30.423  29.622  1.00  0.00    -0.248 NA
ATOM     53  C   UNL A   1      41.040  32.035  30.793  1.00  0.00     0.031 C 
ATOM     54  C   UNL A   1      46.352  31.087  28.023  1.00  0.00     0.029 A 
ATOM     55  C   UNL A   1      45.059  30.916  28.490  1.00  0.00     0.049 A 
ATOM     56  H   UNL A   1      43.860  29.182  28.481  1.00  0.00     0.167 HD
ATOM     57  C   UNL A   1      42.970  31.617  29.629  1.00  0.00     0.074 A 
ATOM     58  C   UNL A   1      42.150  32.588  30.324  1.00  0.00     0.031 C 
ATOM     59  C   UNL A   1      44.199  31.884  29.119  1.00  0.00     0.034 A 
BRANCH  46  60
ATOM     60  C   UNL A   1      46.954  27.016  26.487  1.00  0.00     0.023 A 
ATOM     61  C   UNL A   1      47.078  27.100  25.084  1.00  0.00     0.012 A 
ATOM     62  C   UNL A   1      47.998  26.434  27.235  1.00  0.00     0.148 A 
ATOM     63  C   UNL A   1      48.194  26.576  24.434  1.00  0.00     0.002 A 
ATOM     64  C   UNL A   1      49.131  25.959  26.583  1.00  0.00     0.091 A 
ATOM     65  F   UNL A   1      47.859  26.345  28.566  1.00  0.00    -0.205 F 
ATOM     66  C   UNL A   1      49.224  26.015  25.183  1.00  0.00     0.022 A 
BRANCH  64  67
ATOM     67  S   UNL A   1      50.549  25.294  27.463  1.00  0.00     0.127 S 
ATOM     68  O   UNL A   1      49.951  24.166  28.178  1.00  0.00    -0.237 OA
ATOM     69  O   UNL A   1      51.443  24.915  26.367  1.00  0.00    -0.237 OA
ATOM     70  O   UNL A   1      51.044  26.375  28.302  1.00  0.00    -0.744 OA
ENDBRANCH  64  67
ENDBRANCH  46  60
BRANCH  47  71
ATOM     71  C   UNL A   1      38.753  30.242  31.225  1.00  0.00     0.023 A 
ATOM     72  C   UNL A   1      38.646  30.011  32.610  1.00  0.00     0.012 A 
ATOM     73  C   UNL A   1      37.731  30.955  30.568  1.00  0.00     0.148 A 
ATOM     74  C   UNL A   1      37.529  30.450  33.323  1.00  0.00     0.002 A 
ATOM     75  C   UNL A   1      36.646  31.436  31.295  1.00  0.00     0.091 A 
ATOM     76  F   UNL A   1      37.844  31.156  29.248  1.00  0.00    -0.205 F 
ATOM     77  C   UNL A   1      36.535  31.170  32.668  1.00  0.00     0.022 A 
BRANCH  75  78
ATOM     78  S   UNL A   1      35.391  32.488  30.555  1.00  0.00     0.127 S 
ATOM     79  O   UNL A   1      36.170  33.671  30.192  1.00  0.00    -0.237 OA
ATOM     80  O   UNL A   1      34.947  31.675  29.419  1.00  0.00    -0.237 OA
ATOM     81  O   UNL A   1      34.385  32.678  31.584  1.00  0.00    -0.744 OA
ENDBRANCH  75  78
ENDBRANCH  47  71
BRANCH  59  82
ATOM     82  C   UNL A   1      44.715  33.293  29.241  1.00  0.00     0.023 A 
ATOM     83  C   UNL A   1      45.394  33.694  30.407  1.00  0.00     0.012 A 
ATOM     84  C   UNL A   1      44.587  34.196  28.168  1.00  0.00     0.148 A 
ATOM     85  C   UNL A   1      45.906  34.986  30.518  1.00  0.00     0.002 A 
ATOM     86  C   UNL A   1      45.143  35.465  28.266  1.00  0.00     0.091 A 
ATOM     87  F   UNL A   1      43.919  33.803  27.073  1.00  0.00    -0.205 F 
ATOM     88  C   UNL A   1      45.792  35.866  29.446  1.00  0.00     0.022 A 
BRANCH  86  89
ATOM     89  S   UNL A   1      45.124  36.621  26.891  1.00  0.00     0.127 S 
ATOM     90  O   UNL A   1      43.691  36.833  26.698  1.00  0.00    -0.237 OA
ATOM     91  O   UNL A   1      45.843  37.773  27.437  1.00  0.00    -0.237 OA
ATOM     92  O   UNL A   1      45.816  35.946  25.800  1.00  0.00    -0.744 OA
ENDBRANCH  86  89
ENDBRANCH  59  82
ENDBRANCH  33  34
ENDBRANCH  25  28
ENDBRANCH  23  24
ENDBRANCH  22  23
ENDBRANCH   1  22
TORSDOF 17
ENDMDL
MODEL 2
REMARK VINA RESULT:     -11.5      1.651      2.096
REMARK SMILES C[N@@H+](CC(=O)NCCCCNC(=O)c1ccc(-c2c3nc(c(-c4cccc(S(=O)(=O)[O-])c4F)c4ccc([nH]4)c(-c4cccc(S(=O)(=O)[O-])c4F)c4nc(c(-c5cccc(S(=O)(=O)[O-])c5F)c5ccc2[nH]5)C=C4)C=C3)cc1)Cc1cccc2c1OCCO2
REMARK SMILES IDX 8 1 7 2 6 3 4 4 5 5 3 7 2 8 1 9 77 11 78 12 79 13 83 14
REMARK SMILES IDX 80 15 82 16 84 17 81 18 87 19 85 20 86 21 9 22 10 23 11 24
REMARK SMILES IDX 12 25 13 27 14 28 15 29 76 30 16 31 75 32 17 33 18 34 19 35
REMARK SMILES IDX 69 36 20 37 74 38 68 39 70 40 21 41 73 42 67 43 66 44 22 46
REMARK SMILES IDX 54 47 34 48 53 49 35 50 38 51 52 52 71 53 36 54 37 55 51 57
REMARK SMILES IDX 72 58 39 59 23 60 24 61 32 62 25 63 27 64 33 65 26 66 28 67
REMARK SMILES IDX 29 68 30 69 31 70 55 71 56 72 64 73 57 74 59 75 65 76 58 77
REMARK SMILES IDX 60 78 61 79 62 80 63 81 40 82 41 83 49 84 42 85 44 86 50 87
REMARK SMILES IDX 43 88 45 89 46 90 47 91 48 92
REMARK H PARENT 6 6 2 10 11 26 70 45 38 56
REMARK Flexibility Score: inf
ROOT
ATOM      1  C   UNL A   1      34.835  21.560  25.050  1.00  0.00     0.023 C 
ENDROOT
BRANCH   1   2
ATOM      2  C   UNL A   1      33.580  21.029  25.754  1.00  0.00     0.116 C 
BRANCH   2   3
ATOM      3  N   UNL A   1      32.969  21.932  26.705  1.00  0.00    -0.351 N 
ATOM      4  C   UNL A   1      31.984  22.869  26.528  1.00  0.00     0.275 C 
ATOM      5  O   UNL A   1      31.546  23.441  27.531  1.00  0.00    -0.269 OA
ATOM      6  H   UNL A   1      33.315  21.864  27.624  1.00  0.00     0.163 HD
BRANCH   4   7
ATOM      7  C   UNL A   1      31.397  23.145  25.148  1.00  0.00     0.363 C 
BRANCH   7   8
ATOM      8  N   UNL A   1      32.230  23.944  24.260  1.00  0.00    -0.326 N 
ATOM      9  C   UNL A   1      32.442  23.510  22.905  1.00  0.00     0.333 C 
ATOM     10  H   UNL A   1      31.482  24.609  24.057  1.00  0.00     0.348 HD
BRANCH   8  11
ATOM     11  C   UNL A   1      33.174  24.889  24.831  1.00  0.00     0.303 C 
BRANCH  11  12
ATOM     12  C   UNL A   1      32.919  26.376  25.011  1.00  0.00     0.052 A 
ATOM     13  C   UNL A   1      33.763  27.018  25.950  1.00  0.00     0.014 A 
ATOM     14  C   UNL A   1      31.927  27.176  24.436  1.00  0.00     0.170 A 
ATOM     15  C   UNL A   1      33.571  28.346  26.352  1.00  0.00     0.005 A 
ATOM     16  C   UNL A   1      31.663  28.481  24.923  1.00  0.00     0.161 A 
ATOM     17  O   UNL A   1      31.277  26.757  23.300  1.00  0.00    -0.486 OA
ATOM     18  C   UNL A   1      32.484  29.062  25.875  1.00  0.00     0.050 A 
ATOM     19  O   UNL A   1      30.656  29.288  24.439  1.00  0.00    -0.486 OA
ATOM     20  C   UNL A   1      31.052  27.930  22.500  1.00  0.00     0.271 C 
ATOM     21  C   UNL A   1      30.042  28.764  23.254  1.00  0.00     0.271 C 
ENDBRANCH  11  12
ENDBRANCH   8  11
ENDBRANCH   7   8
ENDBRANCH   4   7
ENDBRANCH   2   3
ENDBRANCH   1   2
BRANCH   1  22
ATOM     22  C   UNL A   1      36.126  20.741  25.074  1.00  0.00     0.023 C 
BRANCH  22  23
ATOM     23  C   UNL A   1      37.432  21.518  25.036  1.00  0.00     0.116 C 
BRANCH  23  24
ATOM     24  N   UNL A   1      38.519  20.679  25.499  1.00  0.00    -0.352 N 
ATOM     25  C   UNL A   1      39.731  21.035  26.035  1.00  0.00     0.251 C 
ATOM     26  H   UNL A   1      38.365  19.711  25.417  1.00  0.00     0.163 HD
ATOM     27  O   UNL A   1      40.661  20.234  25.940  1.00  0.00    -0.269 OA
BRANCH  25  28
ATOM     28  C   UNL A   1      39.941  22.323  26.750  1.00  0.00     0.039 A 
ATOM     29  C   UNL A   1      39.357  23.480  26.217  1.00  0.00     0.014 A 
ATOM     30  C   UNL A   1      40.830  22.449  27.821  1.00  0.00     0.014 A 
ATOM     31  C   UNL A   1      39.714  24.742  26.703  1.00  0.00     0.010 A 
ATOM     32  C   UNL A   1      41.095  23.699  28.384  1.00  0.00     0.010 A 
ATOM     33  C   UNL A   1      40.616  24.864  27.771  1.00  0.00    -0.014 A 
BRANCH  33  34
ATOM     34  C   UNL A   1      41.202  26.183  28.140  1.00  0.00     0.031 A 
ATOM     35  C   UNL A   1      42.614  26.517  27.702  1.00  0.00     0.074 A 
ATOM     36  C   UNL A   1      40.502  27.068  28.874  1.00  0.00     0.049 A 
ATOM     37  N   UNL A   1      43.330  27.585  27.951  1.00  0.00    -0.248 NA
ATOM     38  C   UNL A   1      43.332  25.498  26.917  1.00  0.00     0.031 C 
ATOM     39  C   UNL A   1      39.163  26.844  29.420  1.00  0.00     0.029 A 
ATOM     40  N   UNL A   1      40.829  28.331  29.300  1.00  0.00    -0.354 N 
ATOM     41  C   UNL A   1      44.588  27.335  27.410  1.00  0.00     0.074 A 
ATOM     42  C   UNL A   1      44.556  25.999  26.864  1.00  0.00     0.031 C 
ATOM     43  C   UNL A   1      38.775  27.940  30.094  1.00  0.00     0.029 A 
ATOM     44  C   UNL A   1      39.842  28.936  30.043  1.00  0.00     0.049 A 
ATOM     45  H   UNL A   1      41.688  28.764  29.093  1.00  0.00     0.167 HD
ATOM     46  C   UNL A   1      45.664  28.156  27.328  1.00  0.00     0.034 A 
ATOM     47  C   UNL A   1      39.800  30.160  30.606  1.00  0.00     0.034 A 
ATOM     48  C   UNL A   1      45.659  29.521  27.778  1.00  0.00     0.049 A 
ATOM     49  C   UNL A   1      40.961  31.097  30.399  1.00  0.00     0.074 A 
ATOM     50  C   UNL A   1      46.657  30.471  27.662  1.00  0.00     0.029 A 
ATOM     51  N   UNL A   1      44.588  30.135  28.409  1.00  0.00    -0.354 N 
ATOM     52  N   UNL A   1      42.090  30.886  29.767  1.00  0.00    -0.248 NA
ATOM     53  C   UNL A   1      40.820  32.458  30.937  1.00  0.00     0.031 C 
ATOM     54  C   UNL A   1      46.188  31.664  28.225  1.00  0.00     0.029 A 
ATOM     55  C   UNL A   1      44.893  31.458  28.675  1.00  0.00     0.049 A 
ATOM     56  H   UNL A   1      43.738  29.695  28.635  1.00  0.00     0.167 HD
ATOM     57  C   UNL A   1      42.775  32.097  29.793  1.00  0.00     0.074 A 
ATOM     58  C   UNL A   1      41.922  33.042  30.486  1.00  0.00     0.031 C 
ATOM     59  C   UNL A   1      44.002  32.398  29.301  1.00  0.00     0.034 A 
BRANCH  46  60
ATOM     60  C   UNL A   1      46.908  27.623  26.662  1.00  0.00     0.023 A 
ATOM     61  C   UNL A   1      47.843  26.885  27.419  1.00  0.00     0.012 A 
ATOM     62  C   UNL A   1      47.137  27.813  25.285  1.00  0.00     0.148 A 
ATOM     63  C   UNL A   1      49.004  26.388  26.829  1.00  0.00     0.002 A 
ATOM     64  C   UNL A   1      48.273  27.270  24.693  1.00  0.00     0.091 A 
ATOM     65  F   UNL A   1      46.249  28.531  24.582  1.00  0.00    -0.205 F 
ATOM     66  C   UNL A   1      49.214  26.571  25.466  1.00  0.00     0.022 A 
BRANCH  64  67
ATOM     67  S   UNL A   1      48.594  27.378  22.929  1.00  0.00     0.127 S 
ATOM     68  O   UNL A   1      49.902  28.033  22.906  1.00  0.00    -0.237 OA
ATOM     69  O   UNL A   1      48.612  25.969  22.532  1.00  0.00    -0.237 OA
ATOM     70  O   UNL A   1      47.496  28.151  22.367  1.00  0.00    -0.744 OA
ENDBRANCH  64  67
ENDBRANCH  46  60
BRANCH  47  71
ATOM     71  C   UNL A   1      38.572  30.606  31.324  1.00  0.00     0.023 A 
ATOM     72  C   UNL A   1      38.444  30.341  32.701  1.00  0.00     0.012 A 
ATOM     73  C   UNL A   1      37.552  31.319  30.666  1.00  0.00     0.148 A 
ATOM     74  C   UNL A   1      37.308  30.745  33.404  1.00  0.00     0.002 A 
ATOM     75  C   UNL A   1      36.446  31.766  31.384  1.00  0.00     0.091 A 
ATOM     76  F   UNL A   1      37.685  31.553  29.353  1.00  0.00    -0.205 F 
ATOM     77  C   UNL A   1      36.315  31.465  32.747  1.00  0.00     0.022 A 
BRANCH  75  78
ATOM     78  S   UNL A   1      35.188  32.816  30.646  1.00  0.00     0.127 S 
ATOM     79  O   UNL A   1      35.978  33.970  30.218  1.00  0.00    -0.237 OA
ATOM     80  O   UNL A   1      34.694  31.972  29.553  1.00  0.00    -0.237 OA
ATOM     81  O   UNL A   1      34.218  33.061  31.698  1.00  0.00    -0.744 OA
ENDBRANCH  75  78
ENDBRANCH  47  71
BRANCH  59  82
ATOM     82  C   UNL A   1      44.482  33.818  29.442  1.00  0.00     0.023 A 
ATOM     83  C   UNL A   1      45.266  34.188  30.551  1.00  0.00     0.012 A 
ATOM     84  C   UNL A   1      44.213  34.766  28.435  1.00  0.00     0.148 A 
ATOM     85  C   UNL A   1      45.745  35.492  30.676  1.00  0.00     0.002 A 
ATOM     86  C   UNL A   1      44.735  36.050  28.542  1.00  0.00     0.091 A 
ATOM     87  F   UNL A   1      43.448  34.401  27.397  1.00  0.00    -0.205 F 
ATOM     88  C   UNL A   1      45.490  36.418  29.667  1.00  0.00     0.022 A 
BRANCH  86  89
ATOM     89  S   UNL A   1      44.535  37.268  27.237  1.00  0.00     0.127 S 
ATOM     90  O   UNL A   1      43.137  37.072  26.857  1.00  0.00    -0.237 OA
ATOM     91  O   UNL A   1      44.807  38.526  27.935  1.00  0.00    -0.237 OA
ATOM     92  O   UNL A   1      45.522  36.923  26.221  1.00  0.00    -0.744 OA
ENDBRANCH  86  89
ENDBRANCH  59  82
ENDBRANCH  33  34
ENDBRANCH  25  28
ENDBRANCH  23  24
ENDBRANCH  22  23
ENDBRANCH   1  22
TORSDOF 17
ENDMDL
MODEL 3
REMARK VINA RESULT:     -11.2      4.651     10.181
REMARK SMILES C[N@@H+](CC(=O)NCCCCNC(=O)c1ccc(-c2c3nc(c(-c4cccc(S(=O)(=O)[O-])c4F)c4ccc([nH]4)c(-c4cccc(S(=O)(=O)[O-])c4F)c4nc(c(-c5cccc(S(=O)(=O)[O-])c5F)c5ccc2[nH]5)C=C4)C=C3)cc1)Cc1cccc2c1OCCO2
REMARK SMILES IDX 8 1 7 2 6 3 4 4 5 5 3 7 2 8 1 9 77 11 78 12 79 13 83 14
REMARK SMILES IDX 80 15 82 16 84 17 81 18 87 19 85 20 86 21 9 22 10 23 11 24
REMARK SMILES IDX 12 25 13 27 14 28 15 29 76 30 16 31 75 32 17 33 18 34 19 35
REMARK SMILES IDX 69 36 20 37 74 38 68 39 70 40 21 41 73 42 67 43 66 44 22 46
REMARK SMILES IDX 54 47 34 48 53 49 35 50 38 51 52 52 71 53 36 54 37 55 51 57
REMARK SMILES IDX 72 58 39 59 23 60 24 61 32 62 25 63 27 64 33 65 26 66 28 67
REMARK SMILES IDX 29 68 30 69 31 70 55 71 56 72 64 73 57 74 59 75 65 76 58 77
REMARK SMILES IDX 60 78 61 79 62 80 63 81 40 82 41 83 49 84 42 85 44 86 50 87
REMARK SMILES IDX 43 88 45 89 46 90 47 91 48 92
REMARK H PARENT 6 6 2 10 11 26 70 45 38 56
REMARK Flexibility Score: inf
ROOT
ATOM      1  C   UNL A   1      31.694  29.313  24.668  1.00  0.00     0.023 C 
ENDROOT
BRANCH   1   2
ATOM      2  C   UNL A   1      31.488  28.682  23.286  1.00  0.00     0.116 C 
BRANCH   2   3
ATOM      3  N   UNL A   1      32.643  28.013  22.727  1.00  0.00    -0.351 N 
ATOM      4  C   UNL A   1      32.805  26.710  22.334  1.00  0.00     0.275 C 
ATOM      5  O   UNL A   1      33.862  26.405  21.773  1.00  0.00    -0.269 OA
ATOM      6  H   UNL A   1      33.437  28.583  22.610  1.00  0.00     0.163 HD
BRANCH   4   7
ATOM      7  C   UNL A   1      31.690  25.686  22.519  1.00  0.00     0.363 C 
BRANCH   7   8
ATOM      8  N   UNL A   1      31.662  25.014  23.811  1.00  0.00    -0.326 N 
ATOM      9  C   UNL A   1      30.564  25.251  24.710  1.00  0.00     0.333 C 
ATOM     10  H   UNL A   1      31.308  24.141  23.418  1.00  0.00     0.348 HD
BRANCH   8  11
ATOM     11  C   UNL A   1      32.897  24.487  24.364  1.00  0.00     0.303 C 
BRANCH  11  12
ATOM     12  C   UNL A   1      33.323  23.030  24.315  1.00  0.00     0.052 A 
ATOM     13  C   UNL A   1      32.274  22.108  24.071  1.00  0.00     0.014 A 
ATOM     14  C   UNL A   1      34.583  22.471  24.547  1.00  0.00     0.170 A 
ATOM     15  C   UNL A   1      32.458  20.722  24.142  1.00  0.00     0.005 A 
ATOM     16  C   UNL A   1      34.745  21.075  24.729  1.00  0.00     0.161 A 
ATOM     17  O   UNL A   1      35.709  23.256  24.472  1.00  0.00    -0.486 OA
ATOM     18  C   UNL A   1      33.685  20.206  24.525  1.00  0.00     0.050 A 
ATOM     19  O   UNL A   1      35.951  20.477  25.025  1.00  0.00    -0.486 OA
ATOM     20  C   UNL A   1      36.741  22.440  23.892  1.00  0.00     0.271 C 
ATOM     21  C   UNL A   1      37.061  21.378  24.919  1.00  0.00     0.271 C 
ENDBRANCH  11  12
ENDBRANCH   8  11
ENDBRANCH   7   8
ENDBRANCH   4   7
ENDBRANCH   2   3
ENDBRANCH   1   2
BRANCH   1  22
ATOM     22  C   UNL A   1      32.113  28.439  25.851  1.00  0.00     0.023 C 
BRANCH  22  23
ATOM     23  C   UNL A   1      32.364  29.147  27.173  1.00  0.00     0.116 C 
BRANCH  23  24
ATOM     24  N   UNL A   1      32.440  30.578  26.961  1.00  0.00    -0.352 N 
ATOM     25  C   UNL A   1      33.384  31.478  27.387  1.00  0.00     0.251 C 
ATOM     26  H   UNL A   1      31.704  30.962  26.432  1.00  0.00     0.163 HD
ATOM     27  O   UNL A   1      33.048  32.656  27.500  1.00  0.00    -0.269 OA
BRANCH  25  28
ATOM     28  C   UNL A   1      34.790  31.083  27.675  1.00  0.00     0.039 A 
ATOM     29  C   UNL A   1      35.087  29.717  27.779  1.00  0.00     0.014 A 
ATOM     30  C   UNL A   1      35.775  32.014  28.013  1.00  0.00     0.014 A 
ATOM     31  C   UNL A   1      36.324  29.298  28.281  1.00  0.00     0.010 A 
ATOM     32  C   UNL A   1      37.049  31.595  28.400  1.00  0.00     0.010 A 
ATOM     33  C   UNL A   1      37.306  30.238  28.629  1.00  0.00    -0.014 A 
BRANCH  33  34
ATOM     34  C   UNL A   1      38.520  29.837  29.393  1.00  0.00     0.031 A 
ATOM     35  C   UNL A   1      38.674  30.285  30.832  1.00  0.00     0.074 A 
ATOM     36  C   UNL A   1      39.489  29.105  28.813  1.00  0.00     0.049 A 
ATOM     37  N   UNL A   1      39.667  30.087  31.663  1.00  0.00    -0.248 NA
ATOM     38  C   UNL A   1      37.586  31.100  31.402  1.00  0.00     0.031 C 
ATOM     39  C   UNL A   1      39.501  28.669  27.416  1.00  0.00     0.029 A 
ATOM     40  N   UNL A   1      40.662  28.609  29.326  1.00  0.00    -0.354 N 
ATOM     41  C   UNL A   1      39.350  30.800  32.816  1.00  0.00     0.074 A 
ATOM     42  C   UNL A   1      38.099  31.475  32.564  1.00  0.00     0.031 C 
ATOM     43  C   UNL A   1      40.616  27.956  27.188  1.00  0.00     0.029 A 
ATOM     44  C   UNL A   1      41.407  27.898  28.414  1.00  0.00     0.049 A 
ATOM     45  H   UNL A   1      40.943  28.748  30.259  1.00  0.00     0.167 HD
ATOM     46  C   UNL A   1      40.010  30.855  33.998  1.00  0.00     0.034 A 
ATOM     47  C   UNL A   1      42.586  27.262  28.558  1.00  0.00     0.034 A 
ATOM     48  C   UNL A   1      41.198  30.098  34.282  1.00  0.00     0.049 A 
ATOM     49  C   UNL A   1      43.240  27.238  29.915  1.00  0.00     0.074 A 
ATOM     50  C   UNL A   1      41.897  30.004  35.470  1.00  0.00     0.029 A 
ATOM     51  N   UNL A   1      41.848  29.285  33.366  1.00  0.00    -0.354 N 
ATOM     52  N   UNL A   1      42.853  27.810  31.029  1.00  0.00    -0.248 NA
ATOM     53  C   UNL A   1      44.467  26.438  30.047  1.00  0.00     0.031 C 
ATOM     54  C   UNL A   1      42.973  29.130  35.273  1.00  0.00     0.029 A 
ATOM     55  C   UNL A   1      42.932  28.671  33.966  1.00  0.00     0.049 A 
ATOM     56  H   UNL A   1      41.578  29.164  32.428  1.00  0.00     0.167 HD
ATOM     57  C   UNL A   1      43.760  27.404  32.003  1.00  0.00     0.074 A 
ATOM     58  C   UNL A   1      44.705  26.521  31.349  1.00  0.00     0.031 C 
ATOM     59  C   UNL A   1      43.816  27.741  33.315  1.00  0.00     0.034 A 
BRANCH  46  60
ATOM     60  C   UNL A   1      39.418  31.703  35.096  1.00  0.00     0.023 A 
ATOM     61  C   UNL A   1      38.441  31.154  35.953  1.00  0.00     0.012 A 
ATOM     62  C   UNL A   1      39.852  33.027  35.309  1.00  0.00     0.148 A 
ATOM     63  C   UNL A   1      37.874  31.919  36.971  1.00  0.00     0.002 A 
ATOM     64  C   UNL A   1      39.317  33.768  36.359  1.00  0.00     0.091 A 
ATOM     65  F   UNL A   1      40.767  33.543  34.476  1.00  0.00    -0.205 F 
ATOM     66  C   UNL A   1      38.318  33.221  37.180  1.00  0.00     0.022 A 
BRANCH  64  67
ATOM     67  S   UNL A   1      39.881  35.424  36.764  1.00  0.00     0.127 S 
ATOM     68  O   UNL A   1      39.479  36.173  35.573  1.00  0.00    -0.237 OA
ATOM     69  O   UNL A   1      39.104  35.730  37.966  1.00  0.00    -0.237 OA
ATOM     70  O   UNL A   1      41.316  35.318  36.981  1.00  0.00    -0.744 OA
ENDBRANCH  64  67
ENDBRANCH  46  60
BRANCH  47  71
ATOM     71  C   UNL A   1      43.167  26.504  27.413  1.00  0.00     0.023 A 
ATOM     72  C   UNL A   1      43.972  27.180  26.476  1.00  0.00     0.012 A 
ATOM     73  C   UNL A   1      42.959  25.119  27.265  1.00  0.00     0.148 A 
ATOM     74  C   UNL A   1      44.531  26.501  25.393  1.00  0.00     0.002 A 
ATOM     75  C   UNL A   1      43.563  24.438  26.213  1.00  0.00     0.091 A 
ATOM     76  F   UNL A   1      42.181  24.494  28.159  1.00  0.00    -0.205 F 
ATOM     77  C   UNL A   1      44.334  25.129  25.267  1.00  0.00     0.022 A 
BRANCH  75  78
ATOM     78  S   UNL A   1      43.472  22.650  26.054  1.00  0.00     0.127 S 
ATOM     79  O   UNL A   1      44.871  22.264  26.240  1.00  0.00    -0.237 OA
ATOM     80  O   UNL A   1      42.585  22.292  27.165  1.00  0.00    -0.237 OA
ATOM     81  O   UNL A   1      42.912  22.403  24.738  1.00  0.00    -0.744 OA
ENDBRANCH  75  78
ENDBRANCH  47  71
BRANCH  59  82
ATOM     82  C   UNL A   1      44.900  27.115  34.152  1.00  0.00     0.023 A 
ATOM     83  C   UNL A   1      46.170  27.717  34.221  1.00  0.00     0.012 A 
ATOM     84  C   UNL A   1      44.633  25.968  34.925  1.00  0.00     0.148 A 
ATOM     85  C   UNL A   1      47.172  27.166  35.019  1.00  0.00     0.002 A 
ATOM     86  C   UNL A   1      45.621  25.453  35.756  1.00  0.00     0.091 A 
ATOM     87  F   UNL A   1      43.424  25.396  34.830  1.00  0.00    -0.205 F 
ATOM     88  C   UNL A   1      46.894  26.042  35.794  1.00  0.00     0.022 A 
BRANCH  86  89
ATOM     89  S   UNL A   1      45.309  24.069  36.858  1.00  0.00     0.127 S 
ATOM     90  O   UNL A   1      44.583  23.148  35.985  1.00  0.00    -0.237 OA
ATOM     91  O   UNL A   1      46.662  23.636  37.211  1.00  0.00    -0.237 OA
ATOM     92  O   UNL A   1      44.547  24.618  37.973  1.00  0.00    -0.744 OA
ENDBRANCH  86  89
ENDBRANCH  59  82
ENDBRANCH  33  34
ENDBRANCH  25  28
ENDBRANCH  23  24
ENDBRANCH  22  23
ENDBRANCH   1  22
TORSDOF 17
ENDMDL
