MODEL 1
REMARK VINA RESULT:     -12.0      0.000      0.000
REMARK SMILES Cc1ccccc1OCCC(=O)N[C@@](C)(C(=O)NCCCCNC(=O)c1ccc(-c2c3nc(c(-c4cccc(S(=O)(=O)[O-])c4F)c4ccc([nH]4)c(-c4cccc(S(=O)(=O)[O-])c4F)c4nc(c(-c5cccc(S(=O)(=O)[O-])c5F)c5ccc2[nH]5)C=C4)C=C3)cc1)C1CC1
REMARK SMILES IDX 19 1 18 2 16 3 17 4 14 6 15 7 13 8 11 9 12 10 10 12 9 13
REMARK SMILES IDX 8 14 7 15 1 16 2 17 3 18 4 19 6 20 5 21 89 22 90 23 91 24
REMARK SMILES IDX 20 25 21 26 22 27 23 28 24 29 25 31 26 32 27 33 88 34 28 35
REMARK SMILES IDX 87 36 29 37 30 38 31 39 81 40 32 41 86 42 80 43 82 44 33 45
REMARK SMILES IDX 85 46 79 47 78 48 34 50 66 51 46 52 65 53 47 54 50 55 64 56
REMARK SMILES IDX 83 57 48 58 49 59 63 61 84 62 51 63 35 64 36 65 44 66 37 67
REMARK SMILES IDX 39 68 45 69 38 70 40 71 41 72 42 73 43 74 67 75 68 76 76 77
REMARK SMILES IDX 69 78 71 79 77 80 70 81 72 82 73 83 74 84 75 85 52 86 53 87
REMARK SMILES IDX 61 88 54 89 56 90 62 91 55 92 57 93 58 94 59 95 60 96
REMARK H PARENT 18 5 13 11 23 30 82 49 50 60
REMARK Flexibility Score: inf
ROOT
ATOM      1  C   UNL A   1      33.105  27.941  25.014  1.00  0.00     0.116 C 
ENDROOT
BRANCH   1   2
ATOM      2  N   UNL A   1      32.076  27.238  25.780  1.00  0.00    -0.354 N 
ATOM      3  C   UNL A   1      30.857  26.710  25.427  1.00  0.00     0.245 C 
ATOM      4  O   UNL A   1      30.294  26.015  26.278  1.00  0.00    -0.272 OA
ATOM      5  H   UNL A   1      32.300  27.120  26.731  1.00  0.00     0.163 HD
BRANCH   3   6
ATOM      6  C   UNL A   1      30.231  26.962  23.997  1.00  0.00     0.119 C 
ATOM      7  C   UNL A   1      28.837  26.327  24.030  1.00  0.00     0.046 C 
BRANCH   6   8
ATOM      8  N   UNL A   1      31.189  26.268  23.093  1.00  0.00    -0.342 N 
ATOM      9  C   UNL A   1      31.677  25.021  22.921  1.00  0.00     0.224 C 
ATOM     10  O   UNL A   1      32.591  24.889  22.098  1.00  0.00    -0.275 OA
ATOM     11  H   UNL A   1      31.574  26.893  22.438  1.00  0.00     0.164 HD
BRANCH   9  12
ATOM     12  C   UNL A   1      31.080  23.805  23.564  1.00  0.00     0.141 C 
BRANCH  12  13
ATOM     13  C   UNL A   1      31.862  23.166  24.699  1.00  0.00     0.239 C 
BRANCH  13  14
ATOM     14  O   UNL A   1      32.850  22.233  24.310  1.00  0.00    -0.493 OA
BRANCH  14  15
ATOM     15  C   UNL A   1      34.166  22.294  24.654  1.00  0.00     0.122 A 
ATOM     16  C   UNL A   1      34.710  24.830  25.031  1.00  0.00     0.048 C 
ATOM     17  C   UNL A   1      34.987  23.355  25.056  1.00  0.00    -0.009 A 
ATOM     18  C   UNL A   1      36.285  23.045  25.542  1.00  0.00     0.007 A 
ATOM     19  C   UNL A   1      36.781  21.745  25.583  1.00  0.00     0.001 A 
ATOM     20  C   UNL A   1      34.719  20.992  24.626  1.00  0.00     0.047 A 
ATOM     21  C   UNL A   1      36.002  20.713  25.095  1.00  0.00     0.004 A 
ENDBRANCH  14  15
ENDBRANCH  13  14
ENDBRANCH  12  13
ENDBRANCH   9  12
ENDBRANCH   6   8
BRANCH   6  22
ATOM     22  C   UNL A   1      30.211  28.463  23.701  1.00  0.00     0.024 C 
ATOM     23  C   UNL A   1      30.607  29.091  22.369  1.00  0.00     0.007 C 
ATOM     24  C   UNL A   1      29.170  29.082  22.787  1.00  0.00     0.007 C 
ENDBRANCH   6  22
ENDBRANCH   3   6
ENDBRANCH   1   2
BRANCH   1  25
ATOM     25  C   UNL A   1      34.088  28.717  25.898  1.00  0.00     0.023 C 
BRANCH  25  26
ATOM     26  C   UNL A   1      33.602  30.080  26.390  1.00  0.00     0.023 C 
BRANCH  26  27
ATOM     27  C   UNL A   1      34.020  30.417  27.815  1.00  0.00     0.116 C 
BRANCH  27  28
ATOM     28  N   UNL A   1      34.992  31.489  27.915  1.00  0.00    -0.352 N 
ATOM     29  C   UNL A   1      36.324  31.451  28.282  1.00  0.00     0.251 C 
ATOM     30  H   UNL A   1      34.648  32.384  27.688  1.00  0.00     0.163 HD
ATOM     31  O   UNL A   1      36.882  32.527  28.501  1.00  0.00    -0.269 OA
BRANCH  29  32
ATOM     32  C   UNL A   1      37.098  30.177  28.307  1.00  0.00     0.039 A 
ATOM     33  C   UNL A   1      37.120  29.429  29.496  1.00  0.00     0.014 A 
ATOM     34  C   UNL A   1      37.906  29.774  27.246  1.00  0.00     0.014 A 
ATOM     35  C   UNL A   1      38.088  28.437  29.692  1.00  0.00     0.010 A 
ATOM     36  C   UNL A   1      38.911  28.853  27.459  1.00  0.00     0.010 A 
ATOM     37  C   UNL A   1      39.043  28.229  28.702  1.00  0.00    -0.014 A 
BRANCH  37  38
ATOM     38  C   UNL A   1      40.299  27.512  28.879  1.00  0.00     0.031 A 
ATOM     39  C   UNL A   1      40.426  26.068  28.600  1.00  0.00     0.074 A 
ATOM     40  C   UNL A   1      41.418  28.256  29.026  1.00  0.00     0.049 A 
ATOM     41  N   UNL A   1      41.441  25.359  28.964  1.00  0.00    -0.248 NA
ATOM     42  C   UNL A   1      39.414  25.316  27.870  1.00  0.00     0.031 C 
ATOM     43  C   UNL A   1      42.794  27.853  28.762  1.00  0.00     0.029 A 
ATOM     44  N   UNL A   1      41.542  29.501  29.651  1.00  0.00    -0.354 N 
ATOM     45  C   UNL A   1      41.357  24.155  28.304  1.00  0.00     0.074 A 
ATOM     46  C   UNL A   1      40.051  24.155  27.680  1.00  0.00     0.031 C 
ATOM     47  C   UNL A   1      43.613  28.650  29.462  1.00  0.00     0.029 A 
ATOM     48  C   UNL A   1      42.782  29.481  30.312  1.00  0.00     0.049 A 
ATOM     49  H   UNL A   1      40.892  30.240  29.631  1.00  0.00     0.167 HD
ATOM     50  C   UNL A   1      42.450  23.345  28.224  1.00  0.00     0.034 A 
ATOM     51  C   UNL A   1      42.904  29.617  31.664  1.00  0.00     0.034 A 
ATOM     52  C   UNL A   1      43.605  23.900  28.937  1.00  0.00     0.049 A 
ATOM     53  C   UNL A   1      43.534  28.406  32.338  1.00  0.00     0.074 A 
ATOM     54  C   UNL A   1      44.739  24.603  28.560  1.00  0.00     0.029 A 
ATOM     55  N   UNL A   1      43.545  23.992  30.314  1.00  0.00    -0.354 N 
ATOM     56  N   UNL A   1      44.043  27.381  31.710  1.00  0.00    -0.248 NA
ATOM     57  C   UNL A   1      43.538  28.219  33.791  1.00  0.00     0.031 C 
ATOM     58  C   UNL A   1      45.327  25.161  29.734  1.00  0.00     0.029 A 
ATOM     59  C   UNL A   1      44.558  24.787  30.821  1.00  0.00     0.049 A 
ATOM     60  H   UNL A   1      42.864  23.546  30.868  1.00  0.00     0.167 HD
ATOM     61  C   UNL A   1      44.254  26.365  32.608  1.00  0.00     0.074 A 
ATOM     62  C   UNL A   1      43.978  26.956  33.905  1.00  0.00     0.031 C 
ATOM     63  C   UNL A   1      44.562  25.084  32.245  1.00  0.00     0.034 A 
BRANCH  50  64
ATOM     64  C   UNL A   1      42.536  22.193  27.251  1.00  0.00     0.023 A 
ATOM     65  C   UNL A   1      41.799  21.024  27.539  1.00  0.00     0.012 A 
ATOM     66  C   UNL A   1      43.350  22.158  26.099  1.00  0.00     0.148 A 
ATOM     67  C   UNL A   1      41.947  19.848  26.796  1.00  0.00     0.002 A 
ATOM     68  C   UNL A   1      43.570  20.961  25.413  1.00  0.00     0.091 A 
ATOM     69  F   UNL A   1      43.874  23.298  25.627  1.00  0.00    -0.205 F 
ATOM     70  C   UNL A   1      42.867  19.803  25.761  1.00  0.00     0.022 A 
BRANCH  68  71
ATOM     71  S   UNL A   1      44.875  20.797  24.184  1.00  0.00     0.127 S 
ATOM     72  O   UNL A   1      44.681  19.426  23.702  1.00  0.00    -0.237 OA
ATOM     73  O   UNL A   1      44.532  21.832  23.214  1.00  0.00    -0.237 OA
ATOM     74  O   UNL A   1      46.122  20.987  24.916  1.00  0.00    -0.744 OA
ENDBRANCH  68  71
ENDBRANCH  50  64
BRANCH  51  75
ATOM     75  C   UNL A   1      41.852  30.490  32.264  1.00  0.00     0.023 A 
ATOM     76  C   UNL A   1      41.855  31.854  31.884  1.00  0.00     0.012 A 
ATOM     77  C   UNL A   1      40.698  29.956  32.861  1.00  0.00     0.148 A 
ATOM     78  C   UNL A   1      40.700  32.631  31.990  1.00  0.00     0.002 A 
ATOM     79  C   UNL A   1      39.552  30.740  32.969  1.00  0.00     0.091 A 
ATOM     80  F   UNL A   1      40.704  28.670  33.235  1.00  0.00    -0.205 F 
ATOM     81  C   UNL A   1      39.541  32.064  32.505  1.00  0.00     0.022 A 
BRANCH  79  82
ATOM     82  S   UNL A   1      38.006  30.051  33.573  1.00  0.00     0.127 S 
ATOM     83  O   UNL A   1      38.167  30.199  35.016  1.00  0.00    -0.237 OA
ATOM     84  O   UNL A   1      37.012  30.936  32.967  1.00  0.00    -0.237 OA
ATOM     85  O   UNL A   1      37.981  28.690  33.059  1.00  0.00    -0.744 OA
ENDBRANCH  79  82
ENDBRANCH  51  75
BRANCH  63  86
ATOM     86  C   UNL A   1      44.903  24.008  33.249  1.00  0.00     0.023 A 
ATOM     87  C   UNL A   1      43.896  23.135  33.711  1.00  0.00     0.012 A 
ATOM     88  C   UNL A   1      46.164  23.938  33.887  1.00  0.00     0.148 A 
ATOM     89  C   UNL A   1      44.138  22.209  34.730  1.00  0.00     0.002 A 
ATOM     90  C   UNL A   1      46.369  23.088  34.970  1.00  0.00     0.091 A 
ATOM     91  F   UNL A   1      47.188  24.661  33.416  1.00  0.00    -0.205 F 
ATOM     92  C   UNL A   1      45.367  22.203  35.377  1.00  0.00     0.022 A 
BRANCH  90  93
ATOM     93  S   UNL A   1      47.850  23.181  35.988  1.00  0.00     0.127 S 
ATOM     94  O   UNL A   1      47.640  22.079  36.930  1.00  0.00    -0.237 OA
ATOM     95  O   UNL A   1      48.906  22.949  35.007  1.00  0.00    -0.237 OA
ATOM     96  O   UNL A   1      47.820  24.502  36.601  1.00  0.00    -0.744 OA
ENDBRANCH  90  93
ENDBRANCH  63  86
ENDBRANCH  37  38
ENDBRANCH  29  32
ENDBRANCH  27  28
ENDBRANCH  26  27
ENDBRANCH  25  26
ENDBRANCH   1  25
TORSDOF 20
ENDMDL
MODEL 2
REMARK VINA RESULT:     -11.7      4.230     10.583
REMARK SMILES Cc1ccccc1OCCC(=O)N[C@@](C)(C(=O)NCCCCNC(=O)c1ccc(-c2c3nc(c(-c4cccc(S(=O)(=O)[O-])c4F)c4ccc([nH]4)c(-c4cccc(S(=O)(=O)[O-])c4F)c4nc(c(-c5cccc(S(=O)(=O)[O-])c5F)c5ccc2[nH]5)C=C4)C=C3)cc1)C1CC1
REMARK SMILES IDX 19 1 18 2 16 3 17 4 14 6 15 7 13 8 11 9 12 10 10 12 9 13
REMARK SMILES IDX 8 14 7 15 1 16 2 17 3 18 4 19 6 20 5 21 89 22 90 23 91 24
REMARK SMILES IDX 20 25 21 26 22 27 23 28 24 29 25 31 26 32 27 33 88 34 28 35
REMARK SMILES IDX 87 36 29 37 30 38 31 39 81 40 32 41 86 42 80 43 82 44 33 45
REMARK SMILES IDX 85 46 79 47 78 48 34 50 66 51 46 52 65 53 47 54 50 55 64 56
REMARK SMILES IDX 83 57 48 58 49 59 63 61 84 62 51 63 35 64 36 65 44 66 37 67
REMARK SMILES IDX 39 68 45 69 38 70 40 71 41 72 42 73 43 74 67 75 68 76 76 77
REMARK SMILES IDX 69 78 71 79 77 80 70 81 72 82 73 83 74 84 75 85 52 86 53 87
REMARK SMILES IDX 61 88 54 89 56 90 62 91 55 92 57 93 58 94 59 95 60 96
REMARK H PARENT 18 5 13 11 23 30 82 49 50 60
REMARK Flexibility Score: inf
ROOT
ATOM      1  C   UNL A   1      35.518  20.901  25.039  1.00  0.00     0.116 C 
ENDROOT
BRANCH   1   2
ATOM      2  N   UNL A   1      34.957  21.409  26.292  1.00  0.00    -0.354 N 
ATOM      3  C   UNL A   1      34.013  22.369  26.561  1.00  0.00     0.245 C 
ATOM      4  O   UNL A   1      33.625  22.444  27.731  1.00  0.00    -0.272 OA
ATOM      5  H   UNL A   1      35.328  20.980  27.095  1.00  0.00     0.163 HD
BRANCH   3   6
ATOM      6  C   UNL A   1      33.438  23.305  25.423  1.00  0.00     0.119 C 
ATOM      7  C   UNL A   1      34.377  24.514  25.359  1.00  0.00     0.046 C 
BRANCH   6   8
ATOM      8  N   UNL A   1      32.073  23.627  25.922  1.00  0.00    -0.342 N 
ATOM      9  C   UNL A   1      31.162  24.613  25.778  1.00  0.00     0.224 C 
ATOM     10  O   UNL A   1      30.159  24.555  26.499  1.00  0.00    -0.275 OA
ATOM     11  H   UNL A   1      31.742  22.925  26.527  1.00  0.00     0.164 HD
BRANCH   9  12
ATOM     12  C   UNL A   1      31.248  25.666  24.714  1.00  0.00     0.141 C 
BRANCH  12  13
ATOM     13  C   UNL A   1      29.943  26.124  24.084  1.00  0.00     0.239 C 
BRANCH  13  14
ATOM     14  O   UNL A   1      30.051  27.189  23.162  1.00  0.00    -0.493 OA
BRANCH  14  15
ATOM     15  C   UNL A   1      29.601  28.457  23.371  1.00  0.00     0.122 A 
ATOM     16  C   UNL A   1      31.470  29.682  24.741  1.00  0.00     0.048 C 
ATOM     17  C   UNL A   1      30.195  29.583  23.956  1.00  0.00    -0.009 A 
ATOM     18  C   UNL A   1      29.521  30.828  23.838  1.00  0.00     0.007 A 
ATOM     19  C   UNL A   1      28.282  30.955  23.215  1.00  0.00     0.001 A 
ATOM     20  C   UNL A   1      28.307  28.594  22.817  1.00  0.00     0.047 A 
ATOM     21  C   UNL A   1      27.657  29.824  22.725  1.00  0.00     0.004 A 
ENDBRANCH  14  15
ENDBRANCH  13  14
ENDBRANCH  12  13
ENDBRANCH   9  12
ENDBRANCH   6   8
BRANCH   6  22
ATOM     22  C   UNL A   1      33.355  22.526  24.108  1.00  0.00     0.024 C 
ATOM     23  C   UNL A   1      32.063  22.222  23.359  1.00  0.00     0.007 C 
ATOM     24  C   UNL A   1      33.034  23.210  22.794  1.00  0.00     0.007 C 
ENDBRANCH   6  22
ENDBRANCH   3   6
ENDBRANCH   1   2
BRANCH   1  25
ATOM     25  C   UNL A   1      37.028  21.137  24.917  1.00  0.00     0.023 C 
BRANCH  25  26
ATOM     26  C   UNL A   1      37.692  21.805  26.121  1.00  0.00     0.023 C 
BRANCH  26  27
ATOM     27  C   UNL A   1      38.789  22.799  25.759  1.00  0.00     0.116 C 
BRANCH  27  28
ATOM     28  N   UNL A   1      39.974  22.711  26.590  1.00  0.00    -0.352 N 
ATOM     29  C   UNL A   1      40.692  23.707  27.224  1.00  0.00     0.251 C 
ATOM     30  H   UNL A   1      40.321  21.798  26.722  1.00  0.00     0.163 HD
ATOM     31  O   UNL A   1      41.790  23.402  27.693  1.00  0.00    -0.269 OA
BRANCH  29  32
ATOM     32  C   UNL A   1      40.129  25.071  27.437  1.00  0.00     0.039 A 
ATOM     33  C   UNL A   1      40.485  26.091  26.538  1.00  0.00     0.014 A 
ATOM     34  C   UNL A   1      39.380  25.401  28.563  1.00  0.00     0.014 A 
ATOM     35  C   UNL A   1      40.283  27.435  26.875  1.00  0.00     0.010 A 
ATOM     36  C   UNL A   1      39.247  26.722  28.938  1.00  0.00     0.010 A 
ATOM     37  C   UNL A   1      39.753  27.739  28.125  1.00  0.00    -0.014 A 
BRANCH  37  38
ATOM     38  C   UNL A   1      39.806  29.045  28.768  1.00  0.00     0.031 A 
ATOM     39  C   UNL A   1      38.775  30.076  28.536  1.00  0.00     0.074 A 
ATOM     40  C   UNL A   1      40.661  29.189  29.806  1.00  0.00     0.049 A 
ATOM     41  N   UNL A   1      38.908  31.310  28.894  1.00  0.00    -0.248 NA
ATOM     42  C   UNL A   1      37.502  29.785  27.891  1.00  0.00     0.031 C 
ATOM     43  C   UNL A   1      40.595  30.171  30.881  1.00  0.00     0.029 A 
ATOM     44  N   UNL A   1      41.904  28.575  29.980  1.00  0.00    -0.354 N 
ATOM     45  C   UNL A   1      37.672  31.904  28.782  1.00  0.00     0.074 A 
ATOM     46  C   UNL A   1      36.844  30.931  28.101  1.00  0.00     0.031 C 
ATOM     47  C   UNL A   1      41.819  30.309  31.407  1.00  0.00     0.029 A 
ATOM     48  C   UNL A   1      42.731  29.538  30.583  1.00  0.00     0.049 A 
ATOM     49  H   UNL A   1      42.149  27.654  29.732  1.00  0.00     0.167 HD
ATOM     50  C   UNL A   1      37.430  33.092  29.404  1.00  0.00     0.034 A 
ATOM     51  C   UNL A   1      43.872  30.005  29.999  1.00  0.00     0.034 A 
ATOM     52  C   UNL A   1      38.613  33.603  30.104  1.00  0.00     0.049 A 
ATOM     53  C   UNL A   1      43.840  31.502  29.724  1.00  0.00     0.074 A 
ATOM     54  C   UNL A   1      39.049  33.592  31.420  1.00  0.00     0.029 A 
ATOM     55  N   UNL A   1      39.698  34.009  29.350  1.00  0.00    -0.354 N 
ATOM     56  N   UNL A   1      42.895  32.314  30.116  1.00  0.00    -0.248 NA
ATOM     57  C   UNL A   1      44.835  32.178  28.888  1.00  0.00     0.031 C 
ATOM     58  C   UNL A   1      40.431  33.949  31.433  1.00  0.00     0.029 A 
ATOM     59  C   UNL A   1      40.827  34.187  30.130  1.00  0.00     0.049 A 
ATOM     60  H   UNL A   1      39.671  34.154  28.377  1.00  0.00     0.167 HD
ATOM     61  C   UNL A   1      43.035  33.513  29.461  1.00  0.00     0.074 A 
ATOM     62  C   UNL A   1      44.295  33.399  28.749  1.00  0.00     0.031 C 
ATOM     63  C   UNL A   1      42.086  34.496  29.468  1.00  0.00     0.034 A 
BRANCH  50  64
ATOM     64  C   UNL A   1      36.033  33.629  29.609  1.00  0.00     0.023 A 
ATOM     65  C   UNL A   1      35.348  34.144  28.487  1.00  0.00     0.012 A 
ATOM     66  C   UNL A   1      35.371  33.723  30.851  1.00  0.00     0.148 A 
ATOM     67  C   UNL A   1      34.128  34.817  28.603  1.00  0.00     0.002 A 
ATOM     68  C   UNL A   1      34.200  34.476  30.983  1.00  0.00     0.091 A 
ATOM     69  F   UNL A   1      35.840  33.039  31.903  1.00  0.00    -0.205 F 
ATOM     70  C   UNL A   1      33.576  35.023  29.858  1.00  0.00     0.022 A 
BRANCH  68  71
ATOM     71  S   UNL A   1      33.538  34.925  32.596  1.00  0.00     0.127 S 
ATOM     72  O   UNL A   1      34.661  35.642  33.206  1.00  0.00    -0.237 OA
ATOM     73  O   UNL A   1      32.398  35.768  32.250  1.00  0.00    -0.237 OA
ATOM     74  O   UNL A   1      33.227  33.660  33.252  1.00  0.00    -0.744 OA
ENDBRANCH  68  71
ENDBRANCH  50  64
BRANCH  51  75
ATOM     75  C   UNL A   1      44.558  28.987  29.151  1.00  0.00     0.023 A 
ATOM     76  C   UNL A   1      45.183  27.908  29.822  1.00  0.00     0.012 A 
ATOM     77  C   UNL A   1      44.294  28.867  27.776  1.00  0.00     0.148 A 
ATOM     78  C   UNL A   1      45.432  26.701  29.165  1.00  0.00     0.002 A 
ATOM     79  C   UNL A   1      44.551  27.662  27.127  1.00  0.00     0.091 A 
ATOM     80  F   UNL A   1      43.718  29.895  27.141  1.00  0.00    -0.205 F 
ATOM     81  C   UNL A   1      45.088  26.569  27.825  1.00  0.00     0.022 A 
BRANCH  79  82
ATOM     82  S   UNL A   1      44.077  27.408  25.412  1.00  0.00     0.127 S 
ATOM     83  O   UNL A   1      45.286  27.833  24.712  1.00  0.00    -0.237 OA
ATOM     84  O   UNL A   1      43.809  25.971  25.372  1.00  0.00    -0.237 OA
ATOM     85  O   UNL A   1      42.896  28.238  25.228  1.00  0.00    -0.744 OA
ENDBRANCH  79  82
ENDBRANCH  51  75
BRANCH  63  86
ATOM     86  C   UNL A   1      42.306  35.852  28.839  1.00  0.00     0.023 A 
ATOM     87  C   UNL A   1      41.908  36.078  27.505  1.00  0.00     0.012 A 
ATOM     88  C   UNL A   1      43.056  36.870  29.473  1.00  0.00     0.148 A 
ATOM     89  C   UNL A   1      42.205  37.273  26.843  1.00  0.00     0.002 A 
ATOM     90  C   UNL A   1      43.437  38.013  28.776  1.00  0.00     0.091 A 
ATOM     91  F   UNL A   1      43.363  36.759  30.772  1.00  0.00    -0.205 F 
ATOM     92  C   UNL A   1      42.992  38.230  27.470  1.00  0.00     0.022 A 
BRANCH  90  93
ATOM     93  S   UNL A   1      44.630  39.183  29.445  1.00  0.00     0.127 S 
ATOM     94  O   UNL A   1      45.807  38.335  29.648  1.00  0.00    -0.237 OA
ATOM     95  O   UNL A   1      44.754  40.145  28.353  1.00  0.00    -0.237 OA
ATOM     96  O   UNL A   1      44.037  39.683  30.678  1.00  0.00    -0.744 OA
ENDBRANCH  90  93
ENDBRANCH  63  86
ENDBRANCH  37  38
ENDBRANCH  29  32
ENDBRANCH  27  28
ENDBRANCH  26  27
ENDBRANCH  25  26
ENDBRANCH   1  25
TORSDOF 20
ENDMDL
MODEL 3
REMARK VINA RESULT:     -11.6      4.165     10.153
REMARK SMILES Cc1ccccc1OCCC(=O)N[C@@](C)(C(=O)NCCCCNC(=O)c1ccc(-c2c3nc(c(-c4cccc(S(=O)(=O)[O-])c4F)c4ccc([nH]4)c(-c4cccc(S(=O)(=O)[O-])c4F)c4nc(c(-c5cccc(S(=O)(=O)[O-])c5F)c5ccc2[nH]5)C=C4)C=C3)cc1)C1CC1
REMARK SMILES IDX 19 1 18 2 16 3 17 4 14 6 15 7 13 8 11 9 12 10 10 12 9 13
REMARK SMILES IDX 8 14 7 15 1 16 2 17 3 18 4 19 6 20 5 21 89 22 90 23 91 24
REMARK SMILES IDX 20 25 21 26 22 27 23 28 24 29 25 31 26 32 27 33 88 34 28 35
REMARK SMILES IDX 87 36 29 37 30 38 31 39 81 40 32 41 86 42 80 43 82 44 33 45
REMARK SMILES IDX 85 46 79 47 78 48 34 50 66 51 46 52 65 53 47 54 50 55 64 56
REMARK SMILES IDX 83 57 48 58 49 59 63 61 84 62 51 63 35 64 36 65 44 66 37 67
REMARK SMILES IDX 39 68 45 69 38 70 40 71 41 72 42 73 43 74 67 75 68 76 76 77
REMARK SMILES IDX 69 78 71 79 77 80 70 81 72 82 73 83 74 84 75 85 52 86 53 87
REMARK SMILES IDX 61 88 54 89 56 90 62 91 55 92 57 93 58 94 59 95 60 96
REMARK H PARENT 18 5 13 11 23 30 82 49 50 60
REMARK Flexibility Score: inf
ROOT
ATOM      1  C   UNL A   1      34.792  22.347  26.771  1.00  0.00     0.116 C 
ENDROOT
BRANCH   1   2
ATOM      2  N   UNL A   1      34.523  21.020  26.218  1.00  0.00    -0.354 N 
ATOM      3  C   UNL A   1      33.814  20.602  25.118  1.00  0.00     0.245 C 
ATOM      4  O   UNL A   1      33.921  19.409  24.818  1.00  0.00    -0.272 OA
ATOM      5  H   UNL A   1      34.928  20.286  26.733  1.00  0.00     0.163 HD
BRANCH   3   6
ATOM      6  C   UNL A   1      32.932  21.606  24.273  1.00  0.00     0.119 C 
ATOM      7  C   UNL A   1      32.330  20.779  23.131  1.00  0.00     0.046 C 
BRANCH   6   8
ATOM      8  N   UNL A   1      33.927  22.618  23.825  1.00  0.00    -0.342 N 
ATOM      9  C   UNL A   1      34.037  23.553  22.857  1.00  0.00     0.224 C 
ATOM     10  O   UNL A   1      35.131  24.120  22.751  1.00  0.00    -0.275 OA
ATOM     11  H   UNL A   1      34.731  22.600  24.392  1.00  0.00     0.164 HD
BRANCH   9  12
ATOM     12  C   UNL A   1      32.880  24.017  22.024  1.00  0.00     0.141 C 
BRANCH  12  13
ATOM     13  C   UNL A   1      32.900  25.460  21.550  1.00  0.00     0.239 C 
BRANCH  13  14
ATOM     14  O   UNL A   1      33.405  26.400  22.477  1.00  0.00    -0.493 OA
BRANCH  14  15
ATOM     15  C   UNL A   1      32.756  26.826  23.596  1.00  0.00     0.122 A 
ATOM     16  C   UNL A   1      30.318  27.429  22.846  1.00  0.00     0.048 C 
ATOM     17  C   UNL A   1      31.425  27.191  23.831  1.00  0.00    -0.009 A 
ATOM     18  C   UNL A   1      31.020  27.402  25.176  1.00  0.00     0.007 A 
ATOM     19  C   UNL A   1      31.903  27.311  26.249  1.00  0.00     0.001 A 
ATOM     20  C   UNL A   1      33.652  26.820  24.690  1.00  0.00     0.047 A 
ATOM     21  C   UNL A   1      33.236  27.045  26.001  1.00  0.00     0.004 A 
ENDBRANCH  14  15
ENDBRANCH  13  14
ENDBRANCH  12  13
ENDBRANCH   9  12
ENDBRANCH   6   8
BRANCH   6  22
ATOM     22  C   UNL A   1      31.881  22.255  25.177  1.00  0.00     0.024 C 
ATOM     23  C   UNL A   1      32.005  23.643  25.794  1.00  0.00     0.007 C 
ATOM     24  C   UNL A   1      31.017  23.405  24.697  1.00  0.00     0.007 C 
ENDBRANCH   6  22
ENDBRANCH   3   6
ENDBRANCH   1   2
BRANCH   1  25
ATOM     25  C   UNL A   1      36.147  22.918  26.335  1.00  0.00     0.023 C 
BRANCH  25  26
ATOM     26  C   UNL A   1      37.137  21.904  25.761  1.00  0.00     0.023 C 
BRANCH  26  27
ATOM     27  C   UNL A   1      38.495  22.491  25.399  1.00  0.00     0.116 C 
BRANCH  27  28
ATOM     28  N   UNL A   1      39.527  22.267  26.394  1.00  0.00    -0.352 N 
ATOM     29  C   UNL A   1      40.237  23.173  27.158  1.00  0.00     0.251 C 
ATOM     30  H   UNL A   1      39.758  21.321  26.547  1.00  0.00     0.163 HD
ATOM     31  O   UNL A   1      41.216  22.749  27.775  1.00  0.00    -0.269 OA
BRANCH  29  32
ATOM     32  C   UNL A   1      39.786  24.584  27.329  1.00  0.00     0.039 A 
ATOM     33  C   UNL A   1      40.361  25.575  26.515  1.00  0.00     0.014 A 
ATOM     34  C   UNL A   1      38.924  24.973  28.351  1.00  0.00     0.014 A 
ATOM     35  C   UNL A   1      40.248  26.927  26.857  1.00  0.00     0.010 A 
ATOM     36  C   UNL A   1      38.870  26.296  28.739  1.00  0.00     0.010 A 
ATOM     37  C   UNL A   1      39.582  27.267  28.031  1.00  0.00    -0.014 A 
BRANCH  37  38
ATOM     38  C   UNL A   1      39.672  28.553  28.710  1.00  0.00     0.031 A 
ATOM     39  C   UNL A   1      38.688  29.630  28.486  1.00  0.00     0.074 A 
ATOM     40  C   UNL A   1      40.512  28.636  29.767  1.00  0.00     0.049 A 
ATOM     41  N   UNL A   1      38.861  30.847  28.880  1.00  0.00    -0.248 NA
ATOM     42  C   UNL A   1      37.417  29.406  27.811  1.00  0.00     0.031 C 
ATOM     43  C   UNL A   1      40.463  29.591  30.867  1.00  0.00     0.029 A 
ATOM     44  N   UNL A   1      41.726  27.968  29.948  1.00  0.00    -0.354 N 
ATOM     45  C   UNL A   1      37.652  31.492  28.761  1.00  0.00     0.074 A 
ATOM     46  C   UNL A   1      36.800  30.572  28.039  1.00  0.00     0.031 C 
ATOM     47  C   UNL A   1      41.681  29.666  31.420  1.00  0.00     0.029 A 
ATOM     48  C   UNL A   1      42.579  28.882  30.592  1.00  0.00     0.049 A 
ATOM     49  H   UNL A   1      41.941  27.045  29.679  1.00  0.00     0.167 HD
ATOM     50  C   UNL A   1      37.444  32.672  29.411  1.00  0.00     0.034 A 
ATOM     51  C   UNL A   1      43.748  29.319  30.042  1.00  0.00     0.034 A 
ATOM     52  C   UNL A   1      38.632  33.117  30.146  1.00  0.00     0.049 A 
ATOM     53  C   UNL A   1      43.780  30.823  29.808  1.00  0.00     0.074 A 
ATOM     54  C   UNL A   1      39.041  33.055  31.469  1.00  0.00     0.029 A 
ATOM     55  N   UNL A   1      39.746  33.500  29.424  1.00  0.00    -0.354 N 
ATOM     56  N   UNL A   1      42.860  31.661  30.204  1.00  0.00    -0.248 NA
ATOM     57  C   UNL A   1      44.817  31.481  29.009  1.00  0.00     0.031 C 
ATOM     58  C   UNL A   1      40.435  33.356  31.519  1.00  0.00     0.029 A 
ATOM     59  C   UNL A   1      40.866  33.613  30.230  1.00  0.00     0.049 A 
ATOM     60  H   UNL A   1      39.744  33.672  28.455  1.00  0.00     0.167 HD
ATOM     61  C   UNL A   1      43.059  32.870  29.584  1.00  0.00     0.074 A 
ATOM     62  C   UNL A   1      44.327  32.725  28.893  1.00  0.00     0.031 C 
ATOM     63  C   UNL A   1      42.149  33.889  29.601  1.00  0.00     0.034 A 
BRANCH  50  64
ATOM     64  C   UNL A   1      36.065  33.259  29.604  1.00  0.00     0.023 A 
ATOM     65  C   UNL A   1      35.391  33.758  28.468  1.00  0.00     0.012 A 
ATOM     66  C   UNL A   1      35.412  33.413  30.845  1.00  0.00     0.148 A 
ATOM     67  C   UNL A   1      34.193  34.472  28.568  1.00  0.00     0.002 A 
ATOM     68  C   UNL A   1      34.266  34.205  30.957  1.00  0.00     0.091 A 
ATOM     69  F   UNL A   1      35.866  32.749  31.916  1.00  0.00    -0.205 F 
ATOM     70  C   UNL A   1      33.654  34.735  29.818  1.00  0.00     0.022 A 
BRANCH  68  71
ATOM     71  S   UNL A   1      33.626  34.726  32.557  1.00  0.00     0.127 S 
ATOM     72  O   UNL A   1      33.439  33.449  33.251  1.00  0.00    -0.237 OA
ATOM     73  O   UNL A   1      34.712  35.546  33.085  1.00  0.00    -0.237 OA
ATOM     74  O   UNL A   1      32.377  35.421  32.266  1.00  0.00    -0.744 OA
ENDBRANCH  68  71
ENDBRANCH  50  64
BRANCH  51  75
ATOM     75  C   UNL A   1      44.411  28.297  29.180  1.00  0.00     0.023 A 
ATOM     76  C   UNL A   1      44.847  27.108  29.813  1.00  0.00     0.012 A 
ATOM     77  C   UNL A   1      44.281  28.311  27.781  1.00  0.00     0.148 A 
ATOM     78  C   UNL A   1      45.037  25.934  29.082  1.00  0.00     0.002 A 
ATOM     79  C   UNL A   1      44.479  27.137  27.059  1.00  0.00     0.091 A 
ATOM     80  F   UNL A   1      43.884  29.441  27.184  1.00  0.00    -0.205 F 
ATOM     81  C   UNL A   1      44.824  25.942  27.709  1.00  0.00     0.022 A 
BRANCH  79  82
ATOM     82  S   UNL A   1      44.164  27.067  25.291  1.00  0.00     0.127 S 
ATOM     83  O   UNL A   1      45.297  27.822  24.765  1.00  0.00    -0.237 OA
ATOM     84  O   UNL A   1      44.201  25.629  25.024  1.00  0.00    -0.237 OA
ATOM     85  O   UNL A   1      42.850  27.668  25.125  1.00  0.00    -0.744 OA
ENDBRANCH  79  82
ENDBRANCH  51  75
BRANCH  63  86
ATOM     86  C   UNL A   1      42.434  35.251  29.012  1.00  0.00     0.023 A 
ATOM     87  C   UNL A   1      42.185  35.490  27.644  1.00  0.00     0.012 A 
ATOM     88  C   UNL A   1      43.107  36.265  29.735  1.00  0.00     0.148 A 
ATOM     89  C   UNL A   1      42.551  36.692  27.031  1.00  0.00     0.002 A 
ATOM     90  C   UNL A   1      43.560  37.414  29.096  1.00  0.00     0.091 A 
ATOM     91  F   UNL A   1      43.268  36.141  31.059  1.00  0.00    -0.205 F 
ATOM     92  C   UNL A   1      43.262  37.643  27.750  1.00  0.00     0.022 A 
BRANCH  90  93
ATOM     93  S   UNL A   1      44.668  38.580  29.904  1.00  0.00     0.127 S 
ATOM     94  O   UNL A   1      45.083  39.429  28.785  1.00  0.00    -0.237 OA
ATOM     95  O   UNL A   1      43.777  39.229  30.862  1.00  0.00    -0.237 OA
ATOM     96  O   UNL A   1      45.741  37.773  30.468  1.00  0.00    -0.744 OA
ENDBRANCH  90  93
ENDBRANCH  63  86
ENDBRANCH  37  38
ENDBRANCH  29  32
ENDBRANCH  27  28
ENDBRANCH  26  27
ENDBRANCH  25  26
ENDBRANCH   1  25
TORSDOF 20
ENDMDL
