MODEL 1
REMARK VINA RESULT:     -11.5      0.000      0.000
REMARK SMILES CC[NH2+][C@@]1(C(=O)NCCCCNC(=O)c2ccc(-c3c4nc(c(-c5cccc(S(=O)(=O)[O-])c5F)c5ccc([nH]5)c(-c5cccc(S(=O)(=O)[O-])c5F)c5nc(c(-c6cccc(S(=O)(=O)[O-])c6F)c6ccc3[nH]6)C=C5)C=C4)cc2)CCC[C@H]1CCN1C(=O)CCC1=O
REMARK SMILES IDX 9 1 8 2 7 3 5 4 6 5 4 7 78 8 81 9 79 10 80 11 3 12 2 15 1 16
REMARK SMILES IDX 82 17 83 18 84 19 85 20 89 21 86 22 87 23 88 24 90 25 10 26
REMARK SMILES IDX 11 27 12 28 13 29 14 31 15 32 16 33 77 34 17 35 76 36 18 37
REMARK SMILES IDX 19 38 20 39 70 40 21 41 75 42 69 43 71 44 22 45 74 46 68 47
REMARK SMILES IDX 67 48 23 50 55 51 35 52 54 53 36 54 39 55 53 56 72 57 37 58
REMARK SMILES IDX 38 59 52 61 73 62 40 63 24 64 25 65 33 66 26 67 28 68 34 69
REMARK SMILES IDX 27 70 29 71 30 72 31 73 32 74 56 75 57 76 65 77 58 78 60 79
REMARK SMILES IDX 66 80 59 81 61 82 62 83 63 84 64 85 41 86 42 87 50 88 43 89
REMARK SMILES IDX 45 90 51 91 44 92 46 93 47 94 48 95 49 96
REMARK H PARENT 7 6 3 13 3 14 12 30 71 49 39 60
REMARK Flexibility Score: inf
ROOT
ATOM      1  C   UNL A   1      32.157  27.887  27.439  1.00  0.00     0.023 C 
ENDROOT
BRANCH   1   2
ATOM      2  C   UNL A   1      32.312  26.667  26.540  1.00  0.00     0.116 C 
BRANCH   2   3
ATOM      3  N   UNL A   1      31.361  25.627  26.832  1.00  0.00    -0.351 N 
ATOM      4  C   UNL A   1      31.321  24.303  26.504  1.00  0.00     0.281 C 
ATOM      5  O   UNL A   1      30.282  23.729  26.859  1.00  0.00    -0.268 OA
ATOM      6  H   UNL A   1      30.593  25.927  27.369  1.00  0.00     0.163 HD
BRANCH   4   7
ATOM      7  C   UNL A   1      32.509  23.538  25.747  1.00  0.00     0.178 C 
ATOM      8  C   UNL A   1      33.425  22.721  26.683  1.00  0.00     0.079 C 
ATOM      9  C   UNL A   1      33.446  24.573  25.027  1.00  0.00     0.062 C 
ATOM     10  C   UNL A   1      34.791  23.382  26.756  1.00  0.00     0.008 C 
ATOM     11  C   UNL A   1      34.834  24.472  25.702  1.00  0.00     0.011 C 
BRANCH   7  12
ATOM     12  N   UNL A   1      31.928  22.578  24.762  1.00  0.00    -0.334 N 
ATOM     13  H   UNL A   1      30.915  22.687  24.788  1.00  0.00     0.347 HD
ATOM     14  H   UNL A   1      32.366  22.817  23.872  1.00  0.00     0.347 HD
BRANCH  12  15
ATOM     15  C   UNL A   1      32.224  21.158  24.961  1.00  0.00     0.257 C 
ATOM     16  C   UNL A   1      32.529  20.544  23.601  1.00  0.00     0.071 C 
ENDBRANCH  12  15
ENDBRANCH   7  12
BRANCH   9  17
ATOM     17  C   UNL A   1      33.654  24.485  23.491  1.00  0.00     0.033 C 
BRANCH  17  18
ATOM     18  C   UNL A   1      32.709  25.215  22.526  1.00  0.00     0.129 C 
BRANCH  18  19
ATOM     19  N   UNL A   1      31.616  25.979  23.101  1.00  0.00    -0.283 N 
ATOM     20  C   UNL A   1      30.361  25.503  23.343  1.00  0.00     0.229 C 
ATOM     21  C   UNL A   1      31.662  27.345  23.178  1.00  0.00     0.229 C 
ATOM     22  O   UNL A   1      29.955  24.359  23.221  1.00  0.00    -0.274 OA
ATOM     23  C   UNL A   1      29.499  26.621  23.837  1.00  0.00     0.110 C 
ATOM     24  C   UNL A   1      30.311  27.864  23.562  1.00  0.00     0.110 C 
ATOM     25  O   UNL A   1      32.613  28.068  22.918  1.00  0.00    -0.274 OA
ENDBRANCH  18  19
ENDBRANCH  17  18
ENDBRANCH   9  17
ENDBRANCH   4   7
ENDBRANCH   2   3
ENDBRANCH   1   2
BRANCH   1  26
ATOM     26  C   UNL A   1      31.793  29.173  26.706  1.00  0.00     0.023 C 
BRANCH  26  27
ATOM     27  C   UNL A   1      32.975  30.064  26.338  1.00  0.00     0.116 C 
BRANCH  27  28
ATOM     28  N   UNL A   1      32.832  31.444  26.793  1.00  0.00    -0.352 N 
ATOM     29  C   UNL A   1      33.693  32.168  27.586  1.00  0.00     0.251 C 
ATOM     30  H   UNL A   1      32.019  31.914  26.496  1.00  0.00     0.163 HD
ATOM     31  O   UNL A   1      33.392  33.292  27.975  1.00  0.00    -0.269 OA
BRANCH  29  32
ATOM     32  C   UNL A   1      34.969  31.547  27.988  1.00  0.00     0.039 A 
ATOM     33  C   UNL A   1      36.117  32.338  28.064  1.00  0.00     0.014 A 
ATOM     34  C   UNL A   1      34.997  30.209  28.389  1.00  0.00     0.014 A 
ATOM     35  C   UNL A   1      37.280  31.802  28.619  1.00  0.00     0.010 A 
ATOM     36  C   UNL A   1      36.125  29.711  29.027  1.00  0.00     0.010 A 
ATOM     37  C   UNL A   1      37.280  30.499  29.145  1.00  0.00    -0.014 A 
BRANCH  37  38
ATOM     38  C   UNL A   1      38.473  29.942  29.832  1.00  0.00     0.031 A 
ATOM     39  C   UNL A   1      38.846  30.431  31.206  1.00  0.00     0.074 A 
ATOM     40  C   UNL A   1      39.268  29.064  29.188  1.00  0.00     0.049 A 
ATOM     41  N   UNL A   1      39.870  30.100  31.949  1.00  0.00    -0.248 NA
ATOM     42  C   UNL A   1      37.969  31.447  31.813  1.00  0.00     0.031 C 
ATOM     43  C   UNL A   1      39.060  28.572  27.824  1.00  0.00     0.029 A 
ATOM     44  N   UNL A   1      40.424  28.443  29.589  1.00  0.00    -0.354 N 
ATOM     45  C   UNL A   1      39.782  30.892  33.088  1.00  0.00     0.074 A 
ATOM     46  C   UNL A   1      38.631  31.751  32.920  1.00  0.00     0.031 C 
ATOM     47  C   UNL A   1      40.042  27.712  27.510  1.00  0.00     0.029 A 
ATOM     48  C   UNL A   1      40.970  27.618  28.632  1.00  0.00     0.049 A 
ATOM     49  H   UNL A   1      40.827  28.575  30.478  1.00  0.00     0.167 HD
ATOM     50  C   UNL A   1      40.568  30.884  34.190  1.00  0.00     0.034 A 
ATOM     51  C   UNL A   1      42.094  26.875  28.655  1.00  0.00     0.034 A 
ATOM     52  C   UNL A   1      41.691  30.005  34.368  1.00  0.00     0.049 A 
ATOM     53  C   UNL A   1      42.941  26.871  29.899  1.00  0.00     0.074 A 
ATOM     54  C   UNL A   1      42.499  29.855  35.480  1.00  0.00     0.029 A 
ATOM     55  N   UNL A   1      42.177  29.138  33.401  1.00  0.00    -0.354 N 
ATOM     56  N   UNL A   1      42.750  27.505  31.031  1.00  0.00    -0.248 NA
ATOM     57  C   UNL A   1      44.140  26.020  29.883  1.00  0.00     0.031 C 
ATOM     58  C   UNL A   1      43.497  28.926  35.173  1.00  0.00     0.029 A 
ATOM     59  C   UNL A   1      43.285  28.462  33.884  1.00  0.00     0.049 A 
ATOM     60  H   UNL A   1      41.791  29.020  32.503  1.00  0.00     0.167 HD
ATOM     61  C   UNL A   1      43.779  27.099  31.873  1.00  0.00     0.074 A 
ATOM     62  C   UNL A   1      44.579  26.151  31.127  1.00  0.00     0.031 C 
ATOM     63  C   UNL A   1      44.043  27.484  33.146  1.00  0.00     0.034 A 
BRANCH  50  64
ATOM     64  C   UNL A   1      40.213  31.834  35.306  1.00  0.00     0.023 A 
ATOM     65  C   UNL A   1      40.916  33.049  35.443  1.00  0.00     0.012 A 
ATOM     66  C   UNL A   1      39.161  31.542  36.196  1.00  0.00     0.148 A 
ATOM     67  C   UNL A   1      40.611  33.935  36.474  1.00  0.00     0.002 A 
ATOM     68  C   UNL A   1      38.828  32.455  37.190  1.00  0.00     0.091 A 
ATOM     69  F   UNL A   1      38.517  30.373  36.065  1.00  0.00    -0.205 F 
ATOM     70  C   UNL A   1      39.561  33.644  37.340  1.00  0.00     0.022 A 
BRANCH  68  71
ATOM     71  S   UNL A   1      37.438  32.212  38.301  1.00  0.00     0.127 S 
ATOM     72  O   UNL A   1      37.946  32.803  39.539  1.00  0.00    -0.237 OA
ATOM     73  O   UNL A   1      36.383  32.984  37.646  1.00  0.00    -0.237 OA
ATOM     74  O   UNL A   1      37.203  30.776  38.345  1.00  0.00    -0.744 OA
ENDBRANCH  68  71
ENDBRANCH  50  64
BRANCH  51  75
ATOM     75  C   UNL A   1      42.451  26.017  27.487  1.00  0.00     0.023 A 
ATOM     76  C   UNL A   1      43.220  26.563  26.440  1.00  0.00     0.012 A 
ATOM     77  C   UNL A   1      42.048  24.671  27.413  1.00  0.00     0.148 A 
ATOM     78  C   UNL A   1      43.549  25.795  25.323  1.00  0.00     0.002 A 
ATOM     79  C   UNL A   1      42.427  23.895  26.322  1.00  0.00     0.091 A 
ATOM     80  F   UNL A   1      41.311  24.171  28.416  1.00  0.00    -0.205 F 
ATOM     81  C   UNL A   1      43.160  24.460  25.268  1.00  0.00     0.022 A 
BRANCH  79  82
ATOM     82  S   UNL A   1      42.080  22.135  26.222  1.00  0.00     0.127 S 
ATOM     83  O   UNL A   1      42.940  21.724  25.114  1.00  0.00    -0.237 OA
ATOM     84  O   UNL A   1      42.510  21.670  27.541  1.00  0.00    -0.237 OA
ATOM     85  O   UNL A   1      40.648  22.027  25.982  1.00  0.00    -0.744 OA
ENDBRANCH  79  82
ENDBRANCH  51  75
BRANCH  63  86
ATOM     86  C   UNL A   1      45.218  26.846  33.841  1.00  0.00     0.023 A 
ATOM     87  C   UNL A   1      46.482  27.468  33.812  1.00  0.00     0.012 A 
ATOM     88  C   UNL A   1      45.048  25.662  34.587  1.00  0.00     0.148 A 
ATOM     89  C   UNL A   1      47.566  26.902  34.482  1.00  0.00     0.002 A 
ATOM     90  C   UNL A   1      46.118  25.135  35.298  1.00  0.00     0.091 A 
ATOM     91  F   UNL A   1      43.842  25.077  34.589  1.00  0.00    -0.205 F 
ATOM     92  C   UNL A   1      47.381  25.745  35.234  1.00  0.00     0.022 A 
BRANCH  90  93
ATOM     93  S   UNL A   1      45.952  23.707  36.374  1.00  0.00     0.127 S 
ATOM     94  O   UNL A   1      44.947  24.170  37.331  1.00  0.00    -0.237 OA
ATOM     95  O   UNL A   1      45.483  22.675  35.448  1.00  0.00    -0.237 OA
ATOM     96  O   UNL A   1      47.276  23.465  36.931  1.00  0.00    -0.744 OA
ENDBRANCH  90  93
ENDBRANCH  63  86
ENDBRANCH  37  38
ENDBRANCH  29  32
ENDBRANCH  27  28
ENDBRANCH  26  27
ENDBRANCH   1  26
TORSDOF 19
ENDMDL
MODEL 2
REMARK VINA RESULT:     -11.2      2.168      3.514
REMARK SMILES CC[NH2+][C@@]1(C(=O)NCCCCNC(=O)c2ccc(-c3c4nc(c(-c5cccc(S(=O)(=O)[O-])c5F)c5ccc([nH]5)c(-c5cccc(S(=O)(=O)[O-])c5F)c5nc(c(-c6cccc(S(=O)(=O)[O-])c6F)c6ccc3[nH]6)C=C5)C=C4)cc2)CCC[C@H]1CCN1C(=O)CCC1=O
REMARK SMILES IDX 9 1 8 2 7 3 5 4 6 5 4 7 78 8 81 9 79 10 80 11 3 12 2 15 1 16
REMARK SMILES IDX 82 17 83 18 84 19 85 20 89 21 86 22 87 23 88 24 90 25 10 26
REMARK SMILES IDX 11 27 12 28 13 29 14 31 15 32 16 33 77 34 17 35 76 36 18 37
REMARK SMILES IDX 19 38 20 39 70 40 21 41 75 42 69 43 71 44 22 45 74 46 68 47
REMARK SMILES IDX 67 48 23 50 55 51 35 52 54 53 36 54 39 55 53 56 72 57 37 58
REMARK SMILES IDX 38 59 52 61 73 62 40 63 24 64 25 65 33 66 26 67 28 68 34 69
REMARK SMILES IDX 27 70 29 71 30 72 31 73 32 74 56 75 57 76 65 77 58 78 60 79
REMARK SMILES IDX 66 80 59 81 61 82 62 83 63 84 64 85 41 86 42 87 50 88 43 89
REMARK SMILES IDX 45 90 51 91 44 92 46 93 47 94 48 95 49 96
REMARK H PARENT 7 6 3 13 3 14 12 30 71 49 39 60
REMARK Flexibility Score: inf
ROOT
ATOM      1  C   UNL A   1      31.644  28.108  26.779  1.00  0.00     0.023 C 
ENDROOT
BRANCH   1   2
ATOM      2  C   UNL A   1      31.033  26.886  26.105  1.00  0.00     0.116 C 
BRANCH   2   3
ATOM      3  N   UNL A   1      31.174  25.683  26.882  1.00  0.00    -0.351 N 
ATOM      4  C   UNL A   1      31.709  24.462  26.593  1.00  0.00     0.281 C 
ATOM      5  O   UNL A   1      31.569  23.625  27.496  1.00  0.00    -0.268 OA
ATOM      6  H   UNL A   1      30.816  25.754  27.797  1.00  0.00     0.163 HD
BRANCH   4   7
ATOM      7  C   UNL A   1      32.471  24.127  25.223  1.00  0.00     0.178 C 
ATOM      8  C   UNL A   1      32.649  25.345  24.291  1.00  0.00     0.079 C 
ATOM      9  C   UNL A   1      31.655  23.070  24.395  1.00  0.00     0.062 C 
ATOM     10  C   UNL A   1      31.767  25.177  23.066  1.00  0.00     0.008 C 
ATOM     11  C   UNL A   1      31.207  23.766  23.089  1.00  0.00     0.011 C 
BRANCH   7  12
ATOM     12  N   UNL A   1      33.839  23.614  25.532  1.00  0.00    -0.334 N 
ATOM     13  H   UNL A   1      33.975  23.689  26.540  1.00  0.00     0.347 HD
ATOM     14  H   UNL A   1      33.852  22.662  25.164  1.00  0.00     0.347 HD
BRANCH  12  15
ATOM     15  C   UNL A   1      34.966  24.286  24.884  1.00  0.00     0.257 C 
ATOM     16  C   UNL A   1      36.237  23.905  25.630  1.00  0.00     0.071 C 
ENDBRANCH  12  15
ENDBRANCH   7  12
BRANCH   9  17
ATOM     17  C   UNL A   1      32.314  21.716  24.014  1.00  0.00     0.033 C 
BRANCH  17  18
ATOM     18  C   UNL A   1      32.367  20.556  25.020  1.00  0.00     0.129 C 
BRANCH  18  19
ATOM     19  N   UNL A   1      33.277  19.460  24.737  1.00  0.00    -0.283 N 
ATOM     20  C   UNL A   1      32.949  18.137  24.757  1.00  0.00     0.229 C 
ATOM     21  C   UNL A   1      34.633  19.645  24.718  1.00  0.00     0.229 C 
ATOM     22  O   UNL A   1      31.846  17.638  24.911  1.00  0.00    -0.274 OA
ATOM     23  C   UNL A   1      34.181  17.322  24.519  1.00  0.00     0.110 C 
ATOM     24  C   UNL A   1      35.313  18.312  24.667  1.00  0.00     0.110 C 
ATOM     25  O   UNL A   1      35.236  20.706  24.794  1.00  0.00    -0.274 OA
ENDBRANCH  18  19
ENDBRANCH  17  18
ENDBRANCH   9  17
ENDBRANCH   4   7
ENDBRANCH   2   3
ENDBRANCH   1   2
BRANCH   1  26
ATOM     26  C   UNL A   1      33.164  28.074  26.897  1.00  0.00     0.023 C 
BRANCH  26  27
ATOM     27  C   UNL A   1      33.891  29.226  26.213  1.00  0.00     0.116 C 
BRANCH  27  28
ATOM     28  N   UNL A   1      33.779  30.495  26.927  1.00  0.00    -0.352 N 
ATOM     29  C   UNL A   1      34.631  31.011  27.877  1.00  0.00     0.251 C 
ATOM     30  H   UNL A   1      32.998  31.051  26.700  1.00  0.00     0.163 HD
ATOM     31  O   UNL A   1      34.356  32.049  28.469  1.00  0.00    -0.269 OA
BRANCH  29  32
ATOM     32  C   UNL A   1      35.865  30.267  28.192  1.00  0.00     0.039 A 
ATOM     33  C   UNL A   1      36.981  30.417  27.367  1.00  0.00     0.014 A 
ATOM     34  C   UNL A   1      35.942  29.508  29.364  1.00  0.00     0.014 A 
ATOM     35  C   UNL A   1      38.201  29.865  27.761  1.00  0.00     0.010 A 
ATOM     36  C   UNL A   1      37.176  29.045  29.798  1.00  0.00     0.010 A 
ATOM     37  C   UNL A   1      38.318  29.213  29.000  1.00  0.00    -0.014 A 
BRANCH  37  38
ATOM     38  C   UNL A   1      39.627  28.709  29.487  1.00  0.00     0.031 A 
ATOM     39  C   UNL A   1      40.341  29.425  30.602  1.00  0.00     0.074 A 
ATOM     40  C   UNL A   1      40.212  27.662  28.872  1.00  0.00     0.049 A 
ATOM     41  N   UNL A   1      41.506  29.165  31.135  1.00  0.00    -0.248 NA
ATOM     42  C   UNL A   1      39.672  30.606  31.173  1.00  0.00     0.031 C 
ATOM     43  C   UNL A   1      39.660  26.931  27.729  1.00  0.00     0.029 A 
ATOM     44  N   UNL A   1      41.413  27.041  29.110  1.00  0.00    -0.354 N 
ATOM     45  C   UNL A   1      41.726  30.168  32.072  1.00  0.00     0.074 A 
ATOM     46  C   UNL A   1      40.595  31.066  32.004  1.00  0.00     0.031 C 
ATOM     47  C   UNL A   1      40.508  25.951  27.379  1.00  0.00     0.029 A 
ATOM     48  C   UNL A   1      41.681  26.004  28.245  1.00  0.00     0.049 A 
ATOM     49  H   UNL A   1      42.026  27.311  29.832  1.00  0.00     0.167 HD
ATOM     50  C   UNL A   1      42.758  30.313  32.935  1.00  0.00     0.034 A 
ATOM     51  C   UNL A   1      42.753  25.194  28.157  1.00  0.00     0.034 A 
ATOM     52  C   UNL A   1      43.864  29.399  33.023  1.00  0.00     0.049 A 
ATOM     53  C   UNL A   1      43.881  25.365  29.139  1.00  0.00     0.074 A 
ATOM     54  C   UNL A   1      44.916  29.405  33.920  1.00  0.00     0.029 A 
ATOM     55  N   UNL A   1      44.071  28.325  32.171  1.00  0.00    -0.354 N 
ATOM     56  N   UNL A   1      43.994  26.220  30.127  1.00  0.00    -0.248 NA
ATOM     57  C   UNL A   1      45.013  24.435  29.019  1.00  0.00     0.031 C 
ATOM     58  C   UNL A   1      45.781  28.357  33.587  1.00  0.00     0.029 A 
ATOM     59  C   UNL A   1      45.243  27.670  32.510  1.00  0.00     0.049 A 
ATOM     60  H   UNL A   1      43.472  28.064  31.435  1.00  0.00     0.167 HD
ATOM     61  C   UNL A   1      45.186  25.907  30.769  1.00  0.00     0.074 A 
ATOM     62  C   UNL A   1      45.750  24.770  30.070  1.00  0.00     0.031 C 
ATOM     63  C   UNL A   1      45.767  26.510  31.835  1.00  0.00     0.034 A 
BRANCH  50  64
ATOM     64  C   UNL A   1      42.718  31.487  33.880  1.00  0.00     0.023 A 
ATOM     65  C   UNL A   1      43.271  32.723  33.488  1.00  0.00     0.012 A 
ATOM     66  C   UNL A   1      42.100  31.378  35.141  1.00  0.00     0.148 A 
ATOM     67  C   UNL A   1      43.254  33.818  34.350  1.00  0.00     0.002 A 
ATOM     68  C   UNL A   1      42.040  32.489  35.976  1.00  0.00     0.091 A 
ATOM     69  F   UNL A   1      41.598  30.190  35.509  1.00  0.00    -0.205 F 
ATOM     70  C   UNL A   1      42.629  33.703  35.589  1.00  0.00     0.022 A 
BRANCH  68  71
ATOM     71  S   UNL A   1      41.184  32.468  37.555  1.00  0.00     0.127 S 
ATOM     72  O   UNL A   1      42.048  31.591  38.345  1.00  0.00    -0.237 OA
ATOM     73  O   UNL A   1      41.227  33.878  37.944  1.00  0.00    -0.237 OA
ATOM     74  O   UNL A   1      39.850  31.953  37.283  1.00  0.00    -0.744 OA
ENDBRANCH  68  71
ENDBRANCH  50  64
BRANCH  51  75
ATOM     75  C   UNL A   1      42.786  24.099  27.143  1.00  0.00     0.023 A 
ATOM     76  C   UNL A   1      43.497  24.293  25.942  1.00  0.00     0.012 A 
ATOM     77  C   UNL A   1      42.133  22.872  27.364  1.00  0.00     0.148 A 
ATOM     78  C   UNL A   1      43.527  23.299  24.963  1.00  0.00     0.002 A 
ATOM     79  C   UNL A   1      42.213  21.865  26.408  1.00  0.00     0.091 A 
ATOM     80  F   UNL A   1      41.456  22.710  28.509  1.00  0.00    -0.205 F 
ATOM     81  C   UNL A   1      42.892  22.083  25.200  1.00  0.00     0.022 A 
BRANCH  79  82
ATOM     82  S   UNL A   1      41.534  20.223  26.675  1.00  0.00     0.127 S 
ATOM     83  O   UNL A   1      42.251  19.795  27.874  1.00  0.00    -0.237 OA
ATOM     84  O   UNL A   1      40.114  20.517  26.878  1.00  0.00    -0.237 OA
ATOM     85  O   UNL A   1      41.826  19.472  25.463  1.00  0.00    -0.744 OA
ENDBRANCH  79  82
ENDBRANCH  51  75
BRANCH  63  86
ATOM     86  C   UNL A   1      47.058  25.928  32.351  1.00  0.00     0.023 A 
ATOM     87  C   UNL A   1      48.292  26.395  31.859  1.00  0.00     0.012 A 
ATOM     88  C   UNL A   1      47.045  24.966  33.382  1.00  0.00     0.148 A 
ATOM     89  C   UNL A   1      49.492  25.887  32.357  1.00  0.00     0.002 A 
ATOM     90  C   UNL A   1      48.243  24.506  33.911  1.00  0.00     0.091 A 
ATOM     91  F   UNL A   1      45.859  24.523  33.826  1.00  0.00    -0.205 F 
ATOM     92  C   UNL A   1      49.467  24.954  33.390  1.00  0.00     0.022 A 
BRANCH  90  93
ATOM     93  S   UNL A   1      48.311  23.382  35.311  1.00  0.00     0.127 S 
ATOM     94  O   UNL A   1      47.573  24.128  36.329  1.00  0.00    -0.237 OA
ATOM     95  O   UNL A   1      47.615  22.203  34.794  1.00  0.00    -0.237 OA
ATOM     96  O   UNL A   1      49.725  23.176  35.594  1.00  0.00    -0.744 OA
ENDBRANCH  90  93
ENDBRANCH  63  86
ENDBRANCH  37  38
ENDBRANCH  29  32
ENDBRANCH  27  28
ENDBRANCH  26  27
ENDBRANCH   1  26
TORSDOF 19
ENDMDL
MODEL 3
REMARK VINA RESULT:     -11.2      1.677      2.903
REMARK SMILES CC[NH2+][C@@]1(C(=O)NCCCCNC(=O)c2ccc(-c3c4nc(c(-c5cccc(S(=O)(=O)[O-])c5F)c5ccc([nH]5)c(-c5cccc(S(=O)(=O)[O-])c5F)c5nc(c(-c6cccc(S(=O)(=O)[O-])c6F)c6ccc3[nH]6)C=C5)C=C4)cc2)CCC[C@H]1CCN1C(=O)CCC1=O
REMARK SMILES IDX 9 1 8 2 7 3 5 4 6 5 4 7 78 8 81 9 79 10 80 11 3 12 2 15 1 16
REMARK SMILES IDX 82 17 83 18 84 19 85 20 89 21 86 22 87 23 88 24 90 25 10 26
REMARK SMILES IDX 11 27 12 28 13 29 14 31 15 32 16 33 77 34 17 35 76 36 18 37
REMARK SMILES IDX 19 38 20 39 70 40 21 41 75 42 69 43 71 44 22 45 74 46 68 47
REMARK SMILES IDX 67 48 23 50 55 51 35 52 54 53 36 54 39 55 53 56 72 57 37 58
REMARK SMILES IDX 38 59 52 61 73 62 40 63 24 64 25 65 33 66 26 67 28 68 34 69
REMARK SMILES IDX 27 70 29 71 30 72 31 73 32 74 56 75 57 76 65 77 58 78 60 79
REMARK SMILES IDX 66 80 59 81 61 82 62 83 63 84 64 85 41 86 42 87 50 88 43 89
REMARK SMILES IDX 45 90 51 91 44 92 46 93 47 94 48 95 49 96
REMARK H PARENT 7 6 3 13 3 14 12 30 71 49 39 60
REMARK Flexibility Score: inf
ROOT
ATOM      1  C   UNL A   1      31.813  29.238  24.060  1.00  0.00     0.023 C 
ENDROOT
BRANCH   1   2
ATOM      2  C   UNL A   1      33.155  28.538  23.883  1.00  0.00     0.116 C 
BRANCH   2   3
ATOM      3  N   UNL A   1      33.276  27.863  22.618  1.00  0.00    -0.351 N 
ATOM      4  C   UNL A   1      33.340  26.541  22.286  1.00  0.00     0.281 C 
ATOM      5  O   UNL A   1      33.538  26.334  21.081  1.00  0.00    -0.268 OA
ATOM      6  H   UNL A   1      33.322  28.470  21.844  1.00  0.00     0.163 HD
BRANCH   4   7
ATOM      7  C   UNL A   1      33.158  25.350  23.343  1.00  0.00     0.178 C 
ATOM      8  C   UNL A   1      31.818  25.390  24.109  1.00  0.00     0.079 C 
ATOM      9  C   UNL A   1      34.280  25.424  24.440  1.00  0.00     0.062 C 
ATOM     10  C   UNL A   1      32.077  25.748  25.562  1.00  0.00     0.008 C 
ATOM     11  C   UNL A   1      33.577  25.707  25.788  1.00  0.00     0.011 C 
BRANCH   7  12
ATOM     12  N   UNL A   1      33.207  24.042  22.625  1.00  0.00    -0.334 N 
ATOM     13  H   UNL A   1      33.450  24.234  21.653  1.00  0.00     0.347 HD
ATOM     14  H   UNL A   1      33.891  23.485  23.139  1.00  0.00     0.347 HD
BRANCH  12  15
ATOM     15  C   UNL A   1      31.986  23.235  22.623  1.00  0.00     0.257 C 
ATOM     16  C   UNL A   1      32.386  21.771  22.745  1.00  0.00     0.071 C 
ENDBRANCH  12  15
ENDBRANCH   7  12
BRANCH   9  17
ATOM     17  C   UNL A   1      35.238  24.218  24.644  1.00  0.00     0.033 C 
BRANCH  17  18
ATOM     18  C   UNL A   1      35.076  23.280  25.849  1.00  0.00     0.129 C 
BRANCH  18  19
ATOM     19  N   UNL A   1      34.485  21.975  25.612  1.00  0.00    -0.283 N 
ATOM     20  C   UNL A   1      33.320  21.524  26.159  1.00  0.00     0.229 C 
ATOM     21  C   UNL A   1      35.205  20.956  25.048  1.00  0.00     0.229 C 
ATOM     22  O   UNL A   1      32.525  22.142  26.848  1.00  0.00    -0.274 OA
ATOM     23  C   UNL A   1      33.108  20.099  25.758  1.00  0.00     0.110 C 
ATOM     24  C   UNL A   1      34.435  19.678  25.172  1.00  0.00     0.110 C 
ATOM     25  O   UNL A   1      36.328  21.023  24.568  1.00  0.00    -0.274 OA
ENDBRANCH  18  19
ENDBRANCH  17  18
ENDBRANCH   9  17
ENDBRANCH   4   7
ENDBRANCH   2   3
ENDBRANCH   1   2
BRANCH   1  26
ATOM     26  C   UNL A   1      31.394  29.448  25.511  1.00  0.00     0.023 C 
BRANCH  26  27
ATOM     27  C   UNL A   1      32.486  29.994  26.426  1.00  0.00     0.116 C 
BRANCH  27  28
ATOM     28  N   UNL A   1      32.361  31.423  26.700  1.00  0.00    -0.352 N 
ATOM     29  C   UNL A   1      33.242  32.236  27.374  1.00  0.00     0.251 C 
ATOM     30  H   UNL A   1      31.546  31.857  26.359  1.00  0.00     0.163 HD
ATOM     31  O   UNL A   1      32.957  33.404  27.619  1.00  0.00    -0.269 OA
BRANCH  29  32
ATOM     32  C   UNL A   1      34.523  31.661  27.829  1.00  0.00     0.039 A 
ATOM     33  C   UNL A   1      35.624  32.503  28.000  1.00  0.00     0.014 A 
ATOM     34  C   UNL A   1      34.594  30.312  28.183  1.00  0.00     0.014 A 
ATOM     35  C   UNL A   1      36.778  32.001  28.604  1.00  0.00     0.010 A 
ATOM     36  C   UNL A   1      35.707  29.844  28.869  1.00  0.00     0.010 A 
ATOM     37  C   UNL A   1      36.813  30.681  29.083  1.00  0.00    -0.014 A 
BRANCH  37  38
ATOM     38  C   UNL A   1      37.991  30.156  29.819  1.00  0.00     0.031 A 
ATOM     39  C   UNL A   1      38.257  30.605  31.231  1.00  0.00     0.074 A 
ATOM     40  C   UNL A   1      38.866  29.345  29.191  1.00  0.00     0.049 A 
ATOM     41  N   UNL A   1      39.251  30.295  32.021  1.00  0.00    -0.248 NA
ATOM     42  C   UNL A   1      37.295  31.551  31.822  1.00  0.00     0.031 C 
ATOM     43  C   UNL A   1      38.764  28.900  27.800  1.00  0.00     0.029 A 
ATOM     44  N   UNL A   1      40.028  28.765  29.638  1.00  0.00    -0.354 N 
ATOM     45  C   UNL A   1      39.056  31.033  33.182  1.00  0.00     0.074 A 
ATOM     46  C   UNL A   1      37.874  31.841  32.977  1.00  0.00     0.031 C 
ATOM     47  C   UNL A   1      39.806  28.103  27.513  1.00  0.00     0.029 A 
ATOM     48  C   UNL A   1      40.670  28.008  28.684  1.00  0.00     0.049 A 
ATOM     49  H   UNL A   1      40.370  28.880  30.554  1.00  0.00     0.167 HD
ATOM     50  C   UNL A   1      39.775  31.019  34.329  1.00  0.00     0.034 A 
ATOM     51  C   UNL A   1      41.827  27.321  28.747  1.00  0.00     0.034 A 
ATOM     52  C   UNL A   1      40.930  30.190  34.540  1.00  0.00     0.049 A 
ATOM     53  C   UNL A   1      42.600  27.308  30.039  1.00  0.00     0.074 A 
ATOM     54  C   UNL A   1      41.677  30.034  35.693  1.00  0.00     0.029 A 
ATOM     55  N   UNL A   1      41.515  29.388  33.572  1.00  0.00    -0.354 N 
ATOM     56  N   UNL A   1      42.310  27.884  31.180  1.00  0.00    -0.248 NA
ATOM     57  C   UNL A   1      43.840  26.519  30.063  1.00  0.00     0.031 C 
ATOM     58  C   UNL A   1      42.739  29.168  35.411  1.00  0.00     0.029 A 
ATOM     59  C   UNL A   1      42.626  28.748  34.095  1.00  0.00     0.049 A 
ATOM     60  H   UNL A   1      41.189  29.288  32.649  1.00  0.00     0.167 HD
ATOM     61  C   UNL A   1      43.308  27.496  32.068  1.00  0.00     0.074 A 
ATOM     62  C   UNL A   1      44.198  26.619  31.336  1.00  0.00     0.031 C 
ATOM     63  C   UNL A   1      43.476  27.840  33.368  1.00  0.00     0.034 A 
BRANCH  50  64
ATOM     64  C   UNL A   1      39.307  31.903  35.456  1.00  0.00     0.023 A 
ATOM     65  C   UNL A   1      38.396  31.403  36.409  1.00  0.00     0.012 A 
ATOM     66  C   UNL A   1      39.796  33.217  35.595  1.00  0.00     0.148 A 
ATOM     67  C   UNL A   1      37.942  32.207  37.453  1.00  0.00     0.002 A 
ATOM     68  C   UNL A   1      39.379  33.996  36.668  1.00  0.00     0.091 A 
ATOM     69  F   UNL A   1      40.645  33.685  34.669  1.00  0.00    -0.205 F 
ATOM     70  C   UNL A   1      38.442  33.499  37.588  1.00  0.00     0.022 A 
BRANCH  68  71
ATOM     71  S   UNL A   1      40.028  35.642  36.979  1.00  0.00     0.127 S 
ATOM     72  O   UNL A   1      39.348  35.994  38.226  1.00  0.00    -0.237 OA
ATOM     73  O   UNL A   1      41.461  35.385  37.118  1.00  0.00    -0.237 OA
ATOM     74  O   UNL A   1      39.663  36.444  35.820  1.00  0.00    -0.744 OA
ENDBRANCH  68  71
ENDBRANCH  50  64
BRANCH  51  75
ATOM     75  C   UNL A   1      42.296  26.531  27.571  1.00  0.00     0.023 A 
ATOM     76  C   UNL A   1      43.075  27.164  26.581  1.00  0.00     0.012 A 
ATOM     77  C   UNL A   1      41.989  25.165  27.433  1.00  0.00     0.148 A 
ATOM     78  C   UNL A   1      43.507  26.459  25.457  1.00  0.00     0.002 A 
ATOM     79  C   UNL A   1      42.470  24.454  26.338  1.00  0.00     0.091 A 
ATOM     80  F   UNL A   1      41.241  24.583  28.382  1.00  0.00    -0.205 F 
ATOM     81  C   UNL A   1      43.212  25.104  25.340  1.00  0.00     0.022 A 
BRANCH  79  82
ATOM     82  S   UNL A   1      42.248  22.681  26.163  1.00  0.00     0.127 S 
ATOM     83  O   UNL A   1      42.926  22.418  24.896  1.00  0.00    -0.237 OA
ATOM     84  O   UNL A   1      42.940  22.175  27.350  1.00  0.00    -0.237 OA
ATOM     85  O   UNL A   1      40.808  22.460  26.166  1.00  0.00    -0.744 OA
ENDBRANCH  79  82
ENDBRANCH  51  75
BRANCH  63  86
ATOM     86  C   UNL A   1      44.640  27.232  34.108  1.00  0.00     0.023 A 
ATOM     87  C   UNL A   1      45.886  27.890  34.132  1.00  0.00     0.012 A 
ATOM     88  C   UNL A   1      44.474  26.040  34.842  1.00  0.00     0.148 A 
ATOM     89  C   UNL A   1      46.957  27.352  34.844  1.00  0.00     0.002 A 
ATOM     90  C   UNL A   1      45.528  25.541  35.594  1.00  0.00     0.091 A 
ATOM     91  F   UNL A   1      43.285  25.421  34.793  1.00  0.00    -0.205 F 
ATOM     92  C   UNL A   1      46.775  26.186  35.584  1.00  0.00     0.022 A 
BRANCH  90  93
ATOM     93  S   UNL A   1      45.359  24.103  36.658  1.00  0.00     0.127 S 
ATOM     94  O   UNL A   1      44.767  24.690  37.860  1.00  0.00    -0.237 OA
ATOM     95  O   UNL A   1      44.455  23.251  35.885  1.00  0.00    -0.237 OA
ATOM     96  O   UNL A   1      46.703  23.566  36.826  1.00  0.00    -0.744 OA
ENDBRANCH  90  93
ENDBRANCH  63  86
ENDBRANCH  37  38
ENDBRANCH  29  32
ENDBRANCH  27  28
ENDBRANCH  26  27
ENDBRANCH   1  26
TORSDOF 19
ENDMDL
