MODEL 1
REMARK VINA RESULT:     -11.1      0.000      0.000
REMARK SMILES C[C@@H]1C[N@@H+](CC(C)(C)C(=O)NCCCCNC(=O)c2ccc(-c3c4nc(c(-c5cccc(S(=O)(=O)[O-])c5F)c5ccc([nH]5)c(-c5cccc(S(=O)(=O)[O-])c5F)c5nc(c(-c6cccc(S(=O)(=O)[O-])c6F)c6ccc3[nH]6)C=C5)C=C4)cc2)CC[C@@H]1[NH3+]
REMARK SMILES IDX 13 1 12 2 11 3 9 4 10 5 6 7 7 8 8 9 5 10 4 11 1 12 2 13 3 14
REMARK SMILES IDX 84 15 83 16 82 17 85 19 14 23 15 24 16 25 17 26 18 28 19 29
REMARK SMILES IDX 20 30 81 31 21 32 80 33 22 34 23 35 24 36 74 37 25 38 79 39
REMARK SMILES IDX 73 40 75 41 26 42 78 43 72 44 71 45 27 47 59 48 39 49 58 50
REMARK SMILES IDX 40 51 43 52 57 53 76 54 41 55 42 56 56 58 77 59 44 60 28 61
REMARK SMILES IDX 29 62 37 63 30 64 32 65 38 66 31 67 33 68 34 69 35 70 36 71
REMARK SMILES IDX 60 72 61 73 69 74 62 75 64 76 70 77 63 78 65 79 66 80 67 81
REMARK SMILES IDX 68 82 45 83 46 84 54 85 47 86 49 87 55 88 48 89 50 90 51 91
REMARK SMILES IDX 52 92 53 93
REMARK H PARENT 11 6 4 18 85 20 85 21 85 22 16 27 75 46 43 57
REMARK Flexibility Score: inf
ROOT
ATOM      1  C   UNL A   1      31.051  28.413  24.601  1.00  0.00     0.023 C 
ENDROOT
BRANCH   1   2
ATOM      2  C   UNL A   1      30.764  26.933  24.369  1.00  0.00     0.116 C 
BRANCH   2   3
ATOM      3  N   UNL A   1      30.310  26.302  25.588  1.00  0.00    -0.355 N 
ATOM      4  C   UNL A   1      30.384  25.019  26.020  1.00  0.00     0.231 C 
ATOM      5  O   UNL A   1      29.534  24.703  26.859  1.00  0.00    -0.274 OA
ATOM      6  H   UNL A   1      29.868  26.914  26.219  1.00  0.00     0.163 HD
BRANCH   4   7
ATOM      7  C   UNL A   1      31.380  23.987  25.456  1.00  0.00     0.092 C 
ATOM      8  C   UNL A   1      31.291  23.741  23.942  1.00  0.00     0.027 C 
ATOM      9  C   UNL A   1      31.058  22.659  26.180  1.00  0.00     0.027 C 
BRANCH   7  10
ATOM     10  C   UNL A   1      32.852  24.407  25.853  1.00  0.00     0.278 C 
BRANCH  10  11
ATOM     11  N   UNL A   1      34.062  23.648  25.446  1.00  0.00    -0.333 N 
ATOM     12  C   UNL A   1      35.178  20.764  25.007  1.00  0.00     0.020 C 
ATOM     13  C   UNL A   1      35.692  21.813  26.003  1.00  0.00     0.099 C 
ATOM     14  C   UNL A   1      34.547  22.727  26.482  1.00  0.00     0.271 C 
ATOM     15  C   UNL A   1      36.824  22.705  25.460  1.00  0.00     0.194 C 
ATOM     16  C   UNL A   1      36.302  23.607  24.340  1.00  0.00     0.126 C 
ATOM     17  C   UNL A   1      35.131  24.449  24.852  1.00  0.00     0.268 C 
ATOM     18  H   UNL A   1      33.731  23.067  24.676  1.00  0.00     0.348 HD
BRANCH  15  19
ATOM     19  N   UNL A   1      37.999  21.952  25.013  1.00  0.00    -0.355 N 
ATOM     20  H   UNL A   1      38.843  22.382  25.391  1.00  0.00     0.344 HD
ATOM     21  H   UNL A   1      38.040  21.960  23.994  1.00  0.00     0.344 HD
ATOM     22  H   UNL A   1      37.930  20.989  25.343  1.00  0.00     0.344 HD
ENDBRANCH  15  19
ENDBRANCH  10  11
ENDBRANCH   7  10
ENDBRANCH   4   7
ENDBRANCH   2   3
ENDBRANCH   1   2
BRANCH   1  23
ATOM     23  C   UNL A   1      31.797  28.723  25.899  1.00  0.00     0.023 C 
BRANCH  23  24
ATOM     24  C   UNL A   1      32.976  29.679  25.754  1.00  0.00     0.116 C 
BRANCH  24  25
ATOM     25  N   UNL A   1      32.672  31.024  26.221  1.00  0.00    -0.352 N 
ATOM     26  C   UNL A   1      33.325  31.781  27.165  1.00  0.00     0.251 C 
ATOM     27  H   UNL A   1      31.890  31.451  25.802  1.00  0.00     0.163 HD
ATOM     28  O   UNL A   1      32.850  32.847  27.536  1.00  0.00    -0.269 OA
BRANCH  26  29
ATOM     29  C   UNL A   1      34.589  31.279  27.743  1.00  0.00     0.039 A 
ATOM     30  C   UNL A   1      35.645  32.172  27.933  1.00  0.00     0.014 A 
ATOM     31  C   UNL A   1      34.713  29.941  28.123  1.00  0.00     0.014 A 
ATOM     32  C   UNL A   1      36.809  31.734  28.565  1.00  0.00     0.010 A 
ATOM     33  C   UNL A   1      35.842  29.527  28.822  1.00  0.00     0.010 A 
ATOM     34  C   UNL A   1      36.904  30.416  29.044  1.00  0.00    -0.014 A 
BRANCH  34  35
ATOM     35  C   UNL A   1      38.104  29.949  29.781  1.00  0.00     0.031 A 
ATOM     36  C   UNL A   1      38.381  30.456  31.171  1.00  0.00     0.074 A 
ATOM     37  C   UNL A   1      38.988  29.138  29.169  1.00  0.00     0.049 A 
ATOM     38  N   UNL A   1      39.395  30.200  31.955  1.00  0.00    -0.248 NA
ATOM     39  C   UNL A   1      37.404  31.398  31.744  1.00  0.00     0.031 C 
ATOM     40  C   UNL A   1      38.876  28.648  27.793  1.00  0.00     0.029 A 
ATOM     41  N   UNL A   1      40.168  28.599  29.617  1.00  0.00    -0.354 N 
ATOM     42  C   UNL A   1      39.199  30.971  33.093  1.00  0.00     0.074 A 
ATOM     43  C   UNL A   1      37.991  31.738  32.882  1.00  0.00     0.031 C 
ATOM     44  C   UNL A   1      39.936  27.872  27.514  1.00  0.00     0.029 A 
ATOM     45  C   UNL A   1      40.816  27.829  28.677  1.00  0.00     0.049 A 
ATOM     46  H   UNL A   1      40.519  28.749  30.524  1.00  0.00     0.167 HD
ATOM     47  C   UNL A   1      39.937  31.013  34.229  1.00  0.00     0.034 A 
ATOM     48  C   UNL A   1      41.985  27.163  28.749  1.00  0.00     0.034 A 
ATOM     49  C   UNL A   1      41.110  30.213  34.454  1.00  0.00     0.049 A 
ATOM     50  C   UNL A   1      42.758  27.185  30.039  1.00  0.00     0.074 A 
ATOM     51  C   UNL A   1      41.878  30.115  35.599  1.00  0.00     0.029 A 
ATOM     52  N   UNL A   1      41.684  29.373  33.513  1.00  0.00    -0.354 N 
ATOM     53  N   UNL A   1      42.470  27.795  31.164  1.00  0.00    -0.248 NA
ATOM     54  C   UNL A   1      43.997  26.397  30.084  1.00  0.00     0.031 C 
ATOM     55  C   UNL A   1      42.929  29.227  35.345  1.00  0.00     0.029 A 
ATOM     56  C   UNL A   1      42.801  28.755  34.049  1.00  0.00     0.049 A 
ATOM     57  H   UNL A   1      41.348  29.236  32.598  1.00  0.00     0.167 HD
ATOM     58  C   UNL A   1      43.469  27.432  32.061  1.00  0.00     0.074 A 
ATOM     59  C   UNL A   1      44.359  26.534  31.353  1.00  0.00     0.031 C 
ATOM     60  C   UNL A   1      43.643  27.819  33.349  1.00  0.00     0.034 A 
BRANCH  47  61
ATOM     61  C   UNL A   1      39.455  31.911  35.340  1.00  0.00     0.023 A 
ATOM     62  C   UNL A   1      38.520  31.416  36.272  1.00  0.00     0.012 A 
ATOM     63  C   UNL A   1      39.953  33.219  35.489  1.00  0.00     0.148 A 
ATOM     64  C   UNL A   1      38.059  32.220  37.314  1.00  0.00     0.002 A 
ATOM     65  C   UNL A   1      39.523  34.001  36.557  1.00  0.00     0.091 A 
ATOM     66  F   UNL A   1      40.823  33.682  34.579  1.00  0.00    -0.205 F 
ATOM     67  C   UNL A   1      38.568  33.508  37.461  1.00  0.00     0.022 A 
BRANCH  65  68
ATOM     68  S   UNL A   1      40.177  35.642  36.878  1.00  0.00     0.127 S 
ATOM     69  O   UNL A   1      39.570  36.418  35.797  1.00  0.00    -0.237 OA
ATOM     70  O   UNL A   1      39.642  35.931  38.210  1.00  0.00    -0.237 OA
ATOM     71  O   UNL A   1      41.625  35.515  36.822  1.00  0.00    -0.744 OA
ENDBRANCH  65  68
ENDBRANCH  47  61
BRANCH  48  72
ATOM     72  C   UNL A   1      42.450  26.347  27.591  1.00  0.00     0.023 A 
ATOM     73  C   UNL A   1      43.310  26.930  26.641  1.00  0.00     0.012 A 
ATOM     74  C   UNL A   1      42.075  24.998  27.441  1.00  0.00     0.148 A 
ATOM     75  C   UNL A   1      43.761  26.197  25.543  1.00  0.00     0.002 A 
ATOM     76  C   UNL A   1      42.570  24.257  26.374  1.00  0.00     0.091 A 
ATOM     77  F   UNL A   1      41.247  24.464  28.351  1.00  0.00    -0.205 F 
ATOM     78  C   UNL A   1      43.400  24.859  25.415  1.00  0.00     0.022 A 
BRANCH  76  79
ATOM     79  S   UNL A   1      42.263  22.496  26.200  1.00  0.00     0.127 S 
ATOM     80  O   UNL A   1      40.808  22.455  26.091  1.00  0.00    -0.237 OA
ATOM     81  O   UNL A   1      42.983  22.185  24.964  1.00  0.00    -0.237 OA
ATOM     82  O   UNL A   1      42.828  21.880  27.392  1.00  0.00    -0.744 OA
ENDBRANCH  76  79
ENDBRANCH  48  72
BRANCH  60  83
ATOM     83  C   UNL A   1      44.819  27.247  34.096  1.00  0.00     0.023 A 
ATOM     84  C   UNL A   1      46.047  27.937  34.104  1.00  0.00     0.012 A 
ATOM     85  C   UNL A   1      44.684  26.065  34.851  1.00  0.00     0.148 A 
ATOM     86  C   UNL A   1      47.133  27.440  34.823  1.00  0.00     0.002 A 
ATOM     87  C   UNL A   1      45.756  25.603  35.605  1.00  0.00     0.091 A 
ATOM     88  F   UNL A   1      43.513  25.412  34.815  1.00  0.00    -0.205 F 
ATOM     89  C   UNL A   1      46.985  26.283  35.583  1.00  0.00     0.022 A 
BRANCH  87  90
ATOM     90  S   UNL A   1      45.624  24.176  36.688  1.00  0.00     0.127 S 
ATOM     91  O   UNL A   1      46.984  24.072  37.212  1.00  0.00    -0.237 OA
ATOM     92  O   UNL A   1      44.625  24.615  37.663  1.00  0.00    -0.237 OA
ATOM     93  O   UNL A   1      45.193  23.071  35.841  1.00  0.00    -0.744 OA
ENDBRANCH  87  90
ENDBRANCH  60  83
ENDBRANCH  34  35
ENDBRANCH  26  29
ENDBRANCH  24  25
ENDBRANCH  23  24
ENDBRANCH   1  23
TORSDOF 17
ENDMDL
MODEL 2
REMARK VINA RESULT:     -11.0      2.010      2.626
REMARK SMILES C[C@@H]1C[N@@H+](CC(C)(C)C(=O)NCCCCNC(=O)c2ccc(-c3c4nc(c(-c5cccc(S(=O)(=O)[O-])c5F)c5ccc([nH]5)c(-c5cccc(S(=O)(=O)[O-])c5F)c5nc(c(-c6cccc(S(=O)(=O)[O-])c6F)c6ccc3[nH]6)C=C5)C=C4)cc2)CC[C@@H]1[NH3+]
REMARK SMILES IDX 13 1 12 2 11 3 9 4 10 5 6 7 7 8 8 9 5 10 4 11 1 12 2 13 3 14
REMARK SMILES IDX 84 15 83 16 82 17 85 19 14 23 15 24 16 25 17 26 18 28 19 29
REMARK SMILES IDX 20 30 81 31 21 32 80 33 22 34 23 35 24 36 74 37 25 38 79 39
REMARK SMILES IDX 73 40 75 41 26 42 78 43 72 44 71 45 27 47 59 48 39 49 58 50
REMARK SMILES IDX 40 51 43 52 57 53 76 54 41 55 42 56 56 58 77 59 44 60 28 61
REMARK SMILES IDX 29 62 37 63 30 64 32 65 38 66 31 67 33 68 34 69 35 70 36 71
REMARK SMILES IDX 60 72 61 73 69 74 62 75 64 76 70 77 63 78 65 79 66 80 67 81
REMARK SMILES IDX 68 82 45 83 46 84 54 85 47 86 49 87 55 88 48 89 50 90 51 91
REMARK SMILES IDX 52 92 53 93
REMARK H PARENT 11 6 4 18 85 20 85 21 85 22 16 27 75 46 43 57
REMARK Flexibility Score: inf
ROOT
ATOM      1  C   UNL A   1      32.353  28.283  24.468  1.00  0.00     0.023 C 
ENDROOT
BRANCH   1   2
ATOM      2  C   UNL A   1      32.019  26.795  24.465  1.00  0.00     0.116 C 
BRANCH   2   3
ATOM      3  N   UNL A   1      31.041  26.487  25.485  1.00  0.00    -0.355 N 
ATOM      4  C   UNL A   1      30.589  25.306  25.973  1.00  0.00     0.231 C 
ATOM      5  O   UNL A   1      29.467  25.351  26.486  1.00  0.00    -0.274 OA
ATOM      6  H   UNL A   1      30.629  27.279  25.901  1.00  0.00     0.163 HD
BRANCH   4   7
ATOM      7  C   UNL A   1      31.354  23.976  25.825  1.00  0.00     0.092 C 
ATOM      8  C   UNL A   1      31.447  23.421  24.396  1.00  0.00     0.027 C 
ATOM      9  C   UNL A   1      30.581  22.953  26.691  1.00  0.00     0.027 C 
BRANCH   7  10
ATOM     10  C   UNL A   1      32.802  24.132  26.443  1.00  0.00     0.278 C 
BRANCH  10  11
ATOM     11  N   UNL A   1      34.015  23.501  25.865  1.00  0.00    -0.333 N 
ATOM     12  C   UNL A   1      35.194  20.783  24.875  1.00  0.00     0.020 C 
ATOM     13  C   UNL A   1      35.717  21.653  26.026  1.00  0.00     0.099 C 
ATOM     14  C   UNL A   1      34.567  22.426  26.701  1.00  0.00     0.271 C 
ATOM     15  C   UNL A   1      36.801  22.668  25.615  1.00  0.00     0.194 C 
ATOM     16  C   UNL A   1      36.210  23.737  24.694  1.00  0.00     0.126 C 
ATOM     17  C   UNL A   1      35.037  24.432  25.390  1.00  0.00     0.268 C 
ATOM     18  H   UNL A   1      33.670  23.057  25.014  1.00  0.00     0.348 HD
BRANCH  15  19
ATOM     19  N   UNL A   1      37.978  22.048  24.999  1.00  0.00    -0.355 N 
ATOM     20  H   UNL A   1      38.609  21.718  25.729  1.00  0.00     0.344 HD
ATOM     21  H   UNL A   1      38.459  22.735  24.419  1.00  0.00     0.344 HD
ATOM     22  H   UNL A   1      37.683  21.260  24.421  1.00  0.00     0.344 HD
ENDBRANCH  15  19
ENDBRANCH  10  11
ENDBRANCH   7  10
ENDBRANCH   4   7
ENDBRANCH   2   3
ENDBRANCH   1   2
BRANCH   1  23
ATOM     23  C   UNL A   1      33.712  28.632  25.075  1.00  0.00     0.023 C 
BRANCH  23  24
ATOM     24  C   UNL A   1      33.716  28.816  26.589  1.00  0.00     0.116 C 
BRANCH  24  25
ATOM     25  N   UNL A   1      33.683  30.216  26.987  1.00  0.00    -0.352 N 
ATOM     26  C   UNL A   1      34.583  30.919  27.753  1.00  0.00     0.251 C 
ATOM     27  H   UNL A   1      32.910  30.731  26.662  1.00  0.00     0.163 HD
ATOM     28  O   UNL A   1      34.330  32.063  28.106  1.00  0.00    -0.269 OA
BRANCH  26  29
ATOM     29  C   UNL A   1      35.844  30.267  28.164  1.00  0.00     0.039 A 
ATOM     30  C   UNL A   1      36.927  30.279  27.283  1.00  0.00     0.014 A 
ATOM     31  C   UNL A   1      35.960  29.678  29.425  1.00  0.00     0.014 A 
ATOM     32  C   UNL A   1      38.153  29.752  27.696  1.00  0.00     0.010 A 
ATOM     33  C   UNL A   1      37.200  29.226  29.861  1.00  0.00     0.010 A 
ATOM     34  C   UNL A   1      38.307  29.251  29.000  1.00  0.00    -0.014 A 
BRANCH  34  35
ATOM     35  C   UNL A   1      39.618  28.751  29.482  1.00  0.00     0.031 A 
ATOM     36  C   UNL A   1      40.340  29.471  30.589  1.00  0.00     0.074 A 
ATOM     37  C   UNL A   1      40.198  27.702  28.866  1.00  0.00     0.049 A 
ATOM     38  N   UNL A   1      41.509  29.214  31.114  1.00  0.00    -0.248 NA
ATOM     39  C   UNL A   1      39.673  30.653  31.162  1.00  0.00     0.031 C 
ATOM     40  C   UNL A   1      39.639  26.975  27.724  1.00  0.00     0.029 A 
ATOM     41  N   UNL A   1      41.398  27.078  29.100  1.00  0.00    -0.354 N 
ATOM     42  C   UNL A   1      41.734  30.216  32.050  1.00  0.00     0.074 A 
ATOM     43  C   UNL A   1      40.600  31.111  31.991  1.00  0.00     0.031 C 
ATOM     44  C   UNL A   1      40.488  25.998  27.366  1.00  0.00     0.029 A 
ATOM     45  C   UNL A   1      41.662  26.044  28.231  1.00  0.00     0.049 A 
ATOM     46  H   UNL A   1      42.013  27.346  29.820  1.00  0.00     0.167 HD
ATOM     47  C   UNL A   1      42.772  30.361  32.907  1.00  0.00     0.034 A 
ATOM     48  C   UNL A   1      42.728  25.225  28.146  1.00  0.00     0.034 A 
ATOM     49  C   UNL A   1      43.874  29.442  32.995  1.00  0.00     0.049 A 
ATOM     50  C   UNL A   1      43.844  25.376  29.143  1.00  0.00     0.074 A 
ATOM     51  C   UNL A   1      44.932  29.449  33.887  1.00  0.00     0.029 A 
ATOM     52  N   UNL A   1      44.061  28.351  32.161  1.00  0.00    -0.354 N 
ATOM     53  N   UNL A   1      43.961  26.233  30.128  1.00  0.00    -0.248 NA
ATOM     54  C   UNL A   1      44.957  24.421  29.043  1.00  0.00     0.031 C 
ATOM     55  C   UNL A   1      45.768  28.369  33.581  1.00  0.00     0.029 A 
ATOM     56  C   UNL A   1      45.218  27.678  32.513  1.00  0.00     0.049 A 
ATOM     57  H   UNL A   1      43.459  28.092  31.427  1.00  0.00     0.167 HD
ATOM     58  C   UNL A   1      45.138  25.898  30.788  1.00  0.00     0.074 A 
ATOM     59  C   UNL A   1      45.687  24.746  30.102  1.00  0.00     0.031 C 
ATOM     60  C   UNL A   1      45.720  26.498  31.856  1.00  0.00     0.034 A 
BRANCH  47  61
ATOM     61  C   UNL A   1      42.730  31.526  33.862  1.00  0.00     0.023 A 
ATOM     62  C   UNL A   1      43.182  32.790  33.432  1.00  0.00     0.012 A 
ATOM     63  C   UNL A   1      42.208  31.386  35.162  1.00  0.00     0.148 A 
ATOM     64  C   UNL A   1      43.152  33.888  34.290  1.00  0.00     0.002 A 
ATOM     65  C   UNL A   1      42.138  32.496  35.998  1.00  0.00     0.091 A 
ATOM     66  F   UNL A   1      41.804  30.172  35.563  1.00  0.00    -0.205 F 
ATOM     67  C   UNL A   1      42.621  33.743  35.569  1.00  0.00     0.022 A 
BRANCH  65  68
ATOM     68  S   UNL A   1      41.399  32.429  37.634  1.00  0.00     0.127 S 
ATOM     69  O   UNL A   1      40.041  31.982  37.326  1.00  0.00    -0.237 OA
ATOM     70  O   UNL A   1      42.231  31.431  38.307  1.00  0.00    -0.237 OA
ATOM     71  O   UNL A   1      41.508  33.775  38.177  1.00  0.00    -0.744 OA
ENDBRANCH  65  68
ENDBRANCH  47  61
BRANCH  48  72
ATOM     72  C   UNL A   1      42.749  24.132  27.133  1.00  0.00     0.023 A 
ATOM     73  C   UNL A   1      43.479  24.313  25.942  1.00  0.00     0.012 A 
ATOM     74  C   UNL A   1      42.081  22.911  27.350  1.00  0.00     0.148 A 
ATOM     75  C   UNL A   1      43.517  23.313  24.970  1.00  0.00     0.002 A 
ATOM     76  C   UNL A   1      42.167  21.898  26.401  1.00  0.00     0.091 A 
ATOM     77  F   UNL A   1      41.383  22.762  28.485  1.00  0.00    -0.205 F 
ATOM     78  C   UNL A   1      42.870  22.103  25.203  1.00  0.00     0.022 A 
BRANCH  76  79
ATOM     79  S   UNL A   1      41.474  20.263  26.673  1.00  0.00     0.127 S 
ATOM     80  O   UNL A   1      40.048  20.555  26.774  1.00  0.00    -0.237 OA
ATOM     81  O   UNL A   1      41.876  19.559  25.455  1.00  0.00    -0.237 OA
ATOM     82  O   UNL A   1      42.108  19.766  27.887  1.00  0.00    -0.744 OA
ENDBRANCH  76  79
ENDBRANCH  48  72
BRANCH  60  83
ATOM     83  C   UNL A   1      47.000  25.902  32.378  1.00  0.00     0.023 A 
ATOM     84  C   UNL A   1      48.238  26.335  31.862  1.00  0.00     0.012 A 
ATOM     85  C   UNL A   1      46.980  24.968  33.433  1.00  0.00     0.148 A 
ATOM     86  C   UNL A   1      49.433  25.822  32.362  1.00  0.00     0.002 A 
ATOM     87  C   UNL A   1      48.177  24.498  33.961  1.00  0.00     0.091 A 
ATOM     88  F   UNL A   1      45.793  24.553  33.899  1.00  0.00    -0.205 F 
ATOM     89  C   UNL A   1      49.404  24.915  33.419  1.00  0.00     0.022 A 
BRANCH  87  90
ATOM     90  S   UNL A   1      48.234  23.404  35.384  1.00  0.00     0.127 S 
ATOM     91  O   UNL A   1      49.668  23.358  35.668  1.00  0.00    -0.237 OA
ATOM     92  O   UNL A   1      47.439  24.133  36.372  1.00  0.00    -0.237 OA
ATOM     93  O   UNL A   1      47.643  22.146  34.945  1.00  0.00    -0.744 OA
ENDBRANCH  87  90
ENDBRANCH  60  83
ENDBRANCH  34  35
ENDBRANCH  26  29
ENDBRANCH  24  25
ENDBRANCH  23  24
ENDBRANCH   1  23
TORSDOF 17
ENDMDL
MODEL 3
REMARK VINA RESULT:     -10.9      4.579      9.704
REMARK SMILES C[C@@H]1C[N@@H+](CC(C)(C)C(=O)NCCCCNC(=O)c2ccc(-c3c4nc(c(-c5cccc(S(=O)(=O)[O-])c5F)c5ccc([nH]5)c(-c5cccc(S(=O)(=O)[O-])c5F)c5nc(c(-c6cccc(S(=O)(=O)[O-])c6F)c6ccc3[nH]6)C=C5)C=C4)cc2)CC[C@@H]1[NH3+]
REMARK SMILES IDX 13 1 12 2 11 3 9 4 10 5 6 7 7 8 8 9 5 10 4 11 1 12 2 13 3 14
REMARK SMILES IDX 84 15 83 16 82 17 85 19 14 23 15 24 16 25 17 26 18 28 19 29
REMARK SMILES IDX 20 30 81 31 21 32 80 33 22 34 23 35 24 36 74 37 25 38 79 39
REMARK SMILES IDX 73 40 75 41 26 42 78 43 72 44 71 45 27 47 59 48 39 49 58 50
REMARK SMILES IDX 40 51 43 52 57 53 76 54 41 55 42 56 56 58 77 59 44 60 28 61
REMARK SMILES IDX 29 62 37 63 30 64 32 65 38 66 31 67 33 68 34 69 35 70 36 71
REMARK SMILES IDX 60 72 61 73 69 74 62 75 64 76 70 77 63 78 65 79 66 80 67 81
REMARK SMILES IDX 68 82 45 83 46 84 54 85 47 86 49 87 55 88 48 89 50 90 51 91
REMARK SMILES IDX 52 92 53 93
REMARK H PARENT 11 6 4 18 85 20 85 21 85 22 16 27 75 46 43 57
REMARK Flexibility Score: inf
ROOT
ATOM      1  C   UNL A   1      35.071  22.357  24.481  1.00  0.00     0.023 C 
ENDROOT
BRANCH   1   2
ATOM      2  C   UNL A   1      33.853  22.499  23.573  1.00  0.00     0.116 C 
BRANCH   2   3
ATOM      3  N   UNL A   1      33.928  23.721  22.803  1.00  0.00    -0.355 N 
ATOM      4  C   UNL A   1      33.000  24.669  22.525  1.00  0.00     0.231 C 
ATOM      5  O   UNL A   1      33.220  25.328  21.504  1.00  0.00    -0.274 OA
ATOM      6  H   UNL A   1      34.813  23.896  22.410  1.00  0.00     0.163 HD
BRANCH   4   7
ATOM      7  C   UNL A   1      31.712  24.867  23.349  1.00  0.00     0.092 C 
ATOM      8  C   UNL A   1      30.692  23.722  23.267  1.00  0.00     0.027 C 
ATOM      9  C   UNL A   1      31.050  26.145  22.784  1.00  0.00     0.027 C 
BRANCH   7  10
ATOM     10  C   UNL A   1      32.093  25.149  24.858  1.00  0.00     0.278 C 
BRANCH  10  11
ATOM     11  N   UNL A   1      32.270  26.513  25.421  1.00  0.00    -0.333 N 
ATOM     12  C   UNL A   1      33.185  29.414  24.713  1.00  0.00     0.020 C 
ATOM     13  C   UNL A   1      33.807  28.477  25.757  1.00  0.00     0.099 C 
ATOM     14  C   UNL A   1      33.653  27.001  25.338  1.00  0.00     0.271 C 
ATOM     15  C   UNL A   1      33.231  28.636  27.178  1.00  0.00     0.194 C 
ATOM     16  C   UNL A   1      31.772  28.178  27.216  1.00  0.00     0.126 C 
ATOM     17  C   UNL A   1      31.668  26.728  26.735  1.00  0.00     0.268 C 
ATOM     18  H   UNL A   1      31.718  27.101  24.796  1.00  0.00     0.348 HD
BRANCH  15  19
ATOM     19  N   UNL A   1      33.362  29.993  27.713  1.00  0.00    -0.355 N 
ATOM     20  H   UNL A   1      33.437  29.952  28.729  1.00  0.00     0.344 HD
ATOM     21  H   UNL A   1      32.542  30.541  27.454  1.00  0.00     0.344 HD
ATOM     22  H   UNL A   1      34.199  30.431  27.327  1.00  0.00     0.344 HD
ENDBRANCH  15  19
ENDBRANCH  10  11
ENDBRANCH   7  10
ENDBRANCH   4   7
ENDBRANCH   2   3
ENDBRANCH   1   2
BRANCH   1  23
ATOM     23  C   UNL A   1      35.814  23.663  24.763  1.00  0.00     0.023 C 
BRANCH  23  24
ATOM     24  C   UNL A   1      36.676  23.657  26.020  1.00  0.00     0.116 C 
BRANCH  24  25
ATOM     25  N   UNL A   1      37.660  22.584  26.024  1.00  0.00    -0.352 N 
ATOM     26  C   UNL A   1      39.007  22.646  26.298  1.00  0.00     0.251 C 
ATOM     27  H   UNL A   1      37.314  21.690  25.798  1.00  0.00     0.163 HD
ATOM     28  O   UNL A   1      39.717  21.665  26.121  1.00  0.00    -0.269 OA
BRANCH  26  29
ATOM     29  C   UNL A   1      39.585  23.916  26.784  1.00  0.00     0.039 A 
ATOM     30  C   UNL A   1      40.029  24.855  25.851  1.00  0.00     0.014 A 
ATOM     31  C   UNL A   1      39.656  24.186  28.152  1.00  0.00     0.014 A 
ATOM     32  C   UNL A   1      40.489  26.097  26.292  1.00  0.00     0.010 A 
ATOM     33  C   UNL A   1      40.040  25.451  28.584  1.00  0.00     0.010 A 
ATOM     34  C   UNL A   1      40.467  26.416  27.661  1.00  0.00    -0.014 A 
BRANCH  34  35
ATOM     35  C   UNL A   1      40.885  27.755  28.145  1.00  0.00     0.031 A 
ATOM     36  C   UNL A   1      42.343  28.123  28.179  1.00  0.00     0.074 A 
ATOM     37  C   UNL A   1      39.960  28.606  28.633  1.00  0.00     0.049 A 
ATOM     38  N   UNL A   1      42.906  29.223  28.607  1.00  0.00    -0.248 NA
ATOM     39  C   UNL A   1      43.299  27.112  27.697  1.00  0.00     0.031 C 
ATOM     40  C   UNL A   1      38.525  28.330  28.734  1.00  0.00     0.029 A 
ATOM     41  N   UNL A   1      40.093  29.868  29.156  1.00  0.00    -0.354 N 
ATOM     42  C   UNL A   1      44.275  29.024  28.479  1.00  0.00     0.074 A 
ATOM     43  C   UNL A   1      44.462  27.682  27.974  1.00  0.00     0.031 C 
ATOM     44  C   UNL A   1      37.910  29.394  29.273  1.00  0.00     0.029 A 
ATOM     45  C   UNL A   1      38.905  30.417  29.581  1.00  0.00     0.049 A 
ATOM     46  H   UNL A   1      40.956  30.336  29.222  1.00  0.00     0.167 HD
ATOM     47  C   UNL A   1      45.286  29.891  28.726  1.00  0.00     0.034 A 
ATOM     48  C   UNL A   1      38.648  31.610  30.151  1.00  0.00     0.034 A 
ATOM     49  C   UNL A   1      45.094  31.240  29.182  1.00  0.00     0.049 A 
ATOM     50  C   UNL A   1      39.784  32.574  30.366  1.00  0.00     0.074 A 
ATOM     51  C   UNL A   1      46.043  32.226  29.378  1.00  0.00     0.029 A 
ATOM     52  N   UNL A   1      43.867  31.794  29.513  1.00  0.00    -0.354 N 
ATOM     53  N   UNL A   1      41.057  32.426  30.087  1.00  0.00    -0.248 NA
ATOM     54  C   UNL A   1      39.444  33.884  30.939  1.00  0.00     0.031 C 
ATOM     55  C   UNL A   1      45.391  33.373  29.844  1.00  0.00     0.029 A 
ATOM     56  C   UNL A   1      44.033  33.107  29.917  1.00  0.00     0.049 A 
ATOM     57  H   UNL A   1      43.004  31.322  29.468  1.00  0.00     0.167 HD
ATOM     58  C   UNL A   1      41.661  33.635  30.412  1.00  0.00     0.074 A 
ATOM     59  C   UNL A   1      40.611  34.511  30.890  1.00  0.00     0.031 C 
ATOM     60  C   UNL A   1      42.969  33.984  30.335  1.00  0.00     0.034 A 
BRANCH  47  61
ATOM     61  C   UNL A   1      46.690  29.421  28.443  1.00  0.00     0.023 A 
ATOM     62  C   UNL A   1      47.256  29.655  27.173  1.00  0.00     0.012 A 
ATOM     63  C   UNL A   1      47.463  28.791  29.437  1.00  0.00     0.148 A 
ATOM     64  C   UNL A   1      48.554  29.237  26.883  1.00  0.00     0.002 A 
ATOM     65  C   UNL A   1      48.773  28.418  29.156  1.00  0.00     0.091 A 
ATOM     66  F   UNL A   1      46.902  28.555  30.632  1.00  0.00    -0.205 F 
ATOM     67  C   UNL A   1      49.315  28.627  27.877  1.00  0.00     0.022 A 
BRANCH  65  68
ATOM     68  S   UNL A   1      49.861  27.697  30.390  1.00  0.00     0.127 S 
ATOM     69  O   UNL A   1      49.860  28.733  31.423  1.00  0.00    -0.237 OA
ATOM     70  O   UNL A   1      49.145  26.474  30.754  1.00  0.00    -0.237 OA
ATOM     71  O   UNL A   1      51.135  27.478  29.723  1.00  0.00    -0.744 OA
ENDBRANCH  65  68
ENDBRANCH  47  61
BRANCH  48  72
ATOM     72  C   UNL A   1      37.246  31.995  30.477  1.00  0.00     0.023 A 
ATOM     73  C   UNL A   1      36.744  31.738  31.768  1.00  0.00     0.012 A 
ATOM     74  C   UNL A   1      36.419  32.637  29.535  1.00  0.00     0.148 A 
ATOM     75  C   UNL A   1      35.435  32.080  32.105  1.00  0.00     0.002 A 
ATOM     76  C   UNL A   1      35.133  33.025  29.894  1.00  0.00     0.091 A 
ATOM     77  F   UNL A   1      36.911  32.864  28.308  1.00  0.00    -0.205 F 
ATOM     78  C   UNL A   1      34.633  32.732  31.173  1.00  0.00     0.022 A 
BRANCH  76  79
ATOM     79  S   UNL A   1      34.075  33.982  28.802  1.00  0.00     0.127 S 
ATOM     80  O   UNL A   1      33.625  32.966  27.855  1.00  0.00    -0.237 OA
ATOM     81  O   UNL A   1      33.047  34.465  29.725  1.00  0.00    -0.237 OA
ATOM     82  O   UNL A   1      34.925  35.030  28.254  1.00  0.00    -0.744 OA
ENDBRANCH  76  79
ENDBRANCH  48  72
BRANCH  60  83
ATOM     83  C   UNL A   1      43.342  35.385  30.742  1.00  0.00     0.023 A 
ATOM     84  C   UNL A   1      43.728  35.650  32.071  1.00  0.00     0.012 A 
ATOM     85  C   UNL A   1      43.381  36.423  29.791  1.00  0.00     0.148 A 
ATOM     86  C   UNL A   1      44.113  36.933  32.454  1.00  0.00     0.002 A 
ATOM     87  C   UNL A   1      43.814  37.689  30.168  1.00  0.00     0.091 A 
ATOM     88  F   UNL A   1      42.992  36.157  28.535  1.00  0.00    -0.205 F 
ATOM     89  C   UNL A   1      44.170  37.949  31.503  1.00  0.00     0.022 A 
BRANCH  87  90
ATOM     90  S   UNL A   1      44.010  39.029  28.988  1.00  0.00     0.127 S 
ATOM     91  O   UNL A   1      45.128  38.552  28.178  1.00  0.00    -0.237 OA
ATOM     92  O   UNL A   1      42.717  39.034  28.303  1.00  0.00    -0.237 OA
ATOM     93  O   UNL A   1      44.275  40.223  29.781  1.00  0.00    -0.744 OA
ENDBRANCH  87  90
ENDBRANCH  60  83
ENDBRANCH  34  35
ENDBRANCH  26  29
ENDBRANCH  24  25
ENDBRANCH  23  24
ENDBRANCH   1  23
TORSDOF 17
ENDMDL
