MODEL 1
REMARK VINA RESULT:     -11.3      0.000      0.000
REMARK SMILES CCn1nccc1[C@H](F)C(=O)NCCCCNC(=O)c1ccc(-c2c3nc(c(-c4cccc(S(=O)(=O)[O-])c4F)c4ccc([nH]4)c(-c4cccc(S(=O)(=O)[O-])c4F)c4nc(c(-c5cccc(S(=O)(=O)[O-])c5F)c5ccc2[nH]5)C=C4)C=C3)cc1
REMARK SMILES IDX 15 1 14 2 13 3 12 4 10 5 11 6 8 8 9 9 7 10 3 11 4 12 5 13
REMARK SMILES IDX 6 14 2 15 1 16 16 17 17 18 18 19 19 21 20 22 21 23 82 24
REMARK SMILES IDX 22 25 81 26 23 27 24 28 25 29 75 30 26 31 80 32 74 33 76 34
REMARK SMILES IDX 27 35 79 36 73 37 72 38 28 40 60 41 40 42 59 43 41 44 44 45
REMARK SMILES IDX 58 46 77 47 42 48 43 49 57 51 78 52 45 53 29 54 30 55 38 56
REMARK SMILES IDX 31 57 33 58 39 59 32 60 34 61 35 62 36 63 37 64 61 65 62 66
REMARK SMILES IDX 70 67 63 68 65 69 71 70 64 71 66 72 67 73 68 74 69 75 46 76
REMARK SMILES IDX 47 77 55 78 48 79 50 80 56 81 49 82 51 83 52 84 53 85 54 86
REMARK H PARENT 12 7 17 20 76 39 44 50
REMARK Flexibility Score: inf
ROOT
ATOM      1  C   UNL A   1      38.014  19.957  24.683  1.00  0.00     0.023 C 
ENDROOT
BRANCH   1   2
ATOM      2  C   UNL A   1      37.005  21.088  24.459  1.00  0.00     0.023 C 
BRANCH   2   3
ATOM      3  C   UNL A   1      36.706  21.996  25.656  1.00  0.00     0.116 C 
BRANCH   3   4
ATOM      4  N   UNL A   1      35.713  21.457  26.563  1.00  0.00    -0.353 N 
ATOM      5  C   UNL A   1      34.345  21.521  26.478  1.00  0.00     0.260 C 
ATOM      6  O   UNL A   1      33.688  21.017  27.394  1.00  0.00    -0.271 OA
ATOM      7  H   UNL A   1      36.068  20.981  27.348  1.00  0.00     0.163 HD
BRANCH   5   8
ATOM      8  C   UNL A   1      33.640  22.255  25.326  1.00  0.00     0.303 C 
ATOM      9  F   UNL A   1      33.193  21.357  24.388  1.00  0.00    -0.230 F 
BRANCH   8  10
ATOM     10  C   UNL A   1      32.502  23.113  25.780  1.00  0.00     0.082 A 
ATOM     11  N   UNL A   1      32.595  24.452  26.098  1.00  0.00    -0.266 N 
ATOM     12  N   UNL A   1      31.417  24.953  26.538  1.00  0.00    -0.181 NA
ATOM     13  C   UNL A   1      30.566  23.935  26.466  1.00  0.00     0.135 A 
ATOM     14  C   UNL A   1      31.169  22.783  25.953  1.00  0.00     0.049 A 
BRANCH  11  15
ATOM     15  C   UNL A   1      33.750  25.328  25.937  1.00  0.00     0.141 C 
ATOM     16  C   UNL A   1      33.438  26.814  26.012  1.00  0.00     0.029 C 
ENDBRANCH  11  15
ENDBRANCH   8  10
ENDBRANCH   5   8
ENDBRANCH   3   4
ENDBRANCH   2   3
ENDBRANCH   1   2
BRANCH   1  17
ATOM     17  C   UNL A   1      39.029  20.227  25.781  1.00  0.00     0.116 C 
BRANCH  17  18
ATOM     18  N   UNL A   1      40.079  19.202  25.887  1.00  0.00    -0.352 N 
ATOM     19  C   UNL A   1      41.448  19.408  26.028  1.00  0.00     0.251 C 
ATOM     20  H   UNL A   1      39.778  18.266  25.855  1.00  0.00     0.163 HD
ATOM     21  O   UNL A   1      42.257  18.538  25.759  1.00  0.00    -0.269 OA
BRANCH  19  22
ATOM     22  C   UNL A   1      41.886  20.715  26.550  1.00  0.00     0.039 A 
ATOM     23  C   UNL A   1      42.481  21.702  25.757  1.00  0.00     0.014 A 
ATOM     24  C   UNL A   1      41.602  20.949  27.887  1.00  0.00     0.014 A 
ATOM     25  C   UNL A   1      42.717  22.954  26.326  1.00  0.00     0.010 A 
ATOM     26  C   UNL A   1      41.581  22.229  28.346  1.00  0.00     0.010 A 
ATOM     27  C   UNL A   1      42.250  23.203  27.624  1.00  0.00    -0.014 A 
BRANCH  27  28
ATOM     28  C   UNL A   1      42.366  24.498  28.274  1.00  0.00     0.031 A 
ATOM     29  C   UNL A   1      41.186  25.379  28.087  1.00  0.00     0.074 A 
ATOM     30  C   UNL A   1      43.331  24.730  29.195  1.00  0.00     0.049 A 
ATOM     31  N   UNL A   1      41.130  26.473  27.403  1.00  0.00    -0.248 NA
ATOM     32  C   UNL A   1      39.875  24.914  28.569  1.00  0.00     0.031 C 
ATOM     33  C   UNL A   1      44.341  23.795  29.721  1.00  0.00     0.029 A 
ATOM     34  N   UNL A   1      43.499  25.810  29.998  1.00  0.00    -0.354 N 
ATOM     35  C   UNL A   1      39.843  26.968  27.601  1.00  0.00     0.074 A 
ATOM     36  C   UNL A   1      39.065  25.866  28.099  1.00  0.00     0.031 C 
ATOM     37  C   UNL A   1      44.786  24.237  30.918  1.00  0.00     0.029 A 
ATOM     38  C   UNL A   1      44.237  25.558  31.153  1.00  0.00     0.049 A 
ATOM     39  H   UNL A   1      43.130  26.697  29.784  1.00  0.00     0.167 HD
ATOM     40  C   UNL A   1      39.603  28.310  27.617  1.00  0.00     0.034 A 
ATOM     41  C   UNL A   1      44.323  26.358  32.246  1.00  0.00     0.034 A 
ATOM     42  C   UNL A   1      40.742  29.047  27.122  1.00  0.00     0.049 A 
ATOM     43  C   UNL A   1      43.910  27.716  31.813  1.00  0.00     0.074 A 
ATOM     44  C   UNL A   1      41.486  29.023  25.957  1.00  0.00     0.029 A 
ATOM     45  N   UNL A   1      41.535  29.669  28.058  1.00  0.00    -0.354 N 
ATOM     46  N   UNL A   1      44.584  28.422  30.945  1.00  0.00    -0.248 NA
ATOM     47  C   UNL A   1      42.504  28.066  31.953  1.00  0.00     0.031 C 
ATOM     48  C   UNL A   1      42.838  29.143  26.393  1.00  0.00     0.029 A 
ATOM     49  C   UNL A   1      42.833  29.334  27.777  1.00  0.00     0.049 A 
ATOM     50  H   UNL A   1      41.227  30.247  28.794  1.00  0.00     0.167 HD
ATOM     51  C   UNL A   1      43.611  28.956  30.110  1.00  0.00     0.074 A 
ATOM     52  C   UNL A   1      42.349  28.783  30.835  1.00  0.00     0.031 C 
ATOM     53  C   UNL A   1      43.859  29.191  28.786  1.00  0.00     0.034 A 
BRANCH  40  54
ATOM     54  C   UNL A   1      38.534  29.000  28.433  1.00  0.00     0.023 A 
ATOM     55  C   UNL A   1      37.713  29.929  27.753  1.00  0.00     0.012 A 
ATOM     56  C   UNL A   1      38.477  29.012  29.845  1.00  0.00     0.148 A 
ATOM     57  C   UNL A   1      36.936  30.866  28.441  1.00  0.00     0.002 A 
ATOM     58  C   UNL A   1      37.643  29.894  30.524  1.00  0.00     0.091 A 
ATOM     59  F   UNL A   1      39.324  28.268  30.559  1.00  0.00    -0.205 F 
ATOM     60  C   UNL A   1      36.898  30.847  29.829  1.00  0.00     0.022 A 
BRANCH  58  61
ATOM     61  S   UNL A   1      37.524  29.886  32.318  1.00  0.00     0.127 S 
ATOM     62  O   UNL A   1      36.422  30.818  32.540  1.00  0.00    -0.237 OA
ATOM     63  O   UNL A   1      37.215  28.482  32.588  1.00  0.00    -0.237 OA
ATOM     64  O   UNL A   1      38.831  30.314  32.799  1.00  0.00    -0.744 OA
ENDBRANCH  58  61
ENDBRANCH  40  54
BRANCH  41  65
ATOM     65  C   UNL A   1      44.453  25.989  33.678  1.00  0.00     0.023 A 
ATOM     66  C   UNL A   1      45.731  25.858  34.259  1.00  0.00     0.012 A 
ATOM     67  C   UNL A   1      43.336  26.036  34.543  1.00  0.00     0.148 A 
ATOM     68  C   UNL A   1      45.893  25.802  35.651  1.00  0.00     0.002 A 
ATOM     69  C   UNL A   1      43.502  25.981  35.925  1.00  0.00     0.091 A 
ATOM     70  F   UNL A   1      42.120  26.234  34.017  1.00  0.00    -0.205 F 
ATOM     71  C   UNL A   1      44.780  25.870  36.485  1.00  0.00     0.022 A 
BRANCH  69  72
ATOM     72  S   UNL A   1      42.113  26.110  37.056  1.00  0.00     0.127 S 
ATOM     73  O   UNL A   1      41.442  24.823  36.869  1.00  0.00    -0.237 OA
ATOM     74  O   UNL A   1      42.778  26.270  38.346  1.00  0.00    -0.237 OA
ATOM     75  O   UNL A   1      41.337  27.258  36.602  1.00  0.00    -0.744 OA
ENDBRANCH  69  72
ENDBRANCH  41  65
BRANCH  53  76
ATOM     76  C   UNL A   1      45.273  29.052  28.275  1.00  0.00     0.023 A 
ATOM     77  C   UNL A   1      45.778  27.844  27.749  1.00  0.00     0.012 A 
ATOM     78  C   UNL A   1      46.040  30.221  28.134  1.00  0.00     0.148 A 
ATOM     79  C   UNL A   1      47.023  27.799  27.112  1.00  0.00     0.002 A 
ATOM     80  C   UNL A   1      47.255  30.183  27.462  1.00  0.00     0.091 A 
ATOM     81  F   UNL A   1      45.544  31.365  28.630  1.00  0.00    -0.205 F 
ATOM     82  C   UNL A   1      47.755  28.972  26.956  1.00  0.00     0.022 A 
BRANCH  80  83
ATOM     83  S   UNL A   1      48.181  31.681  27.120  1.00  0.00     0.127 S 
ATOM     84  O   UNL A   1      49.408  31.151  26.529  1.00  0.00    -0.237 OA
ATOM     85  O   UNL A   1      47.304  32.386  26.183  1.00  0.00    -0.237 OA
ATOM     86  O   UNL A   1      48.343  32.354  28.403  1.00  0.00    -0.744 OA
ENDBRANCH  80  83
ENDBRANCH  53  76
ENDBRANCH  27  28
ENDBRANCH  19  22
ENDBRANCH  17  18
ENDBRANCH   1  17
TORSDOF 16
ENDMDL
MODEL 2
REMARK VINA RESULT:     -11.3      1.795      2.211
REMARK SMILES CCn1nccc1[C@H](F)C(=O)NCCCCNC(=O)c1ccc(-c2c3nc(c(-c4cccc(S(=O)(=O)[O-])c4F)c4ccc([nH]4)c(-c4cccc(S(=O)(=O)[O-])c4F)c4nc(c(-c5cccc(S(=O)(=O)[O-])c5F)c5ccc2[nH]5)C=C4)C=C3)cc1
REMARK SMILES IDX 15 1 14 2 13 3 12 4 10 5 11 6 8 8 9 9 7 10 3 11 4 12 5 13
REMARK SMILES IDX 6 14 2 15 1 16 16 17 17 18 18 19 19 21 20 22 21 23 82 24
REMARK SMILES IDX 22 25 81 26 23 27 24 28 25 29 75 30 26 31 80 32 74 33 76 34
REMARK SMILES IDX 27 35 79 36 73 37 72 38 28 40 60 41 40 42 59 43 41 44 44 45
REMARK SMILES IDX 58 46 77 47 42 48 43 49 57 51 78 52 45 53 29 54 30 55 38 56
REMARK SMILES IDX 31 57 33 58 39 59 32 60 34 61 35 62 36 63 37 64 61 65 62 66
REMARK SMILES IDX 70 67 63 68 65 69 71 70 64 71 66 72 67 73 68 74 69 75 46 76
REMARK SMILES IDX 47 77 55 78 48 79 50 80 56 81 49 82 51 83 52 84 53 85 54 86
REMARK H PARENT 12 7 17 20 76 39 44 50
REMARK Flexibility Score: inf
ROOT
ATOM      1  C   UNL A   1      37.916  19.692  25.008  1.00  0.00     0.023 C 
ENDROOT
BRANCH   1   2
ATOM      2  C   UNL A   1      36.781  20.720  24.947  1.00  0.00     0.023 C 
BRANCH   2   3
ATOM      3  C   UNL A   1      37.176  22.172  24.660  1.00  0.00     0.116 C 
BRANCH   3   4
ATOM      4  N   UNL A   1      36.406  22.788  23.599  1.00  0.00    -0.353 N 
ATOM      5  C   UNL A   1      35.278  23.562  23.693  1.00  0.00     0.260 C 
ATOM      6  O   UNL A   1      34.762  23.956  22.642  1.00  0.00    -0.271 OA
ATOM      7  H   UNL A   1      36.737  22.629  22.686  1.00  0.00     0.163 HD
BRANCH   5   8
ATOM      8  C   UNL A   1      34.623  23.876  25.048  1.00  0.00     0.303 C 
ATOM      9  F   UNL A   1      35.015  25.115  25.494  1.00  0.00    -0.230 F 
BRANCH   8  10
ATOM     10  C   UNL A   1      33.129  23.806  25.014  1.00  0.00     0.082 A 
ATOM     11  N   UNL A   1      32.385  22.654  25.171  1.00  0.00    -0.266 N 
ATOM     12  N   UNL A   1      31.059  22.884  25.030  1.00  0.00    -0.181 NA
ATOM     13  C   UNL A   1      30.960  24.192  24.817  1.00  0.00     0.135 A 
ATOM     14  C   UNL A   1      32.206  24.823  24.849  1.00  0.00     0.049 A 
BRANCH  11  15
ATOM     15  C   UNL A   1      32.866  21.325  25.528  1.00  0.00     0.141 C 
ATOM     16  C   UNL A   1      32.634  20.258  24.468  1.00  0.00     0.029 C 
ENDBRANCH  11  15
ENDBRANCH   8  10
ENDBRANCH   5   8
ENDBRANCH   3   4
ENDBRANCH   2   3
ENDBRANCH   1   2
BRANCH   1  17
ATOM     17  C   UNL A   1      39.190  20.199  25.662  1.00  0.00     0.116 C 
BRANCH  17  18
ATOM     18  N   UNL A   1      40.221  19.166  25.839  1.00  0.00    -0.352 N 
ATOM     19  C   UNL A   1      41.582  19.359  26.051  1.00  0.00     0.251 C 
ATOM     20  H   UNL A   1      39.912  18.232  25.804  1.00  0.00     0.163 HD
ATOM     21  O   UNL A   1      42.395  18.477  25.838  1.00  0.00    -0.269 OA
BRANCH  19  22
ATOM     22  C   UNL A   1      42.007  20.670  26.576  1.00  0.00     0.039 A 
ATOM     23  C   UNL A   1      42.623  21.652  25.794  1.00  0.00     0.014 A 
ATOM     24  C   UNL A   1      41.686  20.912  27.904  1.00  0.00     0.014 A 
ATOM     25  C   UNL A   1      42.844  22.907  26.361  1.00  0.00     0.010 A 
ATOM     26  C   UNL A   1      41.652  22.195  28.353  1.00  0.00     0.010 A 
ATOM     27  C   UNL A   1      42.342  23.164  27.645  1.00  0.00    -0.014 A 
BRANCH  27  28
ATOM     28  C   UNL A   1      42.441  24.463  28.289  1.00  0.00     0.031 A 
ATOM     29  C   UNL A   1      41.252  25.330  28.092  1.00  0.00     0.074 A 
ATOM     30  C   UNL A   1      43.398  24.710  29.215  1.00  0.00     0.049 A 
ATOM     31  N   UNL A   1      41.187  26.420  27.403  1.00  0.00    -0.248 NA
ATOM     32  C   UNL A   1      39.943  24.853  28.569  1.00  0.00     0.031 C 
ATOM     33  C   UNL A   1      44.415  23.787  29.750  1.00  0.00     0.029 A 
ATOM     34  N   UNL A   1      43.550  25.795  30.013  1.00  0.00    -0.354 N 
ATOM     35  C   UNL A   1      39.895  26.903  27.592  1.00  0.00     0.074 A 
ATOM     36  C   UNL A   1      39.126  25.794  28.091  1.00  0.00     0.031 C 
ATOM     37  C   UNL A   1      44.849  24.240  30.947  1.00  0.00     0.029 A 
ATOM     38  C   UNL A   1      44.285  25.556  31.173  1.00  0.00     0.049 A 
ATOM     39  H   UNL A   1      43.173  26.676  29.793  1.00  0.00     0.167 HD
ATOM     40  C   UNL A   1      39.640  28.242  27.601  1.00  0.00     0.034 A 
ATOM     41  C   UNL A   1      44.356  26.362  32.263  1.00  0.00     0.034 A 
ATOM     42  C   UNL A   1      40.773  28.989  27.109  1.00  0.00     0.049 A 
ATOM     43  C   UNL A   1      43.930  27.713  31.822  1.00  0.00     0.074 A 
ATOM     44  C   UNL A   1      41.524  28.968  25.948  1.00  0.00     0.029 A 
ATOM     45  N   UNL A   1      41.554  29.624  28.046  1.00  0.00    -0.354 N 
ATOM     46  N   UNL A   1      44.602  28.422  30.954  1.00  0.00    -0.248 NA
ATOM     47  C   UNL A   1      42.521  28.049  31.953  1.00  0.00     0.031 C 
ATOM     48  C   UNL A   1      42.872  29.105  26.391  1.00  0.00     0.029 A 
ATOM     49  C   UNL A   1      42.858  29.302  27.773  1.00  0.00     0.049 A 
ATOM     50  H   UNL A   1      41.237  30.202  28.778  1.00  0.00     0.167 HD
ATOM     51  C   UNL A   1      43.627  28.942  30.112  1.00  0.00     0.074 A 
ATOM     52  C   UNL A   1      42.364  28.759  30.832  1.00  0.00     0.031 C 
ATOM     53  C   UNL A   1      43.879  29.175  28.788  1.00  0.00     0.034 A 
BRANCH  40  54
ATOM     54  C   UNL A   1      38.559  28.924  28.409  1.00  0.00     0.023 A 
ATOM     55  C   UNL A   1      37.711  29.817  27.713  1.00  0.00     0.012 A 
ATOM     56  C   UNL A   1      38.510  28.967  29.820  1.00  0.00     0.148 A 
ATOM     57  C   UNL A   1      36.915  30.750  28.385  1.00  0.00     0.002 A 
ATOM     58  C   UNL A   1      37.659  29.843  30.484  1.00  0.00     0.091 A 
ATOM     59  F   UNL A   1      39.380  28.261  30.545  1.00  0.00    -0.205 F 
ATOM     60  C   UNL A   1      36.887  30.762  29.773  1.00  0.00     0.022 A 
BRANCH  58  61
ATOM     61  S   UNL A   1      37.551  29.873  32.279  1.00  0.00     0.127 S 
ATOM     62  O   UNL A   1      38.913  30.250  32.645  1.00  0.00    -0.237 OA
ATOM     63  O   UNL A   1      36.539  30.907  32.498  1.00  0.00    -0.237 OA
ATOM     64  O   UNL A   1      37.131  28.533  32.668  1.00  0.00    -0.744 OA
ENDBRANCH  58  61
ENDBRANCH  40  54
BRANCH  41  65
ATOM     65  C   UNL A   1      44.482  26.000  33.698  1.00  0.00     0.023 A 
ATOM     66  C   UNL A   1      45.758  25.900  34.289  1.00  0.00     0.012 A 
ATOM     67  C   UNL A   1      43.358  26.025  34.553  1.00  0.00     0.148 A 
ATOM     68  C   UNL A   1      45.910  25.852  35.683  1.00  0.00     0.002 A 
ATOM     69  C   UNL A   1      43.514  25.978  35.937  1.00  0.00     0.091 A 
ATOM     70  F   UNL A   1      42.142  26.194  34.017  1.00  0.00    -0.205 F 
ATOM     71  C   UNL A   1      44.789  25.898  36.507  1.00  0.00     0.022 A 
BRANCH  69  72
ATOM     72  S   UNL A   1      42.112  26.079  37.056  1.00  0.00     0.127 S 
ATOM     73  O   UNL A   1      41.446  24.796  36.833  1.00  0.00    -0.237 OA
ATOM     74  O   UNL A   1      42.764  26.211  38.355  1.00  0.00    -0.237 OA
ATOM     75  O   UNL A   1      41.339  27.236  36.619  1.00  0.00    -0.744 OA
ENDBRANCH  69  72
ENDBRANCH  41  65
BRANCH  53  76
ATOM     76  C   UNL A   1      45.298  29.048  28.286  1.00  0.00     0.023 A 
ATOM     77  C   UNL A   1      46.271  30.051  28.488  1.00  0.00     0.012 A 
ATOM     78  C   UNL A   1      45.709  27.804  27.779  1.00  0.00     0.148 A 
ATOM     79  C   UNL A   1      47.616  29.823  28.180  1.00  0.00     0.002 A 
ATOM     80  C   UNL A   1      47.051  27.565  27.516  1.00  0.00     0.091 A 
ATOM     81  F   UNL A   1      44.776  26.857  27.601  1.00  0.00    -0.205 F 
ATOM     82  C   UNL A   1      48.008  28.574  27.707  1.00  0.00     0.022 A 
BRANCH  80  83
ATOM     83  S   UNL A   1      47.633  25.940  27.026  1.00  0.00     0.127 S 
ATOM     84  O   UNL A   1      49.073  26.156  26.909  1.00  0.00    -0.237 OA
ATOM     85  O   UNL A   1      47.228  25.106  28.160  1.00  0.00    -0.237 OA
ATOM     86  O   UNL A   1      46.942  25.625  25.782  1.00  0.00    -0.744 OA
ENDBRANCH  80  83
ENDBRANCH  53  76
ENDBRANCH  27  28
ENDBRANCH  19  22
ENDBRANCH  17  18
ENDBRANCH   1  17
TORSDOF 16
ENDMDL
MODEL 3
REMARK VINA RESULT:     -11.1      4.450      9.672
REMARK SMILES CCn1nccc1[C@H](F)C(=O)NCCCCNC(=O)c1ccc(-c2c3nc(c(-c4cccc(S(=O)(=O)[O-])c4F)c4ccc([nH]4)c(-c4cccc(S(=O)(=O)[O-])c4F)c4nc(c(-c5cccc(S(=O)(=O)[O-])c5F)c5ccc2[nH]5)C=C4)C=C3)cc1
REMARK SMILES IDX 15 1 14 2 13 3 12 4 10 5 11 6 8 8 9 9 7 10 3 11 4 12 5 13
REMARK SMILES IDX 6 14 2 15 1 16 16 17 17 18 18 19 19 21 20 22 21 23 82 24
REMARK SMILES IDX 22 25 81 26 23 27 24 28 25 29 75 30 26 31 80 32 74 33 76 34
REMARK SMILES IDX 27 35 79 36 73 37 72 38 28 40 60 41 40 42 59 43 41 44 44 45
REMARK SMILES IDX 58 46 77 47 42 48 43 49 57 51 78 52 45 53 29 54 30 55 38 56
REMARK SMILES IDX 31 57 33 58 39 59 32 60 34 61 35 62 36 63 37 64 61 65 62 66
REMARK SMILES IDX 70 67 63 68 65 69 71 70 64 71 66 72 67 73 68 74 69 75 46 76
REMARK SMILES IDX 47 77 55 78 48 79 50 80 56 81 49 82 51 83 52 84 53 85 54 86
REMARK H PARENT 12 7 17 20 76 39 44 50
REMARK Flexibility Score: inf
ROOT
ATOM      1  C   UNL A   1      31.323  32.027  26.825  1.00  0.00     0.023 C 
ENDROOT
BRANCH   1   2
ATOM      2  C   UNL A   1      31.569  30.812  25.924  1.00  0.00     0.023 C 
BRANCH   2   3
ATOM      3  C   UNL A   1      32.444  29.693  26.497  1.00  0.00     0.116 C 
BRANCH   3   4
ATOM      4  N   UNL A   1      31.691  28.574  27.025  1.00  0.00    -0.353 N 
ATOM      5  C   UNL A   1      31.448  27.352  26.450  1.00  0.00     0.260 C 
ATOM      6  O   UNL A   1      30.741  26.554  27.073  1.00  0.00    -0.271 OA
ATOM      7  H   UNL A   1      31.298  28.708  27.917  1.00  0.00     0.163 HD
BRANCH   5   8
ATOM      8  C   UNL A   1      31.969  27.001  25.047  1.00  0.00     0.303 C 
ATOM      9  F   UNL A   1      31.924  25.643  24.844  1.00  0.00    -0.230 F 
BRANCH   8  10
ATOM     10  C   UNL A   1      31.226  27.696  23.949  1.00  0.00     0.082 A 
ATOM     11  N   UNL A   1      31.771  28.623  23.084  1.00  0.00    -0.266 N 
ATOM     12  N   UNL A   1      30.848  29.129  22.236  1.00  0.00    -0.181 NA
ATOM     13  C   UNL A   1      29.720  28.496  22.541  1.00  0.00     0.135 A 
ATOM     14  C   UNL A   1      29.906  27.558  23.559  1.00  0.00     0.049 A 
BRANCH  11  15
ATOM     15  C   UNL A   1      33.171  29.014  22.965  1.00  0.00     0.141 C 
ATOM     16  C   UNL A   1      34.006  28.123  22.058  1.00  0.00     0.029 C 
ENDBRANCH  11  15
ENDBRANCH   8  10
ENDBRANCH   5   8
ENDBRANCH   3   4
ENDBRANCH   2   3
ENDBRANCH   1   2
BRANCH   1  17
ATOM     17  C   UNL A   1      32.586  32.688  27.349  1.00  0.00     0.116 C 
BRANCH  17  18
ATOM     18  N   UNL A   1      32.411  34.101  27.716  1.00  0.00    -0.352 N 
ATOM     19  C   UNL A   1      33.048  34.792  28.742  1.00  0.00     0.251 C 
ATOM     20  H   UNL A   1      31.771  34.616  27.173  1.00  0.00     0.163 HD
ATOM     21  O   UNL A   1      32.597  35.832  29.190  1.00  0.00    -0.269 OA
BRANCH  19  22
ATOM     22  C   UNL A   1      34.314  34.234  29.250  1.00  0.00     0.039 A 
ATOM     23  C   UNL A   1      34.410  33.483  30.426  1.00  0.00     0.014 A 
ATOM     24  C   UNL A   1      35.422  34.437  28.440  1.00  0.00     0.014 A 
ATOM     25  C   UNL A   1      35.631  32.881  30.728  1.00  0.00     0.010 A 
ATOM     26  C   UNL A   1      36.510  33.636  28.594  1.00  0.00     0.010 A 
ATOM     27  C   UNL A   1      36.672  32.961  29.793  1.00  0.00    -0.014 A 
BRANCH  27  28
ATOM     28  C   UNL A   1      37.952  32.296  29.971  1.00  0.00     0.031 A 
ATOM     29  C   UNL A   1      38.008  30.926  29.402  1.00  0.00     0.074 A 
ATOM     30  C   UNL A   1      39.050  32.991  30.352  1.00  0.00     0.049 A 
ATOM     31  N   UNL A   1      38.094  29.814  30.053  1.00  0.00    -0.248 NA
ATOM     32  C   UNL A   1      37.773  30.750  27.960  1.00  0.00     0.031 C 
ATOM     33  C   UNL A   1      39.181  34.438  30.595  1.00  0.00     0.029 A 
ATOM     34  N   UNL A   1      40.338  32.573  30.425  1.00  0.00    -0.354 N 
ATOM     35  C   UNL A   1      38.199  28.822  29.082  1.00  0.00     0.074 A 
ATOM     36  C   UNL A   1      37.747  29.419  27.854  1.00  0.00     0.031 C 
ATOM     37  C   UNL A   1      40.479  34.798  30.487  1.00  0.00     0.029 A 
ATOM     38  C   UNL A   1      41.280  33.598  30.351  1.00  0.00     0.049 A 
ATOM     39  H   UNL A   1      40.588  31.626  30.522  1.00  0.00     0.167 HD
ATOM     40  C   UNL A   1      38.922  27.689  29.310  1.00  0.00     0.034 A 
ATOM     41  C   UNL A   1      42.610  33.456  30.123  1.00  0.00     0.034 A 
ATOM     42  C   UNL A   1      39.259  27.562  30.709  1.00  0.00     0.049 A 
ATOM     43  C   UNL A   1      42.950  32.048  30.445  1.00  0.00     0.074 A 
ATOM     44  C   UNL A   1      38.535  27.541  31.887  1.00  0.00     0.029 A 
ATOM     45  N   UNL A   1      40.549  27.876  31.069  1.00  0.00    -0.354 N 
ATOM     46  N   UNL A   1      42.859  31.553  31.651  1.00  0.00    -0.248 NA
ATOM     47  C   UNL A   1      42.895  31.079  29.361  1.00  0.00     0.031 C 
ATOM     48  C   UNL A   1      39.294  28.346  32.787  1.00  0.00     0.029 A 
ATOM     49  C   UNL A   1      40.475  28.722  32.144  1.00  0.00     0.049 A 
ATOM     50  H   UNL A   1      41.372  27.554  30.635  1.00  0.00     0.167 HD
ATOM     51  C   UNL A   1      42.267  30.310  31.465  1.00  0.00     0.074 A 
ATOM     52  C   UNL A   1      42.402  30.033  30.032  1.00  0.00     0.031 C 
ATOM     53  C   UNL A   1      41.441  29.765  32.409  1.00  0.00     0.034 A 
BRANCH  40  54
ATOM     54  C   UNL A   1      39.675  26.902  28.262  1.00  0.00     0.023 A 
ATOM     55  C   UNL A   1      39.555  25.494  28.313  1.00  0.00     0.012 A 
ATOM     56  C   UNL A   1      40.695  27.425  27.436  1.00  0.00     0.148 A 
ATOM     57  C   UNL A   1      40.447  24.654  27.640  1.00  0.00     0.002 A 
ATOM     58  C   UNL A   1      41.531  26.587  26.706  1.00  0.00     0.091 A 
ATOM     59  F   UNL A   1      40.964  28.732  27.445  1.00  0.00    -0.205 F 
ATOM     60  C   UNL A   1      41.435  25.201  26.833  1.00  0.00     0.022 A 
BRANCH  58  61
ATOM     61  S   UNL A   1      42.800  27.241  25.613  1.00  0.00     0.127 S 
ATOM     62  O   UNL A   1      43.723  27.845  26.569  1.00  0.00    -0.237 OA
ATOM     63  O   UNL A   1      43.286  26.025  24.962  1.00  0.00    -0.237 OA
ATOM     64  O   UNL A   1      42.110  28.163  24.720  1.00  0.00    -0.744 OA
ENDBRANCH  58  61
ENDBRANCH  40  54
BRANCH  41  65
ATOM     65  C   UNL A   1      43.541  34.346  29.383  1.00  0.00     0.023 A 
ATOM     66  C   UNL A   1      44.253  35.349  30.072  1.00  0.00     0.012 A 
ATOM     67  C   UNL A   1      43.943  34.039  28.064  1.00  0.00     0.148 A 
ATOM     68  C   UNL A   1      45.341  36.004  29.478  1.00  0.00     0.002 A 
ATOM     69  C   UNL A   1      45.025  34.692  27.478  1.00  0.00     0.091 A 
ATOM     70  F   UNL A   1      43.329  33.038  27.418  1.00  0.00    -0.205 F 
ATOM     71  C   UNL A   1      45.732  35.671  28.184  1.00  0.00     0.022 A 
BRANCH  69  72
ATOM     72  S   UNL A   1      45.609  34.277  25.830  1.00  0.00     0.127 S 
ATOM     73  O   UNL A   1      45.949  32.861  25.972  1.00  0.00    -0.237 OA
ATOM     74  O   UNL A   1      44.431  34.543  25.010  1.00  0.00    -0.237 OA
ATOM     75  O   UNL A   1      46.755  35.145  25.586  1.00  0.00    -0.744 OA
ENDBRANCH  69  72
ENDBRANCH  41  65
BRANCH  53  76
ATOM     76  C   UNL A   1      41.332  30.440  33.755  1.00  0.00     0.023 A 
ATOM     77  C   UNL A   1      42.319  30.309  34.756  1.00  0.00     0.012 A 
ATOM     78  C   UNL A   1      40.313  31.390  33.935  1.00  0.00     0.148 A 
ATOM     79  C   UNL A   1      42.282  31.095  35.913  1.00  0.00     0.002 A 
ATOM     80  C   UNL A   1      40.303  32.200  35.063  1.00  0.00     0.091 A 
ATOM     81  F   UNL A   1      39.386  31.511  32.973  1.00  0.00    -0.205 F 
ATOM     82  C   UNL A   1      41.281  32.051  36.060  1.00  0.00     0.022 A 
BRANCH  80  83
ATOM     83  S   UNL A   1      39.115  33.531  35.248  1.00  0.00     0.127 S 
ATOM     84  O   UNL A   1      39.621  34.228  36.429  1.00  0.00    -0.237 OA
ATOM     85  O   UNL A   1      39.267  34.266  33.990  1.00  0.00    -0.237 OA
ATOM     86  O   UNL A   1      37.815  32.890  35.407  1.00  0.00    -0.744 OA
ENDBRANCH  80  83
ENDBRANCH  53  76
ENDBRANCH  27  28
ENDBRANCH  19  22
ENDBRANCH  17  18
ENDBRANCH   1  17
TORSDOF 16
ENDMDL
