MODEL 1
REMARK VINA RESULT:     -11.8      0.000      0.000
REMARK SMILES CN(C)C(=O)CCc1cccc(NC(=O)[C@H]2CCCC[C@@H]2C(=O)NCCCCNC(=O)c2ccc(-c3c4nc(c(-c5cccc(S(=O)(=O)[O-])c5F)c5ccc([nH]5)c(-c5cccc(S(=O)(=O)[O-])c5F)c5nc(c(-c6cccc(S(=O)(=O)[O-])c6F)c6ccc3[nH]6)C=C5)C=C4)cc2)c1
REMARK SMILES IDX 25 1 24 2 22 3 23 4 21 6 16 7 17 8 18 9 20 10 19 11 14 12
REMARK SMILES IDX 13 13 15 15 12 16 8 17 9 18 95 19 10 20 11 21 7 22 6 23 4 24
REMARK SMILES IDX 1 25 2 26 3 27 5 28 26 29 27 30 28 31 29 32 30 33 31 35
REMARK SMILES IDX 32 36 33 37 94 38 34 39 93 40 35 41 36 42 37 43 87 44 38 45
REMARK SMILES IDX 92 46 86 47 88 48 39 49 91 50 85 51 84 52 40 54 72 55 52 56
REMARK SMILES IDX 71 57 53 58 56 59 70 60 89 61 54 62 55 63 69 65 90 66 57 67
REMARK SMILES IDX 41 68 42 69 50 70 43 71 45 72 51 73 44 74 46 75 47 76 48 77
REMARK SMILES IDX 49 78 73 79 74 80 82 81 75 82 77 83 83 84 76 85 78 86 79 87
REMARK SMILES IDX 80 88 81 89 58 90 59 91 67 92 60 93 62 94 68 95 61 96 63 97
REMARK SMILES IDX 64 98 65 99 66 100
REMARK H PARENT 24 5 13 14 29 34 88 53 56 64
REMARK Flexibility Score: inf
ROOT
ATOM      1  C   UNL A   1      34.722  24.645  24.800  1.00  0.00     0.116 C 
ENDROOT
BRANCH   1   2
ATOM      2  N   UNL A   1      34.418  25.819  24.018  1.00  0.00    -0.356 N 
ATOM      3  C   UNL A   1      33.326  26.615  24.049  1.00  0.00     0.223 C 
ATOM      4  O   UNL A   1      33.209  27.426  23.129  1.00  0.00    -0.275 OA
ATOM      5  H   UNL A   1      35.108  26.079  23.366  1.00  0.00     0.163 HD
BRANCH   3   6
ATOM      6  C   UNL A   1      32.267  26.451  25.140  1.00  0.00     0.091 C 
ATOM      7  C   UNL A   1      31.339  25.262  24.751  1.00  0.00     0.091 C 
ATOM      8  C   UNL A   1      30.457  25.730  23.568  1.00  0.00     0.014 C 
ATOM      9  C   UNL A   1      29.566  26.902  23.927  1.00  0.00     0.001 C 
ATOM     10  C   UNL A   1      31.403  27.703  25.448  1.00  0.00     0.014 C 
ATOM     11  C   UNL A   1      30.422  28.080  24.344  1.00  0.00     0.001 C 
BRANCH   7  12
ATOM     12  C   UNL A   1      30.628  24.783  26.026  1.00  0.00     0.228 C 
ATOM     13  N   UNL A   1      30.914  23.601  26.621  1.00  0.00    -0.326 N 
ATOM     14  H   UNL A   1      30.223  23.298  27.254  1.00  0.00     0.169 HD
ATOM     15  O   UNL A   1      29.732  25.451  26.556  1.00  0.00    -0.274 OA
BRANCH  13  16
ATOM     16  C   UNL A   1      31.996  22.729  26.511  1.00  0.00     0.041 A 
ATOM     17  C   UNL A   1      33.032  20.982  25.207  1.00  0.00    -0.045 A 
ATOM     18  C   UNL A   1      34.045  20.862  26.161  1.00  0.00     0.004 A 
ATOM     19  C   UNL A   1      32.072  21.989  25.338  1.00  0.00     0.029 A 
ATOM     20  C   UNL A   1      33.980  21.613  27.328  1.00  0.00     0.002 A 
ATOM     21  C   UNL A   1      32.908  22.481  27.536  1.00  0.00     0.026 A 
BRANCH  17  22
ATOM     22  C   UNL A   1      32.777  19.873  24.217  1.00  0.00     0.045 C 
BRANCH  22  23
ATOM     23  C   UNL A   1      32.576  18.554  24.990  1.00  0.00     0.105 C 
BRANCH  23  24
ATOM     24  C   UNL A   1      33.800  17.651  24.867  1.00  0.00     0.222 C 
ATOM     25  C   UNL A   1      34.861  15.450  24.900  1.00  0.00     0.146 C 
ATOM     26  N   UNL A   1      33.710  16.298  25.178  1.00  0.00    -0.349 N 
ATOM     27  C   UNL A   1      32.607  15.646  25.876  1.00  0.00     0.146 C 
ATOM     28  O   UNL A   1      34.845  18.141  24.424  1.00  0.00    -0.275 OA
ENDBRANCH  23  24
ENDBRANCH  22  23
ENDBRANCH  17  22
ENDBRANCH  13  16
ENDBRANCH   7  12
ENDBRANCH   3   6
ENDBRANCH   1   2
BRANCH   1  29
ATOM     29  C   UNL A   1      35.224  23.504  23.927  1.00  0.00     0.023 C 
BRANCH  29  30
ATOM     30  C   UNL A   1      36.642  23.029  24.243  1.00  0.00     0.023 C 
BRANCH  30  31
ATOM     31  C   UNL A   1      36.998  22.995  25.725  1.00  0.00     0.116 C 
BRANCH  31  32
ATOM     32  N   UNL A   1      38.192  22.204  25.991  1.00  0.00    -0.352 N 
ATOM     33  C   UNL A   1      39.424  22.613  26.435  1.00  0.00     0.251 C 
ATOM     34  H   UNL A   1      38.101  21.237  25.830  1.00  0.00     0.163 HD
ATOM     35  O   UNL A   1      40.372  21.829  26.430  1.00  0.00    -0.269 OA
BRANCH  33  36
ATOM     36  C   UNL A   1      39.611  24.005  26.890  1.00  0.00     0.039 A 
ATOM     37  C   UNL A   1      39.330  24.327  28.219  1.00  0.00     0.014 A 
ATOM     38  C   UNL A   1      40.096  24.981  26.015  1.00  0.00     0.014 A 
ATOM     39  C   UNL A   1      39.614  25.609  28.692  1.00  0.00     0.010 A 
ATOM     40  C   UNL A   1      40.456  26.230  26.508  1.00  0.00     0.010 A 
ATOM     41  C   UNL A   1      40.223  26.558  27.853  1.00  0.00    -0.014 A 
BRANCH  41  42
ATOM     42  C   UNL A   1      40.662  27.878  28.374  1.00  0.00     0.031 A 
ATOM     43  C   UNL A   1      42.123  28.174  28.569  1.00  0.00     0.074 A 
ATOM     44  C   UNL A   1      39.733  28.778  28.757  1.00  0.00     0.049 A 
ATOM     45  N   UNL A   1      42.686  29.245  29.065  1.00  0.00    -0.248 NA
ATOM     46  C   UNL A   1      43.076  27.121  28.183  1.00  0.00     0.031 C 
ATOM     47  C   UNL A   1      38.283  28.578  28.693  1.00  0.00     0.029 A 
ATOM     48  N   UNL A   1      39.870  30.030  29.303  1.00  0.00    -0.354 N 
ATOM     49  C   UNL A   1      44.050  28.986  29.081  1.00  0.00     0.074 A 
ATOM     50  C   UNL A   1      44.230  27.643  28.576  1.00  0.00     0.031 C 
ATOM     51  C   UNL A   1      37.666  29.669  29.174  1.00  0.00     0.029 A 
ATOM     52  C   UNL A   1      38.672  30.629  29.618  1.00  0.00     0.049 A 
ATOM     53  H   UNL A   1      40.743  30.459  29.456  1.00  0.00     0.167 HD
ATOM     54  C   UNL A   1      45.065  29.800  29.457  1.00  0.00     0.034 A 
ATOM     55  C   UNL A   1      38.410  31.809  30.211  1.00  0.00     0.034 A 
ATOM     56  C   UNL A   1      44.885  31.147  29.931  1.00  0.00     0.049 A 
ATOM     57  C   UNL A   1      39.556  32.703  30.599  1.00  0.00     0.074 A 
ATOM     58  C   UNL A   1      45.854  32.080  30.253  1.00  0.00     0.029 A 
ATOM     59  N   UNL A   1      43.658  31.746  30.168  1.00  0.00    -0.354 N 
ATOM     60  N   UNL A   1      40.844  32.502  30.455  1.00  0.00    -0.248 NA
ATOM     61  C   UNL A   1      39.213  34.000  31.200  1.00  0.00     0.031 C 
ATOM     62  C   UNL A   1      45.213  33.232  30.720  1.00  0.00     0.029 A 
ATOM     63  C   UNL A   1      43.844  33.031  30.649  1.00  0.00     0.049 A 
ATOM     64  H   UNL A   1      42.783  31.321  30.017  1.00  0.00     0.167 HD
ATOM     65  C   UNL A   1      41.462  33.659  30.915  1.00  0.00     0.074 A 
ATOM     66  C   UNL A   1      40.406  34.564  31.319  1.00  0.00     0.031 C 
ATOM     67  C   UNL A   1      42.786  33.941  31.008  1.00  0.00     0.034 A 
BRANCH  54  68
ATOM     68  C   UNL A   1      46.472  29.272  29.332  1.00  0.00     0.023 A 
ATOM     69  C   UNL A   1      47.035  28.528  30.390  1.00  0.00     0.012 A 
ATOM     70  C   UNL A   1      47.211  29.456  28.148  1.00  0.00     0.148 A 
ATOM     71  C   UNL A   1      48.323  28.006  30.284  1.00  0.00     0.002 A 
ATOM     72  C   UNL A   1      48.477  28.892  28.032  1.00  0.00     0.091 A 
ATOM     73  F   UNL A   1      46.668  30.183  27.161  1.00  0.00    -0.205 F 
ATOM     74  C   UNL A   1      49.039  28.178  29.103  1.00  0.00     0.022 A 
BRANCH  72  75
ATOM     75  S   UNL A   1      49.447  28.986  26.523  1.00  0.00     0.127 S 
ATOM     76  O   UNL A   1      48.489  28.507  25.527  1.00  0.00    -0.237 OA
ATOM     77  O   UNL A   1      49.749  30.416  26.441  1.00  0.00    -0.237 OA
ATOM     78  O   UNL A   1      50.606  28.130  26.735  1.00  0.00    -0.744 OA
ENDBRANCH  72  75
ENDBRANCH  54  68
BRANCH  55  79
ATOM     79  C   UNL A   1      36.999  32.238  30.428  1.00  0.00     0.023 A 
ATOM     80  C   UNL A   1      36.358  31.929  31.643  1.00  0.00     0.012 A 
ATOM     81  C   UNL A   1      36.298  32.968  29.449  1.00  0.00     0.148 A 
ATOM     82  C   UNL A   1      35.032  32.306  31.865  1.00  0.00     0.002 A 
ATOM     83  C   UNL A   1      34.998  33.392  29.699  1.00  0.00     0.091 A 
ATOM     84  F   UNL A   1      36.922  33.245  28.295  1.00  0.00    -0.205 F 
ATOM     85  C   UNL A   1      34.357  33.046  30.898  1.00  0.00     0.022 A 
BRANCH  83  86
ATOM     86  S   UNL A   1      34.099  34.461  28.570  1.00  0.00     0.127 S 
ATOM     87  O   UNL A   1      33.900  33.582  27.421  1.00  0.00    -0.237 OA
ATOM     88  O   UNL A   1      32.888  34.757  29.337  1.00  0.00    -0.237 OA
ATOM     89  O   UNL A   1      34.962  35.612  28.344  1.00  0.00    -0.744 OA
ENDBRANCH  83  86
ENDBRANCH  55  79
BRANCH  67  90
ATOM     90  C   UNL A   1      43.176  35.298  31.531  1.00  0.00     0.023 A 
ATOM     91  C   UNL A   1      43.343  35.499  32.915  1.00  0.00     0.012 A 
ATOM     92  C   UNL A   1      43.441  36.360  30.642  1.00  0.00     0.148 A 
ATOM     93  C   UNL A   1      43.731  36.744  33.410  1.00  0.00     0.002 A 
ATOM     94  C   UNL A   1      43.880  37.582  31.138  1.00  0.00     0.091 A 
ATOM     95  F   UNL A   1      43.262  36.155  29.330  1.00  0.00    -0.205 F 
ATOM     96  C   UNL A   1      44.011  37.780  32.523  1.00  0.00     0.022 A 
BRANCH  94  97
ATOM     97  S   UNL A   1      44.358  38.942  30.067  1.00  0.00     0.127 S 
ATOM     98  O   UNL A   1      45.244  39.710  30.940  1.00  0.00    -0.237 OA
ATOM     99  O   UNL A   1      45.035  38.247  28.971  1.00  0.00    -0.237 OA
ATOM    100  O   UNL A   1      43.122  39.611  29.688  1.00  0.00    -0.744 OA
ENDBRANCH  94  97
ENDBRANCH  67  90
ENDBRANCH  41  42
ENDBRANCH  33  36
ENDBRANCH  31  32
ENDBRANCH  30  31
ENDBRANCH  29  30
ENDBRANCH   1  29
TORSDOF 19
ENDMDL
MODEL 2
REMARK VINA RESULT:     -11.5      2.952      9.237
REMARK SMILES CN(C)C(=O)CCc1cccc(NC(=O)[C@H]2CCCC[C@@H]2C(=O)NCCCCNC(=O)c2ccc(-c3c4nc(c(-c5cccc(S(=O)(=O)[O-])c5F)c5ccc([nH]5)c(-c5cccc(S(=O)(=O)[O-])c5F)c5nc(c(-c6cccc(S(=O)(=O)[O-])c6F)c6ccc3[nH]6)C=C5)C=C4)cc2)c1
REMARK SMILES IDX 25 1 24 2 22 3 23 4 21 6 16 7 17 8 18 9 20 10 19 11 14 12
REMARK SMILES IDX 13 13 15 15 12 16 8 17 9 18 95 19 10 20 11 21 7 22 6 23 4 24
REMARK SMILES IDX 1 25 2 26 3 27 5 28 26 29 27 30 28 31 29 32 30 33 31 35
REMARK SMILES IDX 32 36 33 37 94 38 34 39 93 40 35 41 36 42 37 43 87 44 38 45
REMARK SMILES IDX 92 46 86 47 88 48 39 49 91 50 85 51 84 52 40 54 72 55 52 56
REMARK SMILES IDX 71 57 53 58 56 59 70 60 89 61 54 62 55 63 69 65 90 66 57 67
REMARK SMILES IDX 41 68 42 69 50 70 43 71 45 72 51 73 44 74 46 75 47 76 48 77
REMARK SMILES IDX 49 78 73 79 74 80 82 81 75 82 77 83 83 84 76 85 78 86 79 87
REMARK SMILES IDX 80 88 81 89 58 90 59 91 67 92 60 93 62 94 68 95 61 96 63 97
REMARK SMILES IDX 64 98 65 99 66 100
REMARK H PARENT 24 5 13 14 29 34 88 53 56 64
REMARK Flexibility Score: inf
ROOT
ATOM      1  C   UNL A   1      37.362  22.579  25.417  1.00  0.00     0.116 C 
ENDROOT
BRANCH   1   2
ATOM      2  N   UNL A   1      36.270  22.457  26.352  1.00  0.00    -0.356 N 
ATOM      3  C   UNL A   1      34.939  22.547  26.138  1.00  0.00     0.223 C 
ATOM      4  O   UNL A   1      34.223  22.624  27.138  1.00  0.00    -0.275 OA
ATOM      5  H   UNL A   1      36.534  22.282  27.285  1.00  0.00     0.163 HD
BRANCH   3   6
ATOM      6  C   UNL A   1      34.376  22.620  24.718  1.00  0.00     0.091 C 
ATOM      7  C   UNL A   1      33.784  24.044  24.495  1.00  0.00     0.091 C 
ATOM      8  C   UNL A   1      32.478  24.136  25.322  1.00  0.00     0.014 C 
ATOM      9  C   UNL A   1      31.430  23.135  24.880  1.00  0.00     0.001 C 
ATOM     10  C   UNL A   1      33.313  21.553  24.347  1.00  0.00     0.014 C 
ATOM     11  C   UNL A   1      31.971  21.729  25.047  1.00  0.00     0.001 C 
BRANCH   7  12
ATOM     12  C   UNL A   1      33.688  24.283  22.981  1.00  0.00     0.228 C 
ATOM     13  N   UNL A   1      33.085  25.372  22.450  1.00  0.00    -0.326 N 
ATOM     14  H   UNL A   1      32.861  25.277  21.496  1.00  0.00     0.169 HD
ATOM     15  O   UNL A   1      34.140  23.467  22.168  1.00  0.00    -0.274 OA
BRANCH  13  16
ATOM     16  C   UNL A   1      32.720  26.603  22.992  1.00  0.00     0.041 A 
ATOM     17  C   UNL A   1      30.896  28.096  23.517  1.00  0.00    -0.045 A 
ATOM     18  C   UNL A   1      31.804  29.056  23.971  1.00  0.00     0.004 A 
ATOM     19  C   UNL A   1      31.357  26.835  23.129  1.00  0.00     0.029 A 
ATOM     20  C   UNL A   1      33.168  28.820  23.850  1.00  0.00     0.002 A 
ATOM     21  C   UNL A   1      33.619  27.629  23.280  1.00  0.00     0.026 A 
BRANCH  17  22
ATOM     22  C   UNL A   1      29.487  28.488  23.154  1.00  0.00     0.045 C 
BRANCH  22  23
ATOM     23  C   UNL A   1      29.370  30.024  23.203  1.00  0.00     0.105 C 
BRANCH  23  24
ATOM     24  C   UNL A   1      28.657  30.563  21.966  1.00  0.00     0.222 C 
ATOM     25  C   UNL A   1      27.981  32.398  20.501  1.00  0.00     0.146 C 
ATOM     26  N   UNL A   1      28.531  31.934  21.767  1.00  0.00    -0.349 N 
ATOM     27  C   UNL A   1      28.786  32.974  22.757  1.00  0.00     0.146 C 
ATOM     28  O   UNL A   1      28.259  29.751  21.122  1.00  0.00    -0.275 OA
ENDBRANCH  23  24
ENDBRANCH  22  23
ENDBRANCH  17  22
ENDBRANCH  13  16
ENDBRANCH   7  12
ENDBRANCH   3   6
ENDBRANCH   1   2
BRANCH   1  29
ATOM     29  C   UNL A   1      38.656  22.018  25.989  1.00  0.00     0.023 C 
BRANCH  29  30
ATOM     30  C   UNL A   1      39.093  20.678  25.396  1.00  0.00     0.023 C 
BRANCH  30  31
ATOM     31  C   UNL A   1      39.548  19.639  26.414  1.00  0.00     0.116 C 
BRANCH  31  32
ATOM     32  N   UNL A   1      40.849  19.071  26.084  1.00  0.00    -0.352 N 
ATOM     33  C   UNL A   1      42.062  19.697  25.954  1.00  0.00     0.251 C 
ATOM     34  H   UNL A   1      40.857  18.098  25.933  1.00  0.00     0.163 HD
ATOM     35  O   UNL A   1      43.024  19.086  25.490  1.00  0.00    -0.269 OA
BRANCH  33  36
ATOM     36  C   UNL A   1      42.199  21.114  26.345  1.00  0.00     0.039 A 
ATOM     37  C   UNL A   1      42.304  21.435  27.700  1.00  0.00     0.014 A 
ATOM     38  C   UNL A   1      42.258  22.118  25.375  1.00  0.00     0.014 A 
ATOM     39  C   UNL A   1      42.552  22.756  28.077  1.00  0.00     0.010 A 
ATOM     40  C   UNL A   1      42.587  23.417  25.748  1.00  0.00     0.010 A 
ATOM     41  C   UNL A   1      42.742  23.750  27.103  1.00  0.00    -0.014 A 
BRANCH  41  42
ATOM     42  C   UNL A   1      43.145  25.130  27.478  1.00  0.00     0.031 A 
ATOM     43  C   UNL A   1      42.136  26.098  28.028  1.00  0.00     0.074 A 
ATOM     44  C   UNL A   1      44.408  25.537  27.235  1.00  0.00     0.049 A 
ATOM     45  N   UNL A   1      42.293  27.354  28.355  1.00  0.00    -0.248 NA
ATOM     46  C   UNL A   1      40.762  25.600  28.212  1.00  0.00     0.031 C 
ATOM     47  C   UNL A   1      45.460  24.716  26.629  1.00  0.00     0.029 A 
ATOM     48  N   UNL A   1      45.014  26.751  27.440  1.00  0.00    -0.354 N 
ATOM     49  C   UNL A   1      41.041  27.806  28.750  1.00  0.00     0.074 A 
ATOM     50  C   UNL A   1      40.125  26.697  28.592  1.00  0.00     0.031 C 
ATOM     51  C   UNL A   1      46.580  25.448  26.518  1.00  0.00     0.029 A 
ATOM     52  C   UNL A   1      46.318  26.798  27.005  1.00  0.00     0.049 A 
ATOM     53  H   UNL A   1      44.558  27.517  27.858  1.00  0.00     0.167 HD
ATOM     54  C   UNL A   1      40.689  29.023  29.227  1.00  0.00     0.034 A 
ATOM     55  C   UNL A   1      47.201  27.815  26.985  1.00  0.00     0.034 A 
ATOM     56  C   UNL A   1      41.609  30.114  29.411  1.00  0.00     0.049 A 
ATOM     57  C   UNL A   1      46.789  29.151  27.540  1.00  0.00     0.074 A 
ATOM     58  C   UNL A   1      41.366  31.357  29.969  1.00  0.00     0.029 A 
ATOM     59  N   UNL A   1      42.940  30.101  29.027  1.00  0.00    -0.354 N 
ATOM     60  N   UNL A   1      45.641  29.510  28.061  1.00  0.00    -0.248 NA
ATOM     61  C   UNL A   1      47.806  30.213  27.538  1.00  0.00     0.031 C 
ATOM     62  C   UNL A   1      42.543  32.109  29.888  1.00  0.00     0.029 A 
ATOM     63  C   UNL A   1      43.529  31.320  29.319  1.00  0.00     0.049 A 
ATOM     64  H   UNL A   1      43.400  29.338  28.609  1.00  0.00     0.167 HD
ATOM     65  C   UNL A   1      45.806  30.826  28.477  1.00  0.00     0.074 A 
ATOM     66  C   UNL A   1      47.173  31.192  28.170  1.00  0.00     0.031 C 
ATOM     67  C   UNL A   1      44.903  31.660  29.050  1.00  0.00     0.034 A 
BRANCH  54  68
ATOM     68  C   UNL A   1      39.249  29.232  29.625  1.00  0.00     0.023 A 
ATOM     69  C   UNL A   1      38.839  28.938  30.942  1.00  0.00     0.012 A 
ATOM     70  C   UNL A   1      38.320  29.777  28.717  1.00  0.00     0.148 A 
ATOM     71  C   UNL A   1      37.519  29.150  31.339  1.00  0.00     0.002 A 
ATOM     72  C   UNL A   1      37.018  30.030  29.134  1.00  0.00     0.091 A 
ATOM     73  F   UNL A   1      38.723  30.031  27.464  1.00  0.00    -0.205 F 
ATOM     74  C   UNL A   1      36.613  29.705  30.440  1.00  0.00     0.022 A 
BRANCH  72  75
ATOM     75  S   UNL A   1      35.797  30.819  28.079  1.00  0.00     0.127 S 
ATOM     76  O   UNL A   1      36.369  32.155  27.916  1.00  0.00    -0.237 OA
ATOM     77  O   UNL A   1      35.844  29.984  26.878  1.00  0.00    -0.237 OA
ATOM     78  O   UNL A   1      34.538  30.763  28.809  1.00  0.00    -0.744 OA
ENDBRANCH  72  75
ENDBRANCH  54  68
BRANCH  55  79
ATOM     79  C   UNL A   1      48.581  27.596  26.466  1.00  0.00     0.023 A 
ATOM     80  C   UNL A   1      49.603  27.202  27.351  1.00  0.00     0.012 A 
ATOM     81  C   UNL A   1      48.880  27.754  25.099  1.00  0.00     0.148 A 
ATOM     82  C   UNL A   1      50.906  27.006  26.891  1.00  0.00     0.002 A 
ATOM     83  C   UNL A   1      50.166  27.499  24.638  1.00  0.00     0.091 A 
ATOM     84  F   UNL A   1      47.896  28.138  24.273  1.00  0.00    -0.205 F 
ATOM     85  C   UNL A   1      51.185  27.143  25.535  1.00  0.00     0.022 A 
BRANCH  83  86
ATOM     86  S   UNL A   1      50.586  27.522  22.891  1.00  0.00     0.127 S 
ATOM     87  O   UNL A   1      49.522  26.705  22.316  1.00  0.00    -0.237 OA
ATOM     88  O   UNL A   1      50.505  28.951  22.582  1.00  0.00    -0.237 OA
ATOM     89  O   UNL A   1      51.930  26.965  22.801  1.00  0.00    -0.744 OA
ENDBRANCH  83  86
ENDBRANCH  55  79
BRANCH  67  90
ATOM     90  C   UNL A   1      45.368  33.044  29.421  1.00  0.00     0.023 A 
ATOM     91  C   UNL A   1      45.932  33.282  30.690  1.00  0.00     0.012 A 
ATOM     92  C   UNL A   1      45.305  34.096  28.485  1.00  0.00     0.148 A 
ATOM     93  C   UNL A   1      46.392  34.553  31.035  1.00  0.00     0.002 A 
ATOM     94  C   UNL A   1      45.815  35.346  28.816  1.00  0.00     0.091 A 
ATOM     95  F   UNL A   1      44.751  33.855  27.288  1.00  0.00    -0.205 F 
ATOM     96  C   UNL A   1      46.344  35.580  30.096  1.00  0.00     0.022 A 
BRANCH  94  97
ATOM     97  S   UNL A   1      45.886  36.701  27.639  1.00  0.00     0.127 S 
ATOM     98  O   UNL A   1      46.643  36.101  26.542  1.00  0.00    -0.237 OA
ATOM     99  O   UNL A   1      44.471  36.932  27.349  1.00  0.00    -0.237 OA
ATOM    100  O   UNL A   1      46.551  37.798  28.328  1.00  0.00    -0.744 OA
ENDBRANCH  94  97
ENDBRANCH  67  90
ENDBRANCH  41  42
ENDBRANCH  33  36
ENDBRANCH  31  32
ENDBRANCH  30  31
ENDBRANCH  29  30
ENDBRANCH   1  29
TORSDOF 19
ENDMDL
MODEL 3
REMARK VINA RESULT:     -11.5      1.097      7.430
REMARK SMILES CN(C)C(=O)CCc1cccc(NC(=O)[C@H]2CCCC[C@@H]2C(=O)NCCCCNC(=O)c2ccc(-c3c4nc(c(-c5cccc(S(=O)(=O)[O-])c5F)c5ccc([nH]5)c(-c5cccc(S(=O)(=O)[O-])c5F)c5nc(c(-c6cccc(S(=O)(=O)[O-])c6F)c6ccc3[nH]6)C=C5)C=C4)cc2)c1
REMARK SMILES IDX 25 1 24 2 22 3 23 4 21 6 16 7 17 8 18 9 20 10 19 11 14 12
REMARK SMILES IDX 13 13 15 15 12 16 8 17 9 18 95 19 10 20 11 21 7 22 6 23 4 24
REMARK SMILES IDX 1 25 2 26 3 27 5 28 26 29 27 30 28 31 29 32 30 33 31 35
REMARK SMILES IDX 32 36 33 37 94 38 34 39 93 40 35 41 36 42 37 43 87 44 38 45
REMARK SMILES IDX 92 46 86 47 88 48 39 49 91 50 85 51 84 52 40 54 72 55 52 56
REMARK SMILES IDX 71 57 53 58 56 59 70 60 89 61 54 62 55 63 69 65 90 66 57 67
REMARK SMILES IDX 41 68 42 69 50 70 43 71 45 72 51 73 44 74 46 75 47 76 48 77
REMARK SMILES IDX 49 78 73 79 74 80 82 81 75 82 77 83 83 84 76 85 78 86 79 87
REMARK SMILES IDX 80 88 81 89 58 90 59 91 67 92 60 93 62 94 68 95 61 96 63 97
REMARK SMILES IDX 64 98 65 99 66 100
REMARK H PARENT 24 5 13 14 29 34 88 53 56 64
REMARK Flexibility Score: inf
ROOT
ATOM      1  C   UNL A   1      34.375  24.567  24.755  1.00  0.00     0.116 C 
ENDROOT
BRANCH   1   2
ATOM      2  N   UNL A   1      34.455  25.960  24.383  1.00  0.00    -0.356 N 
ATOM      3  C   UNL A   1      33.525  26.934  24.492  1.00  0.00     0.223 C 
ATOM      4  O   UNL A   1      33.760  27.990  23.902  1.00  0.00    -0.275 OA
ATOM      5  H   UNL A   1      35.314  26.242  23.993  1.00  0.00     0.163 HD
BRANCH   3   6
ATOM      6  C   UNL A   1      32.222  26.693  25.256  1.00  0.00     0.091 C 
ATOM      7  C   UNL A   1      31.399  25.610  24.496  1.00  0.00     0.091 C 
ATOM      8  C   UNL A   1      30.854  26.266  23.204  1.00  0.00     0.014 C 
ATOM      9  C   UNL A   1      29.923  27.429  23.483  1.00  0.00     0.001 C 
ATOM     10  C   UNL A   1      31.333  27.940  25.504  1.00  0.00     0.014 C 
ATOM     11  C   UNL A   1      30.669  28.501  24.251  1.00  0.00     0.001 C 
BRANCH   7  12
ATOM     12  C   UNL A   1      30.381  25.015  25.480  1.00  0.00     0.228 C 
ATOM     13  N   UNL A   1      30.528  23.787  26.031  1.00  0.00    -0.326 N 
ATOM     14  H   UNL A   1      29.700  23.425  26.421  1.00  0.00     0.169 HD
ATOM     15  O   UNL A   1      29.354  25.628  25.797  1.00  0.00    -0.274 OA
BRANCH  13  16
ATOM     16  C   UNL A   1      31.625  22.936  26.151  1.00  0.00     0.041 A 
ATOM     17  C   UNL A   1      32.805  21.049  25.214  1.00  0.00    -0.045 A 
ATOM     18  C   UNL A   1      33.719  21.088  26.270  1.00  0.00     0.004 A 
ATOM     19  C   UNL A   1      31.826  22.040  25.108  1.00  0.00     0.029 A 
ATOM     20  C   UNL A   1      33.530  21.994  27.307  1.00  0.00     0.002 A 
ATOM     21  C   UNL A   1      32.432  22.855  27.285  1.00  0.00     0.026 A 
BRANCH  17  22
ATOM     22  C   UNL A   1      32.663  19.807  24.371  1.00  0.00     0.045 C 
BRANCH  22  23
ATOM     23  C   UNL A   1      33.617  18.726  24.916  1.00  0.00     0.105 C 
BRANCH  23  24
ATOM     24  C   UNL A   1      32.903  17.384  25.062  1.00  0.00     0.222 C 
ATOM     25  C   UNL A   1      32.900  14.992  25.559  1.00  0.00     0.146 C 
ATOM     26  N   UNL A   1      33.631  16.219  25.274  1.00  0.00    -0.349 N 
ATOM     27  C   UNL A   1      35.074  16.066  25.122  1.00  0.00     0.146 C 
ATOM     28  O   UNL A   1      31.666  17.377  25.054  1.00  0.00    -0.275 OA
ENDBRANCH  23  24
ENDBRANCH  22  23
ENDBRANCH  17  22
ENDBRANCH  13  16
ENDBRANCH   7  12
ENDBRANCH   3   6
ENDBRANCH   1   2
BRANCH   1  29
ATOM     29  C   UNL A   1      35.063  23.674  23.731  1.00  0.00     0.023 C 
BRANCH  29  30
ATOM     30  C   UNL A   1      36.136  22.749  24.305  1.00  0.00     0.023 C 
BRANCH  30  31
ATOM     31  C   UNL A   1      37.136  23.420  25.241  1.00  0.00     0.116 C 
BRANCH  31  32
ATOM     32  N   UNL A   1      38.206  22.519  25.648  1.00  0.00    -0.352 N 
ATOM     33  C   UNL A   1      39.390  22.806  26.278  1.00  0.00     0.251 C 
ATOM     34  H   UNL A   1      38.056  21.568  25.442  1.00  0.00     0.163 HD
ATOM     35  O   UNL A   1      40.257  21.939  26.382  1.00  0.00    -0.269 OA
BRANCH  33  36
ATOM     36  C   UNL A   1      39.628  24.165  26.803  1.00  0.00     0.039 A 
ATOM     37  C   UNL A   1      39.318  24.440  28.137  1.00  0.00     0.014 A 
ATOM     38  C   UNL A   1      40.188  25.154  25.991  1.00  0.00     0.014 A 
ATOM     39  C   UNL A   1      39.646  25.684  28.677  1.00  0.00     0.010 A 
ATOM     40  C   UNL A   1      40.591  26.360  26.553  1.00  0.00     0.010 A 
ATOM     41  C   UNL A   1      40.328  26.638  27.903  1.00  0.00    -0.014 A 
BRANCH  41  42
ATOM     42  C   UNL A   1      40.812  27.910  28.499  1.00  0.00     0.031 A 
ATOM     43  C   UNL A   1      39.837  28.927  29.025  1.00  0.00     0.074 A 
ATOM     44  C   UNL A   1      42.132  28.187  28.481  1.00  0.00     0.049 A 
ATOM     45  N   UNL A   1      40.074  30.112  29.524  1.00  0.00    -0.248 NA
ATOM     46  C   UNL A   1      38.408  28.580  28.958  1.00  0.00     0.031 C 
ATOM     47  C   UNL A   1      43.172  27.317  27.925  1.00  0.00     0.029 A 
ATOM     48  N   UNL A   1      42.823  29.290  28.916  1.00  0.00    -0.354 N 
ATOM     49  C   UNL A   1      38.830  30.665  29.800  1.00  0.00     0.074 A 
ATOM     50  C   UNL A   1      37.838  29.698  29.383  1.00  0.00     0.031 C 
ATOM     51  C   UNL A   1      44.365  27.916  28.058  1.00  0.00     0.029 A 
ATOM     52  C   UNL A   1      44.175  29.227  28.670  1.00  0.00     0.049 A 
ATOM     53  H   UNL A   1      42.392  30.055  29.361  1.00  0.00     0.167 HD
ATOM     54  C   UNL A   1      38.539  31.857  30.374  1.00  0.00     0.034 A 
ATOM     55  C   UNL A   1      45.151  30.127  28.897  1.00  0.00     0.034 A 
ATOM     56  C   UNL A   1      39.529  32.802  30.815  1.00  0.00     0.049 A 
ATOM     57  C   UNL A   1      44.802  31.434  29.554  1.00  0.00     0.074 A 
ATOM     58  C   UNL A   1      39.336  33.997  31.485  1.00  0.00     0.029 A 
ATOM     59  N   UNL A   1      40.894  32.672  30.616  1.00  0.00    -0.354 N 
ATOM     60  N   UNL A   1      43.632  31.869  29.956  1.00  0.00    -0.248 NA
ATOM     61  C   UNL A   1      45.912  32.360  29.821  1.00  0.00     0.031 C 
ATOM     62  C   UNL A   1      40.583  34.606  31.659  1.00  0.00     0.029 A 
ATOM     63  C   UNL A   1      41.556  33.772  31.134  1.00  0.00     0.049 A 
ATOM     64  H   UNL A   1      41.329  31.909  30.171  1.00  0.00     0.167 HD
ATOM     65  C   UNL A   1      43.869  33.103  30.552  1.00  0.00     0.074 A 
ATOM     66  C   UNL A   1      45.297  33.333  30.480  1.00  0.00     0.031 C 
ATOM     67  C   UNL A   1      42.982  33.972  31.097  1.00  0.00     0.034 A 
BRANCH  54  68
ATOM     68  C   UNL A   1      37.086  32.192  30.596  1.00  0.00     0.023 A 
ATOM     69  C   UNL A   1      36.489  31.919  31.845  1.00  0.00     0.012 A 
ATOM     70  C   UNL A   1      36.330  32.833  29.596  1.00  0.00     0.148 A 
ATOM     71  C   UNL A   1      35.155  32.247  32.082  1.00  0.00     0.002 A 
ATOM     72  C   UNL A   1      35.014  33.199  29.856  1.00  0.00     0.091 A 
ATOM     73  F   UNL A   1      36.907  33.066  28.408  1.00  0.00    -0.205 F 
ATOM     74  C   UNL A   1      34.422  32.895  31.093  1.00  0.00     0.022 A 
BRANCH  72  75
ATOM     75  S   UNL A   1      34.010  34.113  28.679  1.00  0.00     0.127 S 
ATOM     76  O   UNL A   1      34.908  35.208  28.314  1.00  0.00    -0.237 OA
ATOM     77  O   UNL A   1      33.796  33.121  27.624  1.00  0.00    -0.237 OA
ATOM     78  O   UNL A   1      32.806  34.506  29.396  1.00  0.00    -0.744 OA
ENDBRANCH  72  75
ENDBRANCH  54  68
BRANCH  55  79
ATOM     79  C   UNL A   1      46.563  29.801  28.545  1.00  0.00     0.023 A 
ATOM     80  C   UNL A   1      47.082  30.215  27.304  1.00  0.00     0.012 A 
ATOM     81  C   UNL A   1      47.397  29.106  29.442  1.00  0.00     0.148 A 
ATOM     82  C   UNL A   1      48.396  29.909  26.945  1.00  0.00     0.002 A 
ATOM     83  C   UNL A   1      48.722  28.857  29.102  1.00  0.00     0.091 A 
ATOM     84  F   UNL A   1      46.882  28.713  30.615  1.00  0.00    -0.205 F 
ATOM     85  C   UNL A   1      49.218  29.240  27.847  1.00  0.00     0.022 A 
BRANCH  83  86
ATOM     86  S   UNL A   1      49.889  28.120  30.252  1.00  0.00     0.127 S 
ATOM     87  O   UNL A   1      51.112  28.086  29.456  1.00  0.00    -0.237 OA
ATOM     88  O   UNL A   1      49.890  29.095  31.345  1.00  0.00    -0.237 OA
ATOM     89  O   UNL A   1      49.328  26.823  30.606  1.00  0.00    -0.744 OA
ENDBRANCH  83  86
ENDBRANCH  55  79
BRANCH  67  90
ATOM     90  C   UNL A   1      43.528  35.241  31.698  1.00  0.00     0.023 A 
ATOM     91  C   UNL A   1      43.944  35.262  33.043  1.00  0.00     0.012 A 
ATOM     92  C   UNL A   1      43.688  36.397  30.907  1.00  0.00     0.148 A 
ATOM     93  C   UNL A   1      44.477  36.424  33.603  1.00  0.00     0.002 A 
ATOM     94  C   UNL A   1      44.269  37.533  31.456  1.00  0.00     0.091 A 
ATOM     95  F   UNL A   1      43.271  36.362  29.633  1.00  0.00    -0.205 F 
ATOM     96  C   UNL A   1      44.650  37.554  32.807  1.00  0.00     0.022 A 
BRANCH  94  97
ATOM     97  S   UNL A   1      44.623  39.002  30.483  1.00  0.00     0.127 S 
ATOM     98  O   UNL A   1      45.026  39.953  31.517  1.00  0.00    -0.237 OA
ATOM     99  O   UNL A   1      45.711  38.544  29.618  1.00  0.00    -0.237 OA
ATOM    100  O   UNL A   1      43.388  39.328  29.783  1.00  0.00    -0.744 OA
ENDBRANCH  94  97
ENDBRANCH  67  90
ENDBRANCH  41  42
ENDBRANCH  33  36
ENDBRANCH  31  32
ENDBRANCH  30  31
ENDBRANCH  29  30
ENDBRANCH   1  29
TORSDOF 19
ENDMDL
