MODEL 1
REMARK VINA RESULT:     -13.6      0.000      0.000
REMARK SMILES O=C(NCCCCNC(=O)c1ccc2c(c1)[C@@H]1C=CC[C@@H]1[C@H](c1ccncc1)N2)c1ccc(-c2c3nc(c(-c4cccc(S(=O)(=O)[O-])c4F)c4ccc([nH]4)c(-c4cccc(S(=O)(=O)[O-])c4F)c4nc(c(-c5cccc(S(=O)(=O)[O-])c5F)c5ccc2[nH]5)C=C4)C=C3)cc1
REMARK SMILES IDX 4 1 3 2 1 3 2 4 30 6 31 7 92 8 32 9 91 10 33 11 34 12 35 13
REMARK SMILES IDX 85 14 36 15 90 16 84 17 86 18 37 19 89 20 83 21 82 22 38 24
REMARK SMILES IDX 70 25 50 26 69 27 51 28 54 29 68 30 87 31 52 32 53 33 67 35
REMARK SMILES IDX 88 36 55 37 39 38 40 39 48 40 41 41 43 42 49 43 42 44 44 45
REMARK SMILES IDX 45 46 46 47 47 48 71 49 72 50 80 51 73 52 75 53 81 54 74 55
REMARK SMILES IDX 76 56 77 57 78 58 79 59 56 60 57 61 65 62 58 63 60 64 66 65
REMARK SMILES IDX 59 66 61 67 62 68 63 69 64 70 5 71 6 72 7 73 8 74 9 75 10 77
REMARK SMILES IDX 11 78 12 79 16 80 13 81 15 82 14 83 17 84 29 85 18 86 21 87
REMARK SMILES IDX 22 88 19 90 20 91 23 92 24 93 28 94 25 95 27 96 26 97
REMARK H PARENT 3 5 86 23 54 34 8 76 29 89
REMARK Flexibility Score: inf
ROOT
ATOM      1  C   UNL A   1      33.190  29.452  26.204  1.00  0.00     0.116 C 
ENDROOT
BRANCH   1   2
ATOM      2  N   UNL A   1      32.859  30.816  26.588  1.00  0.00    -0.352 N 
ATOM      3  O   UNL A   1      33.094  32.769  27.695  1.00  0.00    -0.269 OA
ATOM      4  C   UNL A   1      33.573  31.680  27.387  1.00  0.00     0.251 C 
ATOM      5  H   UNL A   1      32.012  31.167  26.228  1.00  0.00     0.163 HD
BRANCH   4   6
ATOM      6  C   UNL A   1      34.898  31.269  27.902  1.00  0.00     0.039 A 
ATOM      7  C   UNL A   1      35.102  29.967  28.361  1.00  0.00     0.014 A 
ATOM      8  C   UNL A   1      35.933  32.206  27.970  1.00  0.00     0.014 A 
ATOM      9  C   UNL A   1      36.273  29.654  29.040  1.00  0.00     0.010 A 
ATOM     10  C   UNL A   1      37.149  31.859  28.569  1.00  0.00     0.010 A 
ATOM     11  C   UNL A   1      37.315  30.592  29.147  1.00  0.00    -0.014 A 
BRANCH  11  12
ATOM     12  C   UNL A   1      38.581  30.178  29.808  1.00  0.00     0.031 A 
ATOM     13  C   UNL A   1      38.947  30.647  31.190  1.00  0.00     0.074 A 
ATOM     14  C   UNL A   1      39.384  29.315  29.154  1.00  0.00     0.049 A 
ATOM     15  N   UNL A   1      39.962  30.286  31.933  1.00  0.00    -0.248 NA
ATOM     16  C   UNL A   1      38.076  31.653  31.819  1.00  0.00     0.031 C 
ATOM     17  C   UNL A   1      39.165  28.840  27.785  1.00  0.00     0.029 A 
ATOM     18  N   UNL A   1      40.527  28.669  29.550  1.00  0.00    -0.354 N 
ATOM     19  C   UNL A   1      39.873  31.036  33.100  1.00  0.00     0.074 A 
ATOM     20  C   UNL A   1      38.708  31.885  32.963  1.00  0.00     0.031 C 
ATOM     21  C   UNL A   1      40.110  27.943  27.473  1.00  0.00     0.029 A 
ATOM     22  C   UNL A   1      41.027  27.811  28.599  1.00  0.00     0.049 A 
ATOM     23  H   UNL A   1      40.949  28.808  30.428  1.00  0.00     0.167 HD
ATOM     24  C   UNL A   1      40.675  31.004  34.192  1.00  0.00     0.034 A 
ATOM     25  C   UNL A   1      42.102  27.000  28.626  1.00  0.00     0.034 A 
ATOM     26  C   UNL A   1      41.810  30.129  34.339  1.00  0.00     0.049 A 
ATOM     27  C   UNL A   1      42.929  26.936  29.877  1.00  0.00     0.074 A 
ATOM     28  C   UNL A   1      42.661  29.998  35.425  1.00  0.00     0.029 A 
ATOM     29  N   UNL A   1      42.251  29.232  33.379  1.00  0.00    -0.354 N 
ATOM     30  N   UNL A   1      42.752  27.566  31.012  1.00  0.00    -0.248 NA
ATOM     31  C   UNL A   1      44.084  26.029  29.862  1.00  0.00     0.031 C 
ATOM     32  C   UNL A   1      43.616  29.022  35.119  1.00  0.00     0.029 A 
ATOM     33  C   UNL A   1      43.357  28.541  33.845  1.00  0.00     0.049 A 
ATOM     34  H   UNL A   1      41.838  29.105  32.494  1.00  0.00     0.167 HD
ATOM     35  C   UNL A   1      43.772  27.132  31.848  1.00  0.00     0.074 A 
ATOM     36  C   UNL A   1      44.532  26.148  31.104  1.00  0.00     0.031 C 
ATOM     37  C   UNL A   1      44.076  27.537  33.106  1.00  0.00     0.034 A 
BRANCH  24  38
ATOM     38  C   UNL A   1      40.323  31.899  35.353  1.00  0.00     0.023 A 
ATOM     39  C   UNL A   1      41.007  33.122  35.507  1.00  0.00     0.012 A 
ATOM     40  C   UNL A   1      39.267  31.581  36.230  1.00  0.00     0.148 A 
ATOM     41  C   UNL A   1      40.656  34.009  36.524  1.00  0.00     0.002 A 
ATOM     42  C   UNL A   1      38.902  32.486  37.222  1.00  0.00     0.091 A 
ATOM     43  F   UNL A   1      38.642  30.405  36.080  1.00  0.00    -0.205 F 
ATOM     44  C   UNL A   1      39.598  33.696  37.374  1.00  0.00     0.022 A 
BRANCH  42  45
ATOM     45  S   UNL A   1      37.510  32.208  38.324  1.00  0.00     0.127 S 
ATOM     46  O   UNL A   1      38.051  32.666  39.604  1.00  0.00    -0.237 OA
ATOM     47  O   UNL A   1      36.483  33.079  37.752  1.00  0.00    -0.237 OA
ATOM     48  O   UNL A   1      37.213  30.785  38.244  1.00  0.00    -0.744 OA
ENDBRANCH  42  45
ENDBRANCH  24  38
BRANCH  25  49
ATOM     49  C   UNL A   1      42.408  26.147  27.445  1.00  0.00     0.023 A 
ATOM     50  C   UNL A   1      43.236  26.644  26.422  1.00  0.00     0.012 A 
ATOM     51  C   UNL A   1      41.940  24.821  27.364  1.00  0.00     0.148 A 
ATOM     52  C   UNL A   1      43.577  25.844  25.331  1.00  0.00     0.002 A 
ATOM     53  C   UNL A   1      42.337  24.009  26.309  1.00  0.00     0.091 A 
ATOM     54  F   UNL A   1      41.132  24.367  28.334  1.00  0.00    -0.205 F 
ATOM     55  C   UNL A   1      43.142  24.522  25.283  1.00  0.00     0.022 A 
BRANCH  53  56
ATOM     56  S   UNL A   1      41.944  22.256  26.292  1.00  0.00     0.127 S 
ATOM     57  O   UNL A   1      42.698  21.786  25.135  1.00  0.00    -0.237 OA
ATOM     58  O   UNL A   1      42.458  21.804  27.587  1.00  0.00    -0.237 OA
ATOM     59  O   UNL A   1      40.491  22.203  26.184  1.00  0.00    -0.744 OA
ENDBRANCH  53  56
ENDBRANCH  25  49
BRANCH  37  60
ATOM     60  C   UNL A   1      45.292  26.923  33.746  1.00  0.00     0.023 A 
ATOM     61  C   UNL A   1      46.533  27.582  33.631  1.00  0.00     0.012 A 
ATOM     62  C   UNL A   1      45.207  25.729  34.484  1.00  0.00     0.148 A 
ATOM     63  C   UNL A   1      47.678  27.042  34.212  1.00  0.00     0.002 A 
ATOM     64  C   UNL A   1      46.347  25.216  35.094  1.00  0.00     0.091 A 
ATOM     65  F   UNL A   1      44.024  25.103  34.562  1.00  0.00    -0.205 F 
ATOM     66  C   UNL A   1      47.584  25.865  34.952  1.00  0.00     0.022 A 
BRANCH  64  67
ATOM     67  S   UNL A   1      46.289  23.747  36.126  1.00  0.00     0.127 S 
ATOM     68  O   UNL A   1      47.679  23.629  36.559  1.00  0.00    -0.237 OA
ATOM     69  O   UNL A   1      45.352  24.135  37.181  1.00  0.00    -0.237 OA
ATOM     70  O   UNL A   1      45.802  22.682  35.259  1.00  0.00    -0.744 OA
ENDBRANCH  64  67
ENDBRANCH  37  60
ENDBRANCH  11  12
ENDBRANCH   4   6
ENDBRANCH   1   2
BRANCH   1  71
ATOM     71  C   UNL A   1      32.008  28.672  25.645  1.00  0.00     0.023 C 
BRANCH  71  72
ATOM     72  C   UNL A   1      31.150  29.421  24.631  1.00  0.00     0.023 C 
BRANCH  72  73
ATOM     73  C   UNL A   1      31.183  28.862  23.212  1.00  0.00     0.116 C 
BRANCH  73  74
ATOM     74  N   UNL A   1      32.493  28.979  22.587  1.00  0.00    -0.352 N 
ATOM     75  C   UNL A   1      33.438  28.010  22.352  1.00  0.00     0.251 C 
ATOM     76  H   UNL A   1      32.737  29.884  22.290  1.00  0.00     0.163 HD
ATOM     77  O   UNL A   1      34.556  28.310  21.943  1.00  0.00    -0.269 OA
BRANCH  75  78
ATOM     78  C   UNL A   1      33.115  26.595  22.616  1.00  0.00     0.040 A 
ATOM     79  C   UNL A   1      32.444  25.859  21.645  1.00  0.00     0.016 A 
ATOM     80  C   UNL A   1      33.508  25.989  23.810  1.00  0.00     0.020 A 
ATOM     81  C   UNL A   1      32.212  24.498  21.855  1.00  0.00     0.027 A 
ATOM     82  C   UNL A   1      33.359  24.606  23.984  1.00  0.00    -0.017 A 
ATOM     83  C   UNL A   1      32.651  23.861  23.026  1.00  0.00     0.038 A 
ATOM     84  C   UNL A   1      33.996  23.936  25.180  1.00  0.00     0.049 C 
ATOM     85  N   UNL A   1      32.460  22.492  23.165  1.00  0.00    -0.378 N 
ATOM     86  C   UNL A   1      35.484  24.185  25.257  1.00  0.00    -0.023 C 
ATOM     87  C   UNL A   1      33.976  22.399  25.108  1.00  0.00     0.031 C 
ATOM     88  C   UNL A   1      32.697  21.869  24.459  1.00  0.00     0.114 C 
ATOM     89  H   UNL A   1      32.168  21.949  22.397  1.00  0.00     0.161 HD
ATOM     90  C   UNL A   1      36.195  23.131  24.836  1.00  0.00    -0.030 C 
ATOM     91  C   UNL A   1      35.299  22.005  24.426  1.00  0.00     0.034 C 
BRANCH  88  92
ATOM     92  C   UNL A   1      32.682  20.349  24.374  1.00  0.00    -0.022 A 
ATOM     93  C   UNL A   1      32.445  19.736  23.135  1.00  0.00     0.026 A 
ATOM     94  C   UNL A   1      32.879  19.515  25.480  1.00  0.00     0.026 A 
ATOM     95  C   UNL A   1      32.428  18.351  23.057  1.00  0.00     0.111 A 
ATOM     96  C   UNL A   1      32.861  18.140  25.299  1.00  0.00     0.111 A 
ATOM     97  N   UNL A   1      32.641  17.540  24.112  1.00  0.00    -0.265 NA
ENDBRANCH  88  92
ENDBRANCH  75  78
ENDBRANCH  73  74
ENDBRANCH  72  73
ENDBRANCH  71  72
ENDBRANCH   1  71
TORSDOF 15
ENDMDL
MODEL 2
REMARK VINA RESULT:     -13.6      1.276      1.656
REMARK SMILES O=C(NCCCCNC(=O)c1ccc2c(c1)[C@@H]1C=CC[C@@H]1[C@H](c1ccncc1)N2)c1ccc(-c2c3nc(c(-c4cccc(S(=O)(=O)[O-])c4F)c4ccc([nH]4)c(-c4cccc(S(=O)(=O)[O-])c4F)c4nc(c(-c5cccc(S(=O)(=O)[O-])c5F)c5ccc2[nH]5)C=C4)C=C3)cc1
REMARK SMILES IDX 4 1 3 2 1 3 2 4 30 6 31 7 92 8 32 9 91 10 33 11 34 12 35 13
REMARK SMILES IDX 85 14 36 15 90 16 84 17 86 18 37 19 89 20 83 21 82 22 38 24
REMARK SMILES IDX 70 25 50 26 69 27 51 28 54 29 68 30 87 31 52 32 53 33 67 35
REMARK SMILES IDX 88 36 55 37 39 38 40 39 48 40 41 41 43 42 49 43 42 44 44 45
REMARK SMILES IDX 45 46 46 47 47 48 71 49 72 50 80 51 73 52 75 53 81 54 74 55
REMARK SMILES IDX 76 56 77 57 78 58 79 59 56 60 57 61 65 62 58 63 60 64 66 65
REMARK SMILES IDX 59 66 61 67 62 68 63 69 64 70 5 71 6 72 7 73 8 74 9 75 10 77
REMARK SMILES IDX 11 78 12 79 16 80 13 81 15 82 14 83 17 84 29 85 18 86 21 87
REMARK SMILES IDX 22 88 19 90 20 91 23 92 24 93 28 94 25 95 27 96 26 97
REMARK H PARENT 3 5 86 23 54 34 8 76 29 89
REMARK Flexibility Score: inf
ROOT
ATOM      1  C   UNL A   1      32.452  29.322  26.239  1.00  0.00     0.116 C 
ENDROOT
BRANCH   1   2
ATOM      2  N   UNL A   1      32.133  30.731  26.418  1.00  0.00    -0.352 N 
ATOM      3  O   UNL A   1      32.383  32.823  27.228  1.00  0.00    -0.269 OA
ATOM      4  C   UNL A   1      32.852  31.696  27.086  1.00  0.00     0.251 C 
ATOM      5  H   UNL A   1      31.291  31.033  26.005  1.00  0.00     0.163 HD
BRANCH   4   6
ATOM      6  C   UNL A   1      34.170  31.352  27.663  1.00  0.00     0.039 A 
ATOM      7  C   UNL A   1      34.469  30.032  28.002  1.00  0.00     0.014 A 
ATOM      8  C   UNL A   1      35.100  32.367  27.911  1.00  0.00     0.014 A 
ATOM      9  C   UNL A   1      35.613  29.753  28.739  1.00  0.00     0.010 A 
ATOM     10  C   UNL A   1      36.298  32.067  28.569  1.00  0.00     0.010 A 
ATOM     11  C   UNL A   1      36.546  30.764  29.027  1.00  0.00    -0.014 A 
BRANCH  11  12
ATOM     12  C   UNL A   1      37.796  30.397  29.744  1.00  0.00     0.031 A 
ATOM     13  C   UNL A   1      38.067  30.848  31.153  1.00  0.00     0.074 A 
ATOM     14  C   UNL A   1      38.675  29.591  29.114  1.00  0.00     0.049 A 
ATOM     15  N   UNL A   1      39.060  30.519  31.940  1.00  0.00    -0.248 NA
ATOM     16  C   UNL A   1      37.115  31.794  31.758  1.00  0.00     0.031 C 
ATOM     17  C   UNL A   1      38.550  29.141  27.724  1.00  0.00     0.029 A 
ATOM     18  N   UNL A   1      39.827  28.993  29.553  1.00  0.00    -0.354 N 
ATOM     19  C   UNL A   1      38.873  31.234  33.117  1.00  0.00     0.074 A 
ATOM     20  C   UNL A   1      37.675  32.028  32.939  1.00  0.00     0.031 C 
ATOM     21  C   UNL A   1      39.553  28.300  27.442  1.00  0.00     0.029 A 
ATOM     22  C   UNL A   1      40.418  28.184  28.611  1.00  0.00     0.049 A 
ATOM     23  H   UNL A   1      40.195  29.130  30.456  1.00  0.00     0.167 HD
ATOM     24  C   UNL A   1      39.618  31.214  34.249  1.00  0.00     0.034 A 
ATOM     25  C   UNL A   1      41.529  27.427  28.676  1.00  0.00     0.034 A 
ATOM     26  C   UNL A   1      40.787  30.392  34.436  1.00  0.00     0.049 A 
ATOM     27  C   UNL A   1      42.293  27.372  29.967  1.00  0.00     0.074 A 
ATOM     28  C   UNL A   1      41.586  30.275  35.561  1.00  0.00     0.029 A 
ATOM     29  N   UNL A   1      41.321  29.543  33.480  1.00  0.00    -0.354 N 
ATOM     30  N   UNL A   1      42.027  27.963  31.106  1.00  0.00    -0.248 NA
ATOM     31  C   UNL A   1      43.492  26.524  29.992  1.00  0.00     0.031 C 
ATOM     32  C   UNL A   1      42.604  29.356  35.284  1.00  0.00     0.029 A 
ATOM     33  C   UNL A   1      42.436  28.895  33.988  1.00  0.00     0.049 A 
ATOM     34  H   UNL A   1      40.961  29.418  32.572  1.00  0.00     0.167 HD
ATOM     35  C   UNL A   1      43.023  27.560  31.984  1.00  0.00     0.074 A 
ATOM     36  C   UNL A   1      43.869  26.633  31.259  1.00  0.00     0.031 C 
ATOM     37  C   UNL A   1      43.241  27.947  33.265  1.00  0.00     0.034 A 
BRANCH  24  38
ATOM     38  C   UNL A   1      39.163  32.060  35.410  1.00  0.00     0.023 A 
ATOM     39  C   UNL A   1      38.284  31.503  36.361  1.00  0.00     0.012 A 
ATOM     40  C   UNL A   1      39.668  33.360  35.613  1.00  0.00     0.148 A 
ATOM     41  C   UNL A   1      37.903  32.230  37.488  1.00  0.00     0.002 A 
ATOM     42  C   UNL A   1      39.307  34.067  36.757  1.00  0.00     0.091 A 
ATOM     43  F   UNL A   1      40.486  33.881  34.688  1.00  0.00    -0.205 F 
ATOM     44  C   UNL A   1      38.421  33.506  37.691  1.00  0.00     0.022 A 
BRANCH  42  45
ATOM     45  S   UNL A   1      39.974  35.690  37.145  1.00  0.00     0.127 S 
ATOM     46  O   UNL A   1      41.395  35.392  37.316  1.00  0.00    -0.237 OA
ATOM     47  O   UNL A   1      39.653  36.453  35.939  1.00  0.00    -0.237 OA
ATOM     48  O   UNL A   1      39.278  36.132  38.345  1.00  0.00    -0.744 OA
ENDBRANCH  42  45
ENDBRANCH  24  38
BRANCH  25  49
ATOM     49  C   UNL A   1      41.938  26.620  27.494  1.00  0.00     0.023 A 
ATOM     50  C   UNL A   1      42.702  27.217  26.474  1.00  0.00     0.012 A 
ATOM     51  C   UNL A   1      41.634  25.248  27.409  1.00  0.00     0.148 A 
ATOM     52  C   UNL A   1      43.139  26.466  25.382  1.00  0.00     0.002 A 
ATOM     53  C   UNL A   1      42.127  24.492  26.352  1.00  0.00     0.091 A 
ATOM     54  F   UNL A   1      40.884  24.697  28.376  1.00  0.00    -0.205 F 
ATOM     55  C   UNL A   1      42.866  25.101  25.329  1.00  0.00     0.022 A 
BRANCH  53  56
ATOM     56  S   UNL A   1      41.948  22.705  26.330  1.00  0.00     0.127 S 
ATOM     57  O   UNL A   1      40.499  22.545  26.279  1.00  0.00    -0.237 OA
ATOM     58  O   UNL A   1      42.653  22.331  25.102  1.00  0.00    -0.237 OA
ATOM     59  O   UNL A   1      42.607  22.251  27.548  1.00  0.00    -0.744 OA
ENDBRANCH  53  56
ENDBRANCH  25  49
BRANCH  37  60
ATOM     60  C   UNL A   1      44.452  27.378  33.953  1.00  0.00     0.023 A 
ATOM     61  C   UNL A   1      45.693  28.031  33.809  1.00  0.00     0.012 A 
ATOM     62  C   UNL A   1      44.363  26.232  34.764  1.00  0.00     0.148 A 
ATOM     63  C   UNL A   1      46.834  27.532  34.434  1.00  0.00     0.002 A 
ATOM     64  C   UNL A   1      45.498  25.762  35.416  1.00  0.00     0.091 A 
ATOM     65  F   UNL A   1      43.180  25.609  34.870  1.00  0.00    -0.205 F 
ATOM     66  C   UNL A   1      46.735  26.404  35.246  1.00  0.00     0.022 A 
BRANCH  64  67
ATOM     67  S   UNL A   1      45.432  24.360  36.538  1.00  0.00     0.127 S 
ATOM     68  O   UNL A   1      44.484  24.827  37.546  1.00  0.00    -0.237 OA
ATOM     69  O   UNL A   1      44.930  23.287  35.679  1.00  0.00    -0.237 OA
ATOM     70  O   UNL A   1      46.801  24.164  36.997  1.00  0.00    -0.744 OA
ENDBRANCH  64  67
ENDBRANCH  37  60
ENDBRANCH  11  12
ENDBRANCH   4   6
ENDBRANCH   1   2
BRANCH   1  71
ATOM     71  C   UNL A   1      31.473  28.586  25.336  1.00  0.00     0.023 C 
BRANCH  71  72
ATOM     72  C   UNL A   1      30.887  29.410  24.195  1.00  0.00     0.023 C 
BRANCH  72  73
ATOM     73  C   UNL A   1      31.142  28.858  22.796  1.00  0.00     0.116 C 
BRANCH  73  74
ATOM     74  N   UNL A   1      32.530  28.997  22.376  1.00  0.00    -0.352 N 
ATOM     75  C   UNL A   1      33.521  28.049  22.309  1.00  0.00     0.251 C 
ATOM     76  H   UNL A   1      32.796  29.903  22.101  1.00  0.00     0.163 HD
ATOM     77  O   UNL A   1      34.681  28.370  22.069  1.00  0.00    -0.269 OA
BRANCH  75  78
ATOM     78  C   UNL A   1      33.193  26.632  22.551  1.00  0.00     0.040 A 
ATOM     79  C   UNL A   1      32.602  25.888  21.534  1.00  0.00     0.016 A 
ATOM     80  C   UNL A   1      33.504  26.031  23.772  1.00  0.00     0.020 A 
ATOM     81  C   UNL A   1      32.369  24.525  21.729  1.00  0.00     0.027 A 
ATOM     82  C   UNL A   1      33.356  24.646  23.936  1.00  0.00    -0.017 A 
ATOM     83  C   UNL A   1      32.727  23.894  22.930  1.00  0.00     0.038 A 
ATOM     84  C   UNL A   1      33.910  23.983  25.177  1.00  0.00     0.049 C 
ATOM     85  N   UNL A   1      32.539  22.522  23.057  1.00  0.00    -0.378 N 
ATOM     86  C   UNL A   1      35.386  24.247  25.362  1.00  0.00    -0.023 C 
ATOM     87  C   UNL A   1      33.911  22.446  25.106  1.00  0.00     0.031 C 
ATOM     88  C   UNL A   1      32.688  21.903  24.366  1.00  0.00     0.114 C 
ATOM     89  H   UNL A   1      32.310  21.976  22.271  1.00  0.00     0.161 HD
ATOM     90  C   UNL A   1      36.136  23.199  24.996  1.00  0.00    -0.030 C 
ATOM     91  C   UNL A   1      35.284  22.065  24.524  1.00  0.00     0.034 C 
BRANCH  88  92
ATOM     92  C   UNL A   1      32.694  20.383  24.282  1.00  0.00    -0.022 A 
ATOM     93  C   UNL A   1      32.896  19.635  25.452  1.00  0.00     0.026 A 
ATOM     94  C   UNL A   1      32.521  19.678  23.086  1.00  0.00     0.026 A 
ATOM     95  C   UNL A   1      32.904  18.250  25.376  1.00  0.00     0.111 A 
ATOM     96  C   UNL A   1      32.528  18.291  23.114  1.00  0.00     0.111 A 
ATOM     97  N   UNL A   1      32.714  17.562  24.233  1.00  0.00    -0.265 NA
ENDBRANCH  88  92
ENDBRANCH  75  78
ENDBRANCH  73  74
ENDBRANCH  72  73
ENDBRANCH  71  72
ENDBRANCH   1  71
TORSDOF 15
ENDMDL
MODEL 3
REMARK VINA RESULT:     -13.2      0.800      1.212
REMARK SMILES O=C(NCCCCNC(=O)c1ccc2c(c1)[C@@H]1C=CC[C@@H]1[C@H](c1ccncc1)N2)c1ccc(-c2c3nc(c(-c4cccc(S(=O)(=O)[O-])c4F)c4ccc([nH]4)c(-c4cccc(S(=O)(=O)[O-])c4F)c4nc(c(-c5cccc(S(=O)(=O)[O-])c5F)c5ccc2[nH]5)C=C4)C=C3)cc1
REMARK SMILES IDX 4 1 3 2 1 3 2 4 30 6 31 7 92 8 32 9 91 10 33 11 34 12 35 13
REMARK SMILES IDX 85 14 36 15 90 16 84 17 86 18 37 19 89 20 83 21 82 22 38 24
REMARK SMILES IDX 70 25 50 26 69 27 51 28 54 29 68 30 87 31 52 32 53 33 67 35
REMARK SMILES IDX 88 36 55 37 39 38 40 39 48 40 41 41 43 42 49 43 42 44 44 45
REMARK SMILES IDX 45 46 46 47 47 48 71 49 72 50 80 51 73 52 75 53 81 54 74 55
REMARK SMILES IDX 76 56 77 57 78 58 79 59 56 60 57 61 65 62 58 63 60 64 66 65
REMARK SMILES IDX 59 66 61 67 62 68 63 69 64 70 5 71 6 72 7 73 8 74 9 75 10 77
REMARK SMILES IDX 11 78 12 79 16 80 13 81 15 82 14 83 17 84 29 85 18 86 21 87
REMARK SMILES IDX 22 88 19 90 20 91 23 92 24 93 28 94 25 95 27 96 26 97
REMARK H PARENT 3 5 86 23 54 34 8 76 29 89
REMARK Flexibility Score: inf
ROOT
ATOM      1  C   UNL A   1      32.971  29.352  26.712  1.00  0.00     0.116 C 
ENDROOT
BRANCH   1   2
ATOM      2  N   UNL A   1      32.747  30.779  26.892  1.00  0.00    -0.352 N 
ATOM      3  O   UNL A   1      33.171  32.859  27.658  1.00  0.00    -0.269 OA
ATOM      4  C   UNL A   1      33.563  31.705  27.502  1.00  0.00     0.251 C 
ATOM      5  H   UNL A   1      31.901  31.127  26.529  1.00  0.00     0.163 HD
BRANCH   4   6
ATOM      6  C   UNL A   1      34.892  31.289  28.001  1.00  0.00     0.039 A 
ATOM      7  C   UNL A   1      35.085  30.000  28.503  1.00  0.00     0.014 A 
ATOM      8  C   UNL A   1      35.945  32.208  28.010  1.00  0.00     0.014 A 
ATOM      9  C   UNL A   1      36.265  29.691  29.166  1.00  0.00     0.010 A 
ATOM     10  C   UNL A   1      37.168  31.861  28.594  1.00  0.00     0.010 A 
ATOM     11  C   UNL A   1      37.325  30.613  29.214  1.00  0.00    -0.014 A 
BRANCH  11  12
ATOM     12  C   UNL A   1      38.599  30.200  29.861  1.00  0.00     0.031 A 
ATOM     13  C   UNL A   1      38.976  30.661  31.242  1.00  0.00     0.074 A 
ATOM     14  C   UNL A   1      39.401  29.345  29.194  1.00  0.00     0.049 A 
ATOM     15  N   UNL A   1      40.000  30.300  31.974  1.00  0.00    -0.248 NA
ATOM     16  C   UNL A   1      38.107  31.659  31.886  1.00  0.00     0.031 C 
ATOM     17  C   UNL A   1      39.170  28.878  27.823  1.00  0.00     0.029 A 
ATOM     18  N   UNL A   1      40.550  28.702  29.575  1.00  0.00    -0.354 N 
ATOM     19  C   UNL A   1      39.918  31.042  33.146  1.00  0.00     0.074 A 
ATOM     20  C   UNL A   1      38.749  31.887  33.026  1.00  0.00     0.031 C 
ATOM     21  C   UNL A   1      40.116  27.988  27.498  1.00  0.00     0.029 A 
ATOM     22  C   UNL A   1      41.045  27.851  28.614  1.00  0.00     0.049 A 
ATOM     23  H   UNL A   1      40.979  28.836  30.450  1.00  0.00     0.167 HD
ATOM     24  C   UNL A   1      40.730  31.006  34.231  1.00  0.00     0.034 A 
ATOM     25  C   UNL A   1      42.123  27.046  28.626  1.00  0.00     0.034 A 
ATOM     26  C   UNL A   1      41.870  30.135  34.362  1.00  0.00     0.049 A 
ATOM     27  C   UNL A   1      42.961  26.977  29.868  1.00  0.00     0.074 A 
ATOM     28  C   UNL A   1      42.731  30.000  35.439  1.00  0.00     0.029 A 
ATOM     29  N   UNL A   1      42.306  29.246  33.392  1.00  0.00    -0.354 N 
ATOM     30  N   UNL A   1      42.793  27.598  31.009  1.00  0.00    -0.248 NA
ATOM     31  C   UNL A   1      44.121  26.075  29.837  1.00  0.00     0.031 C 
ATOM     32  C   UNL A   1      43.688  29.030  35.118  1.00  0.00     0.029 A 
ATOM     33  C   UNL A   1      43.420  28.557  33.843  1.00  0.00     0.049 A 
ATOM     34  H   UNL A   1      41.886  29.123  32.510  1.00  0.00     0.167 HD
ATOM     35  C   UNL A   1      43.822  27.163  31.833  1.00  0.00     0.074 A 
ATOM     36  C   UNL A   1      44.579  26.187  31.076  1.00  0.00     0.031 C 
ATOM     37  C   UNL A   1      44.136  27.561  33.091  1.00  0.00     0.034 A 
BRANCH  24  38
ATOM     38  C   UNL A   1      40.385  31.891  35.401  1.00  0.00     0.023 A 
ATOM     39  C   UNL A   1      41.101  33.092  35.587  1.00  0.00     0.012 A 
ATOM     40  C   UNL A   1      39.306  31.590  36.256  1.00  0.00     0.148 A 
ATOM     41  C   UNL A   1      40.759  33.972  36.613  1.00  0.00     0.002 A 
ATOM     42  C   UNL A   1      38.951  32.489  37.257  1.00  0.00     0.091 A 
ATOM     43  F   UNL A   1      38.651  30.435  36.077  1.00  0.00    -0.205 F 
ATOM     44  C   UNL A   1      39.679  33.676  37.440  1.00  0.00     0.022 A 
BRANCH  42  45
ATOM     45  S   UNL A   1      37.534  32.234  38.333  1.00  0.00     0.127 S 
ATOM     46  O   UNL A   1      38.012  32.806  39.591  1.00  0.00    -0.237 OA
ATOM     47  O   UNL A   1      36.493  33.016  37.665  1.00  0.00    -0.237 OA
ATOM     48  O   UNL A   1      37.296  30.797  38.348  1.00  0.00    -0.744 OA
ENDBRANCH  42  45
ENDBRANCH  24  38
BRANCH  25  49
ATOM     49  C   UNL A   1      42.422  26.201  27.436  1.00  0.00     0.023 A 
ATOM     50  C   UNL A   1      43.215  26.720  26.396  1.00  0.00     0.012 A 
ATOM     51  C   UNL A   1      41.983  24.865  27.363  1.00  0.00     0.148 A 
ATOM     52  C   UNL A   1      43.549  25.929  25.296  1.00  0.00     0.002 A 
ATOM     53  C   UNL A   1      42.375  24.064  26.297  1.00  0.00     0.091 A 
ATOM     54  F   UNL A   1      41.208  24.391  28.350  1.00  0.00    -0.205 F 
ATOM     55  C   UNL A   1      43.144  24.597  25.254  1.00  0.00     0.022 A 
BRANCH  53  56
ATOM     56  S   UNL A   1      42.022  22.302  26.286  1.00  0.00     0.127 S 
ATOM     57  O   UNL A   1      42.779  21.848  25.124  1.00  0.00    -0.237 OA
ATOM     58  O   UNL A   1      42.556  21.865  27.578  1.00  0.00    -0.237 OA
ATOM     59  O   UNL A   1      40.571  22.216  26.189  1.00  0.00    -0.744 OA
ENDBRANCH  53  56
ENDBRANCH  25  49
BRANCH  37  60
ATOM     60  C   UNL A   1      45.361  26.948  33.715  1.00  0.00     0.023 A 
ATOM     61  C   UNL A   1      46.601  27.603  33.577  1.00  0.00     0.012 A 
ATOM     62  C   UNL A   1      45.284  25.758  34.462  1.00  0.00     0.148 A 
ATOM     63  C   UNL A   1      47.754  27.064  34.144  1.00  0.00     0.002 A 
ATOM     64  C   UNL A   1      46.432  25.247  35.057  1.00  0.00     0.091 A 
ATOM     65  F   UNL A   1      44.101  25.135  34.561  1.00  0.00    -0.205 F 
ATOM     66  C   UNL A   1      47.669  25.892  34.893  1.00  0.00     0.022 A 
BRANCH  64  67
ATOM     67  S   UNL A   1      46.387  23.783  36.098  1.00  0.00     0.127 S 
ATOM     68  O   UNL A   1      45.432  24.180  37.130  1.00  0.00    -0.237 OA
ATOM     69  O   UNL A   1      45.899  22.753  35.180  1.00  0.00    -0.237 OA
ATOM     70  O   UNL A   1      47.759  23.582  36.546  1.00  0.00    -0.744 OA
ENDBRANCH  64  67
ENDBRANCH  37  60
ENDBRANCH  11  12
ENDBRANCH   4   6
ENDBRANCH   1   2
BRANCH   1  71
ATOM     71  C   UNL A   1      31.790  28.491  27.139  1.00  0.00     0.023 C 
BRANCH  71  72
ATOM     72  C   UNL A   1      31.761  27.083  26.555  1.00  0.00     0.023 C 
BRANCH  72  73
ATOM     73  C   UNL A   1      31.216  26.978  25.135  1.00  0.00     0.116 C 
BRANCH  73  74
ATOM     74  N   UNL A   1      32.216  27.279  24.120  1.00  0.00    -0.352 N 
ATOM     75  C   UNL A   1      33.040  26.427  23.427  1.00  0.00     0.251 C 
ATOM     76  H   UNL A   1      32.315  28.232  23.898  1.00  0.00     0.163 HD
ATOM     77  O   UNL A   1      33.933  26.864  22.707  1.00  0.00    -0.269 OA
BRANCH  75  78
ATOM     78  C   UNL A   1      32.869  24.969  23.569  1.00  0.00     0.040 A 
ATOM     79  C   UNL A   1      32.281  24.251  22.532  1.00  0.00     0.016 A 
ATOM     80  C   UNL A   1      33.323  24.309  24.711  1.00  0.00     0.020 A 
ATOM     81  C   UNL A   1      32.194  22.860  22.625  1.00  0.00     0.027 A 
ATOM     82  C   UNL A   1      33.320  22.907  24.767  1.00  0.00    -0.017 A 
ATOM     83  C   UNL A   1      32.696  22.176  23.743  1.00  0.00     0.038 A 
ATOM     84  C   UNL A   1      34.023  22.209  25.909  1.00  0.00     0.049 C 
ATOM     85  N   UNL A   1      32.651  20.787  23.764  1.00  0.00    -0.378 N 
ATOM     86  C   UNL A   1      35.476  22.606  26.022  1.00  0.00    -0.023 C 
ATOM     87  C   UNL A   1      34.166  20.691  25.708  1.00  0.00     0.031 C 
ATOM     88  C   UNL A   1      32.951  20.085  25.003  1.00  0.00     0.114 C 
ATOM     89  H   UNL A   1      32.419  20.284  22.950  1.00  0.00     0.161 HD
ATOM     90  C   UNL A   1      36.295  21.673  25.521  1.00  0.00    -0.030 C 
ATOM     91  C   UNL A   1      35.524  20.498  25.010  1.00  0.00     0.034 C 
BRANCH  88  92
ATOM     92  C   UNL A   1      33.097  18.586  24.791  1.00  0.00    -0.022 A 
ATOM     93  C   UNL A   1      32.779  17.712  25.842  1.00  0.00     0.026 A 
ATOM     94  C   UNL A   1      33.552  18.019  23.595  1.00  0.00     0.026 A 
ATOM     95  C   UNL A   1      32.914  16.345  25.650  1.00  0.00     0.111 A 
ATOM     96  C   UNL A   1      33.638  16.638  23.494  1.00  0.00     0.111 A 
ATOM     97  N   UNL A   1      33.328  15.788  24.495  1.00  0.00    -0.265 NA
ENDBRANCH  88  92
ENDBRANCH  75  78
ENDBRANCH  73  74
ENDBRANCH  72  73
ENDBRANCH  71  72
ENDBRANCH   1  71
TORSDOF 15
ENDMDL
