MODEL 1
REMARK VINA RESULT:      -9.2      0.000      0.000
REMARK SMILES CCCc1nc(C)cc(N2CCC(C(=O)NCCCCNC(=O)c3ccc(-c4c5nc(c(-c6cccc(S(=O)(=O)[O-])c6F)c6ccc([nH]6)c(-c6cccc(S(=O)(=O)[O-])c6F)c6nc(c(-c7cccc(S(=O)(=O)[O-])c7F)c7ccc4[nH]7)C=C6)C=C5)cc3)(n3ccc(C(C)C)n3)CC2)n1
REMARK SMILES IDX 18 1 17 2 16 3 14 4 15 5 13 7 10 8 11 9 96 10 12 11 95 12
REMARK SMILES IDX 9 13 4 14 5 15 97 16 6 17 7 18 8 19 3 20 2 21 1 22 87 23
REMARK SMILES IDX 88 24 94 25 89 26 90 27 91 28 92 29 93 30 19 31 20 32 21 33
REMARK SMILES IDX 22 34 23 36 24 37 25 38 86 39 26 40 85 41 27 42 28 43 29 44
REMARK SMILES IDX 79 45 30 46 84 47 78 48 80 49 31 50 83 51 77 52 76 53 32 55
REMARK SMILES IDX 64 56 44 57 63 58 45 59 48 60 62 61 81 62 46 63 47 64 61 66
REMARK SMILES IDX 82 67 49 68 33 69 34 70 42 71 35 72 37 73 43 74 36 75 38 76
REMARK SMILES IDX 39 77 40 78 41 79 65 80 66 81 74 82 67 83 69 84 75 85 68 86
REMARK SMILES IDX 70 87 71 88 72 89 73 90 50 91 51 92 59 93 52 94 54 95 60 96
REMARK SMILES IDX 53 97 55 98 56 99 57 100 58 101
REMARK H PARENT 16 6 21 35 80 54 48 65
REMARK Flexibility Score: inf
ROOT
ATOM      1  C   UNL A   1      48.752  39.346  27.300  1.00  0.00     0.023 C 
ENDROOT
BRANCH   1   2
ATOM      2  C   UNL A   1      47.571  40.145  27.853  1.00  0.00     0.116 C 
BRANCH   2   3
ATOM      3  N   UNL A   1      47.453  40.018  29.301  1.00  0.00    -0.354 N 
ATOM      4  C   UNL A   1      46.509  40.460  30.200  1.00  0.00     0.248 C 
ATOM      5  O   UNL A   1      46.867  40.376  31.377  1.00  0.00    -0.272 OA
ATOM      6  H   UNL A   1      48.192  39.518  29.717  1.00  0.00     0.163 HD
BRANCH   4   7
ATOM      7  C   UNL A   1      45.159  41.092  29.723  1.00  0.00     0.144 C 
ATOM      8  N   UNL A   1      44.304  41.815  27.112  1.00  0.00    -0.356 N 
ATOM      9  C   UNL A   1      44.740  42.936  27.921  1.00  0.00     0.121 C 
ATOM     10  C   UNL A   1      43.557  40.748  27.742  1.00  0.00     0.121 C 
ATOM     11  C   UNL A   1      45.562  42.464  29.107  1.00  0.00     0.062 C 
ATOM     12  C   UNL A   1      44.444  40.085  28.783  1.00  0.00     0.062 C 
BRANCH   8  13
ATOM     13  C   UNL A   1      44.199  42.059  25.759  1.00  0.00     0.132 A 
ATOM     14  C   UNL A   1      45.267  42.521  23.779  1.00  0.00     0.130 A 
ATOM     15  N   UNL A   1      44.122  42.565  23.074  1.00  0.00    -0.238 NA
ATOM     16  N   UNL A   1      45.343  42.305  25.102  1.00  0.00    -0.216 NA
ATOM     17  C   UNL A   1      42.986  42.335  23.756  1.00  0.00     0.043 A 
ATOM     18  C   UNL A   1      41.713  42.367  22.966  1.00  0.00     0.067 C 
ATOM     19  C   UNL A   1      42.982  42.053  25.107  1.00  0.00     0.070 A 
BRANCH  14  20
ATOM     20  C   UNL A   1      46.560  42.602  23.015  1.00  0.00     0.077 C 
BRANCH  20  21
ATOM     21  C   UNL A   1      46.333  42.845  21.519  1.00  0.00     0.005 C 
ATOM     22  C   UNL A   1      47.475  42.340  20.644  1.00  0.00     0.004 C 
ENDBRANCH  20  21
ENDBRANCH  14  20
ENDBRANCH   8  13
BRANCH   7  23
ATOM     23  N   UNL A   1      44.194  41.352  30.841  1.00  0.00    -0.257 N 
ATOM     24  C   UNL A   1      43.442  40.411  31.512  1.00  0.00     0.110 A 
ATOM     25  N   UNL A   1      44.124  42.548  31.457  1.00  0.00    -0.177 NA
ATOM     26  C   UNL A   1      42.733  41.081  32.476  1.00  0.00     0.045 A 
ATOM     27  C   UNL A   1      43.142  42.423  32.356  1.00  0.00     0.065 A 
BRANCH  27  28
ATOM     28  C   UNL A   1      42.636  43.624  33.100  1.00  0.00     0.034 C 
ATOM     29  C   UNL A   1      42.322  43.285  34.562  1.00  0.00     0.014 C 
ATOM     30  C   UNL A   1      43.624  44.787  33.021  1.00  0.00     0.014 C 
ENDBRANCH  27  28
ENDBRANCH   7  23
ENDBRANCH   4   7
ENDBRANCH   2   3
ENDBRANCH   1   2
BRANCH   1  31
ATOM     31  C   UNL A   1      48.377  38.064  26.555  1.00  0.00     0.023 C 
BRANCH  31  32
ATOM     32  C   UNL A   1      46.981  38.049  25.943  1.00  0.00     0.116 C 
BRANCH  32  33
ATOM     33  N   UNL A   1      46.648  36.777  25.318  1.00  0.00    -0.352 N 
ATOM     34  C   UNL A   1      46.037  35.676  25.869  1.00  0.00     0.251 C 
ATOM     35  H   UNL A   1      46.894  36.694  24.369  1.00  0.00     0.163 HD
ATOM     36  O   UNL A   1      45.951  34.635  25.223  1.00  0.00    -0.269 OA
BRANCH  34  37
ATOM     37  C   UNL A   1      45.513  35.740  27.251  1.00  0.00     0.039 A 
ATOM     38  C   UNL A   1      44.422  36.569  27.523  1.00  0.00     0.014 A 
ATOM     39  C   UNL A   1      46.081  34.971  28.269  1.00  0.00     0.014 A 
ATOM     40  C   UNL A   1      43.857  36.574  28.801  1.00  0.00     0.010 A 
ATOM     41  C   UNL A   1      45.473  34.924  29.522  1.00  0.00     0.010 A 
ATOM     42  C   UNL A   1      44.356  35.725  29.802  1.00  0.00    -0.014 A 
BRANCH  42  43
ATOM     43  C   UNL A   1      43.719  35.647  31.142  1.00  0.00     0.031 A 
ATOM     44  C   UNL A   1      42.442  34.872  31.329  1.00  0.00     0.074 A 
ATOM     45  C   UNL A   1      44.239  36.348  32.170  1.00  0.00     0.049 A 
ATOM     46  N   UNL A   1      41.695  34.758  32.396  1.00  0.00    -0.248 NA
ATOM     47  C   UNL A   1      41.920  34.152  30.155  1.00  0.00     0.031 C 
ATOM     48  C   UNL A   1      45.428  37.202  32.100  1.00  0.00     0.029 A 
ATOM     49  N   UNL A   1      43.816  36.481  33.471  1.00  0.00    -0.354 N 
ATOM     50  C   UNL A   1      40.605  33.984  32.018  1.00  0.00     0.074 A 
ATOM     51  C   UNL A   1      40.767  33.684  30.613  1.00  0.00     0.031 C 
ATOM     52  C   UNL A   1      45.635  37.770  33.299  1.00  0.00     0.029 A 
ATOM     53  C   UNL A   1      44.582  37.347  34.216  1.00  0.00     0.049 A 
ATOM     54  H   UNL A   1      43.036  36.002  33.834  1.00  0.00     0.167 HD
ATOM     55  C   UNL A   1      39.578  33.535  32.778  1.00  0.00     0.034 A 
ATOM     56  C   UNL A   1      44.447  37.761  35.492  1.00  0.00     0.034 A 
ATOM     57  C   UNL A   1      39.443  33.791  34.186  1.00  0.00     0.049 A 
ATOM     58  C   UNL A   1      43.319  37.209  36.323  1.00  0.00     0.074 A 
ATOM     59  C   UNL A   1      38.477  33.320  35.057  1.00  0.00     0.029 A 
ATOM     60  N   UNL A   1      40.300  34.586  34.930  1.00  0.00    -0.354 N 
ATOM     61  N   UNL A   1      42.383  36.355  35.983  1.00  0.00    -0.248 NA
ATOM     62  C   UNL A   1      43.249  37.646  37.726  1.00  0.00     0.031 C 
ATOM     63  C   UNL A   1      38.745  33.838  36.328  1.00  0.00     0.029 A 
ATOM     64  C   UNL A   1      39.888  34.615  36.251  1.00  0.00     0.049 A 
ATOM     65  H   UNL A   1      41.085  35.059  34.573  1.00  0.00     0.167 HD
ATOM     66  C   UNL A   1      41.643  36.122  37.137  1.00  0.00     0.074 A 
ATOM     67  C   UNL A   1      42.251  36.907  38.190  1.00  0.00     0.031 C 
ATOM     68  C   UNL A   1      40.545  35.345  37.304  1.00  0.00     0.034 A 
BRANCH  55  69
ATOM     69  C   UNL A   1      38.552  32.649  32.120  1.00  0.00     0.023 A 
ATOM     70  C   UNL A   1      38.691  31.249  32.214  1.00  0.00     0.012 A 
ATOM     71  C   UNL A   1      37.417  33.191  31.485  1.00  0.00     0.148 A 
ATOM     72  C   UNL A   1      37.731  30.401  31.664  1.00  0.00     0.002 A 
ATOM     73  C   UNL A   1      36.443  32.339  30.976  1.00  0.00     0.091 A 
ATOM     74  F   UNL A   1      37.312  34.524  31.391  1.00  0.00    -0.205 F 
ATOM     75  C   UNL A   1      36.603  30.946  31.056  1.00  0.00     0.022 A 
BRANCH  73  76
ATOM     76  S   UNL A   1      34.915  32.935  30.242  1.00  0.00     0.127 S 
ATOM     77  O   UNL A   1      34.517  31.790  29.423  1.00  0.00    -0.237 OA
ATOM     78  O   UNL A   1      34.077  33.163  31.420  1.00  0.00    -0.237 OA
ATOM     79  O   UNL A   1      35.266  34.137  29.500  1.00  0.00    -0.744 OA
ENDBRANCH  73  76
ENDBRANCH  55  69
BRANCH  56  80
ATOM     80  C   UNL A   1      45.438  38.702  36.088  1.00  0.00     0.023 A 
ATOM     81  C   UNL A   1      46.572  38.185  36.747  1.00  0.00     0.012 A 
ATOM     82  C   UNL A   1      45.269  40.097  36.010  1.00  0.00     0.148 A 
ATOM     83  C   UNL A   1      47.494  39.038  37.353  1.00  0.00     0.002 A 
ATOM     84  C   UNL A   1      46.221  40.943  36.569  1.00  0.00     0.091 A 
ATOM     85  F   UNL A   1      44.177  40.573  35.394  1.00  0.00    -0.205 F 
ATOM     86  C   UNL A   1      47.324  40.416  37.257  1.00  0.00     0.022 A 
BRANCH  84  87
ATOM     87  S   UNL A   1      46.144  42.727  36.373  1.00  0.00     0.127 S 
ATOM     88  O   UNL A   1      45.944  42.861  34.932  1.00  0.00    -0.237 OA
ATOM     89  O   UNL A   1      44.981  43.077  37.190  1.00  0.00    -0.237 OA
ATOM     90  O   UNL A   1      47.409  43.227  36.893  1.00  0.00    -0.744 OA
ENDBRANCH  84  87
ENDBRANCH  56  80
BRANCH  68  91
ATOM     91  C   UNL A   1      39.952  35.258  38.686  1.00  0.00     0.023 A 
ATOM     92  C   UNL A   1      39.163  36.316  39.176  1.00  0.00     0.012 A 
ATOM     93  C   UNL A   1      40.112  34.094  39.464  1.00  0.00     0.148 A 
ATOM     94  C   UNL A   1      38.567  36.231  40.434  1.00  0.00     0.002 A 
ATOM     95  C   UNL A   1      39.475  33.996  40.695  1.00  0.00     0.091 A 
ATOM     96  F   UNL A   1      40.882  33.106  38.986  1.00  0.00    -0.205 F 
ATOM     97  C   UNL A   1      38.714  35.068  41.187  1.00  0.00     0.022 A 
BRANCH  95  98
ATOM     98  S   UNL A   1      39.530  32.502  41.690  1.00  0.00     0.127 S 
ATOM     99  O   UNL A   1      40.950  32.161  41.638  1.00  0.00    -0.237 OA
ATOM    100  O   UNL A   1      39.063  32.978  42.993  1.00  0.00    -0.237 OA
ATOM    101  O   UNL A   1      38.634  31.555  41.039  1.00  0.00    -0.744 OA
ENDBRANCH  95  98
ENDBRANCH  68  91
ENDBRANCH  42  43
ENDBRANCH  34  37
ENDBRANCH  32  33
ENDBRANCH  31  32
ENDBRANCH   1  31
TORSDOF 19
ENDMDL
MODEL 2
REMARK VINA RESULT:      -8.9      7.649     15.080
REMARK SMILES CCCc1nc(C)cc(N2CCC(C(=O)NCCCCNC(=O)c3ccc(-c4c5nc(c(-c6cccc(S(=O)(=O)[O-])c6F)c6ccc([nH]6)c(-c6cccc(S(=O)(=O)[O-])c6F)c6nc(c(-c7cccc(S(=O)(=O)[O-])c7F)c7ccc4[nH]7)C=C6)C=C5)cc3)(n3ccc(C(C)C)n3)CC2)n1
REMARK SMILES IDX 18 1 17 2 16 3 14 4 15 5 13 7 10 8 11 9 96 10 12 11 95 12
REMARK SMILES IDX 9 13 4 14 5 15 97 16 6 17 7 18 8 19 3 20 2 21 1 22 87 23
REMARK SMILES IDX 88 24 94 25 89 26 90 27 91 28 92 29 93 30 19 31 20 32 21 33
REMARK SMILES IDX 22 34 23 36 24 37 25 38 86 39 26 40 85 41 27 42 28 43 29 44
REMARK SMILES IDX 79 45 30 46 84 47 78 48 80 49 31 50 83 51 77 52 76 53 32 55
REMARK SMILES IDX 64 56 44 57 63 58 45 59 48 60 62 61 81 62 46 63 47 64 61 66
REMARK SMILES IDX 82 67 49 68 33 69 34 70 42 71 35 72 37 73 43 74 36 75 38 76
REMARK SMILES IDX 39 77 40 78 41 79 65 80 66 81 74 82 67 83 69 84 75 85 68 86
REMARK SMILES IDX 70 87 71 88 72 89 73 90 50 91 51 92 59 93 52 94 54 95 60 96
REMARK SMILES IDX 53 97 55 98 56 99 57 100 58 101
REMARK H PARENT 16 6 21 35 80 54 48 65
REMARK Flexibility Score: inf
ROOT
ATOM      1  C   UNL A   1      39.180  24.631  26.516  1.00  0.00     0.023 C 
ENDROOT
BRANCH   1   2
ATOM      2  C   UNL A   1      37.834  23.931  26.317  1.00  0.00     0.116 C 
BRANCH   2   3
ATOM      3  N   UNL A   1      37.995  22.545  25.895  1.00  0.00    -0.354 N 
ATOM      4  C   UNL A   1      37.092  21.578  25.516  1.00  0.00     0.248 C 
ATOM      5  O   UNL A   1      37.574  20.444  25.461  1.00  0.00    -0.272 OA
ATOM      6  H   UNL A   1      38.931  22.242  25.878  1.00  0.00     0.163 HD
BRANCH   4   7
ATOM      7  C   UNL A   1      35.582  21.915  25.280  1.00  0.00     0.144 C 
ATOM      8  N   UNL A   1      34.299  24.434  24.998  1.00  0.00    -0.356 N 
ATOM      9  C   UNL A   1      34.136  23.833  26.306  1.00  0.00     0.121 C 
ATOM     10  C   UNL A   1      34.269  23.582  23.829  1.00  0.00     0.121 C 
ATOM     11  C   UNL A   1      35.162  22.737  26.533  1.00  0.00     0.062 C 
ATOM     12  C   UNL A   1      35.440  22.616  23.902  1.00  0.00     0.062 C 
BRANCH   8  13
ATOM     13  C   UNL A   1      33.989  25.775  24.913  1.00  0.00     0.132 A 
ATOM     14  C   UNL A   1      33.423  27.712  26.009  1.00  0.00     0.130 A 
ATOM     15  N   UNL A   1      33.351  28.433  24.876  1.00  0.00    -0.238 NA
ATOM     16  N   UNL A   1      33.704  26.400  26.066  1.00  0.00    -0.216 NA
ATOM     17  C   UNL A   1      33.623  27.783  23.731  1.00  0.00     0.043 A 
ATOM     18  C   UNL A   1      33.561  28.591  22.471  1.00  0.00     0.067 C 
ATOM     19  C   UNL A   1      33.971  26.447  23.707  1.00  0.00     0.070 A 
BRANCH  14  20
ATOM     20  C   UNL A   1      33.296  28.449  27.314  1.00  0.00     0.077 C 
BRANCH  20  21
ATOM     21  C   UNL A   1      33.936  29.841  27.257  1.00  0.00     0.005 C 
ATOM     22  C   UNL A   1      35.320  29.898  27.894  1.00  0.00     0.004 C 
ENDBRANCH  20  21
ENDBRANCH  14  20
ENDBRANCH   8  13
BRANCH   7  23
ATOM     23  N   UNL A   1      34.704  20.703  25.205  1.00  0.00    -0.257 N 
ATOM     24  C   UNL A   1      33.404  20.602  25.652  1.00  0.00     0.110 A 
ATOM     25  N   UNL A   1      35.044  19.621  24.477  1.00  0.00    -0.177 NA
ATOM     26  C   UNL A   1      32.974  19.335  25.348  1.00  0.00     0.045 A 
ATOM     27  C   UNL A   1      34.060  18.740  24.677  1.00  0.00     0.065 A 
BRANCH  27  28
ATOM     28  C   UNL A   1      34.192  17.328  24.183  1.00  0.00     0.034 C 
ATOM     29  C   UNL A   1      34.160  16.325  25.341  1.00  0.00     0.014 C 
ATOM     30  C   UNL A   1      33.112  16.994  23.155  1.00  0.00     0.014 C 
ENDBRANCH  27  28
ENDBRANCH   7  23
ENDBRANCH   4   7
ENDBRANCH   2   3
ENDBRANCH   1   2
BRANCH   1  31
ATOM     31  C   UNL A   1      40.204  23.848  27.340  1.00  0.00     0.023 C 
BRANCH  31  32
ATOM     32  C   UNL A   1      41.512  24.577  27.618  1.00  0.00     0.116 C 
BRANCH  32  33
ATOM     33  N   UNL A   1      42.403  24.606  26.467  1.00  0.00    -0.352 N 
ATOM     34  C   UNL A   1      43.146  25.653  25.974  1.00  0.00     0.251 C 
ATOM     35  H   UNL A   1      42.486  23.760  25.972  1.00  0.00     0.163 HD
ATOM     36  O   UNL A   1      43.746  25.531  24.909  1.00  0.00    -0.269 OA
BRANCH  34  37
ATOM     37  C   UNL A   1      43.195  26.933  26.713  1.00  0.00     0.039 A 
ATOM     38  C   UNL A   1      44.073  27.058  27.793  1.00  0.00     0.014 A 
ATOM     39  C   UNL A   1      42.394  28.012  26.332  1.00  0.00     0.014 A 
ATOM     40  C   UNL A   1      44.197  28.287  28.447  1.00  0.00     0.010 A 
ATOM     41  C   UNL A   1      42.571  29.254  26.937  1.00  0.00     0.010 A 
ATOM     42  C   UNL A   1      43.473  29.405  28.001  1.00  0.00    -0.014 A 
BRANCH  42  43
ATOM     43  C   UNL A   1      43.653  30.743  28.623  1.00  0.00     0.031 A 
ATOM     44  C   UNL A   1      44.770  31.644  28.168  1.00  0.00     0.074 A 
ATOM     45  C   UNL A   1      42.868  31.110  29.656  1.00  0.00     0.049 A 
ATOM     46  N   UNL A   1      45.138  32.805  28.644  1.00  0.00    -0.248 NA
ATOM     47  C   UNL A   1      45.601  31.166  27.050  1.00  0.00     0.031 C 
ATOM     48  C   UNL A   1      41.801  30.295  30.243  1.00  0.00     0.029 A 
ATOM     49  N   UNL A   1      42.868  32.252  30.421  1.00  0.00    -0.354 N 
ATOM     50  C   UNL A   1      46.255  33.182  27.909  1.00  0.00     0.074 A 
ATOM     51  C   UNL A   1      46.530  32.110  26.978  1.00  0.00     0.031 C 
ATOM     52  C   UNL A   1      41.254  30.959  31.274  1.00  0.00     0.029 A 
ATOM     53  C   UNL A   1      41.946  32.233  31.442  1.00  0.00     0.049 A 
ATOM     54  H   UNL A   1      43.471  33.011  30.253  1.00  0.00     0.167 HD
ATOM     55  C   UNL A   1      46.971  34.330  27.978  1.00  0.00     0.034 A 
ATOM     56  C   UNL A   1      41.692  33.136  32.410  1.00  0.00     0.034 A 
ATOM     57  C   UNL A   1      46.667  35.417  28.869  1.00  0.00     0.049 A 
ATOM     58  C   UNL A   1      42.476  34.421  32.433  1.00  0.00     0.074 A 
ATOM     59  C   UNL A   1      47.289  36.650  28.964  1.00  0.00     0.029 A 
ATOM     60  N   UNL A   1      45.657  35.404  29.817  1.00  0.00    -0.354 N 
ATOM     61  N   UNL A   1      43.431  34.822  31.629  1.00  0.00    -0.248 NA
ATOM     62  C   UNL A   1      42.120  35.399  33.474  1.00  0.00     0.031 C 
ATOM     63  C   UNL A   1      46.659  37.379  29.976  1.00  0.00     0.029 A 
ATOM     64  C   UNL A   1      45.634  36.608  30.498  1.00  0.00     0.049 A 
ATOM     65  H   UNL A   1      45.046  34.650  29.981  1.00  0.00     0.167 HD
ATOM     66  C   UNL A   1      43.760  36.109  32.038  1.00  0.00     0.074 A 
ATOM     67  C   UNL A   1      42.888  36.431  33.148  1.00  0.00     0.031 C 
ATOM     68  C   UNL A   1      44.713  36.942  31.553  1.00  0.00     0.034 A 
BRANCH  55  69
ATOM     69  C   UNL A   1      48.110  34.508  27.008  1.00  0.00     0.023 A 
ATOM     70  C   UNL A   1      47.887  35.212  25.807  1.00  0.00     0.012 A 
ATOM     71  C   UNL A   1      49.408  34.057  27.315  1.00  0.00     0.148 A 
ATOM     72  C   UNL A   1      48.931  35.442  24.913  1.00  0.00     0.002 A 
ATOM     73  C   UNL A   1      50.454  34.328  26.440  1.00  0.00     0.091 A 
ATOM     74  F   UNL A   1      49.597  33.376  28.454  1.00  0.00    -0.205 F 
ATOM     75  C   UNL A   1      50.216  35.010  25.235  1.00  0.00     0.022 A 
BRANCH  73  76
ATOM     76  S   UNL A   1      52.159  33.885  26.792  1.00  0.00     0.127 S 
ATOM     77  O   UNL A   1      52.383  34.568  28.066  1.00  0.00    -0.237 OA
ATOM     78  O   UNL A   1      52.085  32.427  26.887  1.00  0.00    -0.237 OA
ATOM     79  O   UNL A   1      52.945  34.385  25.673  1.00  0.00    -0.744 OA
ENDBRANCH  73  76
ENDBRANCH  55  69
BRANCH  56  80
ATOM     80  C   UNL A   1      40.607  32.891  33.403  1.00  0.00     0.023 A 
ATOM     81  C   UNL A   1      40.921  32.274  34.631  1.00  0.00     0.012 A 
ATOM     82  C   UNL A   1      39.274  33.260  33.144  1.00  0.00     0.148 A 
ATOM     83  C   UNL A   1      39.921  31.990  35.562  1.00  0.00     0.002 A 
ATOM     84  C   UNL A   1      38.291  33.024  34.100  1.00  0.00     0.091 A 
ATOM     85  F   UNL A   1      38.988  33.831  31.965  1.00  0.00    -0.205 F 
ATOM     86  C   UNL A   1      38.609  32.373  35.301  1.00  0.00     0.022 A 
BRANCH  84  87
ATOM     87  S   UNL A   1      36.604  33.606  33.896  1.00  0.00     0.127 S 
ATOM     88  O   UNL A   1      36.126  32.762  32.803  1.00  0.00    -0.237 OA
ATOM     89  O   UNL A   1      36.016  33.311  35.204  1.00  0.00    -0.237 OA
ATOM     90  O   UNL A   1      36.720  35.028  33.603  1.00  0.00    -0.744 OA
ENDBRANCH  84  87
ENDBRANCH  56  80
BRANCH  68  91
ATOM     91  C   UNL A   1      44.837  38.305  32.180  1.00  0.00     0.023 A 
ATOM     92  C   UNL A   1      45.713  38.498  33.267  1.00  0.00     0.012 A 
ATOM     93  C   UNL A   1      44.147  39.409  31.642  1.00  0.00     0.148 A 
ATOM     94  C   UNL A   1      45.876  39.764  33.828  1.00  0.00     0.002 A 
ATOM     95  C   UNL A   1      44.351  40.676  32.175  1.00  0.00     0.091 A 
ATOM     96  F   UNL A   1      43.304  39.200  30.620  1.00  0.00    -0.205 F 
ATOM     97  C   UNL A   1      45.205  40.853  33.276  1.00  0.00     0.022 A 
BRANCH  95  98
ATOM     98  S   UNL A   1      43.605  42.148  31.468  1.00  0.00     0.127 S 
ATOM     99  O   UNL A   1      44.334  43.212  32.157  1.00  0.00    -0.237 OA
ATOM    100  O   UNL A   1      43.925  42.009  30.047  1.00  0.00    -0.237 OA
ATOM    101  O   UNL A   1      42.182  42.063  31.776  1.00  0.00    -0.744 OA
ENDBRANCH  95  98
ENDBRANCH  68  91
ENDBRANCH  42  43
ENDBRANCH  34  37
ENDBRANCH  32  33
ENDBRANCH  31  32
ENDBRANCH   1  31
TORSDOF 19
ENDMDL
MODEL 3
REMARK VINA RESULT:      -8.8     13.179     19.529
REMARK SMILES CCCc1nc(C)cc(N2CCC(C(=O)NCCCCNC(=O)c3ccc(-c4c5nc(c(-c6cccc(S(=O)(=O)[O-])c6F)c6ccc([nH]6)c(-c6cccc(S(=O)(=O)[O-])c6F)c6nc(c(-c7cccc(S(=O)(=O)[O-])c7F)c7ccc4[nH]7)C=C6)C=C5)cc3)(n3ccc(C(C)C)n3)CC2)n1
REMARK SMILES IDX 18 1 17 2 16 3 14 4 15 5 13 7 10 8 11 9 96 10 12 11 95 12
REMARK SMILES IDX 9 13 4 14 5 15 97 16 6 17 7 18 8 19 3 20 2 21 1 22 87 23
REMARK SMILES IDX 88 24 94 25 89 26 90 27 91 28 92 29 93 30 19 31 20 32 21 33
REMARK SMILES IDX 22 34 23 36 24 37 25 38 86 39 26 40 85 41 27 42 28 43 29 44
REMARK SMILES IDX 79 45 30 46 84 47 78 48 80 49 31 50 83 51 77 52 76 53 32 55
REMARK SMILES IDX 64 56 44 57 63 58 45 59 48 60 62 61 81 62 46 63 47 64 61 66
REMARK SMILES IDX 82 67 49 68 33 69 34 70 42 71 35 72 37 73 43 74 36 75 38 76
REMARK SMILES IDX 39 77 40 78 41 79 65 80 66 81 74 82 67 83 69 84 75 85 68 86
REMARK SMILES IDX 70 87 71 88 72 89 73 90 50 91 51 92 59 93 52 94 54 95 60 96
REMARK SMILES IDX 53 97 55 98 56 99 57 100 58 101
REMARK H PARENT 16 6 21 35 80 54 48 65
REMARK Flexibility Score: inf
ROOT
ATOM      1  C   UNL A   1      47.660  25.594  38.583  1.00  0.00     0.023 C 
ENDROOT
BRANCH   1   2
ATOM      2  C   UNL A   1      48.242  24.241  38.171  1.00  0.00     0.116 C 
BRANCH   2   3
ATOM      3  N   UNL A   1      49.005  23.622  39.248  1.00  0.00    -0.354 N 
ATOM      4  C   UNL A   1      49.127  22.318  39.671  1.00  0.00     0.248 C 
ATOM      5  O   UNL A   1      49.673  22.202  40.771  1.00  0.00    -0.272 OA
ATOM      6  H   UNL A   1      49.538  24.261  39.775  1.00  0.00     0.163 HD
BRANCH   4   7
ATOM      7  C   UNL A   1      48.529  21.131  38.845  1.00  0.00     0.144 C 
ATOM      8  N   UNL A   1      46.952  18.928  39.699  1.00  0.00    -0.356 N 
ATOM      9  C   UNL A   1      48.347  18.603  39.476  1.00  0.00     0.121 C 
ATOM     10  C   UNL A   1      46.298  19.854  38.799  1.00  0.00     0.121 C 
ATOM     11  C   UNL A   1      49.199  19.859  39.442  1.00  0.00     0.062 C 
ATOM     12  C   UNL A   1      46.980  21.207  38.917  1.00  0.00     0.062 C 
BRANCH   8  13
ATOM     13  C   UNL A   1      46.229  17.999  40.418  1.00  0.00     0.132 A 
ATOM     14  C   UNL A   1      44.237  16.897  40.718  1.00  0.00     0.130 A 
ATOM     15  N   UNL A   1      44.689  16.191  41.771  1.00  0.00    -0.238 NA
ATOM     16  N   UNL A   1      44.952  17.814  40.048  1.00  0.00    -0.216 NA
ATOM     17  C   UNL A   1      45.964  16.406  42.137  1.00  0.00     0.043 A 
ATOM     18  C   UNL A   1      46.472  15.607  43.297  1.00  0.00     0.067 C 
ATOM     19  C   UNL A   1      46.783  17.293  41.467  1.00  0.00     0.070 A 
BRANCH  14  20
ATOM     20  C   UNL A   1      42.876  16.552  40.180  1.00  0.00     0.077 C 
BRANCH  20  21
ATOM     21  C   UNL A   1      42.796  15.100  39.696  1.00  0.00     0.005 C 
ATOM     22  C   UNL A   1      41.751  14.271  40.435  1.00  0.00     0.004 C 
ENDBRANCH  20  21
ENDBRANCH  14  20
ENDBRANCH   8  13
BRANCH   7  23
ATOM     23  N   UNL A   1      48.865  21.190  37.386  1.00  0.00    -0.257 N 
ATOM     24  C   UNL A   1      47.971  21.275  36.340  1.00  0.00     0.110 A 
ATOM     25  N   UNL A   1      50.127  21.383  36.953  1.00  0.00    -0.177 NA
ATOM     26  C   UNL A   1      48.711  21.344  35.187  1.00  0.00     0.045 A 
ATOM     27  C   UNL A   1      50.051  21.337  35.619  1.00  0.00     0.065 A 
BRANCH  27  28
ATOM     28  C   UNL A   1      51.301  21.312  34.788  1.00  0.00     0.034 C 
ATOM     29  C   UNL A   1      51.106  20.488  33.510  1.00  0.00     0.014 C 
ATOM     30  C   UNL A   1      51.772  22.725  34.446  1.00  0.00     0.014 C 
ENDBRANCH  27  28
ENDBRANCH   7  23
ENDBRANCH   4   7
ENDBRANCH   2   3
ENDBRANCH   1   2
BRANCH   1  31
ATOM     31  C   UNL A   1      46.282  25.534  39.244  1.00  0.00     0.023 C 
BRANCH  31  32
ATOM     32  C   UNL A   1      45.467  24.282  38.941  1.00  0.00     0.116 C 
BRANCH  32  33
ATOM     33  N   UNL A   1      44.125  24.580  38.461  1.00  0.00    -0.352 N 
ATOM     34  C   UNL A   1      43.731  25.059  37.234  1.00  0.00     0.251 C 
ATOM     35  H   UNL A   1      43.398  24.416  39.104  1.00  0.00     0.163 HD
ATOM     36  O   UNL A   1      42.559  25.376  37.047  1.00  0.00    -0.269 OA
BRANCH  34  37
ATOM     37  C   UNL A   1      44.727  25.221  36.153  1.00  0.00     0.039 A 
ATOM     38  C   UNL A   1      45.229  24.081  35.520  1.00  0.00     0.014 A 
ATOM     39  C   UNL A   1      45.151  26.490  35.752  1.00  0.00     0.014 A 
ATOM     40  C   UNL A   1      46.103  24.218  34.438  1.00  0.00     0.010 A 
ATOM     41  C   UNL A   1      45.963  26.626  34.629  1.00  0.00     0.010 A 
ATOM     42  C   UNL A   1      46.449  25.493  33.960  1.00  0.00    -0.014 A 
BRANCH  42  43
ATOM     43  C   UNL A   1      47.306  25.665  32.758  1.00  0.00     0.031 A 
ATOM     44  C   UNL A   1      46.715  25.515  31.381  1.00  0.00     0.074 A 
ATOM     45  C   UNL A   1      48.631  25.866  32.906  1.00  0.00     0.049 A 
ATOM     46  N   UNL A   1      47.315  25.545  30.220  1.00  0.00    -0.248 NA
ATOM     47  C   UNL A   1      45.264  25.272  31.300  1.00  0.00     0.031 C 
ATOM     48  C   UNL A   1      49.340  25.951  34.185  1.00  0.00     0.029 A 
ATOM     49  N   UNL A   1      49.627  26.002  31.969  1.00  0.00    -0.354 N 
ATOM     50  C   UNL A   1      46.327  25.295  29.275  1.00  0.00     0.074 A 
ATOM     51  C   UNL A   1      45.094  25.081  29.998  1.00  0.00     0.031 C 
ATOM     52  C   UNL A   1      50.651  26.121  33.954  1.00  0.00     0.029 A 
ATOM     53  C   UNL A   1      50.884  26.129  32.513  1.00  0.00     0.049 A 
ATOM     54  H   UNL A   1      49.456  26.008  31.000  1.00  0.00     0.167 HD
ATOM     55  C   UNL A   1      46.428  25.279  27.924  1.00  0.00     0.034 A 
ATOM     56  C   UNL A   1      52.091  26.231  31.919  1.00  0.00     0.034 A 
ATOM     57  C   UNL A   1      47.643  25.543  27.203  1.00  0.00     0.049 A 
ATOM     58  C   UNL A   1      52.164  26.253  30.416  1.00  0.00     0.074 A 
ATOM     59  C   UNL A   1      47.831  25.620  25.834  1.00  0.00     0.029 A 
ATOM     60  N   UNL A   1      48.877  25.773  27.790  1.00  0.00    -0.354 N 
ATOM     61  N   UNL A   1      51.193  26.168  29.540  1.00  0.00    -0.248 NA
ATOM     62  C   UNL A   1      53.497  26.426  29.817  1.00  0.00     0.031 C 
ATOM     63  C   UNL A   1      49.182  25.889  25.593  1.00  0.00     0.029 A 
ATOM     64  C   UNL A   1      49.830  25.998  26.812  1.00  0.00     0.049 A 
ATOM     65  H   UNL A   1      49.050  25.778  28.758  1.00  0.00     0.167 HD
ATOM     66  C   UNL A   1      51.789  26.318  28.293  1.00  0.00     0.074 A 
ATOM     67  C   UNL A   1      53.203  26.522  28.528  1.00  0.00     0.031 C 
ATOM     68  C   UNL A   1      51.222  26.271  27.063  1.00  0.00     0.034 A 
BRANCH  55  69
ATOM     69  C   UNL A   1      45.171  25.044  27.127  1.00  0.00     0.023 A 
ATOM     70  C   UNL A   1      44.805  23.723  26.796  1.00  0.00     0.012 A 
ATOM     71  C   UNL A   1      44.316  26.108  26.779  1.00  0.00     0.148 A 
ATOM     72  C   UNL A   1      43.620  23.466  26.107  1.00  0.00     0.002 A 
ATOM     73  C   UNL A   1      43.116  25.839  26.130  1.00  0.00     0.091 A 
ATOM     74  F   UNL A   1      44.690  27.357  27.089  1.00  0.00    -0.205 F 
ATOM     75  C   UNL A   1      42.772  24.522  25.785  1.00  0.00     0.022 A 
BRANCH  73  76
ATOM     76  S   UNL A   1      41.914  27.116  25.738  1.00  0.00     0.127 S 
ATOM     77  O   UNL A   1      40.737  26.317  25.398  1.00  0.00    -0.237 OA
ATOM     78  O   UNL A   1      41.813  27.842  27.004  1.00  0.00    -0.237 OA
ATOM     79  O   UNL A   1      42.483  27.882  24.639  1.00  0.00    -0.744 OA
ENDBRANCH  73  76
ENDBRANCH  55  69
BRANCH  56  80
ATOM     80  C   UNL A   1      53.325  26.384  32.742  1.00  0.00     0.023 A 
ATOM     81  C   UNL A   1      53.657  27.652  33.260  1.00  0.00     0.012 A 
ATOM     82  C   UNL A   1      54.169  25.291  33.014  1.00  0.00     0.148 A 
ATOM     83  C   UNL A   1      54.828  27.837  33.995  1.00  0.00     0.002 A 
ATOM     84  C   UNL A   1      55.306  25.472  33.795  1.00  0.00     0.091 A 
ATOM     85  F   UNL A   1      53.849  24.095  32.501  1.00  0.00    -0.205 F 
ATOM     86  C   UNL A   1      55.648  26.746  34.270  1.00  0.00     0.022 A 
BRANCH  84  87
ATOM     87  S   UNL A   1      56.341  24.094  34.304  1.00  0.00     0.127 S 
ATOM     88  O   UNL A   1      57.632  24.747  34.506  1.00  0.00    -0.237 OA
ATOM     89  O   UNL A   1      55.677  23.647  35.530  1.00  0.00    -0.237 OA
ATOM     90  O   UNL A   1      56.273  23.136  33.208  1.00  0.00    -0.744 OA
ENDBRANCH  84  87
ENDBRANCH  56  80
BRANCH  68  91
ATOM     91  C   UNL A   1      52.114  26.491  25.870  1.00  0.00     0.023 A 
ATOM     92  C   UNL A   1      52.781  25.398  25.284  1.00  0.00     0.012 A 
ATOM     93  C   UNL A   1      52.226  27.767  25.284  1.00  0.00     0.148 A 
ATOM     94  C   UNL A   1      53.572  25.577  24.150  1.00  0.00     0.002 A 
ATOM     95  C   UNL A   1      52.978  27.929  24.126  1.00  0.00     0.091 A 
ATOM     96  F   UNL A   1      51.598  28.798  25.868  1.00  0.00    -0.205 F 
ATOM     97  C   UNL A   1      53.661  26.838  23.565  1.00  0.00     0.022 A 
BRANCH  95  98
ATOM     98  S   UNL A   1      53.071  29.495  23.251  1.00  0.00     0.127 S 
ATOM     99  O   UNL A   1      53.817  29.122  22.051  1.00  0.00    -0.237 OA
ATOM    100  O   UNL A   1      51.659  29.807  23.020  1.00  0.00    -0.237 OA
ATOM    101  O   UNL A   1      53.751  30.417  24.151  1.00  0.00    -0.744 OA
ENDBRANCH  95  98
ENDBRANCH  68  91
ENDBRANCH  42  43
ENDBRANCH  34  37
ENDBRANCH  32  33
ENDBRANCH  31  32
ENDBRANCH   1  31
TORSDOF 19
ENDMDL
