MODEL 1
REMARK VINA RESULT:     -10.3      0.000      0.000
REMARK SMILES Cc1c(-c2nn(-c3ccccc3)cc2/C=N/O)nnn1-c1ccc(C(=O)NCCCCNC(=O)c2ccc(-c3c4nc(c(-c5cccc(S(=O)(=O)[O-])c5F)c5ccc([nH]5)c(-c5cccc(S(=O)(=O)[O-])c5F)c5nc(c(-c6cccc(S(=O)(=O)[O-])c6F)c6ccc3[nH]6)C=C5)C=C4)cc2)cc1
REMARK SMILES IDX 29 1 28 2 27 3 25 4 26 5 24 7 21 8 22 9 99 10 23 11 98 12
REMARK SMILES IDX 20 13 1 14 2 15 3 16 18 17 19 18 4 19 5 20 14 21 6 22 13 23
REMARK SMILES IDX 15 24 16 25 17 26 7 28 8 29 12 30 9 31 11 32 10 33 30 34
REMARK SMILES IDX 31 35 32 36 33 37 34 39 35 40 36 41 97 42 37 43 96 44 38 45
REMARK SMILES IDX 39 46 40 47 90 48 41 49 95 50 89 51 91 52 42 53 94 54 88 55
REMARK SMILES IDX 87 56 43 58 75 59 55 60 74 61 56 62 59 63 73 64 92 65 57 66
REMARK SMILES IDX 58 67 72 69 93 70 60 71 44 72 45 73 53 74 46 75 48 76 54 77
REMARK SMILES IDX 47 78 49 79 50 80 51 81 52 82 76 83 77 84 85 85 78 86 80 87
REMARK SMILES IDX 86 88 79 89 81 90 82 91 83 92 84 93 61 94 62 95 70 96 63 97
REMARK SMILES IDX 65 98 71 99 64 100 66 101 67 102 68 103 69 104
REMARK H PARENT 27 6 17 27 32 38 91 57 59 68
REMARK Flexibility Score: inf
ROOT
ATOM      1  C   UNL A   1      34.938  33.860  33.069  1.00  0.00     0.023 C 
ENDROOT
BRANCH   1   2
ATOM      2  C   UNL A   1      36.368  34.334  33.360  1.00  0.00     0.116 C 
BRANCH   2   3
ATOM      3  N   UNL A   1      37.250  33.205  33.576  1.00  0.00    -0.352 N 
ATOM      4  C   UNL A   1      38.376  32.744  32.944  1.00  0.00     0.251 C 
ATOM      5  O   UNL A   1      38.847  31.678  33.348  1.00  0.00    -0.269 OA
ATOM      6  H   UNL A   1      36.983  32.648  34.342  1.00  0.00     0.163 HD
BRANCH   4   7
ATOM      7  C   UNL A   1      39.079  33.451  31.831  1.00  0.00     0.039 A 
ATOM      8  C   UNL A   1      40.605  34.692  29.819  1.00  0.00     0.067 A 
ATOM      9  C   UNL A   1      41.141  33.612  30.520  1.00  0.00     0.029 A 
ATOM     10  C   UNL A   1      39.298  35.119  30.073  1.00  0.00     0.029 A 
ATOM     11  C   UNL A   1      40.391  33.026  31.543  1.00  0.00     0.016 A 
ATOM     12  C   UNL A   1      38.527  34.465  31.042  1.00  0.00     0.016 A 
BRANCH   8  13
ATOM     13  N   UNL A   1      41.378  35.337  28.834  1.00  0.00    -0.217 N 
ATOM     14  C   UNL A   1      43.269  36.252  30.256  1.00  0.00     0.069 C 
ATOM     15  C   UNL A   1      42.485  36.147  29.002  1.00  0.00     0.071 A 
ATOM     16  C   UNL A   1      42.691  36.664  27.740  1.00  0.00     0.137 A 
ATOM     17  N   UNL A   1      41.809  36.115  26.854  1.00  0.00    -0.128 NA
ATOM     18  N   UNL A   1      41.056  35.248  27.520  1.00  0.00    -0.061 NA
BRANCH  16  19
ATOM     19  C   UNL A   1      43.751  37.558  27.295  1.00  0.00     0.124 A 
ATOM     20  N   UNL A   1      45.026  37.157  27.257  1.00  0.00    -0.165 NA
ATOM     21  C   UNL A   1      43.598  38.907  26.898  1.00  0.00     0.044 A 
ATOM     22  N   UNL A   1      45.724  38.270  26.958  1.00  0.00    -0.240 N 
ATOM     23  C   UNL A   1      44.900  39.348  26.733  1.00  0.00     0.125 A 
BRANCH  21  24
ATOM     24  C   UNL A   1      42.424  39.715  26.689  1.00  0.00     0.166 C 
ATOM     25  N   UNL A   1      42.503  40.818  26.021  1.00  0.00    -0.097 NA
BRANCH  25  26
ATOM     26  O   UNL A   1      41.246  41.434  25.991  1.00  0.00    -0.411 OA
ATOM     27  H   UNL A   1      40.469  40.912  25.937  1.00  0.00     0.330 HD
ENDBRANCH  25  26
ENDBRANCH  21  24
BRANCH  22  28
ATOM     28  C   UNL A   1      47.139  38.239  26.929  1.00  0.00     0.065 A 
ATOM     29  C   UNL A   1      47.784  37.081  26.475  1.00  0.00     0.028 A 
ATOM     30  C   UNL A   1      47.888  39.332  27.382  1.00  0.00     0.028 A 
ATOM     31  C   UNL A   1      49.176  37.021  26.456  1.00  0.00     0.002 A 
ATOM     32  C   UNL A   1      49.281  39.244  27.406  1.00  0.00     0.002 A 
ATOM     33  C   UNL A   1      49.924  38.096  26.936  1.00  0.00     0.000 A 
ENDBRANCH  22  28
ENDBRANCH  16  19
ENDBRANCH   8  13
ENDBRANCH   4   7
ENDBRANCH   2   3
ENDBRANCH   1   2
BRANCH   1  34
ATOM     34  C   UNL A   1      34.828  32.778  31.982  1.00  0.00     0.023 C 
BRANCH  34  35
ATOM     35  C   UNL A   1      34.819  33.312  30.551  1.00  0.00     0.116 C 
BRANCH  35  36
ATOM     36  N   UNL A   1      34.180  32.386  29.615  1.00  0.00    -0.352 N 
ATOM     37  C   UNL A   1      34.771  31.415  28.828  1.00  0.00     0.251 C 
ATOM     38  H   UNL A   1      33.202  32.464  29.535  1.00  0.00     0.163 HD
ATOM     39  O   UNL A   1      34.206  30.984  27.837  1.00  0.00    -0.269 OA
BRANCH  37  40
ATOM     40  C   UNL A   1      36.096  30.900  29.217  1.00  0.00     0.039 A 
ATOM     41  C   UNL A   1      36.234  29.638  29.803  1.00  0.00     0.014 A 
ATOM     42  C   UNL A   1      37.211  31.695  28.956  1.00  0.00     0.014 A 
ATOM     43  C   UNL A   1      37.513  29.144  30.040  1.00  0.00     0.010 A 
ATOM     44  C   UNL A   1      38.470  31.160  29.076  1.00  0.00     0.010 A 
ATOM     45  C   UNL A   1      38.630  29.902  29.651  1.00  0.00    -0.014 A 
BRANCH  45  46
ATOM     46  C   UNL A   1      39.970  29.320  29.697  1.00  0.00     0.031 A 
ATOM     47  C   UNL A   1      40.522  29.169  31.072  1.00  0.00     0.074 A 
ATOM     48  C   UNL A   1      40.549  28.745  28.619  1.00  0.00     0.049 A 
ATOM     49  N   UNL A   1      41.521  29.798  31.598  1.00  0.00    -0.248 NA
ATOM     50  C   UNL A   1      39.773  28.341  32.032  1.00  0.00     0.031 C 
ATOM     51  C   UNL A   1      39.946  28.539  27.295  1.00  0.00     0.029 A 
ATOM     52  N   UNL A   1      41.736  28.082  28.516  1.00  0.00    -0.354 N 
ATOM     53  C   UNL A   1      41.683  29.243  32.869  1.00  0.00     0.074 A 
ATOM     54  C   UNL A   1      40.459  28.550  33.158  1.00  0.00     0.031 C 
ATOM     55  C   UNL A   1      40.638  27.590  26.628  1.00  0.00     0.029 A 
ATOM     56  C   UNL A   1      41.823  27.261  27.394  1.00  0.00     0.049 A 
ATOM     57  H   UNL A   1      42.463  28.175  29.173  1.00  0.00     0.167 HD
ATOM     58  C   UNL A   1      42.916  29.150  33.442  1.00  0.00     0.034 A 
ATOM     59  C   UNL A   1      42.782  26.343  27.122  1.00  0.00     0.034 A 
ATOM     60  C   UNL A   1      43.873  29.946  32.712  1.00  0.00     0.049 A 
ATOM     61  C   UNL A   1      43.960  26.686  27.943  1.00  0.00     0.074 A 
ATOM     62  C   UNL A   1      44.068  31.283  32.449  1.00  0.00     0.029 A 
ATOM     63  N   UNL A   1      44.610  29.239  31.796  1.00  0.00    -0.354 N 
ATOM     64  N   UNL A   1      44.663  27.769  27.769  1.00  0.00    -0.248 NA
ATOM     65  C   UNL A   1      44.159  26.004  29.211  1.00  0.00     0.031 C 
ATOM     66  C   UNL A   1      44.668  31.329  31.156  1.00  0.00     0.029 A 
ATOM     67  C   UNL A   1      44.865  30.021  30.706  1.00  0.00     0.049 A 
ATOM     68  H   UNL A   1      44.912  28.309  31.909  1.00  0.00     0.167 HD
ATOM     69  C   UNL A   1      45.010  28.151  29.055  1.00  0.00     0.074 A 
ATOM     70  C   UNL A   1      44.838  26.950  29.864  1.00  0.00     0.031 C 
ATOM     71  C   UNL A   1      45.095  29.472  29.385  1.00  0.00     0.034 A 
BRANCH  58  72
ATOM     72  C   UNL A   1      43.407  28.022  34.341  1.00  0.00     0.023 A 
ATOM     73  C   UNL A   1      43.971  28.400  35.584  1.00  0.00     0.012 A 
ATOM     74  C   UNL A   1      43.629  26.687  33.932  1.00  0.00     0.148 A 
ATOM     75  C   UNL A   1      44.777  27.533  36.332  1.00  0.00     0.002 A 
ATOM     76  C   UNL A   1      44.371  25.804  34.712  1.00  0.00     0.091 A 
ATOM     77  F   UNL A   1      43.238  26.278  32.725  1.00  0.00    -0.205 F 
ATOM     78  C   UNL A   1      44.978  26.232  35.895  1.00  0.00     0.022 A 
BRANCH  76  79
ATOM     79  S   UNL A   1      44.633  24.096  34.216  1.00  0.00     0.127 S 
ATOM     80  O   UNL A   1      45.561  23.633  35.244  1.00  0.00    -0.237 OA
ATOM     81  O   UNL A   1      43.280  23.548  34.309  1.00  0.00    -0.237 OA
ATOM     82  O   UNL A   1      45.162  24.156  32.860  1.00  0.00    -0.744 OA
ENDBRANCH  76  79
ENDBRANCH  58  72
BRANCH  59  83
ATOM     83  C   UNL A   1      42.712  25.091  26.339  1.00  0.00     0.023 A 
ATOM     84  C   UNL A   1      43.727  24.781  25.413  1.00  0.00     0.012 A 
ATOM     85  C   UNL A   1      41.799  24.076  26.697  1.00  0.00     0.148 A 
ATOM     86  C   UNL A   1      43.853  23.489  24.888  1.00  0.00     0.002 A 
ATOM     87  C   UNL A   1      41.925  22.795  26.171  1.00  0.00     0.091 A 
ATOM     88  F   UNL A   1      40.865  24.351  27.618  1.00  0.00    -0.205 F 
ATOM     89  C   UNL A   1      42.960  22.494  25.276  1.00  0.00     0.022 A 
BRANCH  87  90
ATOM     90  S   UNL A   1      40.833  21.447  26.643  1.00  0.00     0.127 S 
ATOM     91  O   UNL A   1      39.565  21.867  26.046  1.00  0.00    -0.237 OA
ATOM     92  O   UNL A   1      41.468  20.303  25.993  1.00  0.00    -0.237 OA
ATOM     93  O   UNL A   1      40.835  21.425  28.101  1.00  0.00    -0.744 OA
ENDBRANCH  87  90
ENDBRANCH  59  83
BRANCH  71  94
ATOM     94  C   UNL A   1      45.224  30.467  28.262  1.00  0.00     0.023 A 
ATOM     95  C   UNL A   1      44.116  31.010  27.583  1.00  0.00     0.012 A 
ATOM     96  C   UNL A   1      46.507  30.973  27.993  1.00  0.00     0.148 A 
ATOM     97  C   UNL A   1      44.289  32.027  26.641  1.00  0.00     0.002 A 
ATOM     98  C   UNL A   1      46.667  32.019  27.097  1.00  0.00     0.091 A 
ATOM     99  F   UNL A   1      47.549  30.437  28.646  1.00  0.00    -0.205 F 
ATOM    100  C   UNL A   1      45.562  32.543  26.409  1.00  0.00     0.022 A 
BRANCH  98 101
ATOM    101  S   UNL A   1      48.261  32.809  26.867  1.00  0.00     0.127 S 
ATOM    102  O   UNL A   1      49.116  31.675  26.523  1.00  0.00    -0.237 OA
ATOM    103  O   UNL A   1      47.997  33.734  25.765  1.00  0.00    -0.237 OA
ATOM    104  O   UNL A   1      48.567  33.467  28.132  1.00  0.00    -0.744 OA
ENDBRANCH  98 101
ENDBRANCH  71  94
ENDBRANCH  45  46
ENDBRANCH  37  40
ENDBRANCH  35  36
ENDBRANCH  34  35
ENDBRANCH   1  34
TORSDOF 19
ENDMDL
MODEL 2
REMARK VINA RESULT:     -10.2      1.304      2.184
REMARK SMILES Cc1c(-c2nn(-c3ccccc3)cc2/C=N/O)nnn1-c1ccc(C(=O)NCCCCNC(=O)c2ccc(-c3c4nc(c(-c5cccc(S(=O)(=O)[O-])c5F)c5ccc([nH]5)c(-c5cccc(S(=O)(=O)[O-])c5F)c5nc(c(-c6cccc(S(=O)(=O)[O-])c6F)c6ccc3[nH]6)C=C5)C=C4)cc2)cc1
REMARK SMILES IDX 29 1 28 2 27 3 25 4 26 5 24 7 21 8 22 9 99 10 23 11 98 12
REMARK SMILES IDX 20 13 1 14 2 15 3 16 18 17 19 18 4 19 5 20 14 21 6 22 13 23
REMARK SMILES IDX 15 24 16 25 17 26 7 28 8 29 12 30 9 31 11 32 10 33 30 34
REMARK SMILES IDX 31 35 32 36 33 37 34 39 35 40 36 41 97 42 37 43 96 44 38 45
REMARK SMILES IDX 39 46 40 47 90 48 41 49 95 50 89 51 91 52 42 53 94 54 88 55
REMARK SMILES IDX 87 56 43 58 75 59 55 60 74 61 56 62 59 63 73 64 92 65 57 66
REMARK SMILES IDX 58 67 72 69 93 70 60 71 44 72 45 73 53 74 46 75 48 76 54 77
REMARK SMILES IDX 47 78 49 79 50 80 51 81 52 82 76 83 77 84 85 85 78 86 80 87
REMARK SMILES IDX 86 88 79 89 81 90 82 91 83 92 84 93 61 94 62 95 70 96 63 97
REMARK SMILES IDX 65 98 71 99 64 100 66 101 67 102 68 103 69 104
REMARK H PARENT 27 6 17 27 32 38 91 57 59 68
REMARK Flexibility Score: inf
ROOT
ATOM      1  C   UNL A   1      35.425  33.550  32.815  1.00  0.00     0.023 C 
ENDROOT
BRANCH   1   2
ATOM      2  C   UNL A   1      36.809  34.063  32.397  1.00  0.00     0.116 C 
BRANCH   2   3
ATOM      3  N   UNL A   1      37.853  33.185  32.888  1.00  0.00    -0.352 N 
ATOM      4  C   UNL A   1      39.135  32.917  32.485  1.00  0.00     0.251 C 
ATOM      5  O   UNL A   1      39.739  32.030  33.095  1.00  0.00    -0.269 OA
ATOM      6  H   UNL A   1      37.582  32.670  33.681  1.00  0.00     0.163 HD
BRANCH   4   7
ATOM      7  C   UNL A   1      39.853  33.635  31.389  1.00  0.00     0.039 A 
ATOM      8  C   UNL A   1      41.406  34.941  29.440  1.00  0.00     0.067 A 
ATOM      9  C   UNL A   1      42.015  34.038  30.311  1.00  0.00     0.029 A 
ATOM     10  C   UNL A   1      40.026  35.154  29.496  1.00  0.00     0.029 A 
ATOM     11  C   UNL A   1      41.243  33.422  31.301  1.00  0.00     0.016 A 
ATOM     12  C   UNL A   1      39.251  34.463  30.437  1.00  0.00     0.016 A 
BRANCH   8  13
ATOM     13  N   UNL A   1      42.186  35.622  28.485  1.00  0.00    -0.217 N 
ATOM     14  C   UNL A   1      43.784  36.879  30.004  1.00  0.00     0.069 C 
ATOM     15  C   UNL A   1      43.154  36.586  28.694  1.00  0.00     0.071 A 
ATOM     16  C   UNL A   1      43.420  37.045  27.420  1.00  0.00     0.137 A 
ATOM     17  N   UNL A   1      42.715  36.323  26.500  1.00  0.00    -0.128 NA
ATOM     18  N   UNL A   1      42.017  35.405  27.158  1.00  0.00    -0.061 NA
BRANCH  16  19
ATOM     19  C   UNL A   1      44.395  38.047  27.009  1.00  0.00     0.124 A 
ATOM     20  N   UNL A   1      44.009  39.247  26.564  1.00  0.00    -0.165 NA
ATOM     21  C   UNL A   1      45.800  37.890  26.990  1.00  0.00     0.044 A 
ATOM     22  N   UNL A   1      45.144  39.832  26.135  1.00  0.00    -0.240 N 
ATOM     23  C   UNL A   1      46.249  39.047  26.375  1.00  0.00     0.125 A 
BRANCH  21  24
ATOM     24  C   UNL A   1      46.651  36.830  27.465  1.00  0.00     0.166 C 
ATOM     25  N   UNL A   1      47.912  37.040  27.651  1.00  0.00    -0.097 NA
BRANCH  25  26
ATOM     26  O   UNL A   1      48.524  35.853  28.073  1.00  0.00    -0.411 OA
ATOM     27  H   UNL A   1      49.078  35.376  27.486  1.00  0.00     0.330 HD
ENDBRANCH  25  26
ENDBRANCH  21  24
BRANCH  22  28
ATOM     28  C   UNL A   1      45.102  41.097  25.502  1.00  0.00     0.065 A 
ATOM     29  C   UNL A   1      46.168  41.479  24.677  1.00  0.00     0.028 A 
ATOM     30  C   UNL A   1      44.033  41.974  25.725  1.00  0.00     0.028 A 
ATOM     31  C   UNL A   1      46.157  42.728  24.058  1.00  0.00     0.002 A 
ATOM     32  C   UNL A   1      44.055  43.242  25.142  1.00  0.00     0.002 A 
ATOM     33  C   UNL A   1      45.109  43.615  24.303  1.00  0.00     0.000 A 
ENDBRANCH  22  28
ENDBRANCH  16  19
ENDBRANCH   8  13
ENDBRANCH   4   7
ENDBRANCH   2   3
ENDBRANCH   1   2
BRANCH   1  34
ATOM     34  C   UNL A   1      34.672  32.772  31.723  1.00  0.00     0.023 C 
BRANCH  34  35
ATOM     35  C   UNL A   1      34.866  33.311  30.308  1.00  0.00     0.116 C 
BRANCH  35  36
ATOM     36  N   UNL A   1      34.262  32.445  29.293  1.00  0.00    -0.352 N 
ATOM     37  C   UNL A   1      34.875  31.495  28.498  1.00  0.00     0.251 C 
ATOM     38  H   UNL A   1      33.292  32.553  29.161  1.00  0.00     0.163 HD
ATOM     39  O   UNL A   1      34.360  31.124  27.457  1.00  0.00    -0.269 OA
BRANCH  37  40
ATOM     40  C   UNL A   1      36.162  30.928  28.940  1.00  0.00     0.039 A 
ATOM     41  C   UNL A   1      36.242  29.621  29.430  1.00  0.00     0.014 A 
ATOM     42  C   UNL A   1      37.302  31.722  28.825  1.00  0.00     0.014 A 
ATOM     43  C   UNL A   1      37.495  29.088  29.718  1.00  0.00     0.010 A 
ATOM     44  C   UNL A   1      38.542  31.157  28.992  1.00  0.00     0.010 A 
ATOM     45  C   UNL A   1      38.645  29.854  29.474  1.00  0.00    -0.014 A 
BRANCH  45  46
ATOM     46  C   UNL A   1      39.972  29.248  29.569  1.00  0.00     0.031 A 
ATOM     47  C   UNL A   1      40.478  29.107  30.963  1.00  0.00     0.074 A 
ATOM     48  C   UNL A   1      40.572  28.646  28.519  1.00  0.00     0.049 A 
ATOM     49  N   UNL A   1      41.473  29.725  31.510  1.00  0.00    -0.248 NA
ATOM     50  C   UNL A   1      39.685  28.309  31.911  1.00  0.00     0.031 C 
ATOM     51  C   UNL A   1      40.005  28.430  27.180  1.00  0.00     0.029 A 
ATOM     52  N   UNL A   1      41.748  27.958  28.462  1.00  0.00    -0.354 N 
ATOM     53  C   UNL A   1      41.585  29.187  32.794  1.00  0.00     0.074 A 
ATOM     54  C   UNL A   1      40.339  28.521  33.054  1.00  0.00     0.031 C 
ATOM     55  C   UNL A   1      40.699  27.459  26.549  1.00  0.00     0.029 A 
ATOM     56  C   UNL A   1      41.853  27.118  27.355  1.00  0.00     0.049 A 
ATOM     57  H   UNL A   1      42.457  28.047  29.140  1.00  0.00     0.167 HD
ATOM     58  C   UNL A   1      42.798  29.078  33.405  1.00  0.00     0.034 A 
ATOM     59  C   UNL A   1      42.802  26.178  27.127  1.00  0.00     0.034 A 
ATOM     60  C   UNL A   1      43.793  29.844  32.694  1.00  0.00     0.049 A 
ATOM     61  C   UNL A   1      43.960  26.511  27.978  1.00  0.00     0.074 A 
ATOM     62  C   UNL A   1      44.022  31.173  32.418  1.00  0.00     0.029 A 
ATOM     63  N   UNL A   1      44.543  29.109  31.812  1.00  0.00    -0.354 N 
ATOM     64  N   UNL A   1      44.690  27.577  27.811  1.00  0.00    -0.248 NA
ATOM     65  C   UNL A   1      44.107  25.844  29.262  1.00  0.00     0.031 C 
ATOM     66  C   UNL A   1      44.661  31.187  31.143  1.00  0.00     0.029 A 
ATOM     67  C   UNL A   1      44.846  29.869  30.719  1.00  0.00     0.049 A 
ATOM     68  H   UNL A   1      44.823  28.176  31.947  1.00  0.00     0.167 HD
ATOM     69  C   UNL A   1      45.005  27.972  29.101  1.00  0.00     0.074 A 
ATOM     70  C   UNL A   1      44.785  26.787  29.922  1.00  0.00     0.031 C 
ATOM     71  C   UNL A   1      45.106  29.296  29.414  1.00  0.00     0.034 A 
BRANCH  58  72
ATOM     72  C   UNL A   1      43.239  27.954  34.335  1.00  0.00     0.023 A 
ATOM     73  C   UNL A   1      43.732  28.339  35.607  1.00  0.00     0.012 A 
ATOM     74  C   UNL A   1      43.485  26.618  33.946  1.00  0.00     0.148 A 
ATOM     75  C   UNL A   1      44.495  27.477  36.403  1.00  0.00     0.002 A 
ATOM     76  C   UNL A   1      44.183  25.740  34.771  1.00  0.00     0.091 A 
ATOM     77  F   UNL A   1      43.164  26.203  32.721  1.00  0.00    -0.205 F 
ATOM     78  C   UNL A   1      44.721  26.174  35.984  1.00  0.00     0.022 A 
BRANCH  76  79
ATOM     79  S   UNL A   1      44.476  24.030  34.298  1.00  0.00     0.127 S 
ATOM     80  O   UNL A   1      43.118  23.492  34.295  1.00  0.00    -0.237 OA
ATOM     81  O   UNL A   1      45.085  24.187  32.977  1.00  0.00    -0.237 OA
ATOM     82  O   UNL A   1      45.374  23.490  35.310  1.00  0.00    -0.744 OA
ENDBRANCH  76  79
ENDBRANCH  58  72
BRANCH  59  83
ATOM     83  C   UNL A   1      42.731  24.916  26.360  1.00  0.00     0.023 A 
ATOM     84  C   UNL A   1      43.772  24.568  25.477  1.00  0.00     0.012 A 
ATOM     85  C   UNL A   1      41.783  23.928  26.700  1.00  0.00     0.148 A 
ATOM     86  C   UNL A   1      43.886  23.266  24.977  1.00  0.00     0.002 A 
ATOM     87  C   UNL A   1      41.897  22.636  26.198  1.00  0.00     0.091 A 
ATOM     88  F   UNL A   1      40.822  24.239  27.581  1.00  0.00    -0.205 F 
ATOM     89  C   UNL A   1      42.956  22.297  25.346  1.00  0.00     0.022 A 
BRANCH  87  90
ATOM     90  S   UNL A   1      40.757  21.321  26.649  1.00  0.00     0.127 S 
ATOM     91  O   UNL A   1      40.854  21.328  28.108  1.00  0.00    -0.237 OA
ATOM     92  O   UNL A   1      39.493  21.824  26.116  1.00  0.00    -0.237 OA
ATOM     93  O   UNL A   1      41.272  20.113  26.016  1.00  0.00    -0.744 OA
ENDBRANCH  87  90
ENDBRANCH  59  83
BRANCH  71  94
ATOM     94  C   UNL A   1      45.289  30.271  28.281  1.00  0.00     0.023 A 
ATOM     95  C   UNL A   1      44.213  30.824  27.559  1.00  0.00     0.012 A 
ATOM     96  C   UNL A   1      46.589  30.749  28.045  1.00  0.00     0.148 A 
ATOM     97  C   UNL A   1      44.434  31.823  26.608  1.00  0.00     0.002 A 
ATOM     98  C   UNL A   1      46.797  31.778  27.139  1.00  0.00     0.091 A 
ATOM     99  F   UNL A   1      47.600  30.204  28.738  1.00  0.00    -0.205 F 
ATOM    100  C   UNL A   1      45.724  32.312  26.409  1.00  0.00     0.022 A 
BRANCH  98 101
ATOM    101  S   UNL A   1      48.412  32.534  26.948  1.00  0.00     0.127 S 
ATOM    102  O   UNL A   1      48.716  32.955  28.313  1.00  0.00    -0.237 OA
ATOM    103  O   UNL A   1      49.223  31.420  26.455  1.00  0.00    -0.237 OA
ATOM    104  O   UNL A   1      48.236  33.612  25.981  1.00  0.00    -0.744 OA
ENDBRANCH  98 101
ENDBRANCH  71  94
ENDBRANCH  45  46
ENDBRANCH  37  40
ENDBRANCH  35  36
ENDBRANCH  34  35
ENDBRANCH   1  34
TORSDOF 19
ENDMDL
MODEL 3
REMARK VINA RESULT:     -10.1      4.614     10.105
REMARK SMILES Cc1c(-c2nn(-c3ccccc3)cc2/C=N/O)nnn1-c1ccc(C(=O)NCCCCNC(=O)c2ccc(-c3c4nc(c(-c5cccc(S(=O)(=O)[O-])c5F)c5ccc([nH]5)c(-c5cccc(S(=O)(=O)[O-])c5F)c5nc(c(-c6cccc(S(=O)(=O)[O-])c6F)c6ccc3[nH]6)C=C5)C=C4)cc2)cc1
REMARK SMILES IDX 29 1 28 2 27 3 25 4 26 5 24 7 21 8 22 9 99 10 23 11 98 12
REMARK SMILES IDX 20 13 1 14 2 15 3 16 18 17 19 18 4 19 5 20 14 21 6 22 13 23
REMARK SMILES IDX 15 24 16 25 17 26 7 28 8 29 12 30 9 31 11 32 10 33 30 34
REMARK SMILES IDX 31 35 32 36 33 37 34 39 35 40 36 41 97 42 37 43 96 44 38 45
REMARK SMILES IDX 39 46 40 47 90 48 41 49 95 50 89 51 91 52 42 53 94 54 88 55
REMARK SMILES IDX 87 56 43 58 75 59 55 60 74 61 56 62 59 63 73 64 92 65 57 66
REMARK SMILES IDX 58 67 72 69 93 70 60 71 44 72 45 73 53 74 46 75 48 76 54 77
REMARK SMILES IDX 47 78 49 79 50 80 51 81 52 82 76 83 77 84 85 85 78 86 80 87
REMARK SMILES IDX 86 88 79 89 81 90 82 91 83 92 84 93 61 94 62 95 70 96 63 97
REMARK SMILES IDX 65 98 71 99 64 100 66 101 67 102 68 103 69 104
REMARK H PARENT 27 6 17 27 32 38 91 57 59 68
REMARK Flexibility Score: inf
ROOT
ATOM      1  C   UNL A   1      34.029  32.957  28.530  1.00  0.00     0.023 C 
ENDROOT
BRANCH   1   2
ATOM      2  C   UNL A   1      33.780  31.618  27.822  1.00  0.00     0.116 C 
BRANCH   2   3
ATOM      3  N   UNL A   1      32.624  31.704  26.952  1.00  0.00    -0.352 N 
ATOM      4  C   UNL A   1      31.862  30.777  26.290  1.00  0.00     0.251 C 
ATOM      5  O   UNL A   1      30.975  31.208  25.549  1.00  0.00    -0.269 OA
ATOM      6  H   UNL A   1      32.320  32.628  26.804  1.00  0.00     0.163 HD
BRANCH   4   7
ATOM      7  C   UNL A   1      32.013  29.296  26.425  1.00  0.00     0.039 A 
ATOM      8  C   UNL A   1      32.454  26.518  26.500  1.00  0.00     0.067 A 
ATOM      9  C   UNL A   1      33.388  27.345  25.877  1.00  0.00     0.029 A 
ATOM     10  C   UNL A   1      31.335  27.069  27.132  1.00  0.00     0.029 A 
ATOM     11  C   UNL A   1      33.142  28.720  25.811  1.00  0.00     0.016 A 
ATOM     12  C   UNL A   1      31.148  28.457  27.133  1.00  0.00     0.016 A 
BRANCH   8  13
ATOM     13  N   UNL A   1      32.654  25.124  26.511  1.00  0.00    -0.217 N 
ATOM     14  C   UNL A   1      34.828  24.959  25.214  1.00  0.00     0.069 C 
ATOM     15  C   UNL A   1      33.614  24.388  25.844  1.00  0.00     0.071 A 
ATOM     16  C   UNL A   1      33.206  23.085  26.044  1.00  0.00     0.137 A 
ATOM     17  N   UNL A   1      32.115  23.051  26.865  1.00  0.00    -0.128 NA
ATOM     18  N   UNL A   1      31.829  24.302  27.205  1.00  0.00    -0.061 NA
BRANCH  16  19
ATOM     19  C   UNL A   1      33.857  21.859  25.602  1.00  0.00     0.124 A 
ATOM     20  N   UNL A   1      33.147  20.770  25.293  1.00  0.00    -0.165 NA
ATOM     21  C   UNL A   1      35.250  21.649  25.479  1.00  0.00     0.044 A 
ATOM     22  N   UNL A   1      34.069  19.809  25.088  1.00  0.00    -0.240 N 
ATOM     23  C   UNL A   1      35.351  20.298  25.190  1.00  0.00     0.125 A 
BRANCH  21  24
ATOM     24  C   UNL A   1      36.368  22.547  25.605  1.00  0.00     0.166 C 
ATOM     25  N   UNL A   1      37.111  22.810  24.582  1.00  0.00    -0.097 NA
BRANCH  25  26
ATOM     26  O   UNL A   1      38.146  23.672  24.967  1.00  0.00    -0.411 OA
ATOM     27  H   UNL A   1      38.103  24.117  25.792  1.00  0.00     0.330 HD
ENDBRANCH  25  26
ENDBRANCH  21  24
BRANCH  22  28
ATOM     28  C   UNL A   1      33.668  18.477  24.830  1.00  0.00     0.065 A 
ATOM     29  C   UNL A   1      32.713  17.881  25.665  1.00  0.00     0.028 A 
ATOM     30  C   UNL A   1      34.243  17.746  23.784  1.00  0.00     0.028 A 
ATOM     31  C   UNL A   1      32.318  16.564  25.442  1.00  0.00     0.002 A 
ATOM     32  C   UNL A   1      33.878  16.410  23.600  1.00  0.00     0.002 A 
ATOM     33  C   UNL A   1      32.911  15.824  24.420  1.00  0.00     0.000 A 
ENDBRANCH  22  28
ENDBRANCH  16  19
ENDBRANCH   8  13
ENDBRANCH   4   7
ENDBRANCH   2   3
ENDBRANCH   1   2
BRANCH   1  34
ATOM     34  C   UNL A   1      35.254  33.735  28.020  1.00  0.00     0.023 C 
BRANCH  34  35
ATOM     35  C   UNL A   1      36.503  33.595  28.887  1.00  0.00     0.116 C 
BRANCH  35  36
ATOM     36  N   UNL A   1      36.182  33.390  30.300  1.00  0.00    -0.352 N 
ATOM     37  C   UNL A   1      36.600  32.373  31.138  1.00  0.00     0.251 C 
ATOM     38  H   UNL A   1      35.592  34.065  30.707  1.00  0.00     0.163 HD
ATOM     39  O   UNL A   1      35.979  32.105  32.153  1.00  0.00    -0.269 OA
BRANCH  37  40
ATOM     40  C   UNL A   1      37.821  31.626  30.788  1.00  0.00     0.039 A 
ATOM     41  C   UNL A   1      39.080  32.231  30.861  1.00  0.00     0.014 A 
ATOM     42  C   UNL A   1      37.688  30.291  30.412  1.00  0.00     0.014 A 
ATOM     43  C   UNL A   1      40.212  31.452  30.640  1.00  0.00     0.010 A 
ATOM     44  C   UNL A   1      38.804  29.497  30.316  1.00  0.00     0.010 A 
ATOM     45  C   UNL A   1      40.068  30.078  30.391  1.00  0.00    -0.014 A 
BRANCH  45  46
ATOM     46  C   UNL A   1      41.240  29.204  30.365  1.00  0.00     0.031 A 
ATOM     47  C   UNL A   1      41.743  28.820  31.713  1.00  0.00     0.074 A 
ATOM     48  C   UNL A   1      41.671  28.601  29.235  1.00  0.00     0.049 A 
ATOM     49  N   UNL A   1      42.860  29.160  32.268  1.00  0.00    -0.248 NA
ATOM     50  C   UNL A   1      40.826  28.110  32.619  1.00  0.00     0.031 C 
ATOM     51  C   UNL A   1      41.036  28.646  27.910  1.00  0.00     0.029 A 
ATOM     52  N   UNL A   1      42.674  27.696  29.057  1.00  0.00    -0.354 N 
ATOM     53  C   UNL A   1      42.892  28.481  33.488  1.00  0.00     0.074 A 
ATOM     54  C   UNL A   1      41.542  28.064  33.744  1.00  0.00     0.031 C 
ATOM     55  C   UNL A   1      41.492  27.622  27.157  1.00  0.00     0.029 A 
ATOM     56  C   UNL A   1      42.570  26.969  27.872  1.00  0.00     0.049 A 
ATOM     57  H   UNL A   1      43.404  27.566  29.705  1.00  0.00     0.167 HD
ATOM     58  C   UNL A   1      44.071  28.063  34.027  1.00  0.00     0.034 A 
ATOM     59  C   UNL A   1      43.293  25.883  27.511  1.00  0.00     0.034 A 
ATOM     60  C   UNL A   1      45.185  28.676  33.344  1.00  0.00     0.049 A 
ATOM     61  C   UNL A   1      44.519  25.880  28.333  1.00  0.00     0.074 A 
ATOM     62  C   UNL A   1      45.681  29.950  33.184  1.00  0.00     0.029 A 
ATOM     63  N   UNL A   1      45.740  27.896  32.362  1.00  0.00    -0.354 N 
ATOM     64  N   UNL A   1      45.452  26.784  28.231  1.00  0.00    -0.248 NA
ATOM     65  C   UNL A   1      44.558  25.069  29.539  1.00  0.00     0.031 C 
ATOM     66  C   UNL A   1      46.274  29.962  31.887  1.00  0.00     0.029 A 
ATOM     67  C   UNL A   1      46.166  28.685  31.332  1.00  0.00     0.049 A 
ATOM     68  H   UNL A   1      45.821  26.916  32.395  1.00  0.00     0.167 HD
ATOM     69  C   UNL A   1      45.878  26.972  29.537  1.00  0.00     0.074 A 
ATOM     70  C   UNL A   1      45.436  25.780  30.252  1.00  0.00     0.031 C 
ATOM     71  C   UNL A   1      46.263  28.207  29.968  1.00  0.00     0.034 A 
BRANCH  58  72
ATOM     72  C   UNL A   1      44.291  26.783  34.825  1.00  0.00     0.023 A 
ATOM     73  C   UNL A   1      43.771  25.589  34.267  1.00  0.00     0.012 A 
ATOM     74  C   UNL A   1      44.685  26.721  36.182  1.00  0.00     0.148 A 
ATOM     75  C   UNL A   1      43.574  24.433  35.031  1.00  0.00     0.002 A 
ATOM     76  C   UNL A   1      44.554  25.549  36.920  1.00  0.00     0.091 A 
ATOM     77  F   UNL A   1      45.074  27.824  36.822  1.00  0.00    -0.205 F 
ATOM     78  C   UNL A   1      43.966  24.413  36.361  1.00  0.00     0.022 A 
BRANCH  76  79
ATOM     79  S   UNL A   1      45.080  25.450  38.638  1.00  0.00     0.127 S 
ATOM     80  O   UNL A   1      46.459  25.919  38.547  1.00  0.00    -0.237 OA
ATOM     81  O   UNL A   1      44.150  26.374  39.286  1.00  0.00    -0.237 OA
ATOM     82  O   UNL A   1      44.903  24.056  39.024  1.00  0.00    -0.744 OA
ENDBRANCH  76  79
ENDBRANCH  58  72
BRANCH  59  83
ATOM     83  C   UNL A   1      42.938  24.747  26.632  1.00  0.00     0.023 A 
ATOM     84  C   UNL A   1      43.714  24.469  25.490  1.00  0.00     0.012 A 
ATOM     85  C   UNL A   1      42.010  23.776  27.064  1.00  0.00     0.148 A 
ATOM     86  C   UNL A   1      43.595  23.247  24.819  1.00  0.00     0.002 A 
ATOM     87  C   UNL A   1      41.893  22.563  26.393  1.00  0.00     0.091 A 
ATOM     88  F   UNL A   1      41.308  24.012  28.181  1.00  0.00    -0.205 F 
ATOM     89  C   UNL A   1      42.694  22.290  25.277  1.00  0.00     0.022 A 
BRANCH  87  90
ATOM     90  S   UNL A   1      40.775  21.264  26.937  1.00  0.00     0.127 S 
ATOM     91  O   UNL A   1      39.472  21.817  26.571  1.00  0.00    -0.237 OA
ATOM     92  O   UNL A   1      41.212  20.132  26.123  1.00  0.00    -0.237 OA
ATOM     93  O   UNL A   1      40.992  21.129  28.372  1.00  0.00    -0.744 OA
ENDBRANCH  87  90
ENDBRANCH  59  83
BRANCH  71  94
ATOM     94  C   UNL A   1      46.616  29.233  28.925  1.00  0.00     0.023 A 
ATOM     95  C   UNL A   1      47.879  29.295  28.302  1.00  0.00     0.012 A 
ATOM     96  C   UNL A   1      45.583  30.064  28.459  1.00  0.00     0.148 A 
ATOM     97  C   UNL A   1      48.108  30.182  27.246  1.00  0.00     0.002 A 
ATOM     98  C   UNL A   1      45.799  30.903  27.377  1.00  0.00     0.091 A 
ATOM     99  F   UNL A   1      44.390  29.994  29.071  1.00  0.00    -0.205 F 
ATOM    100  C   UNL A   1      47.064  30.975  26.773  1.00  0.00     0.022 A 
BRANCH  98 101
ATOM    101  S   UNL A   1      44.456  31.839  26.644  1.00  0.00     0.127 S 
ATOM    102  O   UNL A   1      45.057  32.315  25.402  1.00  0.00    -0.237 OA
ATOM    103  O   UNL A   1      43.420  30.818  26.473  1.00  0.00    -0.237 OA
ATOM    104  O   UNL A   1      44.113  32.871  27.615  1.00  0.00    -0.744 OA
ENDBRANCH  98 101
ENDBRANCH  71  94
ENDBRANCH  45  46
ENDBRANCH  37  40
ENDBRANCH  35  36
ENDBRANCH  34  35
ENDBRANCH   1  34
TORSDOF 19
ENDMDL
