MODEL 1
REMARK VINA RESULT:     -10.7      0.000      0.000
REMARK SMILES CC(C)n1cncc1[C@@H](O)[C@H](C)C(=O)NCCCCNC(=O)c1ccc(-c2c3nc(c(-c4cccc(S(=O)(=O)[O-])c4F)c4ccc([nH]4)c(-c4cccc(S(=O)(=O)[O-])c4F)c4nc(c(-c5cccc(S(=O)(=O)[O-])c5F)c5ccc2[nH]5)C=C4)C=C3)cc1
REMARK SMILES IDX 17 1 16 2 15 3 13 4 14 5 11 7 12 8 9 9 8 10 4 11 5 12 6 13
REMARK SMILES IDX 7 14 2 15 1 16 3 17 10 18 18 20 19 21 20 22 21 23 22 25
REMARK SMILES IDX 23 26 24 27 85 28 25 29 84 30 26 31 27 32 28 33 78 34 29 35
REMARK SMILES IDX 83 36 77 37 79 38 30 39 82 40 76 41 75 42 31 44 63 45 43 46
REMARK SMILES IDX 62 47 44 48 47 49 61 50 80 51 45 52 46 53 60 55 81 56 48 57
REMARK SMILES IDX 32 58 33 59 41 60 34 61 36 62 42 63 35 64 37 65 38 66 39 67
REMARK SMILES IDX 40 68 64 69 65 70 73 71 66 72 68 73 74 74 67 75 69 76 70 77
REMARK SMILES IDX 71 78 72 79 49 80 50 81 58 82 51 83 53 84 59 85 52 86 54 87
REMARK SMILES IDX 55 88 56 89 57 90
REMARK H PARENT 15 6 10 19 20 24 79 43 47 54
REMARK Flexibility Score: inf
ROOT
ATOM      1  C   UNL A   1      39.183  22.271  26.070  1.00  0.00     0.023 C 
ENDROOT
BRANCH   1   2
ATOM      2  C   UNL A   1      37.859  23.021  25.983  1.00  0.00     0.116 C 
BRANCH   2   3
ATOM      3  N   UNL A   1      37.346  23.127  24.629  1.00  0.00    -0.356 N 
ATOM      4  C   UNL A   1      36.106  22.811  24.154  1.00  0.00     0.225 C 
ATOM      5  O   UNL A   1      35.861  23.050  22.968  1.00  0.00    -0.275 OA
ATOM      6  H   UNL A   1      37.981  23.475  23.961  1.00  0.00     0.163 HD
BRANCH   4   7
ATOM      7  C   UNL A   1      35.074  22.084  25.012  1.00  0.00     0.110 C 
ATOM      8  C   UNL A   1      35.301  20.571  24.924  1.00  0.00     0.021 C 
BRANCH   7   9
ATOM      9  C   UNL A   1      34.794  22.756  26.384  1.00  0.00     0.175 C 
BRANCH   9  10
ATOM     10  C   UNL A   1      33.487  23.480  26.504  1.00  0.00     0.067 A 
ATOM     11  N   UNL A   1      33.152  24.761  26.104  1.00  0.00    -0.330 N 
ATOM     12  C   UNL A   1      31.854  24.974  26.532  1.00  0.00     0.199 A 
ATOM     13  N   UNL A   1      31.332  23.933  27.123  1.00  0.00    -0.245 NA
ATOM     14  C   UNL A   1      32.341  23.024  27.148  1.00  0.00     0.137 A 
BRANCH  11  15
ATOM     15  C   UNL A   1      33.898  25.841  25.453  1.00  0.00     0.082 C 
ATOM     16  C   UNL A   1      33.828  25.955  23.933  1.00  0.00     0.031 C 
ATOM     17  C   UNL A   1      33.528  27.209  26.050  1.00  0.00     0.031 C 
ENDBRANCH  11  15
ENDBRANCH   9  10
BRANCH   9  18
ATOM     18  O   UNL A   1      34.793  21.859  27.487  1.00  0.00    -0.386 OA
ATOM     19  H   UNL A   1      33.999  22.009  28.025  1.00  0.00     0.211 HD
ENDBRANCH   9  18
ENDBRANCH   7   9
ENDBRANCH   4   7
ENDBRANCH   2   3
ENDBRANCH   1   2
BRANCH   1  20
ATOM     20  C   UNL A   1      39.189  20.874  25.445  1.00  0.00     0.023 C 
BRANCH  20  21
ATOM     21  C   UNL A   1      39.677  19.772  26.379  1.00  0.00     0.116 C 
BRANCH  21  22
ATOM     22  N   UNL A   1      40.896  19.126  25.898  1.00  0.00    -0.352 N 
ATOM     23  C   UNL A   1      42.131  19.706  25.703  1.00  0.00     0.251 C 
ATOM     24  H   UNL A   1      40.828  18.166  25.689  1.00  0.00     0.163 HD
ATOM     25  O   UNL A   1      42.960  19.185  24.955  1.00  0.00    -0.269 OA
BRANCH  23  26
ATOM     26  C   UNL A   1      42.449  20.959  26.406  1.00  0.00     0.039 A 
ATOM     27  C   UNL A   1      42.861  22.092  25.699  1.00  0.00     0.014 A 
ATOM     28  C   UNL A   1      42.309  20.988  27.794  1.00  0.00     0.014 A 
ATOM     29  C   UNL A   1      43.054  23.284  26.393  1.00  0.00     0.010 A 
ATOM     30  C   UNL A   1      42.396  22.186  28.462  1.00  0.00     0.010 A 
ATOM     31  C   UNL A   1      42.799  23.328  27.771  1.00  0.00    -0.014 A 
BRANCH  31  32
ATOM     32  C   UNL A   1      42.763  24.607  28.473  1.00  0.00     0.031 A 
ATOM     33  C   UNL A   1      41.564  25.426  28.146  1.00  0.00     0.074 A 
ATOM     34  C   UNL A   1      43.582  24.893  29.509  1.00  0.00     0.049 A 
ATOM     35  N   UNL A   1      41.520  26.534  27.480  1.00  0.00    -0.248 NA
ATOM     36  C   UNL A   1      40.237  24.852  28.427  1.00  0.00     0.031 C 
ATOM     37  C   UNL A   1      44.572  23.999  30.120  1.00  0.00     0.029 A 
ATOM     38  N   UNL A   1      43.591  25.970  30.346  1.00  0.00    -0.354 N 
ATOM     39  C   UNL A   1      40.184  26.934  27.530  1.00  0.00     0.074 A 
ATOM     40  C   UNL A   1      39.435  25.752  27.853  1.00  0.00     0.031 C 
ATOM     41  C   UNL A   1      44.880  24.447  31.355  1.00  0.00     0.029 A 
ATOM     42  C   UNL A   1      44.235  25.729  31.561  1.00  0.00     0.049 A 
ATOM     43  H   UNL A   1      43.184  26.835  30.115  1.00  0.00     0.167 HD
ATOM     44  C   UNL A   1      39.862  28.253  27.662  1.00  0.00     0.034 A 
ATOM     45  C   UNL A   1      44.189  26.496  32.679  1.00  0.00     0.034 A 
ATOM     46  C   UNL A   1      41.003  29.089  27.357  1.00  0.00     0.049 A 
ATOM     47  C   UNL A   1      43.753  27.845  32.262  1.00  0.00     0.074 A 
ATOM     48  C   UNL A   1      41.872  29.236  26.295  1.00  0.00     0.029 A 
ATOM     49  N   UNL A   1      41.617  29.680  28.433  1.00  0.00    -0.354 N 
ATOM     50  N   UNL A   1      44.472  28.638  31.518  1.00  0.00    -0.248 NA
ATOM     51  C   UNL A   1      42.339  28.166  32.338  1.00  0.00     0.031 C 
ATOM     52  C   UNL A   1      43.140  29.516  26.887  1.00  0.00     0.029 A 
ATOM     53  C   UNL A   1      42.968  29.602  28.269  1.00  0.00     0.049 A 
ATOM     54  H   UNL A   1      41.156  30.095  29.198  1.00  0.00     0.167 HD
ATOM     55  C   UNL A   1      43.549  29.222  30.664  1.00  0.00     0.074 A 
ATOM     56  C   UNL A   1      42.254  29.012  31.310  1.00  0.00     0.031 C 
ATOM     57  C   UNL A   1      43.894  29.534  29.379  1.00  0.00     0.034 A 
BRANCH  44  58
ATOM     58  C   UNL A   1      38.722  28.796  28.527  1.00  0.00     0.023 A 
ATOM     59  C   UNL A   1      37.838  29.708  27.897  1.00  0.00     0.012 A 
ATOM     60  C   UNL A   1      38.658  28.738  29.939  1.00  0.00     0.148 A 
ATOM     61  C   UNL A   1      37.052  30.604  28.630  1.00  0.00     0.002 A 
ATOM     62  C   UNL A   1      37.825  29.587  30.662  1.00  0.00     0.091 A 
ATOM     63  F   UNL A   1      39.468  27.937  30.625  1.00  0.00    -0.205 F 
ATOM     64  C   UNL A   1      37.054  30.552  30.015  1.00  0.00     0.022 A 
BRANCH  62  65
ATOM     65  S   UNL A   1      37.757  29.540  32.460  1.00  0.00     0.127 S 
ATOM     66  O   UNL A   1      36.650  30.453  32.729  1.00  0.00    -0.237 OA
ATOM     67  O   UNL A   1      37.474  28.127  32.706  1.00  0.00    -0.237 OA
ATOM     68  O   UNL A   1      39.068  29.978  32.922  1.00  0.00    -0.744 OA
ENDBRANCH  62  65
ENDBRANCH  44  58
BRANCH  45  69
ATOM     69  C   UNL A   1      44.290  26.126  34.112  1.00  0.00     0.023 A 
ATOM     70  C   UNL A   1      43.168  25.570  34.765  1.00  0.00     0.012 A 
ATOM     71  C   UNL A   1      45.540  26.047  34.763  1.00  0.00     0.148 A 
ATOM     72  C   UNL A   1      43.297  24.916  35.997  1.00  0.00     0.002 A 
ATOM     73  C   UNL A   1      45.662  25.408  35.995  1.00  0.00     0.091 A 
ATOM     74  F   UNL A   1      46.627  26.513  34.134  1.00  0.00    -0.205 F 
ATOM     75  C   UNL A   1      44.544  24.827  36.606  1.00  0.00     0.022 A 
BRANCH  73  76
ATOM     76  S   UNL A   1      47.242  25.248  36.837  1.00  0.00     0.127 S 
ATOM     77  O   UNL A   1      48.029  24.483  35.869  1.00  0.00    -0.237 OA
ATOM     78  O   UNL A   1      47.649  26.641  36.989  1.00  0.00    -0.237 OA
ATOM     79  O   UNL A   1      46.964  24.528  38.074  1.00  0.00    -0.744 OA
ENDBRANCH  73  76
ENDBRANCH  45  69
BRANCH  57  80
ATOM     80  C   UNL A   1      45.357  29.591  29.031  1.00  0.00     0.023 A 
ATOM     81  C   UNL A   1      46.169  30.714  29.289  1.00  0.00     0.012 A 
ATOM     82  C   UNL A   1      45.957  28.412  28.556  1.00  0.00     0.148 A 
ATOM     83  C   UNL A   1      47.546  30.667  29.053  1.00  0.00     0.002 A 
ATOM     84  C   UNL A   1      47.331  28.354  28.370  1.00  0.00     0.091 A 
ATOM     85  F   UNL A   1      45.168  27.353  28.312  1.00  0.00    -0.205 F 
ATOM     86  C   UNL A   1      48.129  29.483  28.607  1.00  0.00     0.022 A 
BRANCH  84  87
ATOM     87  S   UNL A   1      48.141  26.820  27.913  1.00  0.00     0.127 S 
ATOM     88  O   UNL A   1      47.616  26.586  26.570  1.00  0.00    -0.237 OA
ATOM     89  O   UNL A   1      49.558  27.186  27.962  1.00  0.00    -0.237 OA
ATOM     90  O   UNL A   1      47.746  25.846  28.923  1.00  0.00    -0.744 OA
ENDBRANCH  84  87
ENDBRANCH  57  80
ENDBRANCH  31  32
ENDBRANCH  23  26
ENDBRANCH  21  22
ENDBRANCH  20  21
ENDBRANCH   1  20
TORSDOF 18
ENDMDL
MODEL 2
REMARK VINA RESULT:     -10.6      4.456      9.423
REMARK SMILES CC(C)n1cncc1[C@@H](O)[C@H](C)C(=O)NCCCCNC(=O)c1ccc(-c2c3nc(c(-c4cccc(S(=O)(=O)[O-])c4F)c4ccc([nH]4)c(-c4cccc(S(=O)(=O)[O-])c4F)c4nc(c(-c5cccc(S(=O)(=O)[O-])c5F)c5ccc2[nH]5)C=C4)C=C3)cc1
REMARK SMILES IDX 17 1 16 2 15 3 13 4 14 5 11 7 12 8 9 9 8 10 4 11 5 12 6 13
REMARK SMILES IDX 7 14 2 15 1 16 3 17 10 18 18 20 19 21 20 22 21 23 22 25
REMARK SMILES IDX 23 26 24 27 85 28 25 29 84 30 26 31 27 32 28 33 78 34 29 35
REMARK SMILES IDX 83 36 77 37 79 38 30 39 82 40 76 41 75 42 31 44 63 45 43 46
REMARK SMILES IDX 62 47 44 48 47 49 61 50 80 51 45 52 46 53 60 55 81 56 48 57
REMARK SMILES IDX 32 58 33 59 41 60 34 61 36 62 42 63 35 64 37 65 38 66 39 67
REMARK SMILES IDX 40 68 64 69 65 70 73 71 66 72 68 73 74 74 67 75 69 76 70 77
REMARK SMILES IDX 71 78 72 79 49 80 50 81 58 82 51 83 53 84 59 85 52 86 54 87
REMARK SMILES IDX 55 88 56 89 57 90
REMARK H PARENT 15 6 10 19 20 24 79 43 47 54
REMARK Flexibility Score: inf
ROOT
ATOM      1  C   UNL A   1      31.584  29.833  26.126  1.00  0.00     0.023 C 
ENDROOT
BRANCH   1   2
ATOM      2  C   UNL A   1      32.984  29.268  25.906  1.00  0.00     0.116 C 
BRANCH   2   3
ATOM      3  N   UNL A   1      33.440  29.380  24.533  1.00  0.00    -0.356 N 
ATOM      4  C   UNL A   1      33.454  28.429  23.554  1.00  0.00     0.225 C 
ATOM      5  O   UNL A   1      33.824  28.766  22.425  1.00  0.00    -0.275 OA
ATOM      6  H   UNL A   1      33.788  30.264  24.273  1.00  0.00     0.163 HD
BRANCH   4   7
ATOM      7  C   UNL A   1      33.133  26.966  23.844  1.00  0.00     0.110 C 
ATOM      8  C   UNL A   1      31.631  26.809  24.108  1.00  0.00     0.021 C 
BRANCH   7   9
ATOM      9  C   UNL A   1      33.877  25.953  22.932  1.00  0.00     0.175 C 
BRANCH   9  10
ATOM     10  C   UNL A   1      33.583  24.505  23.185  1.00  0.00     0.067 A 
ATOM     11  N   UNL A   1      33.871  23.731  24.294  1.00  0.00    -0.330 N 
ATOM     12  C   UNL A   1      33.473  22.442  23.982  1.00  0.00     0.199 A 
ATOM     13  N   UNL A   1      32.927  22.348  22.799  1.00  0.00    -0.245 NA
ATOM     14  C   UNL A   1      33.026  23.601  22.286  1.00  0.00     0.137 A 
BRANCH  11  15
ATOM     15  C   UNL A   1      34.536  24.006  25.570  1.00  0.00     0.082 C 
ATOM     16  C   UNL A   1      34.084  23.231  26.804  1.00  0.00     0.031 C 
ATOM     17  C   UNL A   1      36.061  23.851  25.444  1.00  0.00     0.031 C 
ENDBRANCH  11  15
ENDBRANCH   9  10
BRANCH   9  18
ATOM     18  O   UNL A   1      33.624  26.118  21.543  1.00  0.00    -0.386 OA
ATOM     19  H   UNL A   1      32.788  25.682  21.312  1.00  0.00     0.211 HD
ENDBRANCH   9  18
ENDBRANCH   7   9
ENDBRANCH   4   7
ENDBRANCH   2   3
ENDBRANCH   1   2
BRANCH   1  20
ATOM     20  C   UNL A   1      31.505  31.355  26.262  1.00  0.00     0.023 C 
BRANCH  20  21
ATOM     21  C   UNL A   1      32.559  31.957  27.184  1.00  0.00     0.116 C 
BRANCH  21  22
ATOM     22  N   UNL A   1      32.330  33.377  27.449  1.00  0.00    -0.352 N 
ATOM     23  C   UNL A   1      32.991  34.177  28.355  1.00  0.00     0.251 C 
ATOM     24  H   UNL A   1      31.623  33.811  26.919  1.00  0.00     0.163 HD
ATOM     25  O   UNL A   1      32.480  35.221  28.762  1.00  0.00    -0.269 OA
BRANCH  23  26
ATOM     26  C   UNL A   1      34.322  33.768  28.831  1.00  0.00     0.039 A 
ATOM     27  C   UNL A   1      34.468  33.054  30.024  1.00  0.00     0.014 A 
ATOM     28  C   UNL A   1      35.429  34.093  28.047  1.00  0.00     0.014 A 
ATOM     29  C   UNL A   1      35.733  32.599  30.384  1.00  0.00     0.010 A 
ATOM     30  C   UNL A   1      36.658  33.555  28.347  1.00  0.00     0.010 A 
ATOM     31  C   UNL A   1      36.820  32.836  29.529  1.00  0.00    -0.014 A 
BRANCH  31  32
ATOM     32  C   UNL A   1      38.099  32.172  29.762  1.00  0.00     0.031 A 
ATOM     33  C   UNL A   1      38.130  30.765  29.278  1.00  0.00     0.074 A 
ATOM     34  C   UNL A   1      39.214  32.844  30.125  1.00  0.00     0.049 A 
ATOM     35  N   UNL A   1      38.184  29.685  29.987  1.00  0.00    -0.248 NA
ATOM     36  C   UNL A   1      37.881  30.521  27.847  1.00  0.00     0.031 C 
ATOM     37  C   UNL A   1      39.349  34.295  30.294  1.00  0.00     0.029 A 
ATOM     38  N   UNL A   1      40.498  32.404  30.253  1.00  0.00    -0.354 N 
ATOM     39  C   UNL A   1      38.279  28.647  29.060  1.00  0.00     0.074 A 
ATOM     40  C   UNL A   1      37.803  29.189  27.818  1.00  0.00     0.031 C 
ATOM     41  C   UNL A   1      40.654  34.634  30.232  1.00  0.00     0.029 A 
ATOM     42  C   UNL A   1      41.449  33.423  30.175  1.00  0.00     0.049 A 
ATOM     43  H   UNL A   1      40.733  31.459  30.388  1.00  0.00     0.167 HD
ATOM     44  C   UNL A   1      39.073  27.567  29.310  1.00  0.00     0.034 A 
ATOM     45  C   UNL A   1      42.789  33.284  30.013  1.00  0.00     0.034 A 
ATOM     46  C   UNL A   1      39.423  27.506  30.712  1.00  0.00     0.049 A 
ATOM     47  C   UNL A   1      43.132  31.901  30.408  1.00  0.00     0.074 A 
ATOM     48  C   UNL A   1      38.735  27.487  31.909  1.00  0.00     0.029 A 
ATOM     49  N   UNL A   1      40.713  27.856  31.024  1.00  0.00    -0.354 N 
ATOM     50  N   UNL A   1      43.043  31.457  31.629  1.00  0.00    -0.248 NA
ATOM     51  C   UNL A   1      43.196  30.885  29.372  1.00  0.00     0.031 C 
ATOM     52  C   UNL A   1      39.535  28.249  32.812  1.00  0.00     0.029 A 
ATOM     53  C   UNL A   1      40.703  28.628  32.148  1.00  0.00     0.049 A 
ATOM     54  H   UNL A   1      41.516  27.592  30.518  1.00  0.00     0.167 HD
ATOM     55  C   UNL A   1      42.544  30.171  31.481  1.00  0.00     0.074 A 
ATOM     56  C   UNL A   1      42.801  29.828  30.084  1.00  0.00     0.031 C 
ATOM     57  C   UNL A   1      41.697  29.644  32.415  1.00  0.00     0.034 A 
BRANCH  44  58
ATOM     58  C   UNL A   1      39.944  26.858  28.271  1.00  0.00     0.023 A 
ATOM     59  C   UNL A   1      40.065  25.452  28.410  1.00  0.00     0.012 A 
ATOM     60  C   UNL A   1      40.878  27.483  27.411  1.00  0.00     0.148 A 
ATOM     61  C   UNL A   1      41.132  24.740  27.848  1.00  0.00     0.002 A 
ATOM     62  C   UNL A   1      41.900  26.761  26.802  1.00  0.00     0.091 A 
ATOM     63  F   UNL A   1      40.868  28.802  27.239  1.00  0.00    -0.205 F 
ATOM     64  C   UNL A   1      42.058  25.397  27.053  1.00  0.00     0.022 A 
BRANCH  62  65
ATOM     65  S   UNL A   1      43.109  27.552  25.729  1.00  0.00     0.127 S 
ATOM     66  O   UNL A   1      43.738  28.494  26.650  1.00  0.00    -0.237 OA
ATOM     67  O   UNL A   1      43.940  26.415  25.335  1.00  0.00    -0.237 OA
ATOM     68  O   UNL A   1      42.348  28.145  24.637  1.00  0.00    -0.744 OA
ENDBRANCH  62  65
ENDBRANCH  44  58
BRANCH  45  69
ATOM     69  C   UNL A   1      43.781  34.167  29.353  1.00  0.00     0.023 A 
ATOM     70  C   UNL A   1      44.556  35.048  30.139  1.00  0.00     0.012 A 
ATOM     71  C   UNL A   1      44.174  33.957  28.013  1.00  0.00     0.148 A 
ATOM     72  C   UNL A   1      45.707  35.657  29.623  1.00  0.00     0.002 A 
ATOM     73  C   UNL A   1      45.312  34.575  27.500  1.00  0.00     0.091 A 
ATOM     74  F   UNL A   1      43.489  33.078  27.268  1.00  0.00    -0.205 F 
ATOM     75  C   UNL A   1      46.090  35.413  28.308  1.00  0.00     0.022 A 
BRANCH  73  76
ATOM     76  S   UNL A   1      45.870  34.301  25.813  1.00  0.00     0.127 S 
ATOM     77  O   UNL A   1      46.346  32.918  25.869  1.00  0.00    -0.237 OA
ATOM     78  O   UNL A   1      44.641  34.493  25.049  1.00  0.00    -0.237 OA
ATOM     79  O   UNL A   1      46.924  35.281  25.577  1.00  0.00    -0.744 OA
ENDBRANCH  73  76
ENDBRANCH  45  69
BRANCH  57  80
ATOM     80  C   UNL A   1      41.623  30.312  33.763  1.00  0.00     0.023 A 
ATOM     81  C   UNL A   1      42.552  30.073  34.795  1.00  0.00     0.012 A 
ATOM     82  C   UNL A   1      40.660  31.321  33.934  1.00  0.00     0.148 A 
ATOM     83  C   UNL A   1      42.504  30.808  35.982  1.00  0.00     0.002 A 
ATOM     84  C   UNL A   1      40.646  32.082  35.094  1.00  0.00     0.091 A 
ATOM     85  F   UNL A   1      39.781  31.534  32.942  1.00  0.00    -0.205 F 
ATOM     86  C   UNL A   1      41.559  31.822  36.127  1.00  0.00     0.022 A 
BRANCH  84  87
ATOM     87  S   UNL A   1      39.531  33.475  35.276  1.00  0.00     0.127 S 
ATOM     88  O   UNL A   1      39.942  34.342  34.174  1.00  0.00    -0.237 OA
ATOM     89  O   UNL A   1      38.217  32.851  35.106  1.00  0.00    -0.237 OA
ATOM     90  O   UNL A   1      39.766  34.001  36.614  1.00  0.00    -0.744 OA
ENDBRANCH  84  87
ENDBRANCH  57  80
ENDBRANCH  31  32
ENDBRANCH  23  26
ENDBRANCH  21  22
ENDBRANCH  20  21
ENDBRANCH   1  20
TORSDOF 18
ENDMDL
MODEL 3
REMARK VINA RESULT:     -10.5      1.789      2.267
REMARK SMILES CC(C)n1cncc1[C@@H](O)[C@H](C)C(=O)NCCCCNC(=O)c1ccc(-c2c3nc(c(-c4cccc(S(=O)(=O)[O-])c4F)c4ccc([nH]4)c(-c4cccc(S(=O)(=O)[O-])c4F)c4nc(c(-c5cccc(S(=O)(=O)[O-])c5F)c5ccc2[nH]5)C=C4)C=C3)cc1
REMARK SMILES IDX 17 1 16 2 15 3 13 4 14 5 11 7 12 8 9 9 8 10 4 11 5 12 6 13
REMARK SMILES IDX 7 14 2 15 1 16 3 17 10 18 18 20 19 21 20 22 21 23 22 25
REMARK SMILES IDX 23 26 24 27 85 28 25 29 84 30 26 31 27 32 28 33 78 34 29 35
REMARK SMILES IDX 83 36 77 37 79 38 30 39 82 40 76 41 75 42 31 44 63 45 43 46
REMARK SMILES IDX 62 47 44 48 47 49 61 50 80 51 45 52 46 53 60 55 81 56 48 57
REMARK SMILES IDX 32 58 33 59 41 60 34 61 36 62 42 63 35 64 37 65 38 66 39 67
REMARK SMILES IDX 40 68 64 69 65 70 73 71 66 72 68 73 74 74 67 75 69 76 70 77
REMARK SMILES IDX 71 78 72 79 49 80 50 81 58 82 51 83 53 84 59 85 52 86 54 87
REMARK SMILES IDX 55 88 56 89 57 90
REMARK H PARENT 15 6 10 19 20 24 79 43 47 54
REMARK Flexibility Score: inf
ROOT
ATOM      1  C   UNL A   1      36.111  20.124  25.015  1.00  0.00     0.023 C 
ENDROOT
BRANCH   1   2
ATOM      2  C   UNL A   1      35.406  21.455  25.255  1.00  0.00     0.116 C 
BRANCH   2   3
ATOM      3  N   UNL A   1      34.022  21.460  24.817  1.00  0.00    -0.356 N 
ATOM      4  C   UNL A   1      33.190  22.524  24.616  1.00  0.00     0.225 C 
ATOM      5  O   UNL A   1      32.061  22.300  24.169  1.00  0.00    -0.275 OA
ATOM      6  H   UNL A   1      33.630  20.574  24.641  1.00  0.00     0.163 HD
BRANCH   4   7
ATOM      7  C   UNL A   1      33.578  23.941  25.026  1.00  0.00     0.110 C 
ATOM      8  C   UNL A   1      34.315  24.630  23.871  1.00  0.00     0.021 C 
BRANCH   7   9
ATOM      9  C   UNL A   1      32.482  24.702  25.819  1.00  0.00     0.175 C 
BRANCH   9  10
ATOM     10  C   UNL A   1      31.657  25.674  25.029  1.00  0.00     0.067 A 
ATOM     11  N   UNL A   1      31.578  27.050  25.137  1.00  0.00    -0.330 N 
ATOM     12  C   UNL A   1      30.603  27.455  24.242  1.00  0.00     0.199 A 
ATOM     13  N   UNL A   1      30.096  26.466  23.557  1.00  0.00    -0.245 NA
ATOM     14  C   UNL A   1      30.708  25.363  24.061  1.00  0.00     0.137 A 
BRANCH  11  15
ATOM     15  C   UNL A   1      32.225  28.031  26.012  1.00  0.00     0.082 C 
ATOM     16  C   UNL A   1      31.860  28.032  27.494  1.00  0.00     0.031 C 
ATOM     17  C   UNL A   1      33.757  27.949  25.900  1.00  0.00     0.031 C 
ENDBRANCH  11  15
ENDBRANCH   9  10
BRANCH   9  18
ATOM     18  O   UNL A   1      31.519  23.863  26.443  1.00  0.00    -0.386 OA
ATOM     19  H   UNL A   1      31.380  23.071  25.899  1.00  0.00     0.211 HD
ENDBRANCH   9  18
ENDBRANCH   7   9
ENDBRANCH   4   7
ENDBRANCH   2   3
ENDBRANCH   1   2
BRANCH   1  20
ATOM     20  C   UNL A   1      37.563  20.227  24.543  1.00  0.00     0.023 C 
BRANCH  20  21
ATOM     21  C   UNL A   1      38.571  20.456  25.663  1.00  0.00     0.116 C 
BRANCH  21  22
ATOM     22  N   UNL A   1      39.570  19.392  25.748  1.00  0.00    -0.352 N 
ATOM     23  C   UNL A   1      40.925  19.530  25.953  1.00  0.00     0.251 C 
ATOM     24  H   UNL A   1      39.236  18.471  25.647  1.00  0.00     0.163 HD
ATOM     25  O   UNL A   1      41.705  18.632  25.632  1.00  0.00    -0.269 OA
BRANCH  23  26
ATOM     26  C   UNL A   1      41.432  20.768  26.566  1.00  0.00     0.039 A 
ATOM     27  C   UNL A   1      42.018  21.767  25.783  1.00  0.00     0.014 A 
ATOM     28  C   UNL A   1      41.291  20.925  27.945  1.00  0.00     0.014 A 
ATOM     29  C   UNL A   1      42.390  22.964  26.389  1.00  0.00     0.010 A 
ATOM     30  C   UNL A   1      41.560  22.142  28.523  1.00  0.00     0.010 A 
ATOM     31  C   UNL A   1      42.139  23.152  27.756  1.00  0.00    -0.014 A 
BRANCH  31  32
ATOM     32  C   UNL A   1      42.299  24.471  28.361  1.00  0.00     0.031 A 
ATOM     33  C   UNL A   1      41.133  25.368  28.137  1.00  0.00     0.074 A 
ATOM     34  C   UNL A   1      43.274  24.749  29.254  1.00  0.00     0.049 A 
ATOM     35  N   UNL A   1      41.081  26.431  27.403  1.00  0.00    -0.248 NA
ATOM     36  C   UNL A   1      39.818  24.929  28.634  1.00  0.00     0.031 C 
ATOM     37  C   UNL A   1      44.269  23.814  29.790  1.00  0.00     0.029 A 
ATOM     38  N   UNL A   1      43.482  25.872  30.000  1.00  0.00    -0.354 N 
ATOM     39  C   UNL A   1      39.800  26.947  27.601  1.00  0.00     0.074 A 
ATOM     40  C   UNL A   1      39.015  25.856  28.109  1.00  0.00     0.031 C 
ATOM     41  C   UNL A   1      44.779  24.310  30.937  1.00  0.00     0.029 A 
ATOM     42  C   UNL A   1      44.269  25.653  31.132  1.00  0.00     0.049 A 
ATOM     43  H   UNL A   1      43.114  26.752  29.762  1.00  0.00     0.167 HD
ATOM     44  C   UNL A   1      39.601  28.294  27.678  1.00  0.00     0.034 A 
ATOM     45  C   UNL A   1      44.438  26.490  32.187  1.00  0.00     0.034 A 
ATOM     46  C   UNL A   1      40.749  29.008  27.162  1.00  0.00     0.049 A 
ATOM     47  C   UNL A   1      44.053  27.843  31.733  1.00  0.00     0.074 A 
ATOM     48  C   UNL A   1      41.470  29.013  25.985  1.00  0.00     0.029 A 
ATOM     49  N   UNL A   1      41.550  29.611  28.099  1.00  0.00    -0.354 N 
ATOM     50  N   UNL A   1      44.719  28.522  30.843  1.00  0.00    -0.248 NA
ATOM     51  C   UNL A   1      42.692  28.288  31.974  1.00  0.00     0.031 C 
ATOM     52  C   UNL A   1      42.826  29.220  26.380  1.00  0.00     0.029 A 
ATOM     53  C   UNL A   1      42.856  29.407  27.763  1.00  0.00     0.049 A 
ATOM     54  H   UNL A   1      41.233  30.110  28.887  1.00  0.00     0.167 HD
ATOM     55  C   UNL A   1      43.733  29.129  30.079  1.00  0.00     0.074 A 
ATOM     56  C   UNL A   1      42.530  29.072  30.906  1.00  0.00     0.031 C 
ATOM     57  C   UNL A   1      43.919  29.329  28.741  1.00  0.00     0.034 A 
BRANCH  44  58
ATOM     58  C   UNL A   1      38.638  28.986  28.645  1.00  0.00     0.023 A 
ATOM     59  C   UNL A   1      37.904  30.080  28.122  1.00  0.00     0.012 A 
ATOM     60  C   UNL A   1      38.649  28.858  30.054  1.00  0.00     0.148 A 
ATOM     61  C   UNL A   1      37.345  31.062  28.949  1.00  0.00     0.002 A 
ATOM     62  C   UNL A   1      38.036  29.802  30.873  1.00  0.00     0.091 A 
ATOM     63  F   UNL A   1      39.335  27.883  30.644  1.00  0.00    -0.205 F 
ATOM     64  C   UNL A   1      37.422  30.929  30.326  1.00  0.00     0.022 A 
BRANCH  62  65
ATOM     65  S   UNL A   1      38.069  29.663  32.667  1.00  0.00     0.127 S 
ATOM     66  O   UNL A   1      37.396  28.384  32.869  1.00  0.00    -0.237 OA
ATOM     67  O   UNL A   1      39.507  29.661  32.934  1.00  0.00    -0.237 OA
ATOM     68  O   UNL A   1      37.368  30.837  33.172  1.00  0.00    -0.744 OA
ENDBRANCH  62  65
ENDBRANCH  44  58
BRANCH  45  69
ATOM     69  C   UNL A   1      44.709  26.202  33.617  1.00  0.00     0.023 A 
ATOM     70  C   UNL A   1      46.038  26.240  34.091  1.00  0.00     0.012 A 
ATOM     71  C   UNL A   1      43.666  26.174  34.569  1.00  0.00     0.148 A 
ATOM     72  C   UNL A   1      46.316  26.295  35.463  1.00  0.00     0.002 A 
ATOM     73  C   UNL A   1      43.948  26.216  35.932  1.00  0.00     0.091 A 
ATOM     74  F   UNL A   1      42.398  26.200  34.140  1.00  0.00    -0.205 F 
ATOM     75  C   UNL A   1      45.272  26.294  36.382  1.00  0.00     0.022 A 
BRANCH  73  76
ATOM     76  S   UNL A   1      42.649  26.224  37.177  1.00  0.00     0.127 S 
ATOM     77  O   UNL A   1      41.899  27.431  36.827  1.00  0.00    -0.237 OA
ATOM     78  O   UNL A   1      41.954  24.971  36.900  1.00  0.00    -0.237 OA
ATOM     79  O   UNL A   1      43.330  26.302  38.463  1.00  0.00    -0.744 OA
ENDBRANCH  73  76
ENDBRANCH  45  69
BRANCH  57  80
ATOM     80  C   UNL A   1      45.320  29.238  28.196  1.00  0.00     0.023 A 
ATOM     81  C   UNL A   1      46.245  30.299  28.265  1.00  0.00     0.012 A 
ATOM     82  C   UNL A   1      45.753  27.986  27.729  1.00  0.00     0.148 A 
ATOM     83  C   UNL A   1      47.567  30.120  27.851  1.00  0.00     0.002 A 
ATOM     84  C   UNL A   1      47.079  27.799  27.365  1.00  0.00     0.091 A 
ATOM     85  F   UNL A   1      44.858  26.988  27.667  1.00  0.00    -0.205 F 
ATOM     86  C   UNL A   1      47.988  28.865  27.414  1.00  0.00     0.022 A 
BRANCH  84  87
ATOM     87  S   UNL A   1      47.695  26.176  26.912  1.00  0.00     0.127 S 
ATOM     88  O   UNL A   1      46.928  25.885  25.703  1.00  0.00    -0.237 OA
ATOM     89  O   UNL A   1      49.119  26.431  26.687  1.00  0.00    -0.237 OA
ATOM     90  O   UNL A   1      47.423  25.314  28.054  1.00  0.00    -0.744 OA
ENDBRANCH  84  87
ENDBRANCH  57  80
ENDBRANCH  31  32
ENDBRANCH  23  26
ENDBRANCH  21  22
ENDBRANCH  20  21
ENDBRANCH   1  20
TORSDOF 18
ENDMDL
