MODEL 1
REMARK VINA RESULT:     -11.6      0.000      0.000
REMARK SMILES CC[C@H](C(=O)NCc1ccc(C(=O)NCCCCNC(=O)c2ccc(-c3c4nc(c(-c5cccc(S(=O)(=O)[O-])c5F)c5ccc([nH]5)c(-c5cccc(S(=O)(=O)[O-])c5F)c5nc(c(-c6cccc(S(=O)(=O)[O-])c6F)c6ccc3[nH]6)C=C5)C=C4)cc2)o1)c1ccccc1
REMARK SMILES IDX 16 1 15 2 14 3 12 4 13 5 11 7 8 8 9 9 85 10 10 11 7 12 6 13
REMARK SMILES IDX 4 14 5 15 3 17 2 18 1 19 86 20 87 21 91 22 88 23 90 24 89 25
REMARK SMILES IDX 17 26 18 27 19 28 20 29 21 31 22 32 23 33 84 34 24 35 83 36
REMARK SMILES IDX 25 37 26 38 27 39 77 40 28 41 82 42 76 43 78 44 29 45 81 46
REMARK SMILES IDX 75 47 74 48 30 50 62 51 42 52 61 53 43 54 46 55 60 56 79 57
REMARK SMILES IDX 44 58 45 59 59 61 80 62 47 63 31 64 32 65 40 66 33 67 35 68
REMARK SMILES IDX 41 69 34 70 36 71 37 72 38 73 39 74 63 75 64 76 72 77 65 78
REMARK SMILES IDX 67 79 73 80 66 81 68 82 69 83 70 84 71 85 48 86 49 87 57 88
REMARK SMILES IDX 50 89 52 90 58 91 51 92 53 93 54 94 55 95 56 96
REMARK H PARENT 14 6 6 16 19 30 78 49 46 60
REMARK Flexibility Score: inf
ROOT
ATOM      1  C   UNL A   1      32.915  29.418  24.699  1.00  0.00     0.023 C 
ENDROOT
BRANCH   1   2
ATOM      2  C   UNL A   1      33.099  28.954  23.256  1.00  0.00     0.116 C 
BRANCH   2   3
ATOM      3  N   UNL A   1      31.945  29.289  22.458  1.00  0.00    -0.349 N 
ATOM      4  C   UNL A   1      30.716  28.682  22.363  1.00  0.00     0.286 C 
ATOM      5  O   UNL A   1      29.900  29.227  21.621  1.00  0.00    -0.266 OA
ATOM      6  H   UNL A   1      32.057  30.083  21.886  1.00  0.00     0.163 HD
BRANCH   4   7
ATOM      7  C   UNL A   1      30.404  27.484  23.125  1.00  0.00     0.191 A 
ATOM      8  C   UNL A   1      30.610  25.314  23.494  1.00  0.00     0.124 A 
ATOM      9  C   UNL A   1      29.718  25.772  24.433  1.00  0.00     0.048 A 
ATOM     10  O   UNL A   1      31.024  26.335  22.703  1.00  0.00    -0.454 OA
ATOM     11  C   UNL A   1      29.621  27.168  24.225  1.00  0.00     0.056 A 
BRANCH   8  12
ATOM     12  C   UNL A   1      31.156  23.986  23.165  1.00  0.00     0.191 C 
BRANCH  12  13
ATOM     13  N   UNL A   1      30.942  23.096  24.283  1.00  0.00    -0.348 N 
ATOM     14  C   UNL A   1      31.697  22.076  24.777  1.00  0.00     0.227 C 
ATOM     15  O   UNL A   1      31.261  21.513  25.785  1.00  0.00    -0.274 OA
ATOM     16  H   UNL A   1      30.103  23.253  24.772  1.00  0.00     0.163 HD
BRANCH  14  17
ATOM     17  C   UNL A   1      33.010  21.644  24.077  1.00  0.00     0.108 C 
BRANCH  17  18
ATOM     18  C   UNL A   1      34.281  22.225  24.750  1.00  0.00     0.015 C 
ATOM     19  C   UNL A   1      35.487  22.353  23.830  1.00  0.00     0.005 C 
ENDBRANCH  17  18
BRANCH  17  20
ATOM     20  C   UNL A   1      33.062  20.121  23.837  1.00  0.00    -0.036 A 
ATOM     21  C   UNL A   1      32.345  19.472  22.817  1.00  0.00     0.004 A 
ATOM     22  C   UNL A   1      33.845  19.318  24.689  1.00  0.00     0.004 A 
ATOM     23  C   UNL A   1      32.383  18.082  22.673  1.00  0.00     0.000 A 
ATOM     24  C   UNL A   1      33.901  17.929  24.530  1.00  0.00     0.000 A 
ATOM     25  C   UNL A   1      33.160  17.310  23.528  1.00  0.00     0.000 A 
ENDBRANCH  17  20
ENDBRANCH  14  17
ENDBRANCH  12  13
ENDBRANCH   8  12
ENDBRANCH   4   7
ENDBRANCH   2   3
ENDBRANCH   1   2
BRANCH   1  26
ATOM     26  C   UNL A   1      33.655  28.547  25.719  1.00  0.00     0.023 C 
BRANCH  26  27
ATOM     27  C   UNL A   1      33.473  28.972  27.173  1.00  0.00     0.116 C 
BRANCH  27  28
ATOM     28  N   UNL A   1      33.613  30.408  27.371  1.00  0.00    -0.352 N 
ATOM     29  C   UNL A   1      34.655  31.086  27.958  1.00  0.00     0.251 C 
ATOM     30  H   UNL A   1      32.869  30.964  27.043  1.00  0.00     0.163 HD
ATOM     31  O   UNL A   1      34.576  32.292  28.165  1.00  0.00    -0.269 OA
BRANCH  29  32
ATOM     32  C   UNL A   1      35.853  30.327  28.365  1.00  0.00     0.039 A 
ATOM     33  C   UNL A   1      36.974  30.338  27.535  1.00  0.00     0.014 A 
ATOM     34  C   UNL A   1      35.883  29.669  29.597  1.00  0.00     0.014 A 
ATOM     35  C   UNL A   1      38.156  29.739  27.974  1.00  0.00     0.010 A 
ATOM     36  C   UNL A   1      37.083  29.145  30.065  1.00  0.00     0.010 A 
ATOM     37  C   UNL A   1      38.230  29.172  29.257  1.00  0.00    -0.014 A 
BRANCH  37  38
ATOM     38  C   UNL A   1      39.504  28.616  29.779  1.00  0.00     0.031 A 
ATOM     39  C   UNL A   1      40.168  29.241  30.974  1.00  0.00     0.074 A 
ATOM     40  C   UNL A   1      40.104  27.601  29.124  1.00  0.00     0.049 A 
ATOM     41  N   UNL A   1      41.304  28.929  31.542  1.00  0.00    -0.248 NA
ATOM     42  C   UNL A   1      39.483  30.385  31.599  1.00  0.00     0.031 C 
ATOM     43  C   UNL A   1      39.599  26.963  27.906  1.00  0.00     0.029 A 
ATOM     44  N   UNL A   1      41.283  26.945  29.378  1.00  0.00    -0.354 N 
ATOM     45  C   UNL A   1      41.485  29.853  32.562  1.00  0.00     0.074 A 
ATOM     46  C   UNL A   1      40.362  30.763  32.515  1.00  0.00     0.031 C 
ATOM     47  C   UNL A   1      40.457  26.003  27.523  1.00  0.00     0.029 A 
ATOM     48  C   UNL A   1      41.588  25.980  28.445  1.00  0.00     0.049 A 
ATOM     49  H   UNL A   1      41.855  27.146  30.152  1.00  0.00     0.167 HD
ATOM     50  C   UNL A   1      42.480  29.923  33.478  1.00  0.00     0.034 A 
ATOM     51  C   UNL A   1      42.665  25.177  28.337  1.00  0.00     0.034 A 
ATOM     52  C   UNL A   1      43.577  28.996  33.544  1.00  0.00     0.049 A 
ATOM     53  C   UNL A   1      43.743  25.257  29.383  1.00  0.00     0.074 A 
ATOM     54  C   UNL A   1      44.589  28.928  34.484  1.00  0.00     0.029 A 
ATOM     55  N   UNL A   1      43.816  27.984  32.627  1.00  0.00    -0.354 N 
ATOM     56  N   UNL A   1      43.816  26.036  30.436  1.00  0.00    -0.248 NA
ATOM     57  C   UNL A   1      44.873  24.327  29.247  1.00  0.00     0.031 C 
ATOM     58  C   UNL A   1      45.459  27.898  34.116  1.00  0.00     0.029 A 
ATOM     59  C   UNL A   1      44.966  27.296  32.970  1.00  0.00     0.049 A 
ATOM     60  H   UNL A   1      43.249  27.785  31.846  1.00  0.00     0.167 HD
ATOM     61  C   UNL A   1      44.975  25.663  31.107  1.00  0.00     0.074 A 
ATOM     62  C   UNL A   1      45.561  24.574  30.353  1.00  0.00     0.031 C 
ATOM     63  C   UNL A   1      45.513  26.182  32.238  1.00  0.00     0.034 A 
BRANCH  50  64
ATOM     64  C   UNL A   1      42.406  31.015  34.513  1.00  0.00     0.023 A 
ATOM     65  C   UNL A   1      41.808  30.754  35.763  1.00  0.00     0.012 A 
ATOM     66  C   UNL A   1      42.981  32.278  34.275  1.00  0.00     0.148 A 
ATOM     67  C   UNL A   1      41.749  31.742  36.745  1.00  0.00     0.002 A 
ATOM     68  C   UNL A   1      42.964  33.243  35.276  1.00  0.00     0.091 A 
ATOM     69  F   UNL A   1      43.528  32.515  33.074  1.00  0.00    -0.205 F 
ATOM     70  C   UNL A   1      42.336  32.981  36.504  1.00  0.00     0.022 A 
BRANCH  68  71
ATOM     71  S   UNL A   1      43.763  34.841  35.098  1.00  0.00     0.127 S 
ATOM     72  O   UNL A   1      45.115  34.451  34.697  1.00  0.00    -0.237 OA
ATOM     73  O   UNL A   1      42.969  35.463  34.039  1.00  0.00    -0.237 OA
ATOM     74  O   UNL A   1      43.662  35.489  36.397  1.00  0.00    -0.744 OA
ENDBRANCH  68  71
ENDBRANCH  50  64
BRANCH  51  75
ATOM     75  C   UNL A   1      42.752  24.188  27.224  1.00  0.00     0.023 A 
ATOM     76  C   UNL A   1      43.467  24.518  26.057  1.00  0.00     0.012 A 
ATOM     77  C   UNL A   1      42.144  22.923  27.322  1.00  0.00     0.148 A 
ATOM     78  C   UNL A   1      43.541  23.621  24.991  1.00  0.00     0.002 A 
ATOM     79  C   UNL A   1      42.271  22.011  26.281  1.00  0.00     0.091 A 
ATOM     80  F   UNL A   1      41.461  22.631  28.439  1.00  0.00    -0.205 F 
ATOM     81  C   UNL A   1      42.952  22.365  25.106  1.00  0.00     0.022 A 
BRANCH  79  82
ATOM     82  S   UNL A   1      41.657  20.327  26.394  1.00  0.00     0.127 S 
ATOM     83  O   UNL A   1      42.012  19.970  27.764  1.00  0.00    -0.237 OA
ATOM     84  O   UNL A   1      40.225  20.513  26.155  1.00  0.00    -0.237 OA
ATOM     85  O   UNL A   1      42.348  19.586  25.347  1.00  0.00    -0.744 OA
ENDBRANCH  79  82
ENDBRANCH  51  75
BRANCH  63  86
ATOM     86  C   UNL A   1      46.778  25.554  32.764  1.00  0.00     0.023 A 
ATOM     87  C   UNL A   1      48.033  26.052  32.360  1.00  0.00     0.012 A 
ATOM     88  C   UNL A   1      46.717  24.517  33.714  1.00  0.00     0.148 A 
ATOM     89  C   UNL A   1      49.209  25.500  32.868  1.00  0.00     0.002 A 
ATOM     90  C   UNL A   1      47.892  24.009  34.257  1.00  0.00     0.091 A 
ATOM     91  F   UNL A   1      45.514  24.047  34.073  1.00  0.00    -0.205 F 
ATOM     92  C   UNL A   1      49.138  24.489  33.824  1.00  0.00     0.022 A 
BRANCH  90  93
ATOM     93  S   UNL A   1      47.897  22.779  35.564  1.00  0.00     0.127 S 
ATOM     94  O   UNL A   1      47.004  21.758  35.016  1.00  0.00    -0.237 OA
ATOM     95  O   UNL A   1      49.307  22.391  35.618  1.00  0.00    -0.237 OA
ATOM     96  O   UNL A   1      47.410  23.457  36.758  1.00  0.00    -0.744 OA
ENDBRANCH  90  93
ENDBRANCH  63  86
ENDBRANCH  37  38
ENDBRANCH  29  32
ENDBRANCH  27  28
ENDBRANCH  26  27
ENDBRANCH   1  26
TORSDOF 19
ENDMDL
MODEL 2
REMARK VINA RESULT:     -11.6      4.898      9.905
REMARK SMILES CC[C@H](C(=O)NCc1ccc(C(=O)NCCCCNC(=O)c2ccc(-c3c4nc(c(-c5cccc(S(=O)(=O)[O-])c5F)c5ccc([nH]5)c(-c5cccc(S(=O)(=O)[O-])c5F)c5nc(c(-c6cccc(S(=O)(=O)[O-])c6F)c6ccc3[nH]6)C=C5)C=C4)cc2)o1)c1ccccc1
REMARK SMILES IDX 16 1 15 2 14 3 12 4 13 5 11 7 8 8 9 9 85 10 10 11 7 12 6 13
REMARK SMILES IDX 4 14 5 15 3 17 2 18 1 19 86 20 87 21 91 22 88 23 90 24 89 25
REMARK SMILES IDX 17 26 18 27 19 28 20 29 21 31 22 32 23 33 84 34 24 35 83 36
REMARK SMILES IDX 25 37 26 38 27 39 77 40 28 41 82 42 76 43 78 44 29 45 81 46
REMARK SMILES IDX 75 47 74 48 30 50 62 51 42 52 61 53 43 54 46 55 60 56 79 57
REMARK SMILES IDX 44 58 45 59 59 61 80 62 47 63 31 64 32 65 40 66 33 67 35 68
REMARK SMILES IDX 41 69 34 70 36 71 37 72 38 73 39 74 63 75 64 76 72 77 65 78
REMARK SMILES IDX 67 79 73 80 66 81 68 82 69 83 70 84 71 85 48 86 49 87 57 88
REMARK SMILES IDX 50 89 52 90 58 91 51 92 53 93 54 94 55 95 56 96
REMARK H PARENT 14 6 6 16 19 30 78 49 46 60
REMARK Flexibility Score: inf
ROOT
ATOM      1  C   UNL A   1      35.327  20.753  25.115  1.00  0.00     0.023 C 
ENDROOT
BRANCH   1   2
ATOM      2  C   UNL A   1      34.508  21.371  26.245  1.00  0.00     0.116 C 
BRANCH   2   3
ATOM      3  N   UNL A   1      33.100  21.344  25.934  1.00  0.00    -0.349 N 
ATOM      4  C   UNL A   1      32.201  22.369  25.760  1.00  0.00     0.286 C 
ATOM      5  O   UNL A   1      31.057  22.038  25.451  1.00  0.00    -0.266 OA
ATOM      6  H   UNL A   1      32.719  20.441  25.829  1.00  0.00     0.163 HD
BRANCH   4   7
ATOM      7  C   UNL A   1      32.603  23.758  25.906  1.00  0.00     0.191 A 
ATOM      8  C   UNL A   1      32.143  25.869  26.374  1.00  0.00     0.124 A 
ATOM      9  C   UNL A   1      33.466  25.846  26.004  1.00  0.00     0.048 A 
ATOM     10  O   UNL A   1      31.617  24.621  26.314  1.00  0.00    -0.454 OA
ATOM     11  C   UNL A   1      33.771  24.488  25.747  1.00  0.00     0.056 A 
BRANCH   8  12
ATOM     12  C   UNL A   1      31.212  26.939  26.772  1.00  0.00     0.191 C 
BRANCH  12  13
ATOM     13  N   UNL A   1      31.745  28.213  26.350  1.00  0.00    -0.348 N 
ATOM     14  C   UNL A   1      31.559  28.932  25.208  1.00  0.00     0.227 C 
ATOM     15  O   UNL A   1      32.130  30.025  25.152  1.00  0.00    -0.274 OA
ATOM     16  H   UNL A   1      32.350  28.636  27.000  1.00  0.00     0.163 HD
BRANCH  14  17
ATOM     17  C   UNL A   1      30.700  28.374  24.046  1.00  0.00     0.108 C 
BRANCH  17  18
ATOM     18  C   UNL A   1      30.073  29.483  23.162  1.00  0.00     0.015 C 
ATOM     19  C   UNL A   1      28.627  29.233  22.756  1.00  0.00     0.005 C 
ENDBRANCH  17  18
BRANCH  17  20
ATOM     20  C   UNL A   1      31.442  27.279  23.253  1.00  0.00    -0.036 A 
ATOM     21  C   UNL A   1      30.936  25.982  23.062  1.00  0.00     0.004 A 
ATOM     22  C   UNL A   1      32.708  27.567  22.706  1.00  0.00     0.004 A 
ATOM     23  C   UNL A   1      31.671  25.007  22.381  1.00  0.00     0.000 A 
ATOM     24  C   UNL A   1      33.434  26.598  22.004  1.00  0.00     0.000 A 
ATOM     25  C   UNL A   1      32.920  25.314  21.852  1.00  0.00     0.000 A 
ENDBRANCH  17  20
ENDBRANCH  14  17
ENDBRANCH  12  13
ENDBRANCH   8  12
ENDBRANCH   4   7
ENDBRANCH   2   3
ENDBRANCH   1   2
BRANCH   1  26
ATOM     26  C   UNL A   1      36.329  21.726  24.485  1.00  0.00     0.023 C 
BRANCH  26  27
ATOM     27  C   UNL A   1      37.389  22.259  25.445  1.00  0.00     0.116 C 
BRANCH  27  28
ATOM     28  N   UNL A   1      38.396  21.266  25.793  1.00  0.00    -0.352 N 
ATOM     29  C   UNL A   1      39.612  21.468  26.400  1.00  0.00     0.251 C 
ATOM     30  H   UNL A   1      38.178  20.333  25.566  1.00  0.00     0.163 HD
ATOM     31  O   UNL A   1      40.411  20.545  26.519  1.00  0.00    -0.269 OA
BRANCH  29  32
ATOM     32  C   UNL A   1      39.951  22.825  26.872  1.00  0.00     0.039 A 
ATOM     33  C   UNL A   1      40.774  22.965  27.990  1.00  0.00     0.014 A 
ATOM     34  C   UNL A   1      39.510  23.946  26.164  1.00  0.00     0.014 A 
ATOM     35  C   UNL A   1      41.211  24.237  28.362  1.00  0.00     0.010 A 
ATOM     36  C   UNL A   1      40.012  25.202  26.489  1.00  0.00     0.010 A 
ATOM     37  C   UNL A   1      40.864  25.360  27.592  1.00  0.00    -0.014 A 
BRANCH  37  38
ATOM     38  C   UNL A   1      41.397  26.708  27.915  1.00  0.00     0.031 A 
ATOM     39  C   UNL A   1      42.824  27.054  27.590  1.00  0.00     0.074 A 
ATOM     40  C   UNL A   1      40.621  27.588  28.579  1.00  0.00     0.049 A 
ATOM     41  N   UNL A   1      43.481  28.157  27.840  1.00  0.00    -0.248 NA
ATOM     42  C   UNL A   1      43.628  26.019  26.919  1.00  0.00     0.031 C 
ATOM     43  C   UNL A   1      39.247  27.339  29.022  1.00  0.00     0.029 A 
ATOM     44  N   UNL A   1      40.885  28.861  29.018  1.00  0.00    -0.354 N 
ATOM     45  C   UNL A   1      44.777  27.937  27.392  1.00  0.00     0.074 A 
ATOM     46  C   UNL A   1      44.826  26.582  26.888  1.00  0.00     0.031 C 
ATOM     47  C   UNL A   1      38.787  28.427  29.662  1.00  0.00     0.029 A 
ATOM     48  C   UNL A   1      39.841  29.435  29.707  1.00  0.00     0.049 A 
ATOM     49  H   UNL A   1      41.741  29.320  28.857  1.00  0.00     0.167 HD
ATOM     50  C   UNL A   1      45.825  28.794  27.372  1.00  0.00     0.034 A 
ATOM     51  C   UNL A   1      39.748  30.633  30.317  1.00  0.00     0.034 A 
ATOM     52  C   UNL A   1      45.762  30.151  27.842  1.00  0.00     0.049 A 
ATOM     53  C   UNL A   1      40.919  31.575  30.257  1.00  0.00     0.074 A 
ATOM     54  C   UNL A   1      46.743  31.125  27.788  1.00  0.00     0.029 A 
ATOM     55  N   UNL A   1      44.665  30.723  28.467  1.00  0.00    -0.354 N 
ATOM     56  N   UNL A   1      42.087  31.406  29.686  1.00  0.00    -0.248 NA
ATOM     57  C   UNL A   1      40.750  32.888  30.896  1.00  0.00     0.031 C 
ATOM     58  C   UNL A   1      46.250  32.275  28.411  1.00  0.00     0.029 A 
ATOM     59  C   UNL A   1      44.948  32.032  28.816  1.00  0.00     0.049 A 
ATOM     60  H   UNL A   1      43.810  30.265  28.636  1.00  0.00     0.167 HD
ATOM     61  C   UNL A   1      42.776  32.601  29.862  1.00  0.00     0.074 A 
ATOM     62  C   UNL A   1      41.885  33.493  30.575  1.00  0.00     0.031 C 
ATOM     63  C   UNL A   1      44.035  32.926  29.481  1.00  0.00     0.034 A 
BRANCH  50  64
ATOM     64  C   UNL A   1      47.122  28.302  26.784  1.00  0.00     0.023 A 
ATOM     65  C   UNL A   1      48.181  27.932  27.638  1.00  0.00     0.012 A 
ATOM     66  C   UNL A   1      47.273  28.148  25.392  1.00  0.00     0.148 A 
ATOM     67  C   UNL A   1      49.382  27.452  27.116  1.00  0.00     0.002 A 
ATOM     68  C   UNL A   1      48.453  27.622  24.881  1.00  0.00     0.091 A 
ATOM     69  F   UNL A   1      46.262  28.524  24.594  1.00  0.00    -0.205 F 
ATOM     70  C   UNL A   1      49.513  27.287  25.740  1.00  0.00     0.022 A 
BRANCH  68  71
ATOM     71  S   UNL A   1      48.693  27.293  23.132  1.00  0.00     0.127 S 
ATOM     72  O   UNL A   1      50.132  27.510  22.986  1.00  0.00    -0.237 OA
ATOM     73  O   UNL A   1      48.274  25.896  23.024  1.00  0.00    -0.237 OA
ATOM     74  O   UNL A   1      47.846  28.241  22.423  1.00  0.00    -0.744 OA
ENDBRANCH  68  71
ENDBRANCH  50  64
BRANCH  51  75
ATOM     75  C   UNL A   1      38.480  31.033  30.992  1.00  0.00     0.023 A 
ATOM     76  C   UNL A   1      38.339  30.831  32.379  1.00  0.00     0.012 A 
ATOM     77  C   UNL A   1      37.422  31.619  30.273  1.00  0.00     0.148 A 
ATOM     78  C   UNL A   1      37.153  31.171  33.030  1.00  0.00     0.002 A 
ATOM     79  C   UNL A   1      36.266  32.010  30.937  1.00  0.00     0.091 A 
ATOM     80  F   UNL A   1      37.573  31.795  28.952  1.00  0.00    -0.205 F 
ATOM     81  C   UNL A   1      36.121  31.769  32.312  1.00  0.00     0.022 A 
BRANCH  79  82
ATOM     82  S   UNL A   1      34.939  32.903  30.120  1.00  0.00     0.127 S 
ATOM     83  O   UNL A   1      34.037  33.184  31.232  1.00  0.00    -0.237 OA
ATOM     84  O   UNL A   1      35.646  34.069  29.587  1.00  0.00    -0.237 OA
ATOM     85  O   UNL A   1      34.425  31.997  29.101  1.00  0.00    -0.744 OA
ENDBRANCH  79  82
ENDBRANCH  51  75
BRANCH  63  86
ATOM     86  C   UNL A   1      44.519  34.321  29.781  1.00  0.00     0.023 A 
ATOM     87  C   UNL A   1      45.196  34.589  30.988  1.00  0.00     0.012 A 
ATOM     88  C   UNL A   1      44.364  35.350  28.831  1.00  0.00     0.148 A 
ATOM     89  C   UNL A   1      45.678  35.869  31.259  1.00  0.00     0.002 A 
ATOM     90  C   UNL A   1      44.895  36.609  29.085  1.00  0.00     0.091 A 
ATOM     91  F   UNL A   1      43.703  35.078  27.697  1.00  0.00    -0.205 F 
ATOM     92  C   UNL A   1      45.539  36.874  30.304  1.00  0.00     0.022 A 
BRANCH  90  93
ATOM     93  S   UNL A   1      44.853  37.935  27.875  1.00  0.00     0.127 S 
ATOM     94  O   UNL A   1      45.553  37.327  26.744  1.00  0.00    -0.237 OA
ATOM     95  O   UNL A   1      43.415  38.123  27.674  1.00  0.00    -0.237 OA
ATOM     96  O   UNL A   1      45.531  39.066  28.493  1.00  0.00    -0.744 OA
ENDBRANCH  90  93
ENDBRANCH  63  86
ENDBRANCH  37  38
ENDBRANCH  29  32
ENDBRANCH  27  28
ENDBRANCH  26  27
ENDBRANCH   1  26
TORSDOF 19
ENDMDL
MODEL 3
REMARK VINA RESULT:     -11.5      5.067      8.736
REMARK SMILES CC[C@H](C(=O)NCc1ccc(C(=O)NCCCCNC(=O)c2ccc(-c3c4nc(c(-c5cccc(S(=O)(=O)[O-])c5F)c5ccc([nH]5)c(-c5cccc(S(=O)(=O)[O-])c5F)c5nc(c(-c6cccc(S(=O)(=O)[O-])c6F)c6ccc3[nH]6)C=C5)C=C4)cc2)o1)c1ccccc1
REMARK SMILES IDX 16 1 15 2 14 3 12 4 13 5 11 7 8 8 9 9 85 10 10 11 7 12 6 13
REMARK SMILES IDX 4 14 5 15 3 17 2 18 1 19 86 20 87 21 91 22 88 23 90 24 89 25
REMARK SMILES IDX 17 26 18 27 19 28 20 29 21 31 22 32 23 33 84 34 24 35 83 36
REMARK SMILES IDX 25 37 26 38 27 39 77 40 28 41 82 42 76 43 78 44 29 45 81 46
REMARK SMILES IDX 75 47 74 48 30 50 62 51 42 52 61 53 43 54 46 55 60 56 79 57
REMARK SMILES IDX 44 58 45 59 59 61 80 62 47 63 31 64 32 65 40 66 33 67 35 68
REMARK SMILES IDX 41 69 34 70 36 71 37 72 38 73 39 74 63 75 64 76 72 77 65 78
REMARK SMILES IDX 67 79 73 80 66 81 68 82 69 83 70 84 71 85 48 86 49 87 57 88
REMARK SMILES IDX 50 89 52 90 58 91 51 92 53 93 54 94 55 95 56 96
REMARK H PARENT 14 6 6 16 19 30 78 49 46 60
REMARK Flexibility Score: inf
ROOT
ATOM      1  C   UNL A   1      36.220  19.533  24.886  1.00  0.00     0.023 C 
ENDROOT
BRANCH   1   2
ATOM      2  C   UNL A   1      35.357  20.691  25.381  1.00  0.00     0.116 C 
BRANCH   2   3
ATOM      3  N   UNL A   1      35.999  21.957  25.120  1.00  0.00    -0.349 N 
ATOM      4  C   UNL A   1      35.482  23.229  25.073  1.00  0.00     0.286 C 
ATOM      5  O   UNL A   1      36.291  24.134  24.870  1.00  0.00    -0.266 OA
ATOM      6  H   UNL A   1      36.967  21.899  24.946  1.00  0.00     0.163 HD
BRANCH   4   7
ATOM      7  C   UNL A   1      34.066  23.477  25.284  1.00  0.00     0.191 A 
ATOM      8  C   UNL A   1      32.019  23.797  24.512  1.00  0.00     0.124 A 
ATOM      9  C   UNL A   1      31.929  23.919  25.877  1.00  0.00     0.048 A 
ATOM     10  O   UNL A   1      33.298  23.535  24.147  1.00  0.00    -0.454 OA
ATOM     11  C   UNL A   1      33.231  23.671  26.374  1.00  0.00     0.056 A 
BRANCH   8  12
ATOM     12  C   UNL A   1      31.050  23.923  23.409  1.00  0.00     0.191 C 
BRANCH  12  13
ATOM     13  N   UNL A   1      29.882  24.628  23.882  1.00  0.00    -0.348 N 
ATOM     14  C   UNL A   1      29.589  25.957  23.925  1.00  0.00     0.227 C 
ATOM     15  O   UNL A   1      28.473  26.257  24.357  1.00  0.00    -0.274 OA
ATOM     16  H   UNL A   1      29.172  24.046  24.237  1.00  0.00     0.163 HD
BRANCH  14  17
ATOM     17  C   UNL A   1      30.628  27.017  23.478  1.00  0.00     0.108 C 
BRANCH  17  18
ATOM     18  C   UNL A   1      29.984  28.271  22.833  1.00  0.00     0.015 C 
ATOM     19  C   UNL A   1      30.973  29.341  22.393  1.00  0.00     0.005 C 
ENDBRANCH  17  18
BRANCH  17  20
ATOM     20  C   UNL A   1      31.646  27.333  24.594  1.00  0.00    -0.036 A 
ATOM     21  C   UNL A   1      33.038  27.244  24.421  1.00  0.00     0.004 A 
ATOM     22  C   UNL A   1      31.175  27.707  25.867  1.00  0.00     0.004 A 
ATOM     23  C   UNL A   1      33.919  27.488  25.479  1.00  0.00     0.000 A 
ATOM     24  C   UNL A   1      32.058  27.974  26.919  1.00  0.00     0.000 A 
ATOM     25  C   UNL A   1      33.430  27.853  26.727  1.00  0.00     0.000 A 
ENDBRANCH  17  20
ENDBRANCH  14  17
ENDBRANCH  12  13
ENDBRANCH   8  12
ENDBRANCH   4   7
ENDBRANCH   2   3
ENDBRANCH   1   2
BRANCH   1  26
ATOM     26  C   UNL A   1      37.675  19.929  24.614  1.00  0.00     0.023 C 
BRANCH  26  27
ATOM     27  C   UNL A   1      38.510  20.189  25.864  1.00  0.00     0.116 C 
BRANCH  27  28
ATOM     28  N   UNL A   1      39.679  19.326  25.960  1.00  0.00    -0.352 N 
ATOM     29  C   UNL A   1      40.975  19.681  26.249  1.00  0.00     0.251 C 
ATOM     30  H   UNL A   1      39.522  18.367  25.798  1.00  0.00     0.163 HD
ATOM     31  O   UNL A   1      41.879  18.857  26.173  1.00  0.00    -0.269 OA
BRANCH  29  32
ATOM     32  C   UNL A   1      41.259  21.082  26.618  1.00  0.00     0.039 A 
ATOM     33  C   UNL A   1      41.802  21.353  27.874  1.00  0.00     0.014 A 
ATOM     34  C   UNL A   1      41.053  22.108  25.692  1.00  0.00     0.014 A 
ATOM     35  C   UNL A   1      42.201  22.655  28.179  1.00  0.00     0.010 A 
ATOM     36  C   UNL A   1      41.525  23.386  25.969  1.00  0.00     0.010 A 
ATOM     37  C   UNL A   1      42.101  23.673  27.216  1.00  0.00    -0.014 A 
BRANCH  37  38
ATOM     38  C   UNL A   1      42.608  25.041  27.488  1.00  0.00     0.031 A 
ATOM     39  C   UNL A   1      41.721  26.059  28.149  1.00  0.00     0.074 A 
ATOM     40  C   UNL A   1      43.839  25.390  27.063  1.00  0.00     0.049 A 
ATOM     41  N   UNL A   1      41.968  27.314  28.423  1.00  0.00    -0.248 NA
ATOM     42  C   UNL A   1      40.367  25.620  28.531  1.00  0.00     0.031 C 
ATOM     43  C   UNL A   1      44.764  24.517  26.337  1.00  0.00     0.029 A 
ATOM     44  N   UNL A   1      44.514  26.582  27.157  1.00  0.00    -0.354 N 
ATOM     45  C   UNL A   1      40.798  27.820  28.973  1.00  0.00     0.074 A 
ATOM     46  C   UNL A   1      39.825  26.749  28.961  1.00  0.00     0.031 C 
ATOM     47  C   UNL A   1      45.888  25.198  26.060  1.00  0.00     0.029 A 
ATOM     48  C   UNL A   1      45.751  26.564  26.554  1.00  0.00     0.049 A 
ATOM     49  H   UNL A   1      44.148  27.375  27.612  1.00  0.00     0.167 HD
ATOM     50  C   UNL A   1      40.560  29.056  29.472  1.00  0.00     0.034 A 
ATOM     51  C   UNL A   1      46.666  27.542  26.406  1.00  0.00     0.034 A 
ATOM     52  C   UNL A   1      41.539  30.108  29.514  1.00  0.00     0.049 A 
ATOM     53  C   UNL A   1      46.387  28.899  26.992  1.00  0.00     0.074 A 
ATOM     54  C   UNL A   1      41.425  31.366  30.075  1.00  0.00     0.029 A 
ATOM     55  N   UNL A   1      42.808  30.031  28.961  1.00  0.00    -0.354 N 
ATOM     56  N   UNL A   1      45.332  29.312  27.652  1.00  0.00    -0.248 NA
ATOM     57  C   UNL A   1      47.437  29.917  26.846  1.00  0.00     0.031 C 
ATOM     58  C   UNL A   1      42.612  32.063  29.831  1.00  0.00     0.029 A 
ATOM     59  C   UNL A   1      43.482  31.224  29.154  1.00  0.00     0.049 A 
ATOM     60  H   UNL A   1      43.175  29.242  28.498  1.00  0.00     0.167 HD
ATOM     61  C   UNL A   1      45.606  30.621  28.032  1.00  0.00     0.074 A 
ATOM     62  C   UNL A   1      46.937  30.924  27.547  1.00  0.00     0.031 C 
ATOM     63  C   UNL A   1      44.824  31.497  28.710  1.00  0.00     0.034 A 
BRANCH  50  64
ATOM     64  C   UNL A   1      39.197  29.327  30.055  1.00  0.00     0.023 A 
ATOM     65  C   UNL A   1      38.891  28.877  31.356  1.00  0.00     0.012 A 
ATOM     66  C   UNL A   1      38.242  30.077  29.343  1.00  0.00     0.148 A 
ATOM     67  C   UNL A   1      37.645  29.137  31.925  1.00  0.00     0.002 A 
ATOM     68  C   UNL A   1      37.020  30.376  29.935  1.00  0.00     0.091 A 
ATOM     69  F   UNL A   1      38.542  30.481  28.100  1.00  0.00    -0.205 F 
ATOM     70  C   UNL A   1      36.716  29.895  31.219  1.00  0.00     0.022 A 
BRANCH  68  71
ATOM     71  S   UNL A   1      35.786  31.414  29.145  1.00  0.00     0.127 S 
ATOM     72  O   UNL A   1      36.617  32.461  28.551  1.00  0.00    -0.237 OA
ATOM     73  O   UNL A   1      35.185  30.493  28.181  1.00  0.00    -0.237 OA
ATOM     74  O   UNL A   1      34.892  31.857  30.205  1.00  0.00    -0.744 OA
ENDBRANCH  68  71
ENDBRANCH  50  64
BRANCH  51  75
ATOM     75  C   UNL A   1      47.958  27.260  25.715  1.00  0.00     0.023 A 
ATOM     76  C   UNL A   1      49.047  26.762  26.456  1.00  0.00     0.012 A 
ATOM     77  C   UNL A   1      48.108  27.471  24.332  1.00  0.00     0.148 A 
ATOM     78  C   UNL A   1      50.274  26.516  25.839  1.00  0.00     0.002 A 
ATOM     79  C   UNL A   1      49.314  27.169  23.712  1.00  0.00     0.091 A 
ATOM     80  F   UNL A   1      47.061  27.954  23.646  1.00  0.00    -0.205 F 
ATOM     81  C   UNL A   1      50.405  26.710  24.467  1.00  0.00     0.022 A 
BRANCH  79  82
ATOM     82  S   UNL A   1      49.534  27.263  21.932  1.00  0.00     0.127 S 
ATOM     83  O   UNL A   1      50.958  26.976  21.791  1.00  0.00    -0.237 OA
ATOM     84  O   UNL A   1      48.640  26.204  21.463  1.00  0.00    -0.237 OA
ATOM     85  O   UNL A   1      49.120  28.608  21.556  1.00  0.00    -0.744 OA
ENDBRANCH  79  82
ENDBRANCH  51  75
BRANCH  63  86
ATOM     86  C   UNL A   1      45.397  32.858  29.012  1.00  0.00     0.023 A 
ATOM     87  C   UNL A   1      46.149  33.061  30.185  1.00  0.00     0.012 A 
ATOM     88  C   UNL A   1      45.246  33.915  28.094  1.00  0.00     0.148 A 
ATOM     89  C   UNL A   1      46.713  34.308  30.457  1.00  0.00     0.002 A 
ATOM     90  C   UNL A   1      45.856  35.138  28.344  1.00  0.00     0.091 A 
ATOM     91  F   UNL A   1      44.513  33.705  26.991  1.00  0.00    -0.205 F 
ATOM     92  C   UNL A   1      46.578  35.341  29.532  1.00  0.00     0.022 A 
BRANCH  90  93
ATOM     93  S   UNL A   1      45.821  36.492  27.166  1.00  0.00     0.127 S 
ATOM     94  O   UNL A   1      44.387  36.765  27.069  1.00  0.00    -0.237 OA
ATOM     95  O   UNL A   1      46.592  37.525  27.859  1.00  0.00    -0.237 OA
ATOM     96  O   UNL A   1      46.443  35.986  25.950  1.00  0.00    -0.744 OA
ENDBRANCH  90  93
ENDBRANCH  63  86
ENDBRANCH  37  38
ENDBRANCH  29  32
ENDBRANCH  27  28
ENDBRANCH  26  27
ENDBRANCH   1  26
TORSDOF 19
ENDMDL
