MODEL 1
REMARK VINA RESULT:     -12.0      0.000      0.000
REMARK SMILES CCc1nc(C(=O)N2CC[NH+]([C@H](C)C(=O)NCCCCNC(=O)c3ccc(-c4c5nc(c(-c6cccc(S(=O)(=O)[O-])c6F)c6ccc([nH]6)c(-c6cccc(S(=O)(=O)[O-])c6F)c6nc(c(-c7cccc(S(=O)(=O)[O-])c7F)c7ccc4[nH]7)C=C6)C=C5)cc3)CC2)n[nH]1
REMARK SMILES IDX 18 1 17 2 16 3 14 4 15 5 12 7 13 8 11 9 6 10 7 11 8 12 9 13
REMARK SMILES IDX 88 14 10 15 87 16 5 18 3 19 4 20 90 21 89 22 2 24 1 25 19 26
REMARK SMILES IDX 20 27 21 28 22 29 23 31 24 32 25 33 86 34 26 35 85 36 27 37
REMARK SMILES IDX 28 38 29 39 79 40 30 41 84 42 78 43 80 44 31 45 83 46 77 47
REMARK SMILES IDX 76 48 32 50 64 51 44 52 63 53 45 54 48 55 62 56 81 57 46 58
REMARK SMILES IDX 47 59 61 61 82 62 49 63 33 64 34 65 42 66 35 67 37 68 43 69
REMARK SMILES IDX 36 70 38 71 39 72 40 73 41 74 65 75 66 76 74 77 67 78 69 79
REMARK SMILES IDX 75 80 68 81 70 82 71 83 72 84 73 85 50 86 51 87 59 88 52 89
REMARK SMILES IDX 54 90 60 91 53 92 55 93 56 94 57 95 58 96
REMARK H PARENT 16 6 11 17 90 23 21 30 80 49 48 60
REMARK Flexibility Score: inf
ROOT
ATOM      1  C   UNL A   1      34.579  20.326  25.020  1.00  0.00     0.023 C 
ENDROOT
BRANCH   1   2
ATOM      2  C   UNL A   1      33.218  20.706  25.587  1.00  0.00     0.116 C 
BRANCH   2   3
ATOM      3  N   UNL A   1      33.224  21.915  26.384  1.00  0.00    -0.351 N 
ATOM      4  C   UNL A   1      32.204  22.786  26.655  1.00  0.00     0.278 C 
ATOM      5  O   UNL A   1      32.393  23.621  27.547  1.00  0.00    -0.268 OA
ATOM      6  H   UNL A   1      34.091  22.145  26.794  1.00  0.00     0.163 HD
BRANCH   4   7
ATOM      7  C   UNL A   1      30.869  22.758  25.868  1.00  0.00     0.271 C 
ATOM      8  C   UNL A   1      29.646  22.754  26.799  1.00  0.00     0.086 C 
BRANCH   7   9
ATOM      9  N   UNL A   1      30.858  23.627  24.652  1.00  0.00    -0.322 N 
ATOM     10  C   UNL A   1      32.949  26.562  22.838  1.00  0.00     0.293 C 
ATOM     11  O   UNL A   1      33.772  26.379  21.938  1.00  0.00    -0.265 OA
ATOM     12  N   UNL A   1      31.810  25.752  22.928  1.00  0.00    -0.325 N 
ATOM     13  C   UNL A   1      31.913  24.372  22.479  1.00  0.00     0.181 C 
ATOM     14  C   UNL A   1      30.626  25.991  23.747  1.00  0.00     0.181 C 
ATOM     15  C   UNL A   1      32.002  23.471  23.731  1.00  0.00     0.284 C 
ATOM     16  C   UNL A   1      30.598  25.052  24.972  1.00  0.00     0.284 C 
ATOM     17  H   UNL A   1      30.064  23.270  24.120  1.00  0.00     0.348 HD
BRANCH  10  18
ATOM     18  C   UNL A   1      33.197  27.561  23.911  1.00  0.00     0.239 A 
ATOM     19  C   UNL A   1      33.859  28.358  25.779  1.00  0.00     0.124 A 
ATOM     20  N   UNL A   1      33.486  27.226  25.227  1.00  0.00    -0.208 NA
ATOM     21  N   UNL A   1      33.760  29.349  24.848  1.00  0.00    -0.263 N 
ATOM     22  N   UNL A   1      33.332  28.881  23.671  1.00  0.00    -0.148 NA
ATOM     23  H   UNL A   1      33.977  30.293  25.021  1.00  0.00     0.192 HD
BRANCH  19  24
ATOM     24  C   UNL A   1      34.366  28.596  27.157  1.00  0.00     0.073 C 
ATOM     25  C   UNL A   1      35.536  29.567  27.188  1.00  0.00     0.012 C 
ENDBRANCH  19  24
ENDBRANCH  10  18
ENDBRANCH   7   9
ENDBRANCH   4   7
ENDBRANCH   2   3
ENDBRANCH   1   2
BRANCH   1  26
ATOM     26  C   UNL A   1      35.485  21.499  24.654  1.00  0.00     0.023 C 
BRANCH  26  27
ATOM     27  C   UNL A   1      36.573  21.845  25.665  1.00  0.00     0.116 C 
BRANCH  27  28
ATOM     28  N   UNL A   1      37.693  20.914  25.664  1.00  0.00    -0.352 N 
ATOM     29  C   UNL A   1      39.008  21.123  26.022  1.00  0.00     0.251 C 
ATOM     30  H   UNL A   1      37.481  20.001  25.362  1.00  0.00     0.163 HD
ATOM     31  O   UNL A   1      39.837  20.239  25.863  1.00  0.00    -0.269 OA
BRANCH  29  32
ATOM     32  C   UNL A   1      39.415  22.442  26.554  1.00  0.00     0.039 A 
ATOM     33  C   UNL A   1      40.412  22.492  27.531  1.00  0.00     0.014 A 
ATOM     34  C   UNL A   1      38.856  23.620  26.053  1.00  0.00     0.014 A 
ATOM     35  C   UNL A   1      40.919  23.730  27.936  1.00  0.00     0.010 A 
ATOM     36  C   UNL A   1      39.419  24.846  26.396  1.00  0.00     0.010 A 
ATOM     37  C   UNL A   1      40.462  24.914  27.334  1.00  0.00    -0.014 A 
BRANCH  37  38
ATOM     38  C   UNL A   1      41.079  26.229  27.644  1.00  0.00     0.031 A 
ATOM     39  C   UNL A   1      42.507  26.505  27.259  1.00  0.00     0.074 A 
ATOM     40  C   UNL A   1      40.388  27.136  28.366  1.00  0.00     0.049 A 
ATOM     41  N   UNL A   1      43.245  27.551  27.523  1.00  0.00    -0.248 NA
ATOM     42  C   UNL A   1      43.209  25.452  26.505  1.00  0.00     0.031 C 
ATOM     43  C   UNL A   1      39.030  26.952  28.881  1.00  0.00     0.029 A 
ATOM     44  N   UNL A   1      40.747  28.381  28.820  1.00  0.00    -0.354 N 
ATOM     45  C   UNL A   1      44.501  27.273  26.999  1.00  0.00     0.074 A 
ATOM     46  C   UNL A   1      44.438  25.942  26.438  1.00  0.00     0.031 C 
ATOM     47  C   UNL A   1      38.673  28.039  29.584  1.00  0.00     0.029 A 
ATOM     48  C   UNL A   1      39.782  28.988  29.591  1.00  0.00     0.049 A 
ATOM     49  H   UNL A   1      41.612  28.801  28.614  1.00  0.00     0.167 HD
ATOM     50  C   UNL A   1      45.597  28.067  26.953  1.00  0.00     0.034 A 
ATOM     51  C   UNL A   1      39.791  30.170  30.237  1.00  0.00     0.034 A 
ATOM     52  C   UNL A   1      45.643  29.408  27.466  1.00  0.00     0.049 A 
ATOM     53  C   UNL A   1      40.999  31.058  30.118  1.00  0.00     0.074 A 
ATOM     54  C   UNL A   1      46.683  30.319  27.404  1.00  0.00     0.029 A 
ATOM     55  N   UNL A   1      44.603  30.036  28.134  1.00  0.00    -0.354 N 
ATOM     56  N   UNL A   1      42.125  30.838  29.482  1.00  0.00    -0.248 NA
ATOM     57  C   UNL A   1      40.928  32.374  30.769  1.00  0.00     0.031 C 
ATOM     58  C   UNL A   1      46.271  31.496  28.038  1.00  0.00     0.029 A 
ATOM     59  C   UNL A   1      44.971  31.323  28.482  1.00  0.00     0.049 A 
ATOM     60  H   UNL A   1      43.729  29.625  28.331  1.00  0.00     0.167 HD
ATOM     61  C   UNL A   1      42.879  31.996  29.626  1.00  0.00     0.074 A 
ATOM     62  C   UNL A   1      42.073  32.926  30.390  1.00  0.00     0.031 C 
ATOM     63  C   UNL A   1      44.133  32.259  29.187  1.00  0.00     0.034 A 
BRANCH  50  64
ATOM     64  C   UNL A   1      46.816  27.530  26.248  1.00  0.00     0.023 A 
ATOM     65  C   UNL A   1      47.674  26.649  26.938  1.00  0.00     0.012 A 
ATOM     66  C   UNL A   1      47.085  27.844  24.902  1.00  0.00     0.148 A 
ATOM     67  C   UNL A   1      48.798  26.114  26.311  1.00  0.00     0.002 A 
ATOM     68  C   UNL A   1      48.184  27.273  24.271  1.00  0.00     0.091 A 
ATOM     69  F   UNL A   1      46.270  28.700  24.269  1.00  0.00    -0.205 F 
ATOM     70  C   UNL A   1      49.047  26.418  24.977  1.00  0.00     0.022 A 
BRANCH  68  71
ATOM     71  S   UNL A   1      48.552  27.538  22.532  1.00  0.00     0.127 S 
ATOM     72  O   UNL A   1      49.825  28.254  22.607  1.00  0.00    -0.237 OA
ATOM     73  O   UNL A   1      48.651  26.169  22.027  1.00  0.00    -0.237 OA
ATOM     74  O   UNL A   1      47.434  28.303  21.997  1.00  0.00    -0.744 OA
ENDBRANCH  68  71
ENDBRANCH  50  64
BRANCH  51  75
ATOM     75  C   UNL A   1      38.588  30.613  31.000  1.00  0.00     0.023 A 
ATOM     76  C   UNL A   1      38.512  30.356  32.383  1.00  0.00     0.012 A 
ATOM     77  C   UNL A   1      37.533  31.303  30.373  1.00  0.00     0.148 A 
ATOM     78  C   UNL A   1      37.394  30.746  33.121  1.00  0.00     0.002 A 
ATOM     79  C   UNL A   1      36.446  31.739  31.123  1.00  0.00     0.091 A 
ATOM     80  F   UNL A   1      37.612  31.525  29.053  1.00  0.00    -0.205 F 
ATOM     81  C   UNL A   1      36.366  31.446  32.494  1.00  0.00     0.022 A 
BRANCH  79  82
ATOM     82  S   UNL A   1      35.149  32.763  30.420  1.00  0.00     0.127 S 
ATOM     83  O   UNL A   1      34.259  32.948  31.562  1.00  0.00    -0.237 OA
ATOM     84  O   UNL A   1      35.889  33.961  30.015  1.00  0.00    -0.237 OA
ATOM     85  O   UNL A   1      34.612  31.994  29.306  1.00  0.00    -0.744 OA
ENDBRANCH  79  82
ENDBRANCH  51  75
BRANCH  63  86
ATOM     86  C   UNL A   1      44.709  33.618  29.485  1.00  0.00     0.023 A 
ATOM     87  C   UNL A   1      45.385  33.837  30.702  1.00  0.00     0.012 A 
ATOM     88  C   UNL A   1      44.649  34.652  28.530  1.00  0.00     0.148 A 
ATOM     89  C   UNL A   1      45.968  35.072  30.976  1.00  0.00     0.002 A 
ATOM     90  C   UNL A   1      45.272  35.867  28.791  1.00  0.00     0.091 A 
ATOM     91  F   UNL A   1      43.983  34.431  27.387  1.00  0.00    -0.205 F 
ATOM     92  C   UNL A   1      45.923  36.082  30.017  1.00  0.00     0.022 A 
BRANCH  90  93
ATOM     93  S   UNL A   1      45.342  37.191  27.578  1.00  0.00     0.127 S 
ATOM     94  O   UNL A   1      43.925  37.491  27.384  1.00  0.00    -0.237 OA
ATOM     95  O   UNL A   1      46.093  38.226  28.288  1.00  0.00    -0.237 OA
ATOM     96  O   UNL A   1      46.029  36.635  26.420  1.00  0.00    -0.744 OA
ENDBRANCH  90  93
ENDBRANCH  63  86
ENDBRANCH  37  38
ENDBRANCH  29  32
ENDBRANCH  27  28
ENDBRANCH  26  27
ENDBRANCH   1  26
TORSDOF 17
ENDMDL
MODEL 2
REMARK VINA RESULT:     -11.7      1.109      1.752
REMARK SMILES CCc1nc(C(=O)N2CC[NH+]([C@H](C)C(=O)NCCCCNC(=O)c3ccc(-c4c5nc(c(-c6cccc(S(=O)(=O)[O-])c6F)c6ccc([nH]6)c(-c6cccc(S(=O)(=O)[O-])c6F)c6nc(c(-c7cccc(S(=O)(=O)[O-])c7F)c7ccc4[nH]7)C=C6)C=C5)cc3)CC2)n[nH]1
REMARK SMILES IDX 18 1 17 2 16 3 14 4 15 5 12 7 13 8 11 9 6 10 7 11 8 12 9 13
REMARK SMILES IDX 88 14 10 15 87 16 5 18 3 19 4 20 90 21 89 22 2 24 1 25 19 26
REMARK SMILES IDX 20 27 21 28 22 29 23 31 24 32 25 33 86 34 26 35 85 36 27 37
REMARK SMILES IDX 28 38 29 39 79 40 30 41 84 42 78 43 80 44 31 45 83 46 77 47
REMARK SMILES IDX 76 48 32 50 64 51 44 52 63 53 45 54 48 55 62 56 81 57 46 58
REMARK SMILES IDX 47 59 61 61 82 62 49 63 33 64 34 65 42 66 35 67 37 68 43 69
REMARK SMILES IDX 36 70 38 71 39 72 40 73 41 74 65 75 66 76 74 77 67 78 69 79
REMARK SMILES IDX 75 80 68 81 70 82 71 83 72 84 73 85 50 86 51 87 59 88 52 89
REMARK SMILES IDX 54 90 60 91 53 92 55 93 56 94 57 95 58 96
REMARK H PARENT 16 6 11 17 90 23 21 30 80 49 48 60
REMARK Flexibility Score: inf
ROOT
ATOM      1  C   UNL A   1      35.038  20.485  25.014  1.00  0.00     0.023 C 
ENDROOT
BRANCH   1   2
ATOM      2  C   UNL A   1      33.644  20.519  25.623  1.00  0.00     0.116 C 
BRANCH   2   3
ATOM      3  N   UNL A   1      33.512  21.413  26.755  1.00  0.00    -0.351 N 
ATOM      4  C   UNL A   1      32.556  22.357  27.014  1.00  0.00     0.278 C 
ATOM      5  O   UNL A   1      32.527  22.836  28.153  1.00  0.00    -0.268 OA
ATOM      6  H   UNL A   1      34.214  21.328  27.441  1.00  0.00     0.163 HD
BRANCH   4   7
ATOM      7  C   UNL A   1      31.561  22.837  25.928  1.00  0.00     0.271 C 
ATOM      8  C   UNL A   1      30.275  23.420  26.536  1.00  0.00     0.086 C 
BRANCH   7   9
ATOM      9  N   UNL A   1      32.204  23.535  24.773  1.00  0.00    -0.322 N 
ATOM     10  C   UNL A   1      33.094  27.222  23.401  1.00  0.00     0.293 C 
ATOM     11  O   UNL A   1      34.187  27.776  23.542  1.00  0.00    -0.265 OA
ATOM     12  N   UNL A   1      33.023  25.837  23.216  1.00  0.00    -0.325 N 
ATOM     13  C   UNL A   1      34.038  25.008  23.847  1.00  0.00     0.181 C 
ATOM     14  C   UNL A   1      31.863  25.069  22.775  1.00  0.00     0.181 C 
ATOM     15  C   UNL A   1      33.402  24.340  25.087  1.00  0.00     0.284 C 
ATOM     16  C   UNL A   1      31.230  24.293  23.951  1.00  0.00     0.284 C 
ATOM     17  H   UNL A   1      32.567  22.766  24.210  1.00  0.00     0.348 HD
BRANCH  10  18
ATOM     18  C   UNL A   1      31.826  27.987  23.536  1.00  0.00     0.239 A 
ATOM     19  C   UNL A   1      30.042  29.008  22.955  1.00  0.00     0.124 A 
ATOM     20  N   UNL A   1      31.227  28.679  22.492  1.00  0.00    -0.208 NA
ATOM     21  N   UNL A   1      29.942  28.572  24.242  1.00  0.00    -0.263 N 
ATOM     22  N   UNL A   1      31.053  27.941  24.639  1.00  0.00    -0.148 NA
ATOM     23  H   UNL A   1      29.149  28.704  24.810  1.00  0.00     0.192 HD
BRANCH  19  24
ATOM     24  C   UNL A   1      28.926  29.690  22.247  1.00  0.00     0.073 C 
ATOM     25  C   UNL A   1      27.559  29.252  22.752  1.00  0.00     0.012 C 
ENDBRANCH  19  24
ENDBRANCH  10  18
ENDBRANCH   7   9
ENDBRANCH   4   7
ENDBRANCH   2   3
ENDBRANCH   1   2
BRANCH   1  26
ATOM     26  C   UNL A   1      36.029  21.493  25.593  1.00  0.00     0.023 C 
BRANCH  26  27
ATOM     27  C   UNL A   1      37.389  21.565  24.905  1.00  0.00     0.116 C 
BRANCH  27  28
ATOM     28  N   UNL A   1      38.337  20.563  25.372  1.00  0.00    -0.352 N 
ATOM     29  C   UNL A   1      39.480  20.723  26.126  1.00  0.00     0.251 C 
ATOM     30  H   UNL A   1      38.133  19.636  25.111  1.00  0.00     0.163 HD
ATOM     31  O   UNL A   1      40.211  19.767  26.345  1.00  0.00    -0.269 OA
BRANCH  29  32
ATOM     32  C   UNL A   1      39.839  22.067  26.627  1.00  0.00     0.039 A 
ATOM     33  C   UNL A   1      40.857  22.180  27.577  1.00  0.00     0.014 A 
ATOM     34  C   UNL A   1      39.213  23.210  26.124  1.00  0.00     0.014 A 
ATOM     35  C   UNL A   1      41.316  23.446  27.950  1.00  0.00     0.010 A 
ATOM     36  C   UNL A   1      39.726  24.466  26.433  1.00  0.00     0.010 A 
ATOM     37  C   UNL A   1      40.788  24.598  27.342  1.00  0.00    -0.014 A 
BRANCH  37  38
ATOM     38  C   UNL A   1      41.351  25.945  27.616  1.00  0.00     0.031 A 
ATOM     39  C   UNL A   1      42.760  26.274  27.205  1.00  0.00     0.074 A 
ATOM     40  C   UNL A   1      40.631  26.836  28.328  1.00  0.00     0.049 A 
ATOM     41  N   UNL A   1      43.454  27.358  27.437  1.00  0.00    -0.248 NA
ATOM     42  C   UNL A   1      43.498  25.237  26.464  1.00  0.00     0.031 C 
ATOM     43  C   UNL A   1      39.288  26.604  28.866  1.00  0.00     0.029 A 
ATOM     44  N   UNL A   1      40.940  28.105  28.751  1.00  0.00    -0.354 N 
ATOM     45  C   UNL A   1      44.715  27.124  26.902  1.00  0.00     0.074 A 
ATOM     46  C   UNL A   1      44.704  25.779  26.369  1.00  0.00     0.031 C 
ATOM     47  C   UNL A   1      38.893  27.689  29.551  1.00  0.00     0.029 A 
ATOM     48  C   UNL A   1      39.959  28.685  29.523  1.00  0.00     0.049 A 
ATOM     49  H   UNL A   1      41.784  28.558  28.524  1.00  0.00     0.167 HD
ATOM     50  C   UNL A   1      45.774  27.964  26.823  1.00  0.00     0.034 A 
ATOM     51  C   UNL A   1      39.925  29.881  30.144  1.00  0.00     0.034 A 
ATOM     52  C   UNL A   1      45.768  29.316  27.308  1.00  0.00     0.049 A 
ATOM     53  C   UNL A   1      41.092  30.818  29.989  1.00  0.00     0.074 A 
ATOM     54  C   UNL A   1      46.766  30.270  27.212  1.00  0.00     0.029 A 
ATOM     55  N   UNL A   1      44.710  29.912  27.976  1.00  0.00    -0.354 N 
ATOM     56  N   UNL A   1      42.217  30.634  29.342  1.00  0.00    -0.248 NA
ATOM     57  C   UNL A   1      40.971  32.144  30.613  1.00  0.00     0.031 C 
ATOM     58  C   UNL A   1      46.311  31.441  27.827  1.00  0.00     0.029 A 
ATOM     59  C   UNL A   1      45.026  31.221  28.293  1.00  0.00     0.049 A 
ATOM     60  H   UNL A   1      43.858  29.468  28.194  1.00  0.00     0.167 HD
ATOM     61  C   UNL A   1      42.921  31.826  29.452  1.00  0.00     0.074 A 
ATOM     62  C   UNL A   1      42.085  32.737  30.207  1.00  0.00     0.031 C 
ATOM     63  C   UNL A   1      44.157  32.135  28.989  1.00  0.00     0.034 A 
BRANCH  50  64
ATOM     64  C   UNL A   1      47.006  27.466  26.112  1.00  0.00     0.023 A 
ATOM     65  C   UNL A   1      47.913  26.640  26.809  1.00  0.00     0.012 A 
ATOM     66  C   UNL A   1      47.242  27.759  24.756  1.00  0.00     0.148 A 
ATOM     67  C   UNL A   1      49.051  26.142  26.179  1.00  0.00     0.002 A 
ATOM     68  C   UNL A   1      48.357  27.223  24.121  1.00  0.00     0.091 A 
ATOM     69  F   UNL A   1      46.380  28.562  24.116  1.00  0.00    -0.205 F 
ATOM     70  C   UNL A   1      49.267  26.425  24.834  1.00  0.00     0.022 A 
BRANCH  68  71
ATOM     71  S   UNL A   1      48.688  27.462  22.372  1.00  0.00     0.127 S 
ATOM     72  O   UNL A   1      50.017  28.072  22.404  1.00  0.00    -0.237 OA
ATOM     73  O   UNL A   1      48.657  26.092  21.862  1.00  0.00    -0.237 OA
ATOM     74  O   UNL A   1      47.620  28.319  21.875  1.00  0.00    -0.744 OA
ENDBRANCH  68  71
ENDBRANCH  50  64
BRANCH  51  75
ATOM     75  C   UNL A   1      38.714  30.286  30.914  1.00  0.00     0.023 A 
ATOM     76  C   UNL A   1      38.613  29.943  32.277  1.00  0.00     0.012 A 
ATOM     77  C   UNL A   1      37.676  31.026  30.316  1.00  0.00     0.148 A 
ATOM     78  C   UNL A   1      37.486  30.297  33.020  1.00  0.00     0.002 A 
ATOM     79  C   UNL A   1      36.581  31.425  31.075  1.00  0.00     0.091 A 
ATOM     80  F   UNL A   1      37.779  31.332  29.015  1.00  0.00    -0.205 F 
ATOM     81  C   UNL A   1      36.476  31.046  32.423  1.00  0.00     0.022 A 
BRANCH  79  82
ATOM     82  S   UNL A   1      35.306  32.507  30.419  1.00  0.00     0.127 S 
ATOM     83  O   UNL A   1      36.072  33.700  30.072  1.00  0.00    -0.237 OA
ATOM     84  O   UNL A   1      34.810  31.738  29.275  1.00  0.00    -0.237 OA
ATOM     85  O   UNL A   1      34.337  32.658  31.497  1.00  0.00    -0.744 OA
ENDBRANCH  79  82
ENDBRANCH  51  75
BRANCH  63  86
ATOM     86  C   UNL A   1      44.676  33.524  29.251  1.00  0.00     0.023 A 
ATOM     87  C   UNL A   1      45.338  33.803  30.463  1.00  0.00     0.012 A 
ATOM     88  C   UNL A   1      44.578  34.527  28.267  1.00  0.00     0.148 A 
ATOM     89  C   UNL A   1      45.870  35.068  30.704  1.00  0.00     0.002 A 
ATOM     90  C   UNL A   1      45.150  35.773  28.496  1.00  0.00     0.091 A 
ATOM     91  F   UNL A   1      43.926  34.247  27.129  1.00  0.00    -0.205 F 
ATOM     92  C   UNL A   1      45.787  36.048  29.717  1.00  0.00     0.022 A 
BRANCH  90  93
ATOM     93  S   UNL A   1      45.171  37.064  27.246  1.00  0.00     0.127 S 
ATOM     94  O   UNL A   1      45.806  38.166  27.967  1.00  0.00    -0.237 OA
ATOM     95  O   UNL A   1      45.996  36.468  26.195  1.00  0.00    -0.237 OA
ATOM     96  O   UNL A   1      43.781  37.280  26.871  1.00  0.00    -0.744 OA
ENDBRANCH  90  93
ENDBRANCH  63  86
ENDBRANCH  37  38
ENDBRANCH  29  32
ENDBRANCH  27  28
ENDBRANCH  26  27
ENDBRANCH   1  26
TORSDOF 17
ENDMDL
MODEL 3
REMARK VINA RESULT:     -11.6      2.277      3.104
REMARK SMILES CCc1nc(C(=O)N2CC[NH+]([C@H](C)C(=O)NCCCCNC(=O)c3ccc(-c4c5nc(c(-c6cccc(S(=O)(=O)[O-])c6F)c6ccc([nH]6)c(-c6cccc(S(=O)(=O)[O-])c6F)c6nc(c(-c7cccc(S(=O)(=O)[O-])c7F)c7ccc4[nH]7)C=C6)C=C5)cc3)CC2)n[nH]1
REMARK SMILES IDX 18 1 17 2 16 3 14 4 15 5 12 7 13 8 11 9 6 10 7 11 8 12 9 13
REMARK SMILES IDX 88 14 10 15 87 16 5 18 3 19 4 20 90 21 89 22 2 24 1 25 19 26
REMARK SMILES IDX 20 27 21 28 22 29 23 31 24 32 25 33 86 34 26 35 85 36 27 37
REMARK SMILES IDX 28 38 29 39 79 40 30 41 84 42 78 43 80 44 31 45 83 46 77 47
REMARK SMILES IDX 76 48 32 50 64 51 44 52 63 53 45 54 48 55 62 56 81 57 46 58
REMARK SMILES IDX 47 59 61 61 82 62 49 63 33 64 34 65 42 66 35 67 37 68 43 69
REMARK SMILES IDX 36 70 38 71 39 72 40 73 41 74 65 75 66 76 74 77 67 78 69 79
REMARK SMILES IDX 75 80 68 81 70 82 71 83 72 84 73 85 50 86 51 87 59 88 52 89
REMARK SMILES IDX 54 90 60 91 53 92 55 93 56 94 57 95 58 96
REMARK H PARENT 16 6 11 17 90 23 21 30 80 49 48 60
REMARK Flexibility Score: inf
ROOT
ATOM      1  C   UNL A   1      35.022  21.268  25.308  1.00  0.00     0.023 C 
ENDROOT
BRANCH   1   2
ATOM      2  C   UNL A   1      33.582  20.913  25.651  1.00  0.00     0.116 C 
BRANCH   2   3
ATOM      3  N   UNL A   1      32.973  21.787  26.633  1.00  0.00    -0.351 N 
ATOM      4  C   UNL A   1      32.257  22.939  26.450  1.00  0.00     0.278 C 
ATOM      5  O   UNL A   1      31.644  23.385  27.425  1.00  0.00    -0.268 OA
ATOM      6  H   UNL A   1      33.091  21.512  27.571  1.00  0.00     0.163 HD
BRANCH   4   7
ATOM      7  C   UNL A   1      32.227  23.680  25.089  1.00  0.00     0.271 C 
ATOM      8  C   UNL A   1      30.831  23.656  24.446  1.00  0.00     0.086 C 
BRANCH   7   9
ATOM      9  N   UNL A   1      33.020  24.947  25.064  1.00  0.00    -0.322 N 
ATOM     10  C   UNL A   1      32.588  28.947  24.773  1.00  0.00     0.293 C 
ATOM     11  O   UNL A   1      32.555  29.718  25.735  1.00  0.00    -0.265 OA
ATOM     12  N   UNL A   1      33.401  27.807  24.809  1.00  0.00    -0.325 N 
ATOM     13  C   UNL A   1      33.632  27.171  26.097  1.00  0.00     0.181 C 
ATOM     14  C   UNL A   1      33.760  26.950  23.685  1.00  0.00     0.181 C 
ATOM     15  C   UNL A   1      32.757  25.899  26.162  1.00  0.00     0.284 C 
ATOM     16  C   UNL A   1      32.991  25.611  23.738  1.00  0.00     0.284 C 
ATOM     17  H   UNL A   1      33.972  24.627  25.240  1.00  0.00     0.348 HD
BRANCH  10  18
ATOM     18  C   UNL A   1      31.689  29.141  23.605  1.00  0.00     0.239 A 
ATOM     19  C   UNL A   1      29.942  29.686  22.502  1.00  0.00     0.124 A 
ATOM     20  N   UNL A   1      30.317  29.327  23.709  1.00  0.00    -0.208 NA
ATOM     21  N   UNL A   1      31.035  29.679  21.688  1.00  0.00    -0.263 N 
ATOM     22  N   UNL A   1      32.143  29.325  22.349  1.00  0.00    -0.148 NA
ATOM     23  H   UNL A   1      31.011  29.906  20.730  1.00  0.00     0.192 HD
BRANCH  19  24
ATOM     24  C   UNL A   1      28.592  30.100  22.035  1.00  0.00     0.073 C 
ATOM     25  C   UNL A   1      27.528  29.944  23.112  1.00  0.00     0.012 C 
ENDBRANCH  19  24
ENDBRANCH  10  18
ENDBRANCH   7   9
ENDBRANCH   4   7
ENDBRANCH   2   3
ENDBRANCH   1   2
BRANCH   1  26
ATOM     26  C   UNL A   1      35.662  22.333  26.196  1.00  0.00     0.023 C 
BRANCH  26  27
ATOM     27  C   UNL A   1      36.954  22.952  25.673  1.00  0.00     0.116 C 
BRANCH  27  28
ATOM     28  N   UNL A   1      38.146  22.173  25.983  1.00  0.00    -0.352 N 
ATOM     29  C   UNL A   1      39.344  22.584  26.525  1.00  0.00     0.251 C 
ATOM     30  H   UNL A   1      38.086  21.213  25.775  1.00  0.00     0.163 HD
ATOM     31  O   UNL A   1      40.275  21.797  26.627  1.00  0.00    -0.269 OA
BRANCH  29  32
ATOM     32  C   UNL A   1      39.511  23.995  26.937  1.00  0.00     0.039 A 
ATOM     33  C   UNL A   1      39.249  24.341  28.264  1.00  0.00     0.014 A 
ATOM     34  C   UNL A   1      39.973  24.955  26.034  1.00  0.00     0.014 A 
ATOM     35  C   UNL A   1      39.545  25.632  28.712  1.00  0.00     0.010 A 
ATOM     36  C   UNL A   1      40.345  26.212  26.500  1.00  0.00     0.010 A 
ATOM     37  C   UNL A   1      40.144  26.562  27.845  1.00  0.00    -0.014 A 
BRANCH  37  38
ATOM     38  C   UNL A   1      40.596  27.891  28.329  1.00  0.00     0.031 A 
ATOM     39  C   UNL A   1      42.063  28.175  28.502  1.00  0.00     0.074 A 
ATOM     40  C   UNL A   1      39.682  28.808  28.712  1.00  0.00     0.049 A 
ATOM     41  N   UNL A   1      42.644  29.237  28.996  1.00  0.00    -0.248 NA
ATOM     42  C   UNL A   1      42.999  27.113  28.098  1.00  0.00     0.031 C 
ATOM     43  C   UNL A   1      38.230  28.620  28.682  1.00  0.00     0.029 A 
ATOM     44  N   UNL A   1      39.840  30.068  29.233  1.00  0.00    -0.354 N 
ATOM     45  C   UNL A   1      44.006  28.961  28.992  1.00  0.00     0.074 A 
ATOM     46  C   UNL A   1      44.162  27.615  28.486  1.00  0.00     0.031 C 
ATOM     47  C   UNL A   1      37.632  29.720  29.168  1.00  0.00     0.029 A 
ATOM     48  C   UNL A   1      38.655  30.681  29.567  1.00  0.00     0.049 A 
ATOM     49  H   UNL A   1      40.719  30.493  29.357  1.00  0.00     0.167 HD
ATOM     50  C   UNL A   1      45.037  29.767  29.340  1.00  0.00     0.034 A 
ATOM     51  C   UNL A   1      38.417  31.880  30.136  1.00  0.00     0.034 A 
ATOM     52  C   UNL A   1      44.884  31.121  29.796  1.00  0.00     0.049 A 
ATOM     53  C   UNL A   1      39.580  32.779  30.457  1.00  0.00     0.074 A 
ATOM     54  C   UNL A   1      45.868  32.042  30.106  1.00  0.00     0.029 A 
ATOM     55  N   UNL A   1      43.667  31.752  30.005  1.00  0.00    -0.354 N 
ATOM     56  N   UNL A   1      40.862  32.557  30.297  1.00  0.00    -0.248 NA
ATOM     57  C   UNL A   1      39.266  34.110  30.996  1.00  0.00     0.031 C 
ATOM     58  C   UNL A   1      45.246  33.230  30.505  1.00  0.00     0.029 A 
ATOM     59  C   UNL A   1      43.875  33.051  30.431  1.00  0.00     0.049 A 
ATOM     60  H   UNL A   1      42.785  31.336  29.870  1.00  0.00     0.167 HD
ATOM     61  C   UNL A   1      41.504  33.727  30.684  1.00  0.00     0.074 A 
ATOM     62  C   UNL A   1      40.468  34.666  31.061  1.00  0.00     0.031 C 
ATOM     63  C   UNL A   1      42.831  33.995  30.742  1.00  0.00     0.034 A 
BRANCH  50  64
ATOM     64  C   UNL A   1      46.433  29.228  29.162  1.00  0.00     0.023 A 
ATOM     65  C   UNL A   1      47.080  28.623  30.259  1.00  0.00     0.012 A 
ATOM     66  C   UNL A   1      47.081  29.265  27.912  1.00  0.00     0.148 A 
ATOM     67  C   UNL A   1      48.361  28.092  30.126  1.00  0.00     0.002 A 
ATOM     68  C   UNL A   1      48.342  28.695  27.777  1.00  0.00     0.091 A 
ATOM     69  F   UNL A   1      46.459  29.861  26.886  1.00  0.00    -0.205 F 
ATOM     70  C   UNL A   1      48.988  28.119  28.885  1.00  0.00     0.022 A 
BRANCH  68  71
ATOM     71  S   UNL A   1      49.204  28.608  26.203  1.00  0.00     0.127 S 
ATOM     72  O   UNL A   1      49.814  29.935  26.128  1.00  0.00    -0.237 OA
ATOM     73  O   UNL A   1      50.150  27.514  26.430  1.00  0.00    -0.237 OA
ATOM     74  O   UNL A   1      48.184  28.330  25.201  1.00  0.00    -0.744 OA
ENDBRANCH  68  71
ENDBRANCH  50  64
BRANCH  51  75
ATOM     75  C   UNL A   1      37.015  32.326  30.376  1.00  0.00     0.023 A 
ATOM     76  C   UNL A   1      36.436  32.134  31.646  1.00  0.00     0.012 A 
ATOM     77  C   UNL A   1      36.261  32.957  29.368  1.00  0.00     0.148 A 
ATOM     78  C   UNL A   1      35.121  32.529  31.898  1.00  0.00     0.002 A 
ATOM     79  C   UNL A   1      34.971  33.400  29.641  1.00  0.00     0.091 A 
ATOM     80  F   UNL A   1      36.820  33.119  28.161  1.00  0.00    -0.205 F 
ATOM     81  C   UNL A   1      34.393  33.171  30.899  1.00  0.00     0.022 A 
BRANCH  79  82
ATOM     82  S   UNL A   1      34.019  34.355  28.456  1.00  0.00     0.127 S 
ATOM     83  O   UNL A   1      32.769  34.574  29.178  1.00  0.00    -0.237 OA
ATOM     84  O   UNL A   1      34.849  35.550  28.285  1.00  0.00    -0.237 OA
ATOM     85  O   UNL A   1      33.933  33.518  27.266  1.00  0.00    -0.744 OA
ENDBRANCH  79  82
ENDBRANCH  51  75
BRANCH  63  86
ATOM     86  C   UNL A   1      43.249  35.368  31.198  1.00  0.00     0.023 A 
ATOM     87  C   UNL A   1      43.540  35.592  32.559  1.00  0.00     0.012 A 
ATOM     88  C   UNL A   1      43.429  36.411  30.269  1.00  0.00     0.148 A 
ATOM     89  C   UNL A   1      43.977  36.842  32.992  1.00  0.00     0.002 A 
ATOM     90  C   UNL A   1      43.908  37.643  30.703  1.00  0.00     0.091 A 
ATOM     91  F   UNL A   1      43.127  36.184  28.983  1.00  0.00    -0.205 F 
ATOM     92  C   UNL A   1      44.173  37.862  32.064  1.00  0.00     0.022 A 
BRANCH  90  93
ATOM     93  S   UNL A   1      44.276  38.984  29.565  1.00  0.00     0.127 S 
ATOM     94  O   UNL A   1      44.554  40.086  30.484  1.00  0.00    -0.237 OA
ATOM     95  O   UNL A   1      45.447  38.476  28.851  1.00  0.00    -0.237 OA
ATOM     96  O   UNL A   1      43.088  39.143  28.737  1.00  0.00    -0.744 OA
ENDBRANCH  90  93
ENDBRANCH  63  86
ENDBRANCH  37  38
ENDBRANCH  29  32
ENDBRANCH  27  28
ENDBRANCH  26  27
ENDBRANCH   1  26
TORSDOF 17
ENDMDL
