MODEL 1
REMARK VINA RESULT:     -13.2      0.000      0.000
REMARK SMILES C[C@@H]1CC(C)(C)C[C@@](CC(=O)Nc2cccc(C(F)(F)F)c2)(C(=O)NCCCCNC(=O)c2ccc(-c3c4nc(c(-c5cccc(S(=O)(=O)[O-])c5F)c5ccc([nH]5)c(-c5cccc(S(=O)(=O)[O-])c5F)c5nc(c(-c6cccc(S(=O)(=O)[O-])c6F)c6ccc3[nH]6)C=C5)C=C4)cc2)C1
REMARK SMILES IDX 27 1 26 2 25 3 23 4 24 5 8 7 1 8 2 9 3 10 96 11 4 12 5 13
REMARK SMILES IDX 6 14 7 15 9 16 10 17 11 18 12 19 13 21 14 22 22 23 15 24
REMARK SMILES IDX 17 25 16 26 18 27 19 28 20 29 21 30 28 31 29 32 30 33 31 34
REMARK SMILES IDX 32 36 33 37 34 38 95 39 35 40 94 41 36 42 37 43 38 44 88 45
REMARK SMILES IDX 39 46 93 47 87 48 89 49 40 50 92 51 86 52 85 53 41 55 73 56
REMARK SMILES IDX 53 57 72 58 54 59 57 60 71 61 90 62 55 63 56 64 70 66 91 67
REMARK SMILES IDX 58 68 42 69 43 70 51 71 44 72 46 73 52 74 45 75 47 76 48 77
REMARK SMILES IDX 49 78 50 79 74 80 75 81 83 82 76 83 78 84 84 85 77 86 79 87
REMARK SMILES IDX 80 88 81 89 82 90 59 91 60 92 68 93 61 94 63 95 69 96 62 97
REMARK SMILES IDX 64 98 65 99 66 100 67 101
REMARK H PARENT 25 6 12 20 30 35 89 54 57 65
REMARK Flexibility Score: inf
ROOT
ATOM      1  C   UNL A   1      36.826  20.669  24.511  1.00  0.00     0.023 C 
ENDROOT
BRANCH   1   2
ATOM      2  C   UNL A   1      35.387  20.397  24.980  1.00  0.00     0.116 C 
BRANCH   2   3
ATOM      3  N   UNL A   1      35.046  21.019  26.263  1.00  0.00    -0.356 N 
ATOM      4  C   UNL A   1      34.350  22.153  26.621  1.00  0.00     0.226 C 
ATOM      5  O   UNL A   1      34.272  22.363  27.835  1.00  0.00    -0.274 OA
ATOM      6  H   UNL A   1      35.389  20.517  27.038  1.00  0.00     0.163 HD
BRANCH   4   7
ATOM      7  C   UNL A   1      33.690  23.148  25.581  1.00  0.00     0.059 C 
ATOM      8  C   UNL A   1      33.692  25.731  23.340  1.00  0.00     0.008 C 
ATOM      9  C   UNL A   1      34.351  24.357  23.296  1.00  0.00    -0.013 C 
ATOM     10  C   UNL A   1      33.551  23.363  22.485  1.00  0.00     0.009 C 
ATOM     11  C   UNL A   1      34.768  23.703  24.616  1.00  0.00     0.020 C 
ATOM     12  C   UNL A   1      32.399  22.665  23.240  1.00  0.00    -0.034 C 
ATOM     13  C   UNL A   1      31.125  23.526  23.266  1.00  0.00     0.011 C 
ATOM     14  C   UNL A   1      32.077  21.412  22.381  1.00  0.00     0.011 C 
ATOM     15  C   UNL A   1      32.757  22.233  24.702  1.00  0.00     0.024 C 
BRANCH   7  16
ATOM     16  C   UNL A   1      33.048  24.214  26.503  1.00  0.00     0.117 C 
BRANCH  16  17
ATOM     17  C   UNL A   1      31.594  24.559  26.691  1.00  0.00     0.225 C 
ATOM     18  O   UNL A   1      30.874  23.702  27.236  1.00  0.00    -0.275 OA
ATOM     19  N   UNL A   1      30.969  25.731  26.432  1.00  0.00    -0.326 N 
ATOM     20  H   UNL A   1      30.088  25.744  26.873  1.00  0.00     0.169 HD
BRANCH  19  21
ATOM     21  C   UNL A   1      31.174  26.937  25.735  1.00  0.00     0.041 A 
ATOM     22  C   UNL A   1      31.880  27.903  26.474  1.00  0.00     0.026 A 
ATOM     23  C   UNL A   1      30.646  27.315  24.502  1.00  0.00     0.039 A 
ATOM     24  C   UNL A   1      31.937  29.236  26.076  1.00  0.00     0.003 A 
ATOM     25  C   UNL A   1      30.596  28.686  24.143  1.00  0.00     0.058 A 
ATOM     26  C   UNL A   1      31.265  29.635  24.931  1.00  0.00     0.013 A 
BRANCH  25  27
ATOM     27  C   UNL A   1      29.759  29.174  22.978  1.00  0.00     0.416 C 
ATOM     28  F   UNL A   1      28.663  28.384  22.758  1.00  0.00    -0.166 F 
ATOM     29  F   UNL A   1      29.278  30.431  23.151  1.00  0.00    -0.166 F 
ATOM     30  F   UNL A   1      30.434  29.172  21.798  1.00  0.00    -0.166 F 
ENDBRANCH  25  27
ENDBRANCH  19  21
ENDBRANCH  16  17
ENDBRANCH   7  16
ENDBRANCH   4   7
ENDBRANCH   2   3
ENDBRANCH   1   2
BRANCH   1  31
ATOM     31  C   UNL A   1      37.893  19.642  24.924  1.00  0.00     0.023 C 
BRANCH  31  32
ATOM     32  C   UNL A   1      38.953  20.091  25.935  1.00  0.00     0.116 C 
BRANCH  32  33
ATOM     33  N   UNL A   1      40.119  19.223  25.987  1.00  0.00    -0.352 N 
ATOM     34  C   UNL A   1      41.454  19.505  26.187  1.00  0.00     0.251 C 
ATOM     35  H   UNL A   1      39.922  18.267  25.857  1.00  0.00     0.163 HD
ATOM     36  O   UNL A   1      42.269  18.593  26.085  1.00  0.00    -0.269 OA
BRANCH  34  37
ATOM     37  C   UNL A   1      41.934  20.878  26.497  1.00  0.00     0.039 A 
ATOM     38  C   UNL A   1      42.044  21.797  25.444  1.00  0.00     0.014 A 
ATOM     39  C   UNL A   1      42.330  21.262  27.779  1.00  0.00     0.014 A 
ATOM     40  C   UNL A   1      42.489  23.103  25.687  1.00  0.00     0.010 A 
ATOM     41  C   UNL A   1      42.703  22.586  28.034  1.00  0.00     0.010 A 
ATOM     42  C   UNL A   1      42.793  23.522  26.992  1.00  0.00    -0.014 A 
BRANCH  42  43
ATOM     43  C   UNL A   1      43.192  24.932  27.271  1.00  0.00     0.031 A 
ATOM     44  C   UNL A   1      42.233  25.898  27.918  1.00  0.00     0.074 A 
ATOM     45  C   UNL A   1      44.404  25.373  26.877  1.00  0.00     0.049 A 
ATOM     46  N   UNL A   1      42.411  27.160  28.223  1.00  0.00    -0.248 NA
ATOM     47  C   UNL A   1      40.890  25.390  28.239  1.00  0.00     0.031 C 
ATOM     48  C   UNL A   1      45.397  24.576  26.153  1.00  0.00     0.029 A 
ATOM     49  N   UNL A   1      44.999  26.606  27.002  1.00  0.00    -0.354 N 
ATOM     50  C   UNL A   1      41.198  27.604  28.739  1.00  0.00     0.074 A 
ATOM     51  C   UNL A   1      40.281  26.486  28.669  1.00  0.00     0.031 C 
ATOM     52  C   UNL A   1      46.473  25.336  25.899  1.00  0.00     0.029 A 
ATOM     53  C   UNL A   1      46.242  26.682  26.417  1.00  0.00     0.049 A 
ATOM     54  H   UNL A   1      44.574  27.363  27.466  1.00  0.00     0.167 HD
ATOM     55  C   UNL A   1      40.880  28.817  29.255  1.00  0.00     0.034 A 
ATOM     56  C   UNL A   1      47.099  27.715  26.302  1.00  0.00     0.034 A 
ATOM     57  C   UNL A   1      41.800  29.921  29.353  1.00  0.00     0.049 A 
ATOM     58  C   UNL A   1      46.751  29.036  26.932  1.00  0.00     0.074 A 
ATOM     59  C   UNL A   1      41.601  31.159  29.940  1.00  0.00     0.029 A 
ATOM     60  N   UNL A   1      43.088  29.929  28.840  1.00  0.00    -0.354 N 
ATOM     61  N   UNL A   1      45.662  29.383  27.572  1.00  0.00    -0.248 NA
ATOM     62  C   UNL A   1      47.769  30.095  26.864  1.00  0.00     0.031 C 
ATOM     63  C   UNL A   1      42.758  31.924  29.756  1.00  0.00     0.029 A 
ATOM     64  C   UNL A   1      43.692  31.151  29.087  1.00  0.00     0.049 A 
ATOM     65  H   UNL A   1      43.512  29.175  28.368  1.00  0.00     0.167 HD
ATOM     66  C   UNL A   1      45.873  30.685  28.011  1.00  0.00     0.074 A 
ATOM     67  C   UNL A   1      47.207  31.056  27.585  1.00  0.00     0.031 C 
ATOM     68  C   UNL A   1      45.034  31.501  28.695  1.00  0.00     0.034 A 
BRANCH  55  69
ATOM     69  C   UNL A   1      39.483  28.999  29.796  1.00  0.00     0.023 A 
ATOM     70  C   UNL A   1      39.193  28.607  31.120  1.00  0.00     0.012 A 
ATOM     71  C   UNL A   1      38.468  29.586  29.015  1.00  0.00     0.148 A 
ATOM     72  C   UNL A   1      37.906  28.749  31.640  1.00  0.00     0.002 A 
ATOM     73  C   UNL A   1      37.200  29.770  29.558  1.00  0.00     0.091 A 
ATOM     74  F   UNL A   1      38.752  29.938  27.753  1.00  0.00    -0.205 F 
ATOM     75  C   UNL A   1      36.914  29.338  30.863  1.00  0.00     0.022 A 
BRANCH  73  76
ATOM     76  S   UNL A   1      35.876  30.594  28.666  1.00  0.00     0.127 S 
ATOM     77  O   UNL A   1      35.126  31.214  29.757  1.00  0.00    -0.237 OA
ATOM     78  O   UNL A   1      36.613  31.535  27.821  1.00  0.00    -0.237 OA
ATOM     79  O   UNL A   1      35.174  29.548  27.936  1.00  0.00    -0.744 OA
ENDBRANCH  73  76
ENDBRANCH  55  69
BRANCH  56  80
ATOM     80  C   UNL A   1      48.402  27.516  25.606  1.00  0.00     0.023 A 
ATOM     81  C   UNL A   1      49.544  27.156  26.350  1.00  0.00     0.012 A 
ATOM     82  C   UNL A   1      48.503  27.636  24.207  1.00  0.00     0.148 A 
ATOM     83  C   UNL A   1      50.769  26.948  25.714  1.00  0.00     0.002 A 
ATOM     84  C   UNL A   1      49.711  27.370  23.575  1.00  0.00     0.091 A 
ATOM     85  F   UNL A   1      47.407  27.989  23.521  1.00  0.00    -0.205 F 
ATOM     86  C   UNL A   1      50.850  27.042  24.327  1.00  0.00     0.022 A 
BRANCH  84  87
ATOM     87  S   UNL A   1      49.876  27.330  21.787  1.00  0.00     0.127 S 
ATOM     88  O   UNL A   1      49.645  28.729  21.434  1.00  0.00    -0.237 OA
ATOM     89  O   UNL A   1      51.256  26.872  21.622  1.00  0.00    -0.237 OA
ATOM     90  O   UNL A   1      48.870  26.386  21.319  1.00  0.00    -0.744 OA
ENDBRANCH  84  87
ENDBRANCH  56  80
BRANCH  68  91
ATOM     91  C   UNL A   1      45.541  32.874  29.062  1.00  0.00     0.023 A 
ATOM     92  C   UNL A   1      46.260  33.066  30.259  1.00  0.00     0.012 A 
ATOM     93  C   UNL A   1      45.350  33.966  28.191  1.00  0.00     0.148 A 
ATOM     94  C   UNL A   1      46.742  34.329  30.603  1.00  0.00     0.002 A 
ATOM     95  C   UNL A   1      45.880  35.210  28.515  1.00  0.00     0.091 A 
ATOM     96  F   UNL A   1      44.648  33.772  27.065  1.00  0.00    -0.205 F 
ATOM     97  C   UNL A   1      46.563  35.396  29.728  1.00  0.00     0.022 A 
BRANCH  95  98
ATOM     98  S   UNL A   1      45.780  36.616  27.402  1.00  0.00     0.127 S 
ATOM     99  O   UNL A   1      46.625  36.179  26.293  1.00  0.00    -0.237 OA
ATOM    100  O   UNL A   1      44.349  36.670  27.096  1.00  0.00    -0.237 OA
ATOM    101  O   UNL A   1      46.277  37.760  28.156  1.00  0.00    -0.744 OA
ENDBRANCH  95  98
ENDBRANCH  68  91
ENDBRANCH  42  43
ENDBRANCH  34  37
ENDBRANCH  32  33
ENDBRANCH  31  32
ENDBRANCH   1  31
TORSDOF 18
ENDMDL
MODEL 2
REMARK VINA RESULT:     -13.0      6.329     11.446
REMARK SMILES C[C@@H]1CC(C)(C)C[C@@](CC(=O)Nc2cccc(C(F)(F)F)c2)(C(=O)NCCCCNC(=O)c2ccc(-c3c4nc(c(-c5cccc(S(=O)(=O)[O-])c5F)c5ccc([nH]5)c(-c5cccc(S(=O)(=O)[O-])c5F)c5nc(c(-c6cccc(S(=O)(=O)[O-])c6F)c6ccc3[nH]6)C=C5)C=C4)cc2)C1
REMARK SMILES IDX 27 1 26 2 25 3 23 4 24 5 8 7 1 8 2 9 3 10 96 11 4 12 5 13
REMARK SMILES IDX 6 14 7 15 9 16 10 17 11 18 12 19 13 21 14 22 22 23 15 24
REMARK SMILES IDX 17 25 16 26 18 27 19 28 20 29 21 30 28 31 29 32 30 33 31 34
REMARK SMILES IDX 32 36 33 37 34 38 95 39 35 40 94 41 36 42 37 43 38 44 88 45
REMARK SMILES IDX 39 46 93 47 87 48 89 49 40 50 92 51 86 52 85 53 41 55 73 56
REMARK SMILES IDX 53 57 72 58 54 59 57 60 71 61 90 62 55 63 56 64 70 66 91 67
REMARK SMILES IDX 58 68 42 69 43 70 51 71 44 72 46 73 52 74 45 75 47 76 48 77
REMARK SMILES IDX 49 78 50 79 74 80 75 81 83 82 76 83 78 84 84 85 77 86 79 87
REMARK SMILES IDX 80 88 81 89 82 90 59 91 60 92 68 93 61 94 63 95 69 96 62 97
REMARK SMILES IDX 64 98 65 99 66 100 67 101
REMARK H PARENT 25 6 12 20 30 35 89 54 57 65
REMARK Flexibility Score: inf
ROOT
ATOM      1  C   UNL A   1      31.413  30.550  25.868  1.00  0.00     0.023 C 
ENDROOT
BRANCH   1   2
ATOM      2  C   UNL A   1      32.797  29.882  25.844  1.00  0.00     0.116 C 
BRANCH   2   3
ATOM      3  N   UNL A   1      33.321  29.634  24.497  1.00  0.00    -0.356 N 
ATOM      4  C   UNL A   1      33.393  28.521  23.690  1.00  0.00     0.226 C 
ATOM      5  O   UNL A   1      33.924  28.699  22.589  1.00  0.00    -0.274 OA
ATOM      6  H   UNL A   1      33.706  30.438  24.079  1.00  0.00     0.163 HD
BRANCH   4   7
ATOM      7  C   UNL A   1      32.853  27.092  24.108  1.00  0.00     0.059 C 
ATOM      8  C   UNL A   1      32.380  24.467  26.249  1.00  0.00     0.008 C 
ATOM      9  C   UNL A   1      31.863  25.901  26.281  1.00  0.00    -0.013 C 
ATOM     10  C   UNL A   1      30.450  26.013  25.755  1.00  0.00     0.009 C 
ATOM     11  C   UNL A   1      32.719  27.002  25.649  1.00  0.00     0.020 C 
ATOM     12  C   UNL A   1      30.320  26.117  24.220  1.00  0.00    -0.034 C 
ATOM     13  C   UNL A   1      30.360  24.736  23.546  1.00  0.00     0.011 C 
ATOM     14  C   UNL A   1      28.894  26.687  23.992  1.00  0.00     0.011 C 
ATOM     15  C   UNL A   1      31.382  27.049  23.546  1.00  0.00     0.024 C 
BRANCH   7  16
ATOM     16  C   UNL A   1      33.918  26.144  23.503  1.00  0.00     0.117 C 
BRANCH  16  17
ATOM     17  C   UNL A   1      33.757  25.075  22.454  1.00  0.00     0.225 C 
ATOM     18  O   UNL A   1      33.473  25.450  21.302  1.00  0.00    -0.275 OA
ATOM     19  N   UNL A   1      33.975  23.745  22.570  1.00  0.00    -0.326 N 
ATOM     20  H   UNL A   1      34.024  23.334  21.677  1.00  0.00     0.169 HD
BRANCH  19  21
ATOM     21  C   UNL A   1      34.154  22.759  23.560  1.00  0.00     0.041 A 
ATOM     22  C   UNL A   1      35.352  22.898  24.285  1.00  0.00     0.026 A 
ATOM     23  C   UNL A   1      33.380  21.624  23.790  1.00  0.00     0.039 A 
ATOM     24  C   UNL A   1      35.841  21.880  25.099  1.00  0.00     0.003 A 
ATOM     25  C   UNL A   1      33.919  20.534  24.522  1.00  0.00     0.058 A 
ATOM     26  C   UNL A   1      35.144  20.685  25.189  1.00  0.00     0.013 A 
BRANCH  25  27
ATOM     27  C   UNL A   1      33.254  19.173  24.528  1.00  0.00     0.416 C 
ATOM     28  F   UNL A   1      34.159  18.151  24.438  1.00  0.00    -0.166 F 
ATOM     29  F   UNL A   1      32.537  18.931  25.655  1.00  0.00    -0.166 F 
ATOM     30  F   UNL A   1      32.410  18.986  23.479  1.00  0.00    -0.166 F 
ENDBRANCH  25  27
ENDBRANCH  19  21
ENDBRANCH  16  17
ENDBRANCH   7  16
ENDBRANCH   4   7
ENDBRANCH   2   3
ENDBRANCH   1   2
BRANCH   1  31
ATOM     31  C   UNL A   1      31.327  31.940  26.519  1.00  0.00     0.023 C 
BRANCH  31  32
ATOM     32  C   UNL A   1      32.599  32.497  27.167  1.00  0.00     0.116 C 
BRANCH  32  33
ATOM     33  N   UNL A   1      32.482  33.884  27.591  1.00  0.00    -0.352 N 
ATOM     34  C   UNL A   1      33.190  34.612  28.525  1.00  0.00     0.251 C 
ATOM     35  H   UNL A   1      31.774  34.392  27.133  1.00  0.00     0.163 HD
ATOM     36  O   UNL A   1      32.827  35.756  28.775  1.00  0.00    -0.269 OA
BRANCH  34  37
ATOM     37  C   UNL A   1      34.358  34.044  29.249  1.00  0.00     0.039 A 
ATOM     38  C   UNL A   1      34.119  33.123  30.278  1.00  0.00     0.014 A 
ATOM     39  C   UNL A   1      35.670  34.436  28.978  1.00  0.00     0.014 A 
ATOM     40  C   UNL A   1      35.188  32.560  30.987  1.00  0.00     0.010 A 
ATOM     41  C   UNL A   1      36.740  33.818  29.635  1.00  0.00     0.010 A 
ATOM     42  C   UNL A   1      36.514  32.877  30.651  1.00  0.00    -0.014 A 
BRANCH  42  43
ATOM     43  C   UNL A   1      37.659  32.222  31.348  1.00  0.00     0.031 A 
ATOM     44  C   UNL A   1      38.400  31.074  30.714  1.00  0.00     0.074 A 
ATOM     45  C   UNL A   1      37.995  32.616  32.593  1.00  0.00     0.049 A 
ATOM     46  N   UNL A   1      39.410  30.383  31.182  1.00  0.00    -0.248 NA
ATOM     47  C   UNL A   1      37.930  30.623  29.395  1.00  0.00     0.031 C 
ATOM     48  C   UNL A   1      37.303  33.649  33.367  1.00  0.00     0.029 A 
ATOM     49  N   UNL A   1      38.984  32.175  33.441  1.00  0.00    -0.354 N 
ATOM     50  C   UNL A   1      39.675  29.399  30.235  1.00  0.00     0.074 A 
ATOM     51  C   UNL A   1      38.692  29.559  29.185  1.00  0.00     0.031 C 
ATOM     52  C   UNL A   1      37.885  33.762  34.571  1.00  0.00     0.029 A 
ATOM     53  C   UNL A   1      38.976  32.796  34.668  1.00  0.00     0.049 A 
ATOM     54  H   UNL A   1      39.635  31.481  33.192  1.00  0.00     0.167 HD
ATOM     55  C   UNL A   1      40.660  28.468  30.220  1.00  0.00     0.034 A 
ATOM     56  C   UNL A   1      39.752  32.609  35.754  1.00  0.00     0.034 A 
ATOM     57  C   UNL A   1      41.657  28.328  31.249  1.00  0.00     0.049 A 
ATOM     58  C   UNL A   1      40.876  31.612  35.695  1.00  0.00     0.074 A 
ATOM     59  C   UNL A   1      42.748  27.477  31.282  1.00  0.00     0.029 A 
ATOM     60  N   UNL A   1      41.678  29.045  32.436  1.00  0.00    -0.354 N 
ATOM     61  N   UNL A   1      41.216  30.810  34.716  1.00  0.00    -0.248 NA
ATOM     62  C   UNL A   1      41.752  31.526  36.872  1.00  0.00     0.031 C 
ATOM     63  C   UNL A   1      43.412  27.659  32.501  1.00  0.00     0.029 A 
ATOM     64  C   UNL A   1      42.756  28.650  33.212  1.00  0.00     0.049 A 
ATOM     65  H   UNL A   1      41.023  29.735  32.690  1.00  0.00     0.167 HD
ATOM     66  C   UNL A   1      42.362  30.148  35.143  1.00  0.00     0.074 A 
ATOM     67  C   UNL A   1      42.672  30.663  36.462  1.00  0.00     0.031 C 
ATOM     68  C   UNL A   1      43.084  29.193  34.506  1.00  0.00     0.034 A 
BRANCH  55  69
ATOM     69  C   UNL A   1      40.734  27.553  29.022  1.00  0.00     0.023 A 
ATOM     70  C   UNL A   1      39.843  26.462  28.922  1.00  0.00     0.012 A 
ATOM     71  C   UNL A   1      41.652  27.787  27.980  1.00  0.00     0.148 A 
ATOM     72  C   UNL A   1      39.901  25.592  27.834  1.00  0.00     0.002 A 
ATOM     73  C   UNL A   1      41.670  26.943  26.874  1.00  0.00     0.091 A 
ATOM     74  F   UNL A   1      42.504  28.816  28.094  1.00  0.00    -0.205 F 
ATOM     75  C   UNL A   1      40.807  25.837  26.807  1.00  0.00     0.022 A 
BRANCH  73  76
ATOM     76  S   UNL A   1      42.743  27.223  25.460  1.00  0.00     0.127 S 
ATOM     77  O   UNL A   1      44.039  27.414  26.107  1.00  0.00    -0.237 OA
ATOM     78  O   UNL A   1      42.611  25.967  24.719  1.00  0.00    -0.237 OA
ATOM     79  O   UNL A   1      42.205  28.389  24.774  1.00  0.00    -0.744 OA
ENDBRANCH  73  76
ENDBRANCH  55  69
BRANCH  56  80
ATOM     80  C   UNL A   1      39.521  33.435  36.974  1.00  0.00     0.023 A 
ATOM     81  C   UNL A   1      40.005  34.758  37.025  1.00  0.00     0.012 A 
ATOM     82  C   UNL A   1      38.785  32.930  38.063  1.00  0.00     0.148 A 
ATOM     83  C   UNL A   1      39.784  35.552  38.151  1.00  0.00     0.002 A 
ATOM     84  C   UNL A   1      38.518  33.746  39.155  1.00  0.00     0.091 A 
ATOM     85  F   UNL A   1      38.343  31.667  37.998  1.00  0.00    -0.205 F 
ATOM     86  C   UNL A   1      39.031  35.052  39.210  1.00  0.00     0.022 A 
BRANCH  84  87
ATOM     87  S   UNL A   1      37.442  33.236  40.500  1.00  0.00     0.127 S 
ATOM     88  O   UNL A   1      38.192  32.122  41.076  1.00  0.00    -0.237 OA
ATOM     89  O   UNL A   1      37.400  34.444  41.325  1.00  0.00    -0.237 OA
ATOM     90  O   UNL A   1      36.172  32.888  39.879  1.00  0.00    -0.744 OA
ENDBRANCH  84  87
ENDBRANCH  56  80
BRANCH  68  91
ATOM     91  C   UNL A   1      44.308  28.659  35.207  1.00  0.00     0.023 A 
ATOM     92  C   UNL A   1      45.582  29.175  34.896  1.00  0.00     0.012 A 
ATOM     93  C   UNL A   1      44.188  27.682  36.216  1.00  0.00     0.148 A 
ATOM     94  C   UNL A   1      46.720  28.695  35.546  1.00  0.00     0.002 A 
ATOM     95  C   UNL A   1      45.320  27.247  36.896  1.00  0.00     0.091 A 
ATOM     96  F   UNL A   1      42.971  27.187  36.487  1.00  0.00    -0.205 F 
ATOM     97  C   UNL A   1      46.588  27.742  36.552  1.00  0.00     0.022 A 
BRANCH  95  98
ATOM     98  S   UNL A   1      45.231  26.094  38.270  1.00  0.00     0.127 S 
ATOM     99  O   UNL A   1      44.031  26.552  38.967  1.00  0.00    -0.237 OA
ATOM    100  O   UNL A   1      45.088  24.807  37.588  1.00  0.00    -0.237 OA
ATOM    101  O   UNL A   1      46.480  26.250  39.005  1.00  0.00    -0.744 OA
ENDBRANCH  95  98
ENDBRANCH  68  91
ENDBRANCH  42  43
ENDBRANCH  34  37
ENDBRANCH  32  33
ENDBRANCH  31  32
ENDBRANCH   1  31
TORSDOF 18
ENDMDL
MODEL 3
REMARK VINA RESULT:     -12.9      1.000      7.229
REMARK SMILES C[C@@H]1CC(C)(C)C[C@@](CC(=O)Nc2cccc(C(F)(F)F)c2)(C(=O)NCCCCNC(=O)c2ccc(-c3c4nc(c(-c5cccc(S(=O)(=O)[O-])c5F)c5ccc([nH]5)c(-c5cccc(S(=O)(=O)[O-])c5F)c5nc(c(-c6cccc(S(=O)(=O)[O-])c6F)c6ccc3[nH]6)C=C5)C=C4)cc2)C1
REMARK SMILES IDX 27 1 26 2 25 3 23 4 24 5 8 7 1 8 2 9 3 10 96 11 4 12 5 13
REMARK SMILES IDX 6 14 7 15 9 16 10 17 11 18 12 19 13 21 14 22 22 23 15 24
REMARK SMILES IDX 17 25 16 26 18 27 19 28 20 29 21 30 28 31 29 32 30 33 31 34
REMARK SMILES IDX 32 36 33 37 34 38 95 39 35 40 94 41 36 42 37 43 38 44 88 45
REMARK SMILES IDX 39 46 93 47 87 48 89 49 40 50 92 51 86 52 85 53 41 55 73 56
REMARK SMILES IDX 53 57 72 58 54 59 57 60 71 61 90 62 55 63 56 64 70 66 91 67
REMARK SMILES IDX 58 68 42 69 43 70 51 71 44 72 46 73 52 74 45 75 47 76 48 77
REMARK SMILES IDX 49 78 50 79 74 80 75 81 83 82 76 83 78 84 84 85 77 86 79 87
REMARK SMILES IDX 80 88 81 89 82 90 59 91 60 92 68 93 61 94 63 95 69 96 62 97
REMARK SMILES IDX 64 98 65 99 66 100 67 101
REMARK H PARENT 25 6 12 20 30 35 89 54 57 65
REMARK Flexibility Score: inf
ROOT
ATOM      1  C   UNL A   1      37.135  21.059  24.678  1.00  0.00     0.023 C 
ENDROOT
BRANCH   1   2
ATOM      2  C   UNL A   1      35.683  20.662  24.988  1.00  0.00     0.116 C 
BRANCH   2   3
ATOM      3  N   UNL A   1      35.183  21.166  26.271  1.00  0.00    -0.356 N 
ATOM      4  C   UNL A   1      34.337  22.193  26.630  1.00  0.00     0.226 C 
ATOM      5  O   UNL A   1      34.149  22.323  27.843  1.00  0.00    -0.274 OA
ATOM      6  H   UNL A   1      35.526  20.662  27.043  1.00  0.00     0.163 HD
BRANCH   4   7
ATOM      7  C   UNL A   1      33.641  23.166  25.593  1.00  0.00     0.059 C 
ATOM      8  C   UNL A   1      33.554  25.741  23.344  1.00  0.00     0.008 C 
ATOM      9  C   UNL A   1      34.249  24.386  23.298  1.00  0.00    -0.013 C 
ATOM     10  C   UNL A   1      33.468  23.368  22.498  1.00  0.00     0.009 C 
ATOM     11  C   UNL A   1      34.695  23.747  24.616  1.00  0.00     0.020 C 
ATOM     12  C   UNL A   1      32.343  22.642  23.265  1.00  0.00    -0.034 C 
ATOM     13  C   UNL A   1      31.047  23.468  23.300  1.00  0.00     0.011 C 
ATOM     14  C   UNL A   1      32.046  21.378  22.413  1.00  0.00     0.011 C 
ATOM     15  C   UNL A   1      32.725  22.224  24.725  1.00  0.00     0.024 C 
BRANCH   7  16
ATOM     16  C   UNL A   1      32.980  24.218  26.517  1.00  0.00     0.117 C 
BRANCH  16  17
ATOM     17  C   UNL A   1      31.523  24.574  26.666  1.00  0.00     0.225 C 
ATOM     18  O   UNL A   1      30.784  23.724  27.194  1.00  0.00    -0.275 OA
ATOM     19  N   UNL A   1      30.913  25.749  26.387  1.00  0.00    -0.326 N 
ATOM     20  H   UNL A   1      30.021  25.770  26.803  1.00  0.00     0.169 HD
BRANCH  19  21
ATOM     21  C   UNL A   1      31.145  26.951  25.691  1.00  0.00     0.041 A 
ATOM     22  C   UNL A   1      31.977  27.851  26.381  1.00  0.00     0.026 A 
ATOM     23  C   UNL A   1      30.545  27.389  24.512  1.00  0.00     0.039 A 
ATOM     24  C   UNL A   1      32.096  29.185  25.998  1.00  0.00     0.003 A 
ATOM     25  C   UNL A   1      30.563  28.767  24.177  1.00  0.00     0.058 A 
ATOM     26  C   UNL A   1      31.361  29.651  24.919  1.00  0.00     0.013 A 
BRANCH  25  27
ATOM     27  C   UNL A   1      29.669  29.335  23.093  1.00  0.00     0.416 C 
ATOM     28  F   UNL A   1      30.363  29.642  21.954  1.00  0.00    -0.166 F 
ATOM     29  F   UNL A   1      28.686  28.482  22.706  1.00  0.00    -0.166 F 
ATOM     30  F   UNL A   1      29.062  30.495  23.456  1.00  0.00    -0.166 F 
ENDBRANCH  25  27
ENDBRANCH  19  21
ENDBRANCH  16  17
ENDBRANCH   7  16
ENDBRANCH   4   7
ENDBRANCH   2   3
ENDBRANCH   1   2
BRANCH   1  31
ATOM     31  C   UNL A   1      38.207  19.977  24.887  1.00  0.00     0.023 C 
BRANCH  31  32
ATOM     32  C   UNL A   1      39.107  20.101  26.121  1.00  0.00     0.116 C 
BRANCH  32  33
ATOM     33  N   UNL A   1      40.341  19.337  26.027  1.00  0.00    -0.352 N 
ATOM     34  C   UNL A   1      41.659  19.716  26.178  1.00  0.00     0.251 C 
ATOM     35  H   UNL A   1      40.215  18.383  25.819  1.00  0.00     0.163 HD
ATOM     36  O   UNL A   1      42.537  18.892  25.947  1.00  0.00    -0.269 OA
BRANCH  34  37
ATOM     37  C   UNL A   1      42.042  21.093  26.589  1.00  0.00     0.039 A 
ATOM     38  C   UNL A   1      42.258  22.050  25.587  1.00  0.00     0.014 A 
ATOM     39  C   UNL A   1      42.250  21.447  27.923  1.00  0.00     0.014 A 
ATOM     40  C   UNL A   1      42.619  23.360  25.925  1.00  0.00     0.010 A 
ATOM     41  C   UNL A   1      42.538  22.773  28.263  1.00  0.00     0.010 A 
ATOM     42  C   UNL A   1      42.732  23.745  27.271  1.00  0.00    -0.014 A 
BRANCH  42  43
ATOM     43  C   UNL A   1      43.038  25.158  27.641  1.00  0.00     0.031 A 
ATOM     44  C   UNL A   1      44.449  25.684  27.597  1.00  0.00     0.074 A 
ATOM     45  C   UNL A   1      42.049  25.959  28.088  1.00  0.00     0.049 A 
ATOM     46  N   UNL A   1      44.894  26.880  27.895  1.00  0.00    -0.248 NA
ATOM     47  C   UNL A   1      45.501  24.739  27.194  1.00  0.00     0.031 C 
ATOM     48  C   UNL A   1      40.654  25.554  28.274  1.00  0.00     0.029 A 
ATOM     49  N   UNL A   1      42.069  27.272  28.496  1.00  0.00    -0.354 N 
ATOM     50  C   UNL A   1      46.276  26.823  27.747  1.00  0.00     0.074 A 
ATOM     51  C   UNL A   1      46.598  25.462  27.373  1.00  0.00     0.031 C 
ATOM     52  C   UNL A   1      39.955  26.592  28.758  1.00  0.00     0.029 A 
ATOM     53  C   UNL A   1      40.851  27.730  28.940  1.00  0.00     0.049 A 
ATOM     54  H   UNL A   1      42.879  27.830  28.471  1.00  0.00     0.167 HD
ATOM     55  C   UNL A   1      47.193  27.813  27.879  1.00  0.00     0.034 A 
ATOM     56  C   UNL A   1      40.491  28.927  29.445  1.00  0.00     0.034 A 
ATOM     57  C   UNL A   1      46.871  29.173  28.222  1.00  0.00     0.049 A 
ATOM     58  C   UNL A   1      41.512  30.029  29.527  1.00  0.00     0.074 A 
ATOM     59  C   UNL A   1      47.716  30.268  28.291  1.00  0.00     0.029 A 
ATOM     60  N   UNL A   1      45.608  29.627  28.568  1.00  0.00    -0.354 N 
ATOM     61  N   UNL A   1      42.784  30.001  29.215  1.00  0.00    -0.248 NA
ATOM     62  C   UNL A   1      41.038  31.343  29.988  1.00  0.00     0.031 C 
ATOM     63  C   UNL A   1      46.968  31.375  28.708  1.00  0.00     0.029 A 
ATOM     64  C   UNL A   1      45.650  30.980  28.862  1.00  0.00     0.049 A 
ATOM     65  H   UNL A   1      44.797  29.068  28.601  1.00  0.00     0.167 HD
ATOM     66  C   UNL A   1      43.256  31.294  29.410  1.00  0.00     0.074 A 
ATOM     67  C   UNL A   1      42.125  32.088  29.843  1.00  0.00     0.031 C 
ATOM     68  C   UNL A   1      44.514  31.775  29.254  1.00  0.00     0.034 A 
BRANCH  55  69
ATOM     69  C   UNL A   1      48.636  27.466  27.605  1.00  0.00     0.023 A 
ATOM     70  C   UNL A   1      49.409  26.851  28.613  1.00  0.00     0.012 A 
ATOM     71  C   UNL A   1      49.219  27.710  26.346  1.00  0.00     0.148 A 
ATOM     72  C   UNL A   1      50.749  26.534  28.392  1.00  0.00     0.002 A 
ATOM     73  C   UNL A   1      50.542  27.345  26.116  1.00  0.00     0.091 A 
ATOM     74  F   UNL A   1      48.480  28.309  25.402  1.00  0.00    -0.205 F 
ATOM     75  C   UNL A   1      51.312  26.773  27.142  1.00  0.00     0.022 A 
BRANCH  73  76
ATOM     76  S   UNL A   1      51.334  27.536  24.515  1.00  0.00     0.127 S 
ATOM     77  O   UNL A   1      51.296  28.986  24.337  1.00  0.00    -0.237 OA
ATOM     78  O   UNL A   1      52.669  26.987  24.763  1.00  0.00    -0.237 OA
ATOM     79  O   UNL A   1      50.530  26.766  23.577  1.00  0.00    -0.744 OA
ENDBRANCH  73  76
ENDBRANCH  55  69
BRANCH  56  80
ATOM     80  C   UNL A   1      39.077  29.158  29.855  1.00  0.00     0.023 A 
ATOM     81  C   UNL A   1      38.659  28.804  31.154  1.00  0.00     0.012 A 
ATOM     82  C   UNL A   1      38.158  29.768  28.980  1.00  0.00     0.148 A 
ATOM     83  C   UNL A   1      37.344  29.028  31.562  1.00  0.00     0.002 A 
ATOM     84  C   UNL A   1      36.867  30.042  29.413  1.00  0.00     0.091 A 
ATOM     85  F   UNL A   1      38.574  30.087  27.746  1.00  0.00    -0.205 F 
ATOM     86  C   UNL A   1      36.452  29.658  30.698  1.00  0.00     0.022 A 
BRANCH  84  87
ATOM     87  S   UNL A   1      35.694  30.973  28.422  1.00  0.00     0.127 S 
ATOM     88  O   UNL A   1      34.662  31.297  29.404  1.00  0.00    -0.237 OA
ATOM     89  O   UNL A   1      36.506  32.109  27.983  1.00  0.00    -0.237 OA
ATOM     90  O   UNL A   1      35.286  30.077  27.348  1.00  0.00    -0.744 OA
ENDBRANCH  84  87
ENDBRANCH  56  80
BRANCH  68  91
ATOM     91  C   UNL A   1      44.737  33.244  29.520  1.00  0.00     0.023 A 
ATOM     92  C   UNL A   1      45.115  33.679  30.806  1.00  0.00     0.012 A 
ATOM     93  C   UNL A   1      44.625  34.187  28.478  1.00  0.00     0.148 A 
ATOM     94  C   UNL A   1      45.334  35.034  31.061  1.00  0.00     0.002 A 
ATOM     95  C   UNL A   1      44.897  35.527  28.727  1.00  0.00     0.091 A 
ATOM     96  F   UNL A   1      44.246  33.759  27.265  1.00  0.00    -0.205 F 
ATOM     97  C   UNL A   1      45.236  35.954  30.021  1.00  0.00     0.022 A 
BRANCH  95  98
ATOM     98  S   UNL A   1      44.890  36.766  27.427  1.00  0.00     0.127 S 
ATOM     99  O   UNL A   1      43.493  36.740  26.997  1.00  0.00    -0.237 OA
ATOM    100  O   UNL A   1      45.283  37.978  28.149  1.00  0.00    -0.237 OA
ATOM    101  O   UNL A   1      45.859  36.313  26.438  1.00  0.00    -0.744 OA
ENDBRANCH  95  98
ENDBRANCH  68  91
ENDBRANCH  42  43
ENDBRANCH  34  37
ENDBRANCH  32  33
ENDBRANCH  31  32
ENDBRANCH   1  31
TORSDOF 18
ENDMDL
