MODEL 1
REMARK VINA RESULT:     -11.1      0.000      0.000
REMARK SMILES CCc1ccc(C(=O)N[C@H](C(=O)NCCCCNC(=O)c2ccc(-c3c4nc(c(-c5cccc(S(=O)(=O)[O-])c5F)c5ccc([nH]5)c(-c5cccc(S(=O)(=O)[O-])c5F)c5nc(c(-c6cccc(S(=O)(=O)[O-])c6F)c6ccc3[nH]6)C=C5)C=C4)cc2)[C@H](C)CC)o1
REMARK SMILES IDX 15 1 14 2 13 3 11 4 12 5 10 7 9 8 7 9 8 10 6 12 3 13 4 14
REMARK SMILES IDX 88 15 5 16 2 17 1 18 84 19 85 20 86 21 87 22 16 23 17 24
REMARK SMILES IDX 18 25 19 26 20 28 21 29 22 30 83 31 23 32 82 33 24 34 25 35
REMARK SMILES IDX 26 36 76 37 27 38 81 39 75 40 77 41 28 42 80 43 74 44 73 45
REMARK SMILES IDX 29 47 61 48 41 49 60 50 42 51 45 52 59 53 78 54 43 55 44 56
REMARK SMILES IDX 58 58 79 59 46 60 30 61 31 62 39 63 32 64 34 65 40 66 33 67
REMARK SMILES IDX 35 68 36 69 37 70 38 71 62 72 63 73 71 74 64 75 66 76 72 77
REMARK SMILES IDX 65 78 67 79 68 80 69 81 70 82 47 83 48 84 56 85 49 86 51 87
REMARK SMILES IDX 57 88 50 89 52 90 53 91 54 92 55 93
REMARK H PARENT 13 6 9 11 18 27 77 46 45 57
REMARK Flexibility Score: inf
ROOT
ATOM      1  C   UNL A   1      31.355  31.489  26.374  1.00  0.00     0.023 C 
ENDROOT
BRANCH   1   2
ATOM      2  C   UNL A   1      31.125  30.395  25.329  1.00  0.00     0.116 C 
BRANCH   2   3
ATOM      3  N   UNL A   1      32.386  29.913  24.812  1.00  0.00    -0.354 N 
ATOM      4  C   UNL A   1      32.913  28.675  24.660  1.00  0.00     0.242 C 
ATOM      5  O   UNL A   1      34.106  28.650  24.316  1.00  0.00    -0.273 OA
ATOM      6  H   UNL A   1      32.984  30.633  24.507  1.00  0.00     0.163 HD
BRANCH   4   7
ATOM      7  C   UNL A   1      32.111  27.333  24.777  1.00  0.00     0.174 C 
BRANCH   7   8
ATOM      8  N   UNL A   1      32.049  26.885  23.373  1.00  0.00    -0.337 N 
ATOM      9  C   UNL A   1      31.192  27.125  22.337  1.00  0.00     0.287 C 
ATOM     10  O   UNL A   1      31.408  26.534  21.276  1.00  0.00    -0.266 OA
ATOM     11  H   UNL A   1      32.787  26.280  23.130  1.00  0.00     0.164 HD
BRANCH   9  12
ATOM     12  C   UNL A   1      30.064  28.000  22.532  1.00  0.00     0.191 A 
ATOM     13  C   UNL A   1      28.969  29.887  22.211  1.00  0.00     0.104 A 
ATOM     14  C   UNL A   1      28.135  29.074  22.947  1.00  0.00     0.046 A 
ATOM     15  O   UNL A   1      30.144  29.248  21.974  1.00  0.00    -0.456 OA
ATOM     16  C   UNL A   1      28.850  27.874  23.180  1.00  0.00     0.056 A 
BRANCH  13  17
ATOM     17  C   UNL A   1      28.854  31.246  21.625  1.00  0.00     0.072 C 
ATOM     18  C   UNL A   1      28.413  32.285  22.642  1.00  0.00     0.012 C 
ENDBRANCH  13  17
ENDBRANCH   9  12
ENDBRANCH   7   8
BRANCH   7  19
ATOM     19  C   UNL A   1      32.696  26.286  25.775  1.00  0.00     0.018 C 
ATOM     20  C   UNL A   1      34.008  25.605  25.360  1.00  0.00     0.010 C 
BRANCH  19  21
ATOM     21  C   UNL A   1      31.633  25.196  26.090  1.00  0.00     0.002 C 
ATOM     22  C   UNL A   1      30.206  25.731  26.111  1.00  0.00     0.004 C 
ENDBRANCH  19  21
ENDBRANCH   7  19
ENDBRANCH   4   7
ENDBRANCH   2   3
ENDBRANCH   1   2
BRANCH   1  23
ATOM     23  C   UNL A   1      32.562  31.235  27.276  1.00  0.00     0.023 C 
BRANCH  23  24
ATOM     24  C   UNL A   1      33.541  32.397  27.391  1.00  0.00     0.116 C 
BRANCH  24  25
ATOM     25  N   UNL A   1      32.908  33.688  27.632  1.00  0.00    -0.352 N 
ATOM     26  C   UNL A   1      33.214  34.599  28.621  1.00  0.00     0.251 C 
ATOM     27  H   UNL A   1      32.180  33.937  27.019  1.00  0.00     0.163 HD
ATOM     28  O   UNL A   1      32.567  35.628  28.750  1.00  0.00    -0.269 OA
BRANCH  26  29
ATOM     29  C   UNL A   1      34.313  34.271  29.551  1.00  0.00     0.039 A 
ATOM     30  C   UNL A   1      34.031  33.506  30.683  1.00  0.00     0.014 A 
ATOM     31  C   UNL A   1      35.629  34.606  29.223  1.00  0.00     0.014 A 
ATOM     32  C   UNL A   1      35.085  33.001  31.446  1.00  0.00     0.010 A 
ATOM     33  C   UNL A   1      36.676  34.038  29.938  1.00  0.00     0.010 A 
ATOM     34  C   UNL A   1      36.416  33.222  31.051  1.00  0.00    -0.014 A 
BRANCH  34  35
ATOM     35  C   UNL A   1      37.549  32.581  31.766  1.00  0.00     0.031 A 
ATOM     36  C   UNL A   1      38.267  31.413  31.150  1.00  0.00     0.074 A 
ATOM     37  C   UNL A   1      37.862  32.985  33.014  1.00  0.00     0.049 A 
ATOM     38  N   UNL A   1      39.241  30.693  31.642  1.00  0.00    -0.248 NA
ATOM     39  C   UNL A   1      37.810  30.973  29.820  1.00  0.00     0.031 C 
ATOM     40  C   UNL A   1      37.171  34.037  33.764  1.00  0.00     0.029 A 
ATOM     41  N   UNL A   1      38.829  32.543  33.883  1.00  0.00    -0.354 N 
ATOM     42  C   UNL A   1      39.487  29.697  30.706  1.00  0.00     0.074 A 
ATOM     43  C   UNL A   1      38.533  29.879  29.634  1.00  0.00     0.031 C 
ATOM     44  C   UNL A   1      37.744  34.166  34.973  1.00  0.00     0.029 A 
ATOM     45  C   UNL A   1      38.828  33.197  35.094  1.00  0.00     0.049 A 
ATOM     46  H   UNL A   1      39.463  31.824  33.660  1.00  0.00     0.167 HD
ATOM     47  C   UNL A   1      40.445  28.740  30.716  1.00  0.00     0.034 A 
ATOM     48  C   UNL A   1      39.618  33.039  36.174  1.00  0.00     0.034 A 
ATOM     49  C   UNL A   1      41.434  28.604  31.748  1.00  0.00     0.049 A 
ATOM     50  C   UNL A   1      40.728  32.023  36.123  1.00  0.00     0.074 A 
ATOM     51  C   UNL A   1      42.507  27.735  31.803  1.00  0.00     0.029 A 
ATOM     52  N   UNL A   1      41.474  29.364  32.907  1.00  0.00    -0.354 N 
ATOM     53  N   UNL A   1      41.055  31.208  35.150  1.00  0.00    -0.248 NA
ATOM     54  C   UNL A   1      41.605  31.936  37.300  1.00  0.00     0.031 C 
ATOM     55  C   UNL A   1      43.199  27.967  32.997  1.00  0.00     0.029 A 
ATOM     56  C   UNL A   1      42.557  28.987  33.682  1.00  0.00     0.049 A 
ATOM     57  H   UNL A   1      40.829  30.068  33.144  1.00  0.00     0.167 HD
ATOM     58  C   UNL A   1      42.193  30.537  35.581  1.00  0.00     0.074 A 
ATOM     59  C   UNL A   1      42.512  31.058  36.895  1.00  0.00     0.031 C 
ATOM     60  C   UNL A   1      42.898  29.561  34.957  1.00  0.00     0.034 A 
BRANCH  47  61
ATOM     61  C   UNL A   1      40.520  27.818  29.528  1.00  0.00     0.023 A 
ATOM     62  C   UNL A   1      39.617  26.738  29.440  1.00  0.00     0.012 A 
ATOM     63  C   UNL A   1      41.436  28.042  28.484  1.00  0.00     0.148 A 
ATOM     64  C   UNL A   1      39.648  25.875  28.346  1.00  0.00     0.002 A 
ATOM     65  C   UNL A   1      41.432  27.202  27.377  1.00  0.00     0.091 A 
ATOM     66  F   UNL A   1      42.301  29.060  28.598  1.00  0.00    -0.205 F 
ATOM     67  C   UNL A   1      40.546  26.112  27.311  1.00  0.00     0.022 A 
BRANCH  65  68
ATOM     68  S   UNL A   1      42.503  27.464  25.958  1.00  0.00     0.127 S 
ATOM     69  O   UNL A   1      42.157  28.833  25.576  1.00  0.00    -0.237 OA
ATOM     70  O   UNL A   1      43.835  27.314  26.545  1.00  0.00    -0.237 OA
ATOM     71  O   UNL A   1      42.147  26.434  24.993  1.00  0.00    -0.744 OA
ENDBRANCH  65  68
ENDBRANCH  47  61
BRANCH  48  72
ATOM     72  C   UNL A   1      39.450  33.928  37.358  1.00  0.00     0.023 A 
ATOM     73  C   UNL A   1      39.902  35.260  37.285  1.00  0.00     0.012 A 
ATOM     74  C   UNL A   1      38.831  33.479  38.540  1.00  0.00     0.148 A 
ATOM     75  C   UNL A   1      39.772  36.120  38.376  1.00  0.00     0.002 A 
ATOM     76  C   UNL A   1      38.656  34.356  39.606  1.00  0.00     0.091 A 
ATOM     77  F   UNL A   1      38.421  32.204  38.600  1.00  0.00    -0.205 F 
ATOM     78  C   UNL A   1      39.140  35.671  39.532  1.00  0.00     0.022 A 
BRANCH  76  79
ATOM     79  S   UNL A   1      37.736  33.892  41.078  1.00  0.00     0.127 S 
ATOM     80  O   UNL A   1      38.662  32.973  41.734  1.00  0.00    -0.237 OA
ATOM     81  O   UNL A   1      37.563  35.180  41.752  1.00  0.00    -0.237 OA
ATOM     82  O   UNL A   1      36.495  33.310  40.585  1.00  0.00    -0.744 OA
ENDBRANCH  76  79
ENDBRANCH  48  72
BRANCH  60  83
ATOM     83  C   UNL A   1      44.103  29.008  35.669  1.00  0.00     0.023 A 
ATOM     84  C   UNL A   1      45.347  29.656  35.535  1.00  0.00     0.012 A 
ATOM     85  C   UNL A   1      43.988  27.897  36.527  1.00  0.00     0.148 A 
ATOM     86  C   UNL A   1      46.465  29.191  36.225  1.00  0.00     0.002 A 
ATOM     87  C   UNL A   1      45.098  27.466  37.246  1.00  0.00     0.091 A 
ATOM     88  F   UNL A   1      42.802  27.280  36.624  1.00  0.00    -0.205 F 
ATOM     89  C   UNL A   1      46.338  28.105  37.089  1.00  0.00     0.022 A 
BRANCH  87  90
ATOM     90  S   UNL A   1      44.996  26.135  38.447  1.00  0.00     0.127 S 
ATOM     91  O   UNL A   1      46.397  25.976  38.837  1.00  0.00    -0.237 OA
ATOM     92  O   UNL A   1      44.137  26.710  39.484  1.00  0.00    -0.237 OA
ATOM     93  O   UNL A   1      44.406  25.007  37.738  1.00  0.00    -0.744 OA
ENDBRANCH  87  90
ENDBRANCH  60  83
ENDBRANCH  34  35
ENDBRANCH  26  29
ENDBRANCH  24  25
ENDBRANCH  23  24
ENDBRANCH   1  23
TORSDOF 19
ENDMDL
MODEL 2
REMARK VINA RESULT:     -10.9      3.092      8.818
REMARK SMILES CCc1ccc(C(=O)N[C@H](C(=O)NCCCCNC(=O)c2ccc(-c3c4nc(c(-c5cccc(S(=O)(=O)[O-])c5F)c5ccc([nH]5)c(-c5cccc(S(=O)(=O)[O-])c5F)c5nc(c(-c6cccc(S(=O)(=O)[O-])c6F)c6ccc3[nH]6)C=C5)C=C4)cc2)[C@H](C)CC)o1
REMARK SMILES IDX 15 1 14 2 13 3 11 4 12 5 10 7 9 8 7 9 8 10 6 12 3 13 4 14
REMARK SMILES IDX 88 15 5 16 2 17 1 18 84 19 85 20 86 21 87 22 16 23 17 24
REMARK SMILES IDX 18 25 19 26 20 28 21 29 22 30 83 31 23 32 82 33 24 34 25 35
REMARK SMILES IDX 26 36 76 37 27 38 81 39 75 40 77 41 28 42 80 43 74 44 73 45
REMARK SMILES IDX 29 47 61 48 41 49 60 50 42 51 45 52 59 53 78 54 43 55 44 56
REMARK SMILES IDX 58 58 79 59 46 60 30 61 31 62 39 63 32 64 34 65 40 66 33 67
REMARK SMILES IDX 35 68 36 69 37 70 38 71 62 72 63 73 71 74 64 75 66 76 72 77
REMARK SMILES IDX 65 78 67 79 68 80 69 81 70 82 47 83 48 84 56 85 49 86 51 87
REMARK SMILES IDX 57 88 50 89 52 90 53 91 54 92 55 93
REMARK H PARENT 13 6 9 11 18 27 77 46 45 57
REMARK Flexibility Score: inf
ROOT
ATOM      1  C   UNL A   1      31.779  28.142  27.147  1.00  0.00     0.023 C 
ENDROOT
BRANCH   1   2
ATOM      2  C   UNL A   1      32.353  26.856  26.547  1.00  0.00     0.116 C 
BRANCH   2   3
ATOM      3  N   UNL A   1      31.633  25.702  27.036  1.00  0.00    -0.354 N 
ATOM      4  C   UNL A   1      31.371  24.482  26.510  1.00  0.00     0.242 C 
ATOM      5  O   UNL A   1      30.578  23.787  27.166  1.00  0.00    -0.273 OA
ATOM      6  H   UNL A   1      31.257  25.829  27.937  1.00  0.00     0.163 HD
BRANCH   4   7
ATOM      7  C   UNL A   1      32.066  23.880  25.241  1.00  0.00     0.174 C 
BRANCH   7   8
ATOM      8  N   UNL A   1      32.187  22.455  25.598  1.00  0.00    -0.337 N 
ATOM      9  C   UNL A   1      33.239  21.638  25.901  1.00  0.00     0.287 C 
ATOM     10  O   UNL A   1      32.990  20.449  26.111  1.00  0.00    -0.266 OA
ATOM     11  H   UNL A   1      31.319  21.991  25.625  1.00  0.00     0.164 HD
BRANCH   9  12
ATOM     12  C   UNL A   1      34.577  22.173  25.916  1.00  0.00     0.191 A 
ATOM     13  C   UNL A   1      36.740  22.054  25.506  1.00  0.00     0.104 A 
ATOM     14  C   UNL A   1      36.505  23.323  25.990  1.00  0.00     0.046 A 
ATOM     15  O   UNL A   1      35.579  21.350  25.478  1.00  0.00    -0.456 OA
ATOM     16  C   UNL A   1      35.121  23.389  26.282  1.00  0.00     0.056 A 
BRANCH  13  17
ATOM     17  C   UNL A   1      37.936  21.331  25.007  1.00  0.00     0.072 C 
ATOM     18  C   UNL A   1      37.713  19.831  24.907  1.00  0.00     0.012 C 
ENDBRANCH  13  17
ENDBRANCH   9  12
ENDBRANCH   7   8
BRANCH   7  19
ATOM     19  C   UNL A   1      31.344  24.157  23.886  1.00  0.00     0.018 C 
ATOM     20  C   UNL A   1      31.054  22.935  23.003  1.00  0.00     0.010 C 
BRANCH  19  21
ATOM     21  C   UNL A   1      32.141  25.205  23.059  1.00  0.00     0.002 C 
ATOM     22  C   UNL A   1      31.422  26.542  22.923  1.00  0.00     0.004 C 
ENDBRANCH  19  21
ENDBRANCH   7  19
ENDBRANCH   4   7
ENDBRANCH   2   3
ENDBRANCH   1   2
BRANCH   1  23
ATOM     23  C   UNL A   1      31.609  29.272  26.131  1.00  0.00     0.023 C 
BRANCH  23  24
ATOM     24  C   UNL A   1      32.795  30.222  26.015  1.00  0.00     0.116 C 
BRANCH  24  25
ATOM     25  N   UNL A   1      32.550  31.551  26.562  1.00  0.00    -0.352 N 
ATOM     26  C   UNL A   1      33.369  32.276  27.402  1.00  0.00     0.251 C 
ATOM     27  H   UNL A   1      31.703  31.979  26.303  1.00  0.00     0.163 HD
ATOM     28  O   UNL A   1      33.021  33.364  27.837  1.00  0.00    -0.269 OA
BRANCH  26  29
ATOM     29  C   UNL A   1      34.659  31.675  27.800  1.00  0.00     0.039 A 
ATOM     30  C   UNL A   1      35.777  32.501  27.921  1.00  0.00     0.014 A 
ATOM     31  C   UNL A   1      34.716  30.332  28.180  1.00  0.00     0.014 A 
ATOM     32  C   UNL A   1      36.938  31.995  28.509  1.00  0.00     0.010 A 
ATOM     33  C   UNL A   1      35.845  29.856  28.835  1.00  0.00     0.010 A 
ATOM     34  C   UNL A   1      36.964  30.684  29.014  1.00  0.00    -0.014 A 
BRANCH  34  35
ATOM     35  C   UNL A   1      38.138  30.171  29.765  1.00  0.00     0.031 A 
ATOM     36  C   UNL A   1      38.395  30.631  31.173  1.00  0.00     0.074 A 
ATOM     37  C   UNL A   1      39.029  29.372  29.143  1.00  0.00     0.049 A 
ATOM     38  N   UNL A   1      39.390  30.337  31.967  1.00  0.00    -0.248 NA
ATOM     39  C   UNL A   1      37.423  31.574  31.756  1.00  0.00     0.031 C 
ATOM     40  C   UNL A   1      38.950  28.939  27.745  1.00  0.00     0.029 A 
ATOM     41  N   UNL A   1      40.190  28.799  29.599  1.00  0.00    -0.354 N 
ATOM     42  C   UNL A   1      39.189  31.081  33.122  1.00  0.00     0.074 A 
ATOM     43  C   UNL A   1      37.997  31.874  32.911  1.00  0.00     0.031 C 
ATOM     44  C   UNL A   1      40.009  28.162  27.463  1.00  0.00     0.029 A 
ATOM     45  C   UNL A   1      40.851  28.053  28.650  1.00  0.00     0.049 A 
ATOM     46  H   UNL A   1      40.520  28.912  30.520  1.00  0.00     0.167 HD
ATOM     47  C   UNL A   1      39.905  31.078  34.271  1.00  0.00     0.034 A 
ATOM     48  C   UNL A   1      42.000  27.354  28.730  1.00  0.00     0.034 A 
ATOM     49  C   UNL A   1      41.047  30.239  34.502  1.00  0.00     0.049 A 
ATOM     50  C   UNL A   1      42.731  27.302  30.045  1.00  0.00     0.074 A 
ATOM     51  C   UNL A   1      41.781  30.087  35.664  1.00  0.00     0.029 A 
ATOM     52  N   UNL A   1      41.620  29.405  33.554  1.00  0.00    -0.354 N 
ATOM     53  N   UNL A   1      42.422  27.876  31.183  1.00  0.00    -0.248 NA
ATOM     54  C   UNL A   1      43.943  26.472  30.101  1.00  0.00     0.031 C 
ATOM     55  C   UNL A   1      42.800  29.160  35.419  1.00  0.00     0.029 A 
ATOM     56  C   UNL A   1      42.695  28.731  34.105  1.00  0.00     0.049 A 
ATOM     57  H   UNL A   1      41.307  29.307  32.626  1.00  0.00     0.167 HD
ATOM     58  C   UNL A   1      43.380  27.450  32.097  1.00  0.00     0.074 A 
ATOM     59  C   UNL A   1      44.264  26.551  31.385  1.00  0.00     0.031 C 
ATOM     60  C   UNL A   1      43.527  27.790  33.401  1.00  0.00     0.034 A 
BRANCH  47  61
ATOM     61  C   UNL A   1      39.419  31.951  35.396  1.00  0.00     0.023 A 
ATOM     62  C   UNL A   1      38.525  31.413  36.345  1.00  0.00     0.012 A 
ATOM     63  C   UNL A   1      39.876  33.274  35.547  1.00  0.00     0.148 A 
ATOM     64  C   UNL A   1      38.069  32.189  37.410  1.00  0.00     0.002 A 
ATOM     65  C   UNL A   1      39.449  34.027  36.634  1.00  0.00     0.091 A 
ATOM     66  F   UNL A   1      40.706  33.775  34.620  1.00  0.00    -0.205 F 
ATOM     67  C   UNL A   1      38.537  33.490  37.560  1.00  0.00     0.022 A 
BRANCH  65  68
ATOM     68  S   UNL A   1      40.048  35.690  36.956  1.00  0.00     0.127 S 
ATOM     69  O   UNL A   1      39.366  36.013  38.209  1.00  0.00    -0.237 OA
ATOM     70  O   UNL A   1      41.491  35.478  37.086  1.00  0.00    -0.237 OA
ATOM     71  O   UNL A   1      39.654  36.486  35.803  1.00  0.00    -0.744 OA
ENDBRANCH  65  68
ENDBRANCH  47  61
BRANCH  48  72
ATOM     72  C   UNL A   1      42.480  26.568  27.558  1.00  0.00     0.023 A 
ATOM     73  C   UNL A   1      43.294  27.199  26.597  1.00  0.00     0.012 A 
ATOM     74  C   UNL A   1      42.162  25.207  27.399  1.00  0.00     0.148 A 
ATOM     75  C   UNL A   1      43.754  26.499  25.481  1.00  0.00     0.002 A 
ATOM     76  C   UNL A   1      42.667  24.500  26.313  1.00  0.00     0.091 A 
ATOM     77  F   UNL A   1      41.373  24.625  28.314  1.00  0.00    -0.205 F 
ATOM     78  C   UNL A   1      43.450  25.148  25.344  1.00  0.00     0.022 A 
BRANCH  76  79
ATOM     79  S   UNL A   1      42.430  22.728  26.136  1.00  0.00     0.127 S 
ATOM     80  O   UNL A   1      43.142  22.212  27.302  1.00  0.00    -0.237 OA
ATOM     81  O   UNL A   1      40.973  22.604  26.198  1.00  0.00    -0.237 OA
ATOM     82  O   UNL A   1      42.998  22.393  24.837  1.00  0.00    -0.744 OA
ENDBRANCH  76  79
ENDBRANCH  48  72
BRANCH  60  83
ATOM     83  C   UNL A   1      44.668  27.168  34.160  1.00  0.00     0.023 A 
ATOM     84  C   UNL A   1      45.938  27.777  34.125  1.00  0.00     0.012 A 
ATOM     85  C   UNL A   1      44.465  26.031  34.965  1.00  0.00     0.148 A 
ATOM     86  C   UNL A   1      46.997  27.247  34.861  1.00  0.00     0.002 A 
ATOM     87  C   UNL A   1      45.515  25.534  35.730  1.00  0.00     0.091 A 
ATOM     88  F   UNL A   1      43.256  25.452  34.967  1.00  0.00    -0.205 F 
ATOM     89  C   UNL A   1      46.783  26.135  35.671  1.00  0.00     0.022 A 
BRANCH  87  90
ATOM     90  S   UNL A   1      45.297  24.163  36.870  1.00  0.00     0.127 S 
ATOM     91  O   UNL A   1      46.635  24.040  37.449  1.00  0.00    -0.237 OA
ATOM     92  O   UNL A   1      44.281  24.676  37.789  1.00  0.00    -0.237 OA
ATOM     93  O   UNL A   1      44.857  23.039  36.055  1.00  0.00    -0.744 OA
ENDBRANCH  87  90
ENDBRANCH  60  83
ENDBRANCH  34  35
ENDBRANCH  26  29
ENDBRANCH  24  25
ENDBRANCH  23  24
ENDBRANCH   1  23
TORSDOF 19
ENDMDL
MODEL 3
REMARK VINA RESULT:     -10.6      2.405      3.285
REMARK SMILES CCc1ccc(C(=O)N[C@H](C(=O)NCCCCNC(=O)c2ccc(-c3c4nc(c(-c5cccc(S(=O)(=O)[O-])c5F)c5ccc([nH]5)c(-c5cccc(S(=O)(=O)[O-])c5F)c5nc(c(-c6cccc(S(=O)(=O)[O-])c6F)c6ccc3[nH]6)C=C5)C=C4)cc2)[C@H](C)CC)o1
REMARK SMILES IDX 15 1 14 2 13 3 11 4 12 5 10 7 9 8 7 9 8 10 6 12 3 13 4 14
REMARK SMILES IDX 88 15 5 16 2 17 1 18 84 19 85 20 86 21 87 22 16 23 17 24
REMARK SMILES IDX 18 25 19 26 20 28 21 29 22 30 83 31 23 32 82 33 24 34 25 35
REMARK SMILES IDX 26 36 76 37 27 38 81 39 75 40 77 41 28 42 80 43 74 44 73 45
REMARK SMILES IDX 29 47 61 48 41 49 60 50 42 51 45 52 59 53 78 54 43 55 44 56
REMARK SMILES IDX 58 58 79 59 46 60 30 61 31 62 39 63 32 64 34 65 40 66 33 67
REMARK SMILES IDX 35 68 36 69 37 70 38 71 62 72 63 73 71 74 64 75 66 76 72 77
REMARK SMILES IDX 65 78 67 79 68 80 69 81 70 82 47 83 48 84 56 85 49 86 51 87
REMARK SMILES IDX 57 88 50 89 52 90 53 91 54 92 55 93
REMARK H PARENT 13 6 9 11 18 27 77 46 45 57
REMARK Flexibility Score: inf
ROOT
ATOM      1  C   UNL A   1      31.860  27.865  27.077  1.00  0.00     0.023 C 
ENDROOT
BRANCH   1   2
ATOM      2  C   UNL A   1      31.490  26.656  26.215  1.00  0.00     0.116 C 
BRANCH   2   3
ATOM      3  N   UNL A   1      32.677  25.931  25.820  1.00  0.00    -0.354 N 
ATOM      4  C   UNL A   1      32.890  24.887  24.985  1.00  0.00     0.242 C 
ATOM      5  O   UNL A   1      34.041  24.423  25.007  1.00  0.00    -0.273 OA
ATOM      6  H   UNL A   1      33.500  26.267  26.245  1.00  0.00     0.163 HD
BRANCH   4   7
ATOM      7  C   UNL A   1      31.848  24.330  23.955  1.00  0.00     0.174 C 
BRANCH   7   8
ATOM      8  N   UNL A   1      32.524  24.569  22.667  1.00  0.00    -0.337 N 
ATOM      9  C   UNL A   1      32.691  25.667  21.871  1.00  0.00     0.287 C 
ATOM     10  O   UNL A   1      33.285  25.506  20.803  1.00  0.00    -0.266 OA
ATOM     11  H   UNL A   1      32.949  23.760  22.300  1.00  0.00     0.164 HD
BRANCH   9  12
ATOM     12  C   UNL A   1      32.135  26.933  22.277  1.00  0.00     0.191 A 
ATOM     13  C   UNL A   1      30.447  28.283  22.710  1.00  0.00     0.104 A 
ATOM     14  C   UNL A   1      31.593  28.975  23.039  1.00  0.00     0.046 A 
ATOM     15  O   UNL A   1      30.773  27.055  22.231  1.00  0.00    -0.456 OA
ATOM     16  C   UNL A   1      32.678  28.119  22.732  1.00  0.00     0.056 A 
BRANCH  13  17
ATOM     17  C   UNL A   1      28.993  28.573  22.786  1.00  0.00     0.072 C 
ATOM     18  C   UNL A   1      28.674  30.035  22.524  1.00  0.00     0.012 C 
ENDBRANCH  13  17
ENDBRANCH   9  12
ENDBRANCH   7   8
BRANCH   7  19
ATOM     19  C   UNL A   1      31.391  22.857  24.193  1.00  0.00     0.018 C 
ATOM     20  C   UNL A   1      31.364  22.376  25.651  1.00  0.00     0.010 C 
BRANCH  19  21
ATOM     21  C   UNL A   1      32.266  21.884  23.352  1.00  0.00     0.002 C 
ATOM     22  C   UNL A   1      33.255  21.083  24.190  1.00  0.00     0.004 C 
ENDBRANCH  19  21
ENDBRANCH   7  19
ENDBRANCH   4   7
ENDBRANCH   2   3
ENDBRANCH   1   2
BRANCH   1  23
ATOM     23  C   UNL A   1      31.519  29.208  26.431  1.00  0.00     0.023 C 
BRANCH  23  24
ATOM     24  C   UNL A   1      32.701  30.149  26.230  1.00  0.00     0.116 C 
BRANCH  24  25
ATOM     25  N   UNL A   1      32.438  31.529  26.616  1.00  0.00    -0.352 N 
ATOM     26  C   UNL A   1      33.248  32.360  27.360  1.00  0.00     0.251 C 
ATOM     27  H   UNL A   1      31.584  31.911  26.312  1.00  0.00     0.163 HD
ATOM     28  O   UNL A   1      32.885  33.487  27.665  1.00  0.00    -0.269 OA
BRANCH  26  29
ATOM     29  C   UNL A   1      34.547  31.830  27.822  1.00  0.00     0.039 A 
ATOM     30  C   UNL A   1      35.616  32.713  27.982  1.00  0.00     0.014 A 
ATOM     31  C   UNL A   1      34.655  30.495  28.219  1.00  0.00     0.014 A 
ATOM     32  C   UNL A   1      36.774  32.273  28.625  1.00  0.00     0.010 A 
ATOM     33  C   UNL A   1      35.778  30.083  28.928  1.00  0.00     0.010 A 
ATOM     34  C   UNL A   1      36.844  30.969  29.147  1.00  0.00    -0.014 A 
BRANCH  34  35
ATOM     35  C   UNL A   1      38.009  30.524  29.953  1.00  0.00     0.031 A 
ATOM     36  C   UNL A   1      38.976  29.518  29.393  1.00  0.00     0.074 A 
ATOM     37  C   UNL A   1      38.137  30.947  31.228  1.00  0.00     0.049 A 
ATOM     38  N   UNL A   1      40.017  28.971  29.962  1.00  0.00    -0.248 NA
ATOM     39  C   UNL A   1      38.720  29.036  28.024  1.00  0.00     0.031 C 
ATOM     40  C   UNL A   1      37.207  31.840  31.923  1.00  0.00     0.029 A 
ATOM     41  N   UNL A   1      39.090  30.663  32.174  1.00  0.00    -0.354 N 
ATOM     42  C   UNL A   1      40.517  28.058  29.044  1.00  0.00     0.074 A 
ATOM     43  C   UNL A   1      39.641  28.093  27.893  1.00  0.00     0.031 C 
ATOM     44  C   UNL A   1      37.642  32.039  33.179  1.00  0.00     0.029 A 
ATOM     45  C   UNL A   1      38.869  31.277  33.386  1.00  0.00     0.049 A 
ATOM     46  H   UNL A   1      39.860  30.074  32.002  1.00  0.00     0.167 HD
ATOM     47  C   UNL A   1      41.627  27.288  29.129  1.00  0.00     0.034 A 
ATOM     48  C   UNL A   1      39.579  31.236  34.530  1.00  0.00     0.034 A 
ATOM     49  C   UNL A   1      42.533  27.306  30.244  1.00  0.00     0.049 A 
ATOM     50  C   UNL A   1      40.854  30.437  34.568  1.00  0.00     0.074 A 
ATOM     51  C   UNL A   1      43.737  26.640  30.385  1.00  0.00     0.029 A 
ATOM     52  N   UNL A   1      42.338  28.032  31.408  1.00  0.00    -0.354 N 
ATOM     53  N   UNL A   1      41.404  29.717  33.621  1.00  0.00    -0.248 NA
ATOM     54  C   UNL A   1      41.629  30.478  35.818  1.00  0.00     0.031 C 
ATOM     55  C   UNL A   1      44.271  26.964  31.638  1.00  0.00     0.029 A 
ATOM     56  C   UNL A   1      43.400  27.835  32.272  1.00  0.00     0.049 A 
ATOM     57  H   UNL A   1      41.558  28.604  31.593  1.00  0.00     0.167 HD
ATOM     58  C   UNL A   1      42.604  29.249  34.145  1.00  0.00     0.074 A 
ATOM     59  C   UNL A   1      42.711  29.787  35.486  1.00  0.00     0.031 C 
ATOM     60  C   UNL A   1      43.523  28.430  33.578  1.00  0.00     0.034 A 
BRANCH  47  61
ATOM     61  C   UNL A   1      41.967  26.423  27.945  1.00  0.00     0.023 A 
ATOM     62  C   UNL A   1      42.792  26.946  26.928  1.00  0.00     0.012 A 
ATOM     63  C   UNL A   1      41.521  25.091  27.860  1.00  0.00     0.148 A 
ATOM     64  C   UNL A   1      43.141  26.167  25.826  1.00  0.00     0.002 A 
ATOM     65  C   UNL A   1      41.908  24.307  26.778  1.00  0.00     0.091 A 
ATOM     66  F   UNL A   1      40.719  24.620  28.824  1.00  0.00    -0.205 F 
ATOM     67  C   UNL A   1      42.708  24.847  25.756  1.00  0.00     0.022 A 
BRANCH  65  68
ATOM     68  S   UNL A   1      41.461  22.574  26.630  1.00  0.00     0.127 S 
ATOM     69  O   UNL A   1      42.127  22.202  25.382  1.00  0.00    -0.237 OA
ATOM     70  O   UNL A   1      42.059  21.996  27.835  1.00  0.00    -0.237 OA
ATOM     71  O   UNL A   1      40.006  22.538  26.600  1.00  0.00    -0.744 OA
ENDBRANCH  65  68
ENDBRANCH  47  61
BRANCH  48  72
ATOM     72  C   UNL A   1      39.154  32.052  35.703  1.00  0.00     0.023 A 
ATOM     73  C   UNL A   1      38.241  31.504  36.625  1.00  0.00     0.012 A 
ATOM     74  C   UNL A   1      39.658  33.347  35.926  1.00  0.00     0.148 A 
ATOM     75  C   UNL A   1      37.811  32.240  37.729  1.00  0.00     0.002 A 
ATOM     76  C   UNL A   1      39.267  34.056  37.057  1.00  0.00     0.091 A 
ATOM     77  F   UNL A   1      40.513  33.861  35.031  1.00  0.00    -0.205 F 
ATOM     78  C   UNL A   1      38.332  33.511  37.951  1.00  0.00     0.022 A 
BRANCH  76  79
ATOM     79  S   UNL A   1      39.992  35.644  37.482  1.00  0.00     0.127 S 
ATOM     80  O   UNL A   1      39.630  36.459  36.326  1.00  0.00    -0.237 OA
ATOM     81  O   UNL A   1      39.288  35.984  38.720  1.00  0.00    -0.237 OA
ATOM     82  O   UNL A   1      41.413  35.380  37.662  1.00  0.00    -0.744 OA
ENDBRANCH  76  79
ENDBRANCH  48  72
BRANCH  60  83
ATOM     83  C   UNL A   1      44.743  28.084  34.387  1.00  0.00     0.023 A 
ATOM     84  C   UNL A   1      45.886  28.902  34.306  1.00  0.00     0.012 A 
ATOM     85  C   UNL A   1      44.730  26.997  35.283  1.00  0.00     0.148 A 
ATOM     86  C   UNL A   1      47.009  28.630  35.085  1.00  0.00     0.002 A 
ATOM     87  C   UNL A   1      45.838  26.758  36.090  1.00  0.00     0.091 A 
ATOM     88  F   UNL A   1      43.641  26.216  35.331  1.00  0.00    -0.205 F 
ATOM     89  C   UNL A   1      46.981  27.566  35.985  1.00  0.00     0.022 A 
BRANCH  87  90
ATOM     90  S   UNL A   1      45.846  25.467  37.338  1.00  0.00     0.127 S 
ATOM     91  O   UNL A   1      45.755  24.258  36.520  1.00  0.00    -0.237 OA
ATOM     92  O   UNL A   1      47.141  25.665  37.989  1.00  0.00    -0.237 OA
ATOM     93  O   UNL A   1      44.698  25.738  38.194  1.00  0.00    -0.744 OA
ENDBRANCH  87  90
ENDBRANCH  60  83
ENDBRANCH  34  35
ENDBRANCH  26  29
ENDBRANCH  24  25
ENDBRANCH  23  24
ENDBRANCH   1  23
TORSDOF 19
ENDMDL
