MODEL 1
REMARK VINA RESULT:     -11.1      0.000      0.000
REMARK SMILES O=C(CCNC(=O)c1cc(S(=O)(=O)N2CCCCC2)cs1)NCCCCNC(=O)c1ccc(-c2c3nc(c(-c4cccc(S(=O)(=O)[O-])c4F)c4ccc([nH]4)c(-c4cccc(S(=O)(=O)[O-])c4F)c4nc(c(-c5cccc(S(=O)(=O)[O-])c5F)c5ccc2[nH]5)C=C4)C=C3)cc1
REMARK SMILES IDX 23 1 22 2 1 3 2 4 3 6 4 7 5 8 6 9 7 11 8 12 9 13 21 14 10 15
REMARK SMILES IDX 20 16 11 17 12 18 13 19 14 20 15 21 19 22 16 23 18 24 17 25
REMARK SMILES IDX 24 26 25 27 26 28 27 29 28 30 29 32 30 33 31 34 92 35 32 36
REMARK SMILES IDX 91 37 33 38 34 39 35 40 85 41 36 42 90 43 84 44 86 45 37 46
REMARK SMILES IDX 89 47 83 48 82 49 38 51 70 52 50 53 69 54 51 55 54 56 68 57
REMARK SMILES IDX 87 58 52 59 53 60 67 62 88 63 55 64 39 65 40 66 48 67 41 68
REMARK SMILES IDX 43 69 49 70 42 71 44 72 45 73 46 74 47 75 71 76 72 77 80 78
REMARK SMILES IDX 73 79 75 80 81 81 74 82 76 83 77 84 78 85 79 86 56 87 57 88
REMARK SMILES IDX 65 89 58 90 60 91 66 92 59 93 61 94 62 95 63 96 64 97
REMARK H PARENT 22 5 5 10 27 31 86 50 54 61
REMARK Flexibility Score: inf
ROOT
ATOM      1  C   UNL A   1      37.188  22.331  25.504  1.00  0.00     0.116 C 
ENDROOT
BRANCH   1   2
ATOM      2  N   UNL A   1      36.067  22.149  26.402  1.00  0.00    -0.356 N 
ATOM      3  O   UNL A   1      34.887  24.009  25.733  1.00  0.00    -0.275 OA
ATOM      4  C   UNL A   1      35.001  23.016  26.442  1.00  0.00     0.221 C 
ATOM      5  H   UNL A   1      36.069  21.374  27.009  1.00  0.00     0.163 HD
BRANCH   4   6
ATOM      6  C   UNL A   1      33.926  22.597  27.412  1.00  0.00     0.121 C 
BRANCH   6   7
ATOM      7  C   UNL A   1      32.596  22.464  26.684  1.00  0.00     0.126 C 
BRANCH   7   8
ATOM      8  N   UNL A   1      32.663  21.515  25.578  1.00  0.00    -0.351 N 
ATOM      9  C   UNL A   1      32.339  21.689  24.247  1.00  0.00     0.261 C 
ATOM     10  H   UNL A   1      32.987  20.616  25.816  1.00  0.00     0.163 HD
ATOM     11  O   UNL A   1      32.164  20.671  23.581  1.00  0.00    -0.268 OA
BRANCH   9  12
ATOM     12  C   UNL A   1      32.275  23.040  23.730  1.00  0.00     0.093 A 
ATOM     13  C   UNL A   1      31.450  24.065  24.152  1.00  0.00     0.047 A 
ATOM     14  S   UNL A   1      33.321  23.567  22.489  1.00  0.00    -0.137 S 
ATOM     15  C   UNL A   1      31.550  25.228  23.341  1.00  0.00     0.094 A 
ATOM     16  C   UNL A   1      32.560  25.106  22.411  1.00  0.00     0.087 A 
BRANCH  15  17
ATOM     17  S   UNL A   1      30.515  26.622  23.467  1.00  0.00     0.243 S 
ATOM     18  O   UNL A   1      30.700  27.307  22.207  1.00  0.00    -0.207 OA
ATOM     19  O   UNL A   1      29.244  26.051  23.855  1.00  0.00    -0.207 OA
BRANCH  17  20
ATOM     20  N   UNL A   1      31.043  27.651  24.739  1.00  0.00    -0.198 NA
ATOM     21  C   UNL A   1      31.049  27.016  26.081  1.00  0.00     0.102 C 
ATOM     22  C   UNL A   1      32.178  28.543  24.386  1.00  0.00     0.102 C 
ATOM     23  C   UNL A   1      31.481  27.973  27.182  1.00  0.00     0.017 C 
ATOM     24  C   UNL A   1      32.590  29.449  25.540  1.00  0.00     0.017 C 
ATOM     25  C   UNL A   1      32.787  28.665  26.826  1.00  0.00     0.003 C 
ENDBRANCH  17  20
ENDBRANCH  15  17
ENDBRANCH   9  12
ENDBRANCH   7   8
ENDBRANCH   6   7
ENDBRANCH   4   6
ENDBRANCH   1   2
BRANCH   1  26
ATOM     26  C   UNL A   1      37.283  21.199  24.485  1.00  0.00     0.023 C 
BRANCH  26  27
ATOM     27  C   UNL A   1      38.035  19.952  24.965  1.00  0.00     0.023 C 
BRANCH  27  28
ATOM     28  C   UNL A   1      39.072  20.191  26.059  1.00  0.00     0.116 C 
BRANCH  28  29
ATOM     29  N   UNL A   1      40.134  19.198  26.044  1.00  0.00    -0.352 N 
ATOM     30  C   UNL A   1      41.495  19.375  26.131  1.00  0.00     0.251 C 
ATOM     31  H   UNL A   1      39.836  18.263  25.960  1.00  0.00     0.163 HD
ATOM     32  O   UNL A   1      42.245  18.423  25.934  1.00  0.00    -0.269 OA
BRANCH  30  33
ATOM     33  C   UNL A   1      42.057  20.711  26.436  1.00  0.00     0.039 A 
ATOM     34  C   UNL A   1      42.296  21.599  25.382  1.00  0.00     0.014 A 
ATOM     35  C   UNL A   1      42.357  21.088  27.748  1.00  0.00     0.014 A 
ATOM     36  C   UNL A   1      42.776  22.884  25.650  1.00  0.00     0.010 A 
ATOM     37  C   UNL A   1      42.773  22.391  28.018  1.00  0.00     0.010 A 
ATOM     38  C   UNL A   1      42.989  23.303  26.973  1.00  0.00    -0.014 A 
BRANCH  38  39
ATOM     39  C   UNL A   1      43.411  24.693  27.287  1.00  0.00     0.031 A 
ATOM     40  C   UNL A   1      42.436  25.669  27.889  1.00  0.00     0.074 A 
ATOM     41  C   UNL A   1      44.647  25.107  26.942  1.00  0.00     0.049 A 
ATOM     42  N   UNL A   1      42.606  26.935  28.173  1.00  0.00    -0.248 NA
ATOM     43  C   UNL A   1      41.087  25.164  28.191  1.00  0.00     0.031 C 
ATOM     44  C   UNL A   1      45.661  24.282  26.280  1.00  0.00     0.029 A 
ATOM     45  N   UNL A   1      45.252  26.332  27.071  1.00  0.00    -0.354 N 
ATOM     46  C   UNL A   1      41.380  27.388  28.645  1.00  0.00     0.074 A 
ATOM     47  C   UNL A   1      40.467  26.267  28.590  1.00  0.00     0.031 C 
ATOM     48  C   UNL A   1      46.758  25.023  26.061  1.00  0.00     0.029 A 
ATOM     49  C   UNL A   1      46.521  26.381  26.541  1.00  0.00     0.049 A 
ATOM     50  H   UNL A   1      44.819  27.104  27.503  1.00  0.00     0.167 HD
ATOM     51  C   UNL A   1      41.050  28.617  29.110  1.00  0.00     0.034 A 
ATOM     52  C   UNL A   1      47.392  27.404  26.446  1.00  0.00     0.034 A 
ATOM     53  C   UNL A   1      41.972  29.716  29.215  1.00  0.00     0.049 A 
ATOM     54  C   UNL A   1      47.016  28.745  27.015  1.00  0.00     0.074 A 
ATOM     55  C   UNL A   1      41.759  30.968  29.766  1.00  0.00     0.029 A 
ATOM     56  N   UNL A   1      43.279  29.699  28.755  1.00  0.00    -0.354 N 
ATOM     57  N   UNL A   1      45.908  29.105  27.618  1.00  0.00    -0.248 NA
ATOM     58  C   UNL A   1      48.023  29.813  26.926  1.00  0.00     0.031 C 
ATOM     59  C   UNL A   1      42.934  31.713  29.626  1.00  0.00     0.029 A 
ATOM     60  C   UNL A   1      43.884  30.920  29.003  1.00  0.00     0.049 A 
ATOM     61  H   UNL A   1      43.714  28.932  28.317  1.00  0.00     0.167 HD
ATOM     62  C   UNL A   1      46.098  30.424  28.011  1.00  0.00     0.074 A 
ATOM     63  C   UNL A   1      47.435  30.795  27.597  1.00  0.00     0.031 C 
ATOM     64  C   UNL A   1      45.237  31.259  28.643  1.00  0.00     0.034 A 
BRANCH  51  65
ATOM     65  C   UNL A   1      39.642  28.826  29.604  1.00  0.00     0.023 A 
ATOM     66  C   UNL A   1      39.288  28.375  30.893  1.00  0.00     0.012 A 
ATOM     67  C   UNL A   1      38.694  29.525  28.832  1.00  0.00     0.148 A 
ATOM     68  C   UNL A   1      38.004  28.588  31.392  1.00  0.00     0.002 A 
ATOM     69  C   UNL A   1      37.429  29.769  29.354  1.00  0.00     0.091 A 
ATOM     70  F   UNL A   1      39.042  29.928  27.602  1.00  0.00    -0.205 F 
ATOM     71  C   UNL A   1      37.080  29.294  30.629  1.00  0.00     0.022 A 
BRANCH  69  72
ATOM     72  S   UNL A   1      36.190  30.733  28.478  1.00  0.00     0.127 S 
ATOM     73  O   UNL A   1      35.085  30.732  29.435  1.00  0.00    -0.237 OA
ATOM     74  O   UNL A   1      36.859  32.025  28.321  1.00  0.00    -0.237 OA
ATOM     75  O   UNL A   1      35.939  30.025  27.231  1.00  0.00    -0.744 OA
ENDBRANCH  69  72
ENDBRANCH  51  65
BRANCH  52  76
ATOM     76  C   UNL A   1      48.743  27.180  25.854  1.00  0.00     0.023 A 
ATOM     77  C   UNL A   1      49.771  26.665  26.667  1.00  0.00     0.012 A 
ATOM     78  C   UNL A   1      49.008  27.444  24.497  1.00  0.00     0.148 A 
ATOM     79  C   UNL A   1      51.048  26.448  26.149  1.00  0.00     0.002 A 
ATOM     80  C   UNL A   1      50.268  27.175  23.973  1.00  0.00     0.091 A 
ATOM     81  F   UNL A   1      48.021  27.948  23.741  1.00  0.00    -0.205 F 
ATOM     82  C   UNL A   1      51.294  26.693  24.800  1.00  0.00     0.022 A 
BRANCH  80  83
ATOM     83  S   UNL A   1      50.635  27.335  22.221  1.00  0.00     0.127 S 
ATOM     84  O   UNL A   1      50.532  28.779  22.025  1.00  0.00    -0.237 OA
ATOM     85  O   UNL A   1      51.994  26.797  22.143  1.00  0.00    -0.237 OA
ATOM     86  O   UNL A   1      49.634  26.526  21.538  1.00  0.00    -0.744 OA
ENDBRANCH  80  83
ENDBRANCH  52  76
BRANCH  64  87
ATOM     87  C   UNL A   1      45.716  32.650  28.963  1.00  0.00     0.023 A 
ATOM     88  C   UNL A   1      46.405  32.891  30.169  1.00  0.00     0.012 A 
ATOM     89  C   UNL A   1      45.553  33.700  28.038  1.00  0.00     0.148 A 
ATOM     90  C   UNL A   1      46.900  34.161  30.461  1.00  0.00     0.002 A 
ATOM     91  C   UNL A   1      46.089  34.952  28.315  1.00  0.00     0.091 A 
ATOM     92  F   UNL A   1      44.878  33.456  26.906  1.00  0.00    -0.205 F 
ATOM     93  C   UNL A   1      46.753  35.188  29.531  1.00  0.00     0.022 A 
BRANCH  91  94
ATOM     94  S   UNL A   1      46.030  36.304  27.134  1.00  0.00     0.127 S 
ATOM     95  O   UNL A   1      46.901  37.292  27.766  1.00  0.00    -0.237 OA
ATOM     96  O   UNL A   1      46.583  35.689  25.926  1.00  0.00    -0.237 OA
ATOM     97  O   UNL A   1      44.627  36.680  27.027  1.00  0.00    -0.744 OA
ENDBRANCH  91  94
ENDBRANCH  64  87
ENDBRANCH  38  39
ENDBRANCH  30  33
ENDBRANCH  28  29
ENDBRANCH  27  28
ENDBRANCH  26  27
ENDBRANCH   1  26
TORSDOF 19
ENDMDL
MODEL 2
REMARK VINA RESULT:     -10.9      1.779      2.150
REMARK SMILES O=C(CCNC(=O)c1cc(S(=O)(=O)N2CCCCC2)cs1)NCCCCNC(=O)c1ccc(-c2c3nc(c(-c4cccc(S(=O)(=O)[O-])c4F)c4ccc([nH]4)c(-c4cccc(S(=O)(=O)[O-])c4F)c4nc(c(-c5cccc(S(=O)(=O)[O-])c5F)c5ccc2[nH]5)C=C4)C=C3)cc1
REMARK SMILES IDX 23 1 22 2 1 3 2 4 3 6 4 7 5 8 6 9 7 11 8 12 9 13 21 14 10 15
REMARK SMILES IDX 20 16 11 17 12 18 13 19 14 20 15 21 19 22 16 23 18 24 17 25
REMARK SMILES IDX 24 26 25 27 26 28 27 29 28 30 29 32 30 33 31 34 92 35 32 36
REMARK SMILES IDX 91 37 33 38 34 39 35 40 85 41 36 42 90 43 84 44 86 45 37 46
REMARK SMILES IDX 89 47 83 48 82 49 38 51 70 52 50 53 69 54 51 55 54 56 68 57
REMARK SMILES IDX 87 58 52 59 53 60 67 62 88 63 55 64 39 65 40 66 48 67 41 68
REMARK SMILES IDX 43 69 49 70 42 71 44 72 45 73 46 74 47 75 71 76 72 77 80 78
REMARK SMILES IDX 73 79 75 80 81 81 74 82 76 83 77 84 78 85 79 86 56 87 57 88
REMARK SMILES IDX 65 89 58 90 60 91 66 92 59 93 61 94 62 95 63 96 64 97
REMARK H PARENT 22 5 5 10 27 31 86 50 54 61
REMARK Flexibility Score: inf
ROOT
ATOM      1  C   UNL A   1      37.446  23.565  25.672  1.00  0.00     0.116 C 
ENDROOT
BRANCH   1   2
ATOM      2  N   UNL A   1      36.399  22.907  26.425  1.00  0.00    -0.356 N 
ATOM      3  O   UNL A   1      35.454  21.792  24.647  1.00  0.00    -0.275 OA
ATOM      4  C   UNL A   1      35.479  22.070  25.840  1.00  0.00     0.221 C 
ATOM      5  H   UNL A   1      36.342  23.068  27.395  1.00  0.00     0.163 HD
BRANCH   4   6
ATOM      6  C   UNL A   1      34.519  21.454  26.826  1.00  0.00     0.121 C 
BRANCH   6   7
ATOM      7  C   UNL A   1      33.895  22.543  27.687  1.00  0.00     0.126 C 
BRANCH   7   8
ATOM      8  N   UNL A   1      32.442  22.434  27.751  1.00  0.00    -0.351 N 
ATOM      9  C   UNL A   1      31.474  23.117  27.043  1.00  0.00     0.261 C 
ATOM     10  H   UNL A   1      32.100  21.773  28.397  1.00  0.00     0.163 HD
ATOM     11  O   UNL A   1      30.332  23.094  27.497  1.00  0.00    -0.268 OA
BRANCH   9  12
ATOM     12  C   UNL A   1      31.862  23.766  25.807  1.00  0.00     0.093 A 
ATOM     13  C   UNL A   1      32.241  25.082  25.631  1.00  0.00     0.047 A 
ATOM     14  S   UNL A   1      31.949  22.901  24.338  1.00  0.00    -0.137 S 
ATOM     15  C   UNL A   1      32.431  25.427  24.265  1.00  0.00     0.094 A 
ATOM     16  C   UNL A   1      32.334  24.320  23.449  1.00  0.00     0.087 A 
BRANCH  15  17
ATOM     17  S   UNL A   1      32.713  27.040  23.675  1.00  0.00     0.243 S 
ATOM     18  O   UNL A   1      33.102  27.779  24.855  1.00  0.00    -0.207 OA
ATOM     19  O   UNL A   1      33.617  26.829  22.565  1.00  0.00    -0.207 OA
BRANCH  17  20
ATOM     20  N   UNL A   1      31.260  27.716  23.052  1.00  0.00    -0.198 NA
ATOM     21  C   UNL A   1      30.037  27.345  23.808  1.00  0.00     0.102 C 
ATOM     22  C   UNL A   1      31.382  29.117  22.570  1.00  0.00     0.102 C 
ATOM     23  C   UNL A   1      28.770  27.929  23.199  1.00  0.00     0.017 C 
ATOM     24  C   UNL A   1      30.074  29.658  22.008  1.00  0.00     0.017 C 
ATOM     25  C   UNL A   1      28.914  29.424  22.962  1.00  0.00     0.003 C 
ENDBRANCH  17  20
ENDBRANCH  15  17
ENDBRANCH   9  12
ENDBRANCH   7   8
ENDBRANCH   6   7
ENDBRANCH   4   6
ENDBRANCH   1   2
BRANCH   1  26
ATOM     26  C   UNL A   1      38.833  23.123  26.130  1.00  0.00     0.023 C 
BRANCH  26  27
ATOM     27  C   UNL A   1      38.948  21.647  26.526  1.00  0.00     0.023 C 
BRANCH  27  28
ATOM     28  C   UNL A   1      39.152  20.670  25.371  1.00  0.00     0.116 C 
BRANCH  28  29
ATOM     29  N   UNL A   1      40.026  19.564  25.727  1.00  0.00    -0.352 N 
ATOM     30  C   UNL A   1      41.337  19.587  26.144  1.00  0.00     0.251 C 
ATOM     31  H   UNL A   1      39.621  18.669  25.662  1.00  0.00     0.163 HD
ATOM     32  O   UNL A   1      41.961  18.533  26.241  1.00  0.00    -0.269 OA
BRANCH  30  33
ATOM     33  C   UNL A   1      42.001  20.874  26.450  1.00  0.00     0.039 A 
ATOM     34  C   UNL A   1      42.360  21.716  25.392  1.00  0.00     0.014 A 
ATOM     35  C   UNL A   1      42.281  21.249  27.766  1.00  0.00     0.014 A 
ATOM     36  C   UNL A   1      42.940  22.960  25.658  1.00  0.00     0.010 A 
ATOM     37  C   UNL A   1      42.799  22.516  28.032  1.00  0.00     0.010 A 
ATOM     38  C   UNL A   1      43.136  23.385  26.983  1.00  0.00    -0.014 A 
BRANCH  38  39
ATOM     39  C   UNL A   1      43.666  24.739  27.291  1.00  0.00     0.031 A 
ATOM     40  C   UNL A   1      42.749  25.822  27.791  1.00  0.00     0.074 A 
ATOM     41  C   UNL A   1      44.958  25.022  27.030  1.00  0.00     0.049 A 
ATOM     42  N   UNL A   1      43.018  27.075  28.053  1.00  0.00    -0.248 NA
ATOM     43  C   UNL A   1      41.338  25.457  28.003  1.00  0.00     0.031 C 
ATOM     44  C   UNL A   1      45.934  24.084  26.469  1.00  0.00     0.029 A 
ATOM     45  N   UNL A   1      45.667  26.189  27.173  1.00  0.00    -0.354 N 
ATOM     46  C   UNL A   1      41.811  27.657  28.419  1.00  0.00     0.074 A 
ATOM     47  C   UNL A   1      40.800  26.625  28.324  1.00  0.00     0.031 C 
ATOM     48  C   UNL A   1      47.110  24.711  26.315  1.00  0.00     0.029 A 
ATOM     49  C   UNL A   1      46.971  26.100  26.739  1.00  0.00     0.049 A 
ATOM     50  H   UNL A   1      45.280  27.012  27.550  1.00  0.00     0.167 HD
ATOM     51  C   UNL A   1      41.568  28.927  28.825  1.00  0.00     0.034 A 
ATOM     52  C   UNL A   1      47.941  27.033  26.684  1.00  0.00     0.034 A 
ATOM     53  C   UNL A   1      42.581  29.937  28.970  1.00  0.00     0.049 A 
ATOM     54  C   UNL A   1      47.655  28.422  27.187  1.00  0.00     0.074 A 
ATOM     55  C   UNL A   1      42.450  31.220  29.471  1.00  0.00     0.029 A 
ATOM     56  N   UNL A   1      43.911  29.781  28.612  1.00  0.00    -0.354 N 
ATOM     57  N   UNL A   1      46.546  28.904  27.695  1.00  0.00    -0.248 NA
ATOM     58  C   UNL A   1      48.765  29.387  27.147  1.00  0.00     0.031 C 
ATOM     59  C   UNL A   1      43.698  31.847  29.401  1.00  0.00     0.029 A 
ATOM     60  C   UNL A   1      44.611  30.947  28.873  1.00  0.00     0.049 A 
ATOM     61  H   UNL A   1      44.300  28.962  28.229  1.00  0.00     0.167 HD
ATOM     62  C   UNL A   1      46.834  30.212  28.066  1.00  0.00     0.074 A 
ATOM     63  C   UNL A   1      48.227  30.441  27.745  1.00  0.00     0.031 C 
ATOM     64  C   UNL A   1      46.013  31.145  28.609  1.00  0.00     0.034 A 
BRANCH  51  65
ATOM     65  C   UNL A   1      40.154  29.284  29.205  1.00  0.00     0.023 A 
ATOM     66  C   UNL A   1      39.236  29.641  28.196  1.00  0.00     0.012 A 
ATOM     67  C   UNL A   1      39.715  29.198  30.540  1.00  0.00     0.148 A 
ATOM     68  C   UNL A   1      37.912  29.940  28.513  1.00  0.00     0.002 A 
ATOM     69  C   UNL A   1      38.382  29.456  30.843  1.00  0.00     0.091 A 
ATOM     70  F   UNL A   1      40.605  28.876  31.489  1.00  0.00    -0.205 F 
ATOM     71  C   UNL A   1      37.483  29.836  29.833  1.00  0.00     0.022 A 
BRANCH  69  72
ATOM     72  S   UNL A   1      37.713  29.279  32.502  1.00  0.00     0.127 S 
ATOM     73  O   UNL A   1      38.569  30.186  33.264  1.00  0.00    -0.237 OA
ATOM     74  O   UNL A   1      36.336  29.741  32.330  1.00  0.00    -0.237 OA
ATOM     75  O   UNL A   1      37.842  27.867  32.836  1.00  0.00    -0.744 OA
ENDBRANCH  69  72
ENDBRANCH  51  65
BRANCH  52  76
ATOM     76  C   UNL A   1      49.303  26.663  26.202  1.00  0.00     0.023 A 
ATOM     77  C   UNL A   1      50.106  25.821  26.997  1.00  0.00     0.012 A 
ATOM     78  C   UNL A   1      49.797  27.112  24.962  1.00  0.00     0.148 A 
ATOM     79  C   UNL A   1      51.388  25.459  26.581  1.00  0.00     0.002 A 
ATOM     80  C   UNL A   1      51.053  26.703  24.529  1.00  0.00     0.091 A 
ATOM     81  F   UNL A   1      49.025  27.924  24.226  1.00  0.00    -0.205 F 
ATOM     82  C   UNL A   1      51.857  25.891  25.343  1.00  0.00     0.022 A 
BRANCH  80  83
ATOM     83  S   UNL A   1      51.683  27.103  22.894  1.00  0.00     0.127 S 
ATOM     84  O   UNL A   1      50.570  26.699  22.038  1.00  0.00    -0.237 OA
ATOM     85  O   UNL A   1      51.891  28.549  22.993  1.00  0.00    -0.237 OA
ATOM     86  O   UNL A   1      52.911  26.333  22.750  1.00  0.00    -0.744 OA
ENDBRANCH  80  83
ENDBRANCH  52  76
BRANCH  64  87
ATOM     87  C   UNL A   1      46.599  32.495  28.928  1.00  0.00     0.023 A 
ATOM     88  C   UNL A   1      47.240  32.703  30.166  1.00  0.00     0.012 A 
ATOM     89  C   UNL A   1      46.585  33.531  27.974  1.00  0.00     0.148 A 
ATOM     90  C   UNL A   1      47.832  33.930  30.460  1.00  0.00     0.002 A 
ATOM     91  C   UNL A   1      47.217  34.736  28.255  1.00  0.00     0.091 A 
ATOM     92  F   UNL A   1      45.954  33.321  26.809  1.00  0.00    -0.205 F 
ATOM     93  C   UNL A   1      47.831  34.942  29.502  1.00  0.00     0.022 A 
BRANCH  91  94
ATOM     94  S   UNL A   1      47.348  36.058  27.045  1.00  0.00     0.127 S 
ATOM     95  O   UNL A   1      48.143  37.048  27.768  1.00  0.00    -0.237 OA
ATOM     96  O   UNL A   1      48.049  35.402  25.941  1.00  0.00    -0.237 OA
ATOM     97  O   UNL A   1      45.980  36.454  26.738  1.00  0.00    -0.744 OA
ENDBRANCH  91  94
ENDBRANCH  64  87
ENDBRANCH  38  39
ENDBRANCH  30  33
ENDBRANCH  28  29
ENDBRANCH  27  28
ENDBRANCH  26  27
ENDBRANCH   1  26
TORSDOF 19
ENDMDL
MODEL 3
REMARK VINA RESULT:     -10.7      6.228     10.126
REMARK SMILES O=C(CCNC(=O)c1cc(S(=O)(=O)N2CCCCC2)cs1)NCCCCNC(=O)c1ccc(-c2c3nc(c(-c4cccc(S(=O)(=O)[O-])c4F)c4ccc([nH]4)c(-c4cccc(S(=O)(=O)[O-])c4F)c4nc(c(-c5cccc(S(=O)(=O)[O-])c5F)c5ccc2[nH]5)C=C4)C=C3)cc1
REMARK SMILES IDX 23 1 22 2 1 3 2 4 3 6 4 7 5 8 6 9 7 11 8 12 9 13 21 14 10 15
REMARK SMILES IDX 20 16 11 17 12 18 13 19 14 20 15 21 19 22 16 23 18 24 17 25
REMARK SMILES IDX 24 26 25 27 26 28 27 29 28 30 29 32 30 33 31 34 92 35 32 36
REMARK SMILES IDX 91 37 33 38 34 39 35 40 85 41 36 42 90 43 84 44 86 45 37 46
REMARK SMILES IDX 89 47 83 48 82 49 38 51 70 52 50 53 69 54 51 55 54 56 68 57
REMARK SMILES IDX 87 58 52 59 53 60 67 62 88 63 55 64 39 65 40 66 48 67 41 68
REMARK SMILES IDX 43 69 49 70 42 71 44 72 45 73 46 74 47 75 71 76 72 77 80 78
REMARK SMILES IDX 73 79 75 80 81 81 74 82 76 83 77 84 78 85 79 86 56 87 57 88
REMARK SMILES IDX 65 89 58 90 60 91 66 92 59 93 61 94 62 95 63 96 64 97
REMARK H PARENT 22 5 5 10 27 31 86 50 54 61
REMARK Flexibility Score: inf
ROOT
ATOM      1  C   UNL A   1      34.202  29.841  27.228  1.00  0.00     0.116 C 
ENDROOT
BRANCH   1   2
ATOM      2  N   UNL A   1      34.025  29.777  25.793  1.00  0.00    -0.356 N 
ATOM      3  O   UNL A   1      32.625  27.951  25.779  1.00  0.00    -0.275 OA
ATOM      4  C   UNL A   1      33.244  28.825  25.183  1.00  0.00     0.221 C 
ATOM      5  H   UNL A   1      34.483  30.443  25.230  1.00  0.00     0.163 HD
BRANCH   4   6
ATOM      6  C   UNL A   1      33.161  28.988  23.687  1.00  0.00     0.121 C 
BRANCH   6   7
ATOM      7  C   UNL A   1      31.968  28.212  23.148  1.00  0.00     0.126 C 
BRANCH   7   8
ATOM      8  N   UNL A   1      32.322  27.368  22.013  1.00  0.00    -0.351 N 
ATOM      9  C   UNL A   1      32.648  26.027  21.978  1.00  0.00     0.261 C 
ATOM     10  H   UNL A   1      32.329  27.823  21.139  1.00  0.00     0.163 HD
ATOM     11  O   UNL A   1      33.223  25.620  20.971  1.00  0.00    -0.268 OA
BRANCH   9  12
ATOM     12  C   UNL A   1      32.253  25.199  23.100  1.00  0.00     0.093 A 
ATOM     13  C   UNL A   1      33.009  24.865  24.207  1.00  0.00     0.047 A 
ATOM     14  S   UNL A   1      30.683  24.539  23.207  1.00  0.00    -0.137 S 
ATOM     15  C   UNL A   1      32.364  23.925  25.057  1.00  0.00     0.094 A 
ATOM     16  C   UNL A   1      31.070  23.682  24.646  1.00  0.00     0.087 A 
BRANCH  15  17
ATOM     17  S   UNL A   1      33.108  23.142  26.422  1.00  0.00     0.243 S 
ATOM     18  O   UNL A   1      34.313  23.909  26.647  1.00  0.00    -0.207 OA
ATOM     19  O   UNL A   1      32.036  23.088  27.391  1.00  0.00    -0.207 OA
BRANCH  17  20
ATOM     20  N   UNL A   1      33.545  21.528  26.025  1.00  0.00    -0.198 NA
ATOM     21  C   UNL A   1      32.405  20.662  25.632  1.00  0.00     0.102 C 
ATOM     22  C   UNL A   1      34.814  21.397  25.263  1.00  0.00     0.102 C 
ATOM     23  C   UNL A   1      32.830  19.232  25.331  1.00  0.00     0.017 C 
ATOM     24  C   UNL A   1      35.166  19.946  24.959  1.00  0.00     0.017 C 
ATOM     25  C   UNL A   1      33.991  19.199  24.351  1.00  0.00     0.003 C 
ENDBRANCH  17  20
ENDBRANCH  15  17
ENDBRANCH   9  12
ENDBRANCH   7   8
ENDBRANCH   6   7
ENDBRANCH   4   6
ENDBRANCH   1   2
BRANCH   1  26
ATOM     26  C   UNL A   1      34.627  31.234  27.684  1.00  0.00     0.023 C 
BRANCH  26  27
ATOM     27  C   UNL A   1      33.476  32.208  27.959  1.00  0.00     0.023 C 
BRANCH  27  28
ATOM     28  C   UNL A   1      33.802  33.685  27.757  1.00  0.00     0.116 C 
BRANCH  28  29
ATOM     29  N   UNL A   1      33.168  34.535  28.752  1.00  0.00    -0.352 N 
ATOM     30  C   UNL A   1      33.441  34.659  30.094  1.00  0.00     0.251 C 
ATOM     31  H   UNL A   1      32.439  35.105  28.416  1.00  0.00     0.163 HD
ATOM     32  O   UNL A   1      32.685  35.313  30.809  1.00  0.00    -0.269 OA
BRANCH  30  33
ATOM     33  C   UNL A   1      34.624  33.991  30.682  1.00  0.00     0.039 A 
ATOM     34  C   UNL A   1      34.427  32.921  31.561  1.00  0.00     0.014 A 
ATOM     35  C   UNL A   1      35.921  34.417  30.381  1.00  0.00     0.014 A 
ATOM     36  C   UNL A   1      35.529  32.240  32.087  1.00  0.00     0.010 A 
ATOM     37  C   UNL A   1      37.016  33.696  30.854  1.00  0.00     0.010 A 
ATOM     38  C   UNL A   1      36.833  32.601  31.713  1.00  0.00    -0.014 A 
BRANCH  38  39
ATOM     39  C   UNL A   1      38.015  31.833  32.187  1.00  0.00     0.031 A 
ATOM     40  C   UNL A   1      38.690  32.195  33.482  1.00  0.00     0.074 A 
ATOM     41  C   UNL A   1      38.540  30.870  31.403  1.00  0.00     0.049 A 
ATOM     42  N   UNL A   1      39.766  31.681  34.024  1.00  0.00    -0.248 NA
ATOM     43  C   UNL A   1      38.095  33.294  34.261  1.00  0.00     0.031 C 
ATOM     44  C   UNL A   1      38.028  30.476  30.089  1.00  0.00     0.029 A 
ATOM     45  N   UNL A   1      39.638  30.067  31.583  1.00  0.00    -0.354 N 
ATOM     46  C   UNL A   1      39.999  32.416  35.179  1.00  0.00     0.074 A 
ATOM     47  C   UNL A   1      38.967  33.428  35.251  1.00  0.00     0.031 C 
ATOM     48  C   UNL A   1      38.810  29.510  29.582  1.00  0.00     0.029 A 
ATOM     49  C   UNL A   1      39.893  29.231  30.519  1.00  0.00     0.049 A 
ATOM     50  H   UNL A   1      40.193  30.086  32.397  1.00  0.00     0.167 HD
ATOM     51  C   UNL A   1      40.968  32.248  36.112  1.00  0.00     0.034 A 
ATOM     52  C   UNL A   1      40.889  28.346  30.318  1.00  0.00     0.034 A 
ATOM     53  C   UNL A   1      41.961  31.209  36.067  1.00  0.00     0.049 A 
ATOM     54  C   UNL A   1      41.922  28.146  31.394  1.00  0.00     0.074 A 
ATOM     55  C   UNL A   1      42.919  30.894  37.015  1.00  0.00     0.029 A 
ATOM     56  N   UNL A   1      42.128  30.318  35.019  1.00  0.00    -0.354 N 
ATOM     57  N   UNL A   1      42.022  28.734  32.562  1.00  0.00    -0.248 NA
ATOM     58  C   UNL A   1      42.959  27.134  31.141  1.00  0.00     0.031 C 
ATOM     59  C   UNL A   1      43.676  29.822  36.532  1.00  0.00     0.029 A 
ATOM     60  C   UNL A   1      43.178  29.458  35.291  1.00  0.00     0.049 A 
ATOM     61  H   UNL A   1      41.581  30.300  34.201  1.00  0.00     0.167 HD
ATOM     62  C   UNL A   1      43.107  28.139  33.197  1.00  0.00     0.074 A 
ATOM     63  C   UNL A   1      43.619  27.131  32.293  1.00  0.00     0.031 C 
ATOM     64  C   UNL A   1      43.641  28.415  34.412  1.00  0.00     0.034 A 
BRANCH  51  65
ATOM     65  C   UNL A   1      40.964  33.172  37.302  1.00  0.00     0.023 A 
ATOM     66  C   UNL A   1      40.090  32.912  38.377  1.00  0.00     0.012 A 
ATOM     67  C   UNL A   1      41.867  34.250  37.390  1.00  0.00     0.148 A 
ATOM     68  C   UNL A   1      40.091  33.727  39.508  1.00  0.00     0.002 A 
ATOM     69  C   UNL A   1      41.891  35.033  38.539  1.00  0.00     0.091 A 
ATOM     70  F   UNL A   1      42.676  34.495  36.351  1.00  0.00    -0.205 F 
ATOM     71  C   UNL A   1      40.998  34.779  39.594  1.00  0.00     0.022 A 
BRANCH  69  72
ATOM     72  S   UNL A   1      43.072  36.366  38.778  1.00  0.00     0.127 S 
ATOM     73  O   UNL A   1      42.709  37.280  37.696  1.00  0.00    -0.237 OA
ATOM     74  O   UNL A   1      42.732  36.844  40.119  1.00  0.00    -0.237 OA
ATOM     75  O   UNL A   1      44.391  35.758  38.668  1.00  0.00    -0.744 OA
ENDBRANCH  69  72
ENDBRANCH  51  65
BRANCH  52  76
ATOM     76  C   UNL A   1      40.913  27.522  29.076  1.00  0.00     0.023 A 
ATOM     77  C   UNL A   1      40.000  26.457  28.942  1.00  0.00     0.012 A 
ATOM     78  C   UNL A   1      41.806  27.796  28.023  1.00  0.00     0.148 A 
ATOM     79  C   UNL A   1      39.998  25.660  27.797  1.00  0.00     0.002 A 
ATOM     80  C   UNL A   1      41.763  27.033  26.862  1.00  0.00     0.091 A 
ATOM     81  F   UNL A   1      42.678  28.804  28.174  1.00  0.00    -0.205 F 
ATOM     82  C   UNL A   1      40.871  25.955  26.753  1.00  0.00     0.022 A 
BRANCH  80  83
ATOM     83  S   UNL A   1      42.758  27.423  25.418  1.00  0.00     0.127 S 
ATOM     84  O   UNL A   1      42.638  26.198  24.632  1.00  0.00    -0.237 OA
ATOM     85  O   UNL A   1      42.054  28.581  24.865  1.00  0.00    -0.237 OA
ATOM     86  O   UNL A   1      44.088  27.724  25.931  1.00  0.00    -0.744 OA
ENDBRANCH  80  83
ENDBRANCH  52  76
BRANCH  64  87
ATOM     87  C   UNL A   1      44.822  27.597  34.861  1.00  0.00     0.023 A 
ATOM     88  C   UNL A   1      46.129  28.079  34.647  1.00  0.00     0.012 A 
ATOM     89  C   UNL A   1      44.637  26.389  35.563  1.00  0.00     0.148 A 
ATOM     90  C   UNL A   1      47.233  27.359  35.101  1.00  0.00     0.002 A 
ATOM     91  C   UNL A   1      45.741  25.701  36.053  1.00  0.00     0.091 A 
ATOM     92  F   UNL A   1      43.387  25.936  35.740  1.00  0.00    -0.205 F 
ATOM     93  C   UNL A   1      47.040  26.178  35.812  1.00  0.00     0.022 A 
BRANCH  91  94
ATOM     94  S   UNL A   1      45.580  24.222  37.061  1.00  0.00     0.127 S 
ATOM     95  O   UNL A   1      44.783  24.711  38.184  1.00  0.00    -0.237 OA
ATOM     96  O   UNL A   1      44.872  23.307  36.164  1.00  0.00    -0.237 OA
ATOM     97  O   UNL A   1      46.939  23.812  37.387  1.00  0.00    -0.744 OA
ENDBRANCH  91  94
ENDBRANCH  64  87
ENDBRANCH  38  39
ENDBRANCH  30  33
ENDBRANCH  28  29
ENDBRANCH  27  28
ENDBRANCH  26  27
ENDBRANCH   1  26
TORSDOF 19
ENDMDL
