MODEL 1
REMARK VINA RESULT:     -11.1      0.000      0.000
REMARK SMILES CC[C@](C)(NC(=O)/C=C/c1ccco1)C(=O)NCCCCNC(=O)c1ccc(-c2c3nc(c(-c4cccc(S(=O)(=O)[O-])c4F)c4ccc([nH]4)c(-c4cccc(S(=O)(=O)[O-])c4F)c4nc(c(-c5cccc(S(=O)(=O)[O-])c5F)c5ccc2[nH]5)C=C4)C=C3)cc1
REMARK SMILES IDX 19 1 18 2 17 3 15 4 16 5 3 7 4 8 2 9 1 10 5 11 6 12 7 14
REMARK SMILES IDX 8 15 9 16 10 17 11 18 14 19 12 20 13 21 20 22 21 23 22 24
REMARK SMILES IDX 23 25 24 27 25 28 26 29 87 30 27 31 86 32 28 33 29 34 30 35
REMARK SMILES IDX 80 36 31 37 85 38 79 39 81 40 32 41 84 42 78 43 77 44 33 46
REMARK SMILES IDX 65 47 45 48 64 49 46 50 49 51 63 52 82 53 47 54 48 55 62 57
REMARK SMILES IDX 83 58 50 59 34 60 35 61 43 62 36 63 38 64 44 65 37 66 39 67
REMARK SMILES IDX 40 68 41 69 42 70 66 71 67 72 75 73 68 74 70 75 76 76 69 77
REMARK SMILES IDX 71 78 72 79 73 80 74 81 51 82 52 83 60 84 53 85 55 86 61 87
REMARK SMILES IDX 54 88 56 89 57 90 58 91 59 92
REMARK H PARENT 17 6 5 13 22 26 81 45 49 56
REMARK Flexibility Score: inf
ROOT
ATOM      1  C   UNL A   1      37.263  20.936  24.661  1.00  0.00     0.023 C 
ENDROOT
BRANCH   1   2
ATOM      2  C   UNL A   1      35.779  20.636  24.862  1.00  0.00     0.116 C 
BRANCH   2   3
ATOM      3  N   UNL A   1      35.203  21.079  26.122  1.00  0.00    -0.354 N 
ATOM      4  C   UNL A   1      33.918  21.407  26.465  1.00  0.00     0.245 C 
ATOM      5  O   UNL A   1      33.629  21.411  27.667  1.00  0.00    -0.272 OA
ATOM      6  H   UNL A   1      35.851  21.156  26.858  1.00  0.00     0.163 HD
BRANCH   4   7
ATOM      7  C   UNL A   1      32.815  21.618  25.393  1.00  0.00     0.116 C 
ATOM      8  C   UNL A   1      32.642  20.407  24.446  1.00  0.00     0.045 C 
BRANCH   7   9
ATOM      9  C   UNL A   1      33.265  22.851  24.537  1.00  0.00     0.035 C 
ATOM     10  C   UNL A   1      33.238  22.637  23.018  1.00  0.00     0.007 C 
ENDBRANCH   7   9
BRANCH   7  11
ATOM     11  N   UNL A   1      31.488  21.868  26.018  1.00  0.00    -0.338 N 
ATOM     12  C   UNL A   1      31.013  22.959  26.702  1.00  0.00     0.244 C 
ATOM     13  H   UNL A   1      30.845  21.129  25.927  1.00  0.00     0.164 HD
ATOM     14  O   UNL A   1      30.073  22.803  27.480  1.00  0.00    -0.270 OA
BRANCH  12  15
ATOM     15  C   UNL A   1      31.408  24.337  26.312  1.00  0.00     0.075 C 
ATOM     16  C   UNL A   1      30.695  25.461  26.440  1.00  0.00     0.053 C 
BRANCH  16  17
ATOM     17  C   UNL A   1      31.367  26.716  26.407  1.00  0.00     0.126 A 
ATOM     18  C   UNL A   1      32.298  27.246  25.525  1.00  0.00     0.050 A 
ATOM     19  O   UNL A   1      31.140  27.666  27.381  1.00  0.00    -0.465 OA
ATOM     20  C   UNL A   1      32.619  28.555  25.968  1.00  0.00     0.042 A 
ATOM     21  C   UNL A   1      31.883  28.761  27.106  1.00  0.00     0.195 A 
ENDBRANCH  16  17
ENDBRANCH  12  15
ENDBRANCH   7  11
ENDBRANCH   4   7
ENDBRANCH   2   3
ENDBRANCH   1   2
BRANCH   1  22
ATOM     22  C   UNL A   1      38.205  19.747  24.810  1.00  0.00     0.023 C 
BRANCH  22  23
ATOM     23  C   UNL A   1      38.968  19.713  26.125  1.00  0.00     0.116 C 
BRANCH  23  24
ATOM     24  N   UNL A   1      40.186  18.918  26.036  1.00  0.00    -0.352 N 
ATOM     25  C   UNL A   1      41.495  19.328  26.055  1.00  0.00     0.251 C 
ATOM     26  H   UNL A   1      40.049  17.947  25.949  1.00  0.00     0.163 HD
ATOM     27  O   UNL A   1      42.389  18.535  25.788  1.00  0.00    -0.269 OA
BRANCH  25  28
ATOM     28  C   UNL A   1      41.812  20.732  26.384  1.00  0.00     0.039 A 
ATOM     29  C   UNL A   1      42.271  21.041  27.665  1.00  0.00     0.014 A 
ATOM     30  C   UNL A   1      41.669  21.737  25.423  1.00  0.00     0.014 A 
ATOM     31  C   UNL A   1      42.640  22.352  27.966  1.00  0.00     0.010 A 
ATOM     32  C   UNL A   1      42.126  23.020  25.696  1.00  0.00     0.010 A 
ATOM     33  C   UNL A   1      42.601  23.345  26.973  1.00  0.00    -0.014 A 
BRANCH  33  34
ATOM     34  C   UNL A   1      43.052  24.731  27.250  1.00  0.00     0.031 A 
ATOM     35  C   UNL A   1      42.123  25.703  27.927  1.00  0.00     0.074 A 
ATOM     36  C   UNL A   1      44.261  25.136  26.817  1.00  0.00     0.049 A 
ATOM     37  N   UNL A   1      42.314  26.966  28.204  1.00  0.00    -0.248 NA
ATOM     38  C   UNL A   1      40.794  25.200  28.318  1.00  0.00     0.031 C 
ATOM     39  C   UNL A   1      45.219  24.308  26.080  1.00  0.00     0.029 A 
ATOM     40  N   UNL A   1      44.885  26.355  26.912  1.00  0.00    -0.354 N 
ATOM     41  C   UNL A   1      41.123  27.417  28.761  1.00  0.00     0.074 A 
ATOM     42  C   UNL A   1      40.202  26.303  28.750  1.00  0.00     0.031 C 
ATOM     43  C   UNL A   1      46.310  25.038  25.800  1.00  0.00     0.029 A 
ATOM     44  C   UNL A   1      46.118  26.393  26.304  1.00  0.00     0.049 A 
ATOM     45  H   UNL A   1      44.486  27.130  27.372  1.00  0.00     0.167 HD
ATOM     46  C   UNL A   1      40.831  28.641  29.260  1.00  0.00     0.034 A 
ATOM     47  C   UNL A   1      46.991  27.410  26.160  1.00  0.00     0.034 A 
ATOM     48  C   UNL A   1      41.765  29.732  29.307  1.00  0.00     0.049 A 
ATOM     49  C   UNL A   1      46.653  28.749  26.756  1.00  0.00     0.074 A 
ATOM     50  C   UNL A   1      41.600  30.980  29.879  1.00  0.00     0.029 A 
ATOM     51  N   UNL A   1      43.034  29.711  28.749  1.00  0.00    -0.354 N 
ATOM     52  N   UNL A   1      45.582  29.110  27.422  1.00  0.00    -0.248 NA
ATOM     53  C   UNL A   1      47.657  29.813  26.611  1.00  0.00     0.031 C 
ATOM     54  C   UNL A   1      42.757  31.727  29.634  1.00  0.00     0.029 A 
ATOM     55  C   UNL A   1      43.658  30.929  28.948  1.00  0.00     0.049 A 
ATOM     56  H   UNL A   1      43.432  28.941  28.282  1.00  0.00     0.167 HD
ATOM     57  C   UNL A   1      45.801  30.427  27.810  1.00  0.00     0.074 A 
ATOM     58  C   UNL A   1      47.115  30.793  27.321  1.00  0.00     0.031 C 
ATOM     59  C   UNL A   1      44.986  31.262  28.499  1.00  0.00     0.034 A 
BRANCH  46  60
ATOM     60  C   UNL A   1      39.454  28.855  29.835  1.00  0.00     0.023 A 
ATOM     61  C   UNL A   1      39.179  28.462  31.161  1.00  0.00     0.012 A 
ATOM     62  C   UNL A   1      38.453  29.502  29.085  1.00  0.00     0.148 A 
ATOM     63  C   UNL A   1      37.919  28.676  31.719  1.00  0.00     0.002 A 
ATOM     64  C   UNL A   1      37.216  29.756  29.665  1.00  0.00     0.091 A 
ATOM     65  F   UNL A   1      38.726  29.849  27.820  1.00  0.00    -0.205 F 
ATOM     66  C   UNL A   1      36.943  29.333  30.975  1.00  0.00     0.022 A 
BRANCH  64  67
ATOM     67  S   UNL A   1      35.919  30.671  28.822  1.00  0.00     0.127 S 
ATOM     68  O   UNL A   1      35.204  29.598  28.132  1.00  0.00    -0.237 OA
ATOM     69  O   UNL A   1      35.191  31.270  29.939  1.00  0.00    -0.237 OA
ATOM     70  O   UNL A   1      36.598  31.624  27.954  1.00  0.00    -0.744 OA
ENDBRANCH  64  67
ENDBRANCH  46  60
BRANCH  47  71
ATOM     71  C   UNL A   1      48.294  27.186  25.473  1.00  0.00     0.023 A 
ATOM     72  C   UNL A   1      49.405  26.753  26.222  1.00  0.00     0.012 A 
ATOM     73  C   UNL A   1      48.435  27.383  24.086  1.00  0.00     0.148 A 
ATOM     74  C   UNL A   1      50.644  26.559  25.609  1.00  0.00     0.002 A 
ATOM     75  C   UNL A   1      49.656  27.134  23.472  1.00  0.00     0.091 A 
ATOM     76  F   UNL A   1      47.367  27.802  23.393  1.00  0.00    -0.205 F 
ATOM     77  C   UNL A   1      50.768  26.741  24.235  1.00  0.00     0.022 A 
BRANCH  75  78
ATOM     78  S   UNL A   1      49.874  27.217  21.691  1.00  0.00     0.127 S 
ATOM     79  O   UNL A   1      48.789  26.361  21.218  1.00  0.00    -0.237 OA
ATOM     80  O   UNL A   1      49.691  28.646  21.433  1.00  0.00    -0.237 OA
ATOM     81  O   UNL A   1      51.222  26.728  21.435  1.00  0.00    -0.744 OA
ENDBRANCH  75  78
ENDBRANCH  47  71
BRANCH  59  82
ATOM     82  C   UNL A   1      45.501  32.642  28.813  1.00  0.00     0.023 A 
ATOM     83  C   UNL A   1      46.246  32.868  29.986  1.00  0.00     0.012 A 
ATOM     84  C   UNL A   1      45.308  33.699  27.901  1.00  0.00     0.148 A 
ATOM     85  C   UNL A   1      46.759  34.134  30.266  1.00  0.00     0.002 A 
ATOM     86  C   UNL A   1      45.869  34.943  28.159  1.00  0.00     0.091 A 
ATOM     87  F   UNL A   1      44.582  33.468  26.797  1.00  0.00    -0.205 F 
ATOM     88  C   UNL A   1      46.582  35.167  29.349  1.00  0.00     0.022 A 
BRANCH  86  89
ATOM     89  S   UNL A   1      45.780  36.303  26.989  1.00  0.00     0.127 S 
ATOM     90  O   UNL A   1      44.342  36.559  26.939  1.00  0.00    -0.237 OA
ATOM     91  O   UNL A   1      46.562  37.341  27.662  1.00  0.00    -0.237 OA
ATOM     92  O   UNL A   1      46.369  35.808  25.752  1.00  0.00    -0.744 OA
ENDBRANCH  86  89
ENDBRANCH  59  82
ENDBRANCH  33  34
ENDBRANCH  25  28
ENDBRANCH  23  24
ENDBRANCH  22  23
ENDBRANCH   1  22
TORSDOF 18
ENDMDL
MODEL 2
REMARK VINA RESULT:     -11.0      5.338      8.723
REMARK SMILES CC[C@](C)(NC(=O)/C=C/c1ccco1)C(=O)NCCCCNC(=O)c1ccc(-c2c3nc(c(-c4cccc(S(=O)(=O)[O-])c4F)c4ccc([nH]4)c(-c4cccc(S(=O)(=O)[O-])c4F)c4nc(c(-c5cccc(S(=O)(=O)[O-])c5F)c5ccc2[nH]5)C=C4)C=C3)cc1
REMARK SMILES IDX 19 1 18 2 17 3 15 4 16 5 3 7 4 8 2 9 1 10 5 11 6 12 7 14
REMARK SMILES IDX 8 15 9 16 10 17 11 18 14 19 12 20 13 21 20 22 21 23 22 24
REMARK SMILES IDX 23 25 24 27 25 28 26 29 87 30 27 31 86 32 28 33 29 34 30 35
REMARK SMILES IDX 80 36 31 37 85 38 79 39 81 40 32 41 84 42 78 43 77 44 33 46
REMARK SMILES IDX 65 47 45 48 64 49 46 50 49 51 63 52 82 53 47 54 48 55 62 57
REMARK SMILES IDX 83 58 50 59 34 60 35 61 43 62 36 63 38 64 44 65 37 66 39 67
REMARK SMILES IDX 40 68 41 69 42 70 66 71 67 72 75 73 68 74 70 75 76 76 69 77
REMARK SMILES IDX 71 78 72 79 73 80 74 81 51 82 52 83 60 84 53 85 55 86 61 87
REMARK SMILES IDX 54 88 56 89 57 90 58 91 59 92
REMARK H PARENT 17 6 5 13 22 26 81 45 49 56
REMARK Flexibility Score: inf
ROOT
ATOM      1  C   UNL A   1      31.705  27.297  26.891  1.00  0.00     0.023 C 
ENDROOT
BRANCH   1   2
ATOM      2  C   UNL A   1      31.057  26.390  25.848  1.00  0.00     0.116 C 
BRANCH   2   3
ATOM      3  N   UNL A   1      30.248  25.297  26.365  1.00  0.00    -0.354 N 
ATOM      4  C   UNL A   1      30.521  23.965  26.527  1.00  0.00     0.245 C 
ATOM      5  O   UNL A   1      29.805  23.323  27.303  1.00  0.00    -0.272 OA
ATOM      6  H   UNL A   1      29.344  25.563  26.649  1.00  0.00     0.163 HD
BRANCH   4   7
ATOM      7  C   UNL A   1      31.772  23.305  25.886  1.00  0.00     0.116 C 
ATOM      8  C   UNL A   1      33.092  23.664  26.609  1.00  0.00     0.045 C 
BRANCH   7   9
ATOM      9  C   UNL A   1      31.852  23.847  24.419  1.00  0.00     0.035 C 
ATOM     10  C   UNL A   1      33.244  24.308  23.967  1.00  0.00     0.007 C 
ENDBRANCH   7   9
BRANCH   7  11
ATOM     11  N   UNL A   1      31.669  21.820  25.894  1.00  0.00    -0.338 N 
ATOM     12  C   UNL A   1      32.563  20.859  25.492  1.00  0.00     0.244 C 
ATOM     13  H   UNL A   1      30.818  21.469  26.244  1.00  0.00     0.164 HD
ATOM     14  O   UNL A   1      32.135  19.746  25.191  1.00  0.00    -0.270 OA
BRANCH  12  15
ATOM     15  C   UNL A   1      34.023  21.043  25.692  1.00  0.00     0.075 C 
ATOM     16  C   UNL A   1      34.956  21.266  24.760  1.00  0.00     0.053 C 
BRANCH  16  17
ATOM     17  C   UNL A   1      36.206  21.823  25.150  1.00  0.00     0.126 A 
ATOM     18  C   UNL A   1      36.570  23.107  25.533  1.00  0.00     0.050 A 
ATOM     19  O   UNL A   1      37.345  21.047  25.190  1.00  0.00    -0.465 OA
ATOM     20  C   UNL A   1      37.958  23.093  25.832  1.00  0.00     0.042 A 
ATOM     21  C   UNL A   1      38.381  21.809  25.607  1.00  0.00     0.195 A 
ENDBRANCH  16  17
ENDBRANCH  12  15
ENDBRANCH   7  11
ENDBRANCH   4   7
ENDBRANCH   2   3
ENDBRANCH   1   2
BRANCH   1  22
ATOM     22  C   UNL A   1      32.386  28.548  26.350  1.00  0.00     0.023 C 
BRANCH  22  23
ATOM     23  C   UNL A   1      33.664  28.932  27.079  1.00  0.00     0.116 C 
BRANCH  23  24
ATOM     24  N   UNL A   1      33.670  30.332  27.483  1.00  0.00    -0.352 N 
ATOM     25  C   UNL A   1      34.584  31.013  28.246  1.00  0.00     0.251 C 
ATOM     26  H   UNL A   1      32.908  30.866  27.161  1.00  0.00     0.163 HD
ATOM     27  O   UNL A   1      34.334  32.147  28.635  1.00  0.00    -0.269 OA
BRANCH  25  28
ATOM     28  C   UNL A   1      35.860  30.361  28.605  1.00  0.00     0.039 A 
ATOM     29  C   UNL A   1      36.966  30.531  27.771  1.00  0.00     0.014 A 
ATOM     30  C   UNL A   1      35.964  29.596  29.770  1.00  0.00     0.014 A 
ATOM     31  C   UNL A   1      38.194  29.980  28.136  1.00  0.00     0.010 A 
ATOM     32  C   UNL A   1      37.207  29.129  30.178  1.00  0.00     0.010 A 
ATOM     33  C   UNL A   1      38.330  29.302  29.359  1.00  0.00    -0.014 A 
BRANCH  33  34
ATOM     34  C   UNL A   1      39.641  28.764  29.800  1.00  0.00     0.031 A 
ATOM     35  C   UNL A   1      40.411  29.459  30.891  1.00  0.00     0.074 A 
ATOM     36  C   UNL A   1      40.174  27.705  29.161  1.00  0.00     0.049 A 
ATOM     37  N   UNL A   1      41.592  29.175  31.374  1.00  0.00    -0.248 NA
ATOM     38  C   UNL A   1      39.787  30.647  31.500  1.00  0.00     0.031 C 
ATOM     39  C   UNL A   1      39.559  26.995  28.038  1.00  0.00     0.029 A 
ATOM     40  N   UNL A   1      41.368  27.053  29.350  1.00  0.00    -0.354 N 
ATOM     41  C   UNL A   1      41.869  30.166  32.308  1.00  0.00     0.074 A 
ATOM     42  C   UNL A   1      40.750  31.080  32.301  1.00  0.00     0.031 C 
ATOM     43  C   UNL A   1      40.372  26.001  27.645  1.00  0.00     0.029 A 
ATOM     44  C   UNL A   1      41.580  26.025  28.461  1.00  0.00     0.049 A 
ATOM     45  H   UNL A   1      42.010  27.299  30.054  1.00  0.00     0.167 HD
ATOM     46  C   UNL A   1      42.946  30.289  33.119  1.00  0.00     0.034 A 
ATOM     47  C   UNL A   1      42.636  25.200  28.315  1.00  0.00     0.034 A 
ATOM     48  C   UNL A   1      44.036  29.353  33.152  1.00  0.00     0.049 A 
ATOM     49  C   UNL A   1      43.804  25.339  29.254  1.00  0.00     0.074 A 
ATOM     50  C   UNL A   1      45.126  29.333  34.003  1.00  0.00     0.029 A 
ATOM     51  N   UNL A   1      44.182  28.278  32.289  1.00  0.00    -0.354 N 
ATOM     52  N   UNL A   1      43.974  26.186  30.240  1.00  0.00    -0.248 NA
ATOM     53  C   UNL A   1      44.910  24.387  29.082  1.00  0.00     0.031 C 
ATOM     54  C   UNL A   1      45.951  28.267  33.629  1.00  0.00     0.029 A 
ATOM     55  C   UNL A   1      45.352  27.598  32.574  1.00  0.00     0.049 A 
ATOM     56  H   UNL A   1      43.545  28.034  31.578  1.00  0.00     0.167 HD
ATOM     57  C   UNL A   1      45.185  25.844  30.831  1.00  0.00     0.074 A 
ATOM     58  C   UNL A   1      45.695  24.700  30.103  1.00  0.00     0.031 C 
ATOM     59  C   UNL A   1      45.822  26.430  31.874  1.00  0.00     0.034 A 
BRANCH  46  60
ATOM     60  C   UNL A   1      42.981  31.458  34.068  1.00  0.00     0.023 A 
ATOM     61  C   UNL A   1      43.537  32.685  33.652  1.00  0.00     0.012 A 
ATOM     62  C   UNL A   1      42.406  31.362  35.351  1.00  0.00     0.148 A 
ATOM     63  C   UNL A   1      43.554  33.786  34.507  1.00  0.00     0.002 A 
ATOM     64  C   UNL A   1      42.382  32.477  36.179  1.00  0.00     0.091 A 
ATOM     65  F   UNL A   1      41.901  30.182  35.738  1.00  0.00    -0.205 F 
ATOM     66  C   UNL A   1      42.967  33.685  35.765  1.00  0.00     0.022 A 
BRANCH  64  67
ATOM     67  S   UNL A   1      41.576  32.476  37.785  1.00  0.00     0.127 S 
ATOM     68  O   UNL A   1      41.623  33.894  38.139  1.00  0.00    -0.237 OA
ATOM     69  O   UNL A   1      40.243  31.974  37.458  1.00  0.00    -0.237 OA
ATOM     70  O   UNL A   1      42.368  31.597  38.633  1.00  0.00    -0.744 OA
ENDBRANCH  64  67
ENDBRANCH  46  60
BRANCH  47  71
ATOM     71  C   UNL A   1      42.612  24.131  27.277  1.00  0.00     0.023 A 
ATOM     72  C   UNL A   1      43.112  24.406  25.989  1.00  0.00     0.012 A 
ATOM     73  C   UNL A   1      42.114  22.845  27.559  1.00  0.00     0.148 A 
ATOM     74  C   UNL A   1      43.079  23.433  24.990  1.00  0.00     0.002 A 
ATOM     75  C   UNL A   1      42.136  21.863  26.577  1.00  0.00     0.091 A 
ATOM     76  F   UNL A   1      41.636  22.606  28.789  1.00  0.00    -0.205 F 
ATOM     77  C   UNL A   1      42.600  22.160  25.285  1.00  0.00     0.022 A 
BRANCH  75  78
ATOM     78  S   UNL A   1      41.659  20.163  26.904  1.00  0.00     0.127 S 
ATOM     79  O   UNL A   1      42.812  19.667  27.652  1.00  0.00    -0.237 OA
ATOM     80  O   UNL A   1      40.440  20.339  27.695  1.00  0.00    -0.237 OA
ATOM     81  O   UNL A   1      41.444  19.555  25.598  1.00  0.00    -0.744 OA
ENDBRANCH  75  78
ENDBRANCH  47  71
BRANCH  59  82
ATOM     82  C   UNL A   1      47.122  25.821  32.330  1.00  0.00     0.023 A 
ATOM     83  C   UNL A   1      48.330  26.181  31.703  1.00  0.00     0.012 A 
ATOM     84  C   UNL A   1      47.150  24.947  33.435  1.00  0.00     0.148 A 
ATOM     85  C   UNL A   1      49.542  25.651  32.144  1.00  0.00     0.002 A 
ATOM     86  C   UNL A   1      48.366  24.466  33.903  1.00  0.00     0.091 A 
ATOM     87  F   UNL A   1      45.987  24.603  34.009  1.00  0.00    -0.205 F 
ATOM     88  C   UNL A   1      49.562  24.805  33.249  1.00  0.00     0.022 A 
BRANCH  86  89
ATOM     89  S   UNL A   1      48.498  23.454  35.381  1.00  0.00     0.127 S 
ATOM     90  O   UNL A   1      49.940  23.456  35.616  1.00  0.00    -0.237 OA
ATOM     91  O   UNL A   1      47.720  24.224  36.353  1.00  0.00    -0.237 OA
ATOM     92  O   UNL A   1      47.924  22.160  35.036  1.00  0.00    -0.744 OA
ENDBRANCH  86  89
ENDBRANCH  59  82
ENDBRANCH  33  34
ENDBRANCH  25  28
ENDBRANCH  23  24
ENDBRANCH  22  23
ENDBRANCH   1  22
TORSDOF 18
ENDMDL
MODEL 3
REMARK VINA RESULT:     -11.0      5.575      9.143
REMARK SMILES CC[C@](C)(NC(=O)/C=C/c1ccco1)C(=O)NCCCCNC(=O)c1ccc(-c2c3nc(c(-c4cccc(S(=O)(=O)[O-])c4F)c4ccc([nH]4)c(-c4cccc(S(=O)(=O)[O-])c4F)c4nc(c(-c5cccc(S(=O)(=O)[O-])c5F)c5ccc2[nH]5)C=C4)C=C3)cc1
REMARK SMILES IDX 19 1 18 2 17 3 15 4 16 5 3 7 4 8 2 9 1 10 5 11 6 12 7 14
REMARK SMILES IDX 8 15 9 16 10 17 11 18 14 19 12 20 13 21 20 22 21 23 22 24
REMARK SMILES IDX 23 25 24 27 25 28 26 29 87 30 27 31 86 32 28 33 29 34 30 35
REMARK SMILES IDX 80 36 31 37 85 38 79 39 81 40 32 41 84 42 78 43 77 44 33 46
REMARK SMILES IDX 65 47 45 48 64 49 46 50 49 51 63 52 82 53 47 54 48 55 62 57
REMARK SMILES IDX 83 58 50 59 34 60 35 61 43 62 36 63 38 64 44 65 37 66 39 67
REMARK SMILES IDX 40 68 41 69 42 70 66 71 67 72 75 73 68 74 70 75 76 76 69 77
REMARK SMILES IDX 71 78 72 79 73 80 74 81 51 82 52 83 60 84 53 85 55 86 61 87
REMARK SMILES IDX 54 88 56 89 57 90 58 91 59 92
REMARK H PARENT 17 6 5 13 22 26 81 45 49 56
REMARK Flexibility Score: inf
ROOT
ATOM      1  C   UNL A   1      33.279  28.435  25.214  1.00  0.00     0.023 C 
ENDROOT
BRANCH   1   2
ATOM      2  C   UNL A   1      32.672  27.245  24.474  1.00  0.00     0.116 C 
BRANCH   2   3
ATOM      3  N   UNL A   1      33.133  27.038  23.110  1.00  0.00    -0.354 N 
ATOM      4  C   UNL A   1      33.375  25.893  22.399  1.00  0.00     0.245 C 
ATOM      5  O   UNL A   1      33.419  25.982  21.167  1.00  0.00    -0.272 OA
ATOM      6  H   UNL A   1      33.301  27.869  22.610  1.00  0.00     0.163 HD
BRANCH   4   7
ATOM      7  C   UNL A   1      33.440  24.503  23.088  1.00  0.00     0.116 C 
ATOM      8  C   UNL A   1      33.538  23.327  22.087  1.00  0.00     0.045 C 
BRANCH   7   9
ATOM      9  C   UNL A   1      32.108  24.350  23.897  1.00  0.00     0.035 C 
ATOM     10  C   UNL A   1      31.145  23.276  23.375  1.00  0.00     0.007 C 
ENDBRANCH   7   9
BRANCH   7  11
ATOM     11  N   UNL A   1      34.619  24.397  23.990  1.00  0.00    -0.338 N 
ATOM     12  C   UNL A   1      34.998  23.400  24.854  1.00  0.00     0.244 C 
ATOM     13  H   UNL A   1      35.227  25.171  23.965  1.00  0.00     0.164 HD
ATOM     14  O   UNL A   1      35.745  23.683  25.789  1.00  0.00    -0.270 OA
BRANCH  12  15
ATOM     15  C   UNL A   1      34.767  21.971  24.519  1.00  0.00     0.075 C 
ATOM     16  C   UNL A   1      34.056  21.072  25.208  1.00  0.00     0.053 C 
BRANCH  16  17
ATOM     17  C   UNL A   1      33.600  19.896  24.549  1.00  0.00     0.126 A 
ATOM     18  C   UNL A   1      32.464  19.637  23.796  1.00  0.00     0.050 A 
ATOM     19  O   UNL A   1      34.332  18.728  24.599  1.00  0.00    -0.465 OA
ATOM     20  C   UNL A   1      32.529  18.286  23.363  1.00  0.00     0.042 A 
ATOM     21  C   UNL A   1      33.691  17.779  23.882  1.00  0.00     0.195 A 
ENDBRANCH  16  17
ENDBRANCH  12  15
ENDBRANCH   7  11
ENDBRANCH   4   7
ENDBRANCH   2   3
ENDBRANCH   1   2
BRANCH   1  22
ATOM     22  C   UNL A   1      32.415  29.689  25.274  1.00  0.00     0.023 C 
BRANCH  22  23
ATOM     23  C   UNL A   1      32.178  30.220  26.679  1.00  0.00     0.116 C 
BRANCH  23  24
ATOM     24  N   UNL A   1      32.211  31.675  26.731  1.00  0.00    -0.352 N 
ATOM     25  C   UNL A   1      33.106  32.503  27.361  1.00  0.00     0.251 C 
ATOM     26  H   UNL A   1      31.486  32.130  26.245  1.00  0.00     0.163 HD
ATOM     27  O   UNL A   1      32.875  33.702  27.448  1.00  0.00    -0.269 OA
BRANCH  25  28
ATOM     28  C   UNL A   1      34.338  31.932  27.943  1.00  0.00     0.039 A 
ATOM     29  C   UNL A   1      35.444  32.761  28.134  1.00  0.00     0.014 A 
ATOM     30  C   UNL A   1      34.391  30.585  28.312  1.00  0.00     0.014 A 
ATOM     31  C   UNL A   1      36.588  32.251  28.749  1.00  0.00     0.010 A 
ATOM     32  C   UNL A   1      35.493  30.105  29.007  1.00  0.00     0.010 A 
ATOM     33  C   UNL A   1      36.608  30.927  29.219  1.00  0.00    -0.014 A 
BRANCH  33  34
ATOM     34  C   UNL A   1      37.788  30.381  29.935  1.00  0.00     0.031 A 
ATOM     35  C   UNL A   1      38.087  30.827  31.341  1.00  0.00     0.074 A 
ATOM     36  C   UNL A   1      38.634  29.555  29.289  1.00  0.00     0.049 A 
ATOM     37  N   UNL A   1      39.096  30.507  32.108  1.00  0.00    -0.248 NA
ATOM     38  C   UNL A   1      37.147  31.779  31.958  1.00  0.00     0.031 C 
ATOM     39  C   UNL A   1      38.492  29.114  27.900  1.00  0.00     0.029 A 
ATOM     40  N   UNL A   1      39.795  28.956  29.709  1.00  0.00    -0.354 N 
ATOM     41  C   UNL A   1      38.935  31.245  33.275  1.00  0.00     0.074 A 
ATOM     42  C   UNL A   1      37.752  32.057  33.103  1.00  0.00     0.031 C 
ATOM     43  C   UNL A   1      39.518  28.307  27.586  1.00  0.00     0.029 A 
ATOM     44  C   UNL A   1      40.409  28.202  28.736  1.00  0.00     0.049 A 
ATOM     45  H   UNL A   1      40.154  29.057  30.621  1.00  0.00     0.167 HD
ATOM     46  C   UNL A   1      39.690  31.230  34.398  1.00  0.00     0.034 A 
ATOM     47  C   UNL A   1      41.566  27.511  28.766  1.00  0.00     0.034 A 
ATOM     48  C   UNL A   1      40.841  30.388  34.580  1.00  0.00     0.049 A 
ATOM     49  C   UNL A   1      42.365  27.484  30.041  1.00  0.00     0.074 A 
ATOM     50  C   UNL A   1      41.616  30.225  35.714  1.00  0.00     0.029 A 
ATOM     51  N   UNL A   1      41.391  29.578  33.598  1.00  0.00    -0.354 N 
ATOM     52  N   UNL A   1      42.108  28.064  31.189  1.00  0.00    -0.248 NA
ATOM     53  C   UNL A   1      43.596  26.680  30.035  1.00  0.00     0.031 C 
ATOM     54  C   UNL A   1      42.658  29.344  35.406  1.00  0.00     0.029 A 
ATOM     55  C   UNL A   1      42.505  28.926  34.094  1.00  0.00     0.049 A 
ATOM     56  H   UNL A   1      41.039  29.481  32.684  1.00  0.00     0.167 HD
ATOM     57  C   UNL A   1      43.121  27.663  32.052  1.00  0.00     0.074 A 
ATOM     58  C   UNL A   1      43.984  26.776  31.300  1.00  0.00     0.031 C 
ATOM     59  C   UNL A   1      43.326  28.006  33.348  1.00  0.00     0.034 A 
BRANCH  46  60
ATOM     60  C   UNL A   1      39.271  32.121  35.539  1.00  0.00     0.023 A 
ATOM     61  C   UNL A   1      38.415  31.622  36.542  1.00  0.00     0.012 A 
ATOM     62  C   UNL A   1      39.775  33.431  35.651  1.00  0.00     0.148 A 
ATOM     63  C   UNL A   1      38.037  32.424  37.619  1.00  0.00     0.002 A 
ATOM     64  C   UNL A   1      39.434  34.207  36.753  1.00  0.00     0.091 A 
ATOM     65  F   UNL A   1      40.571  33.896  34.679  1.00  0.00    -0.205 F 
ATOM     66  C   UNL A   1      38.556  33.710  37.730  1.00  0.00     0.022 A 
BRANCH  64  67
ATOM     67  S   UNL A   1      40.115  35.846  37.034  1.00  0.00     0.127 S 
ATOM     68  O   UNL A   1      39.496  36.207  38.308  1.00  0.00    -0.237 OA
ATOM     69  O   UNL A   1      41.549  35.573  37.108  1.00  0.00    -0.237 OA
ATOM     70  O   UNL A   1      39.705  36.653  35.893  1.00  0.00    -0.744 OA
ENDBRANCH  64  67
ENDBRANCH  46  60
BRANCH  47  71
ATOM     71  C   UNL A   1      42.008  26.740  27.570  1.00  0.00     0.023 A 
ATOM     72  C   UNL A   1      42.671  27.409  26.522  1.00  0.00     0.012 A 
ATOM     73  C   UNL A   1      41.790  25.353  27.470  1.00  0.00     0.148 A 
ATOM     74  C   UNL A   1      43.073  26.718  25.379  1.00  0.00     0.002 A 
ATOM     75  C   UNL A   1      42.244  24.660  26.354  1.00  0.00     0.091 A 
ATOM     76  F   UNL A   1      41.152  24.737  28.474  1.00  0.00    -0.205 F 
ATOM     77  C   UNL A   1      42.868  25.343  25.298  1.00  0.00     0.022 A 
BRANCH  75  78
ATOM     78  S   UNL A   1      42.139  22.872  26.223  1.00  0.00     0.127 S 
ATOM     79  O   UNL A   1      40.695  22.653  26.266  1.00  0.00    -0.237 OA
ATOM     80  O   UNL A   1      42.762  22.629  24.921  1.00  0.00    -0.237 OA
ATOM     81  O   UNL A   1      42.891  22.348  27.355  1.00  0.00    -0.744 OA
ENDBRANCH  75  78
ENDBRANCH  47  71
BRANCH  59  82
ATOM     82  C   UNL A   1      44.500  27.387  34.058  1.00  0.00     0.023 A 
ATOM     83  C   UNL A   1      45.764  28.007  34.006  1.00  0.00     0.012 A 
ATOM     84  C   UNL A   1      44.329  26.228  34.841  1.00  0.00     0.148 A 
ATOM     85  C   UNL A   1      46.849  27.461  34.692  1.00  0.00     0.002 A 
ATOM     86  C   UNL A   1      45.401  25.722  35.566  1.00  0.00     0.091 A 
ATOM     87  F   UNL A   1      43.122  25.644  34.865  1.00  0.00    -0.205 F 
ATOM     88  C   UNL A   1      46.665  26.328  35.481  1.00  0.00     0.022 A 
BRANCH  86  89
ATOM     89  S   UNL A   1      45.234  24.328  36.687  1.00  0.00     0.127 S 
ATOM     90  O   UNL A   1      46.586  24.220  37.230  1.00  0.00    -0.237 OA
ATOM     91  O   UNL A   1      44.232  24.814  37.636  1.00  0.00    -0.237 OA
ATOM     92  O   UNL A   1      44.797  23.204  35.870  1.00  0.00    -0.744 OA
ENDBRANCH  86  89
ENDBRANCH  59  82
ENDBRANCH  33  34
ENDBRANCH  25  28
ENDBRANCH  23  24
ENDBRANCH  22  23
ENDBRANCH   1  22
TORSDOF 18
ENDMDL
