MODEL 1
REMARK VINA RESULT:     -13.9      0.000      0.000
REMARK SMILES C[C@H]1[C@H](C)CC[C@@]2(C(=O)NCCCCNC(=O)c3ccc(-c4c5nc(c(-c6cccc(S(=O)(=O)[O-])c6F)c6ccc([nH]6)c(-c6cccc(S(=O)(=O)[O-])c6F)c6nc(c(-c7cccc(S(=O)(=O)[O-])c7F)c7ccc4[nH]7)C=C6)C=C5)cc3)CC[C@@]3(C)C(=CC[C@@H]4[C@@]5(C)CC[C@H](O)C(C)(C)[C@@H]5CC[C@]43C)[C@H]12
REMARK SMILES IDX 13 1 12 2 11 3 10 4 8 5 9 6 7 8 1 9 2 10 3 11 103 12 4 13
REMARK SMILES IDX 5 14 85 15 6 16 81 17 83 18 86 19 82 20 84 21 101 22 87 23
REMARK SMILES IDX 88 24 100 25 102 26 89 27 99 28 90 29 91 30 98 31 92 32
REMARK SMILES IDX 95 33 93 34 96 35 97 36 94 37 14 39 15 40 16 41 17 43 18 44
REMARK SMILES IDX 19 45 80 46 20 47 79 48 21 49 22 50 23 51 73 52 24 53 78 54
REMARK SMILES IDX 72 55 74 56 25 57 77 58 71 59 70 60 26 62 58 63 38 64 57 65
REMARK SMILES IDX 39 66 42 67 56 68 75 69 40 70 41 71 55 73 76 74 43 75 27 76
REMARK SMILES IDX 28 77 36 78 29 79 31 80 37 81 30 82 32 83 33 84 34 85 35 86
REMARK SMILES IDX 59 87 60 88 68 89 61 90 63 91 69 92 62 93 64 94 65 95 66 96
REMARK SMILES IDX 67 97 44 98 45 99 53 100 46 101 48 102 54 103 47 104 49 105
REMARK SMILES IDX 50 106 51 107 52 108
REMARK H PARENT 10 7 94 38 15 42 74 61 42 72
REMARK Flexibility Score: inf
ROOT
ATOM      1  C   UNL A   1      33.651  30.908  27.857  1.00  0.00     0.023 C 
ENDROOT
BRANCH   1   2
ATOM      2  C   UNL A   1      34.680  29.794  27.639  1.00  0.00     0.023 C 
BRANCH   2   3
ATOM      3  C   UNL A   1      34.313  28.712  26.619  1.00  0.00     0.116 C 
BRANCH   3   4
ATOM      4  N   UNL A   1      33.997  29.197  25.292  1.00  0.00    -0.356 N 
ATOM      5  C   UNL A   1      32.842  29.131  24.564  1.00  0.00     0.226 C 
ATOM      6  O   UNL A   1      33.027  29.025  23.344  1.00  0.00    -0.274 OA
ATOM      7  H   UNL A   1      34.742  29.652  24.837  1.00  0.00     0.163 HD
BRANCH   5   8
ATOM      8  C   UNL A   1      31.376  29.224  25.146  1.00  0.00     0.056 C 
ATOM      9  C   UNL A   1      28.725  28.936  22.226  1.00  0.00     0.008 C 
ATOM     10  C   UNL A   1      29.843  29.575  23.070  1.00  0.00    -0.003 C 
ATOM     11  C   UNL A   1      29.359  30.934  23.663  1.00  0.00    -0.011 C 
ATOM     12  C   UNL A   1      30.289  28.626  24.207  1.00  0.00     0.034 C 
ATOM     13  C   UNL A   1      29.063  31.989  22.586  1.00  0.00     0.008 C 
ATOM     14  C   UNL A   1      30.310  31.580  24.683  1.00  0.00     0.005 C 
ATOM     15  C   UNL A   1      30.771  27.204  23.876  1.00  0.00    -0.063 C 
ATOM     16  C   UNL A   1      31.045  30.649  25.632  1.00  0.00     0.018 C 
ATOM     17  C   UNL A   1      31.312  28.326  26.450  1.00  0.00     0.018 C 
ATOM     18  C   UNL A   1      30.647  26.180  25.036  1.00  0.00    -0.006 C 
ATOM     19  C   UNL A   1      31.501  26.951  22.769  1.00  0.00    -0.027 C 
ATOM     20  C   UNL A   1      31.397  26.797  26.267  1.00  0.00     0.013 C 
ATOM     21  C   UNL A   1      29.154  26.003  25.426  1.00  0.00     0.017 C 
ATOM     22  C   UNL A   1      31.273  24.732  24.623  1.00  0.00    -0.020 C 
ATOM     23  C   UNL A   1      32.408  25.759  22.606  1.00  0.00     0.032 C 
ATOM     24  C   UNL A   1      32.665  25.035  23.951  1.00  0.00     0.006 C 
ATOM     25  C   UNL A   1      31.425  23.791  25.848  1.00  0.00     0.008 C 
ATOM     26  C   UNL A   1      30.318  23.989  23.636  1.00  0.00     0.012 C 
ATOM     27  C   UNL A   1      33.778  23.902  23.927  1.00  0.00    -0.025 C 
ATOM     28  C   UNL A   1      32.333  22.588  25.585  1.00  0.00     0.005 C 
ATOM     29  C   UNL A   1      33.634  23.037  22.660  1.00  0.00     0.012 C 
ATOM     30  C   UNL A   1      35.177  24.604  23.889  1.00  0.00     0.010 C 
ATOM     31  C   UNL A   1      33.748  23.090  25.274  1.00  0.00     0.003 C 
ATOM     32  C   UNL A   1      36.362  23.656  24.062  1.00  0.00     0.033 C 
ATOM     33  C   UNL A   1      34.900  22.035  25.475  1.00  0.00    -0.006 C 
ATOM     34  C   UNL A   1      36.259  22.781  25.314  1.00  0.00     0.120 C 
ATOM     35  C   UNL A   1      34.811  20.799  24.554  1.00  0.00     0.014 C 
ATOM     36  C   UNL A   1      34.857  21.470  26.925  1.00  0.00     0.014 C 
BRANCH  34  37
ATOM     37  O   UNL A   1      37.355  21.865  25.343  1.00  0.00    -0.393 OA
ATOM     38  H   UNL A   1      38.094  22.228  24.831  1.00  0.00     0.210 HD
ENDBRANCH  34  37
ENDBRANCH   5   8
ENDBRANCH   3   4
ENDBRANCH   2   3
ENDBRANCH   1   2
BRANCH   1  39
ATOM     39  C   UNL A   1      33.895  32.233  27.137  1.00  0.00     0.116 C 
BRANCH  39  40
ATOM     40  N   UNL A   1      33.097  33.350  27.632  1.00  0.00    -0.352 N 
ATOM     41  C   UNL A   1      33.311  34.187  28.703  1.00  0.00     0.251 C 
ATOM     42  H   UNL A   1      32.277  33.533  27.119  1.00  0.00     0.163 HD
ATOM     43  O   UNL A   1      32.502  35.075  28.965  1.00  0.00    -0.269 OA
BRANCH  41  44
ATOM     44  C   UNL A   1      34.480  33.977  29.578  1.00  0.00     0.039 A 
ATOM     45  C   UNL A   1      34.314  33.227  30.746  1.00  0.00     0.014 A 
ATOM     46  C   UNL A   1      35.742  34.449  29.215  1.00  0.00     0.014 A 
ATOM     47  C   UNL A   1      35.436  32.841  31.485  1.00  0.00     0.010 A 
ATOM     48  C   UNL A   1      36.862  34.009  29.914  1.00  0.00     0.010 A 
ATOM     49  C   UNL A   1      36.723  33.172  31.035  1.00  0.00    -0.014 A 
BRANCH  49  50
ATOM     50  C   UNL A   1      37.944  32.599  31.661  1.00  0.00     0.031 A 
ATOM     51  C   UNL A   1      38.675  31.469  30.994  1.00  0.00     0.074 A 
ATOM     52  C   UNL A   1      38.301  32.998  32.899  1.00  0.00     0.049 A 
ATOM     53  N   UNL A   1      39.639  30.720  31.462  1.00  0.00    -0.248 NA
ATOM     54  C   UNL A   1      38.241  31.113  29.633  1.00  0.00     0.031 C 
ATOM     55  C   UNL A   1      37.630  34.038  33.682  1.00  0.00     0.029 A 
ATOM     56  N   UNL A   1      39.292  32.546  33.737  1.00  0.00    -0.354 N 
ATOM     57  C   UNL A   1      39.892  29.773  30.479  1.00  0.00     0.074 A 
ATOM     58  C   UNL A   1      38.971  30.032  29.393  1.00  0.00     0.031 C 
ATOM     59  C   UNL A   1      38.219  34.137  34.885  1.00  0.00     0.029 A 
ATOM     60  C   UNL A   1      39.284  33.143  34.977  1.00  0.00     0.049 A 
ATOM     61  H   UNL A   1      39.947  31.858  33.475  1.00  0.00     0.167 HD
ATOM     62  C   UNL A   1      40.821  28.788  30.472  1.00  0.00     0.034 A 
ATOM     63  C   UNL A   1      40.033  32.907  36.072  1.00  0.00     0.034 A 
ATOM     64  C   UNL A   1      41.774  28.571  31.527  1.00  0.00     0.049 A 
ATOM     65  C   UNL A   1      41.096  31.843  36.016  1.00  0.00     0.074 A 
ATOM     66  C   UNL A   1      42.811  27.655  31.574  1.00  0.00     0.029 A 
ATOM     67  N   UNL A   1      41.811  29.280  32.717  1.00  0.00    -0.354 N 
ATOM     68  N   UNL A   1      41.413  31.049  35.023  1.00  0.00    -0.248 NA
ATOM     69  C   UNL A   1      41.924  31.660  37.218  1.00  0.00     0.031 C 
ATOM     70  C   UNL A   1      43.472  27.807  32.797  1.00  0.00     0.029 A 
ATOM     71  C   UNL A   1      42.854  28.827  33.505  1.00  0.00     0.049 A 
ATOM     72  H   UNL A   1      41.188  30.001  32.965  1.00  0.00     0.167 HD
ATOM     73  C   UNL A   1      42.501  30.304  35.462  1.00  0.00     0.074 A 
ATOM     74  C   UNL A   1      42.797  30.748  36.809  1.00  0.00     0.031 C 
ATOM     75  C   UNL A   1      43.185  29.332  34.812  1.00  0.00     0.034 A 
BRANCH  62  76
ATOM     76  C   UNL A   1      40.892  27.901  29.258  1.00  0.00     0.023 A 
ATOM     77  C   UNL A   1      40.079  26.750  29.195  1.00  0.00     0.012 A 
ATOM     78  C   UNL A   1      41.711  28.231  28.161  1.00  0.00     0.148 A 
ATOM     79  C   UNL A   1      40.107  25.923  28.074  1.00  0.00     0.002 A 
ATOM     80  C   UNL A   1      41.702  27.423  27.030  1.00  0.00     0.091 A 
ATOM     81  F   UNL A   1      42.492  29.318  28.248  1.00  0.00    -0.205 F 
ATOM     82  C   UNL A   1      40.910  26.265  26.988  1.00  0.00     0.022 A 
BRANCH  80  83
ATOM     83  S   UNL A   1      42.645  27.822  25.553  1.00  0.00     0.127 S 
ATOM     84  O   UNL A   1      42.434  26.627  24.738  1.00  0.00    -0.237 OA
ATOM     85  O   UNL A   1      41.963  29.021  25.063  1.00  0.00    -0.237 OA
ATOM     86  O   UNL A   1      44.012  28.045  26.001  1.00  0.00    -0.744 OA
ENDBRANCH  80  83
ENDBRANCH  62  76
BRANCH  63  87
ATOM     87  C   UNL A   1      39.849  33.740  37.295  1.00  0.00     0.023 A 
ATOM     88  C   UNL A   1      40.451  35.012  37.354  1.00  0.00     0.012 A 
ATOM     89  C   UNL A   1      39.063  33.303  38.378  1.00  0.00     0.148 A 
ATOM     90  C   UNL A   1      40.299  35.822  38.479  1.00  0.00     0.002 A 
ATOM     91  C   UNL A   1      38.871  34.137  39.475  1.00  0.00     0.091 A 
ATOM     92  F   UNL A   1      38.508  32.085  38.311  1.00  0.00    -0.205 F 
ATOM     93  C   UNL A   1      39.501  35.390  39.535  1.00  0.00     0.022 A 
BRANCH  91  94
ATOM     94  S   UNL A   1      37.755  33.714  40.819  1.00  0.00     0.127 S 
ATOM     95  O   UNL A   1      38.556  32.763  41.585  1.00  0.00    -0.237 OA
ATOM     96  O   UNL A   1      37.550  35.010  41.465  1.00  0.00    -0.237 OA
ATOM     97  O   UNL A   1      36.564  33.173  40.178  1.00  0.00    -0.744 OA
ENDBRANCH  91  94
ENDBRANCH  63  87
BRANCH  75  98
ATOM     98  C   UNL A   1      44.360  28.703  35.511  1.00  0.00     0.023 A 
ATOM     99  C   UNL A   1      45.655  29.211  35.297  1.00  0.00     0.012 A 
ATOM    100  C   UNL A   1      44.159  27.692  36.472  1.00  0.00     0.148 A 
ATOM    101  C   UNL A   1      46.737  28.714  36.022  1.00  0.00     0.002 A 
ATOM    102  C   UNL A   1      45.234  27.232  37.221  1.00  0.00     0.091 A 
ATOM    103  F   UNL A   1      42.918  27.212  36.646  1.00  0.00    -0.205 F 
ATOM    104  C   UNL A   1      46.525  27.737  36.993  1.00  0.00     0.022 A 
BRANCH 102 105
ATOM    105  S   UNL A   1      45.043  26.047  38.558  1.00  0.00     0.127 S 
ATOM    106  O   UNL A   1      44.573  24.863  37.840  1.00  0.00    -0.237 OA
ATOM    107  O   UNL A   1      46.407  25.943  39.077  1.00  0.00    -0.237 OA
ATOM    108  O   UNL A   1      44.086  26.635  39.485  1.00  0.00    -0.744 OA
ENDBRANCH 102 105
ENDBRANCH  75  98
ENDBRANCH  49  50
ENDBRANCH  41  44
ENDBRANCH  39  40
ENDBRANCH   1  39
TORSDOF 15
ENDMDL
MODEL 2
REMARK VINA RESULT:     -13.5      0.483      7.222
REMARK SMILES C[C@H]1[C@H](C)CC[C@@]2(C(=O)NCCCCNC(=O)c3ccc(-c4c5nc(c(-c6cccc(S(=O)(=O)[O-])c6F)c6ccc([nH]6)c(-c6cccc(S(=O)(=O)[O-])c6F)c6nc(c(-c7cccc(S(=O)(=O)[O-])c7F)c7ccc4[nH]7)C=C6)C=C5)cc3)CC[C@@]3(C)C(=CC[C@@H]4[C@@]5(C)CC[C@H](O)C(C)(C)[C@@H]5CC[C@]43C)[C@H]12
REMARK SMILES IDX 13 1 12 2 11 3 10 4 8 5 9 6 7 8 1 9 2 10 3 11 103 12 4 13
REMARK SMILES IDX 5 14 85 15 6 16 81 17 83 18 86 19 82 20 84 21 101 22 87 23
REMARK SMILES IDX 88 24 100 25 102 26 89 27 99 28 90 29 91 30 98 31 92 32
REMARK SMILES IDX 95 33 93 34 96 35 97 36 94 37 14 39 15 40 16 41 17 43 18 44
REMARK SMILES IDX 19 45 80 46 20 47 79 48 21 49 22 50 23 51 73 52 24 53 78 54
REMARK SMILES IDX 72 55 74 56 25 57 77 58 71 59 70 60 26 62 58 63 38 64 57 65
REMARK SMILES IDX 39 66 42 67 56 68 75 69 40 70 41 71 55 73 76 74 43 75 27 76
REMARK SMILES IDX 28 77 36 78 29 79 31 80 37 81 30 82 32 83 33 84 34 85 35 86
REMARK SMILES IDX 59 87 60 88 68 89 61 90 63 91 69 92 62 93 64 94 65 95 66 96
REMARK SMILES IDX 67 97 44 98 45 99 53 100 46 101 48 102 54 103 47 104 49 105
REMARK SMILES IDX 50 106 51 107 52 108
REMARK H PARENT 10 7 94 38 15 42 74 61 42 72
REMARK Flexibility Score: inf
ROOT
ATOM      1  C   UNL A   1      33.773  31.206  28.001  1.00  0.00     0.023 C 
ENDROOT
BRANCH   1   2
ATOM      2  C   UNL A   1      34.825  30.136  27.691  1.00  0.00     0.023 C 
BRANCH   2   3
ATOM      3  C   UNL A   1      34.378  28.971  26.805  1.00  0.00     0.116 C 
BRANCH   3   4
ATOM      4  N   UNL A   1      34.062  29.323  25.436  1.00  0.00    -0.356 N 
ATOM      5  C   UNL A   1      32.919  29.151  24.707  1.00  0.00     0.226 C 
ATOM      6  O   UNL A   1      33.122  28.941  23.502  1.00  0.00    -0.274 OA
ATOM      7  H   UNL A   1      34.796  29.761  24.949  1.00  0.00     0.163 HD
BRANCH   5   8
ATOM      8  C   UNL A   1      31.443  29.243  25.264  1.00  0.00     0.056 C 
ATOM      9  C   UNL A   1      28.841  28.980  22.298  1.00  0.00     0.008 C 
ATOM     10  C   UNL A   1      29.947  29.611  23.165  1.00  0.00    -0.003 C 
ATOM     11  C   UNL A   1      29.455  30.967  23.759  1.00  0.00    -0.011 C 
ATOM     12  C   UNL A   1      30.371  28.653  24.303  1.00  0.00     0.034 C 
ATOM     13  C   UNL A   1      29.179  32.030  22.685  1.00  0.00     0.008 C 
ATOM     14  C   UNL A   1      30.391  31.604  24.799  1.00  0.00     0.005 C 
ATOM     15  C   UNL A   1      30.856  27.233  23.971  1.00  0.00    -0.063 C 
ATOM     16  C   UNL A   1      31.107  30.665  25.755  1.00  0.00     0.018 C 
ATOM     17  C   UNL A   1      31.355  28.336  26.561  1.00  0.00     0.018 C 
ATOM     18  C   UNL A   1      30.710  26.201  25.121  1.00  0.00    -0.006 C 
ATOM     19  C   UNL A   1      31.603  26.986  22.875  1.00  0.00    -0.027 C 
ATOM     20  C   UNL A   1      31.440  26.809  26.369  1.00  0.00     0.013 C 
ATOM     21  C   UNL A   1      29.210  26.025  25.485  1.00  0.00     0.017 C 
ATOM     22  C   UNL A   1      31.339  24.754  24.709  1.00  0.00    -0.020 C 
ATOM     23  C   UNL A   1      32.511  25.792  22.718  1.00  0.00     0.032 C 
ATOM     24  C   UNL A   1      32.744  25.059  24.063  1.00  0.00     0.006 C 
ATOM     25  C   UNL A   1      31.468  23.805  25.930  1.00  0.00     0.008 C 
ATOM     26  C   UNL A   1      30.400  24.020  23.701  1.00  0.00     0.012 C 
ATOM     27  C   UNL A   1      33.854  23.924  24.050  1.00  0.00    -0.025 C 
ATOM     28  C   UNL A   1      32.378  22.601  25.675  1.00  0.00     0.005 C 
ATOM     29  C   UNL A   1      33.730  23.067  22.775  1.00  0.00     0.012 C 
ATOM     30  C   UNL A   1      35.255  24.622  24.040  1.00  0.00     0.010 C 
ATOM     31  C   UNL A   1      33.799  23.102  25.390  1.00  0.00     0.003 C 
ATOM     32  C   UNL A   1      36.435  23.671  24.227  1.00  0.00     0.033 C 
ATOM     33  C   UNL A   1      34.946  22.043  25.604  1.00  0.00    -0.006 C 
ATOM     34  C   UNL A   1      36.309  22.788  25.471  1.00  0.00     0.120 C 
ATOM     35  C   UNL A   1      34.869  20.814  24.673  1.00  0.00     0.014 C 
ATOM     36  C   UNL A   1      34.877  21.469  27.049  1.00  0.00     0.014 C 
BRANCH  34  37
ATOM     37  O   UNL A   1      37.402  21.869  25.513  1.00  0.00    -0.393 OA
ATOM     38  H   UNL A   1      37.550  21.583  26.428  1.00  0.00     0.210 HD
ENDBRANCH  34  37
ENDBRANCH   5   8
ENDBRANCH   3   4
ENDBRANCH   2   3
ENDBRANCH   1   2
BRANCH   1  39
ATOM     39  C   UNL A   1      33.889  32.535  27.255  1.00  0.00     0.116 C 
BRANCH  39  40
ATOM     40  N   UNL A   1      33.156  33.639  27.863  1.00  0.00    -0.352 N 
ATOM     41  C   UNL A   1      33.382  34.311  29.043  1.00  0.00     0.251 C 
ATOM     42  H   UNL A   1      32.377  33.953  27.350  1.00  0.00     0.163 HD
ATOM     43  O   UNL A   1      32.633  35.222  29.389  1.00  0.00    -0.269 OA
BRANCH  41  44
ATOM     44  C   UNL A   1      34.490  33.896  29.924  1.00  0.00     0.039 A 
ATOM     45  C   UNL A   1      34.197  33.101  31.036  1.00  0.00     0.014 A 
ATOM     46  C   UNL A   1      35.813  34.223  29.618  1.00  0.00     0.014 A 
ATOM     47  C   UNL A   1      35.239  32.526  31.768  1.00  0.00     0.010 A 
ATOM     48  C   UNL A   1      36.847  33.596  30.307  1.00  0.00     0.010 A 
ATOM     49  C   UNL A   1      36.570  32.714  31.366  1.00  0.00    -0.014 A 
BRANCH  49  50
ATOM     50  C   UNL A   1      37.689  31.949  31.976  1.00  0.00     0.031 A 
ATOM     51  C   UNL A   1      38.259  32.372  33.300  1.00  0.00     0.074 A 
ATOM     52  C   UNL A   1      38.285  30.969  31.266  1.00  0.00     0.049 A 
ATOM     53  N   UNL A   1      39.340  31.954  33.904  1.00  0.00    -0.248 NA
ATOM     54  C   UNL A   1      37.534  33.429  34.024  1.00  0.00     0.031 C 
ATOM     55  C   UNL A   1      37.869  30.511  29.938  1.00  0.00     0.029 A 
ATOM     56  N   UNL A   1      39.396  30.209  31.541  1.00  0.00    -0.354 N 
ATOM     57  C   UNL A   1      39.457  32.729  35.050  1.00  0.00     0.074 A 
ATOM     58  C   UNL A   1      38.343  33.654  35.051  1.00  0.00     0.031 C 
ATOM     59  C   UNL A   1      38.718  29.561  29.512  1.00  0.00     0.029 A 
ATOM     60  C   UNL A   1      39.759  29.367  30.515  1.00  0.00     0.049 A 
ATOM     61  H   UNL A   1      39.888  30.262  32.394  1.00  0.00     0.167 HD
ATOM     62  C   UNL A   1      40.396  32.665  36.024  1.00  0.00     0.034 A 
ATOM     63  C   UNL A   1      40.820  28.546  30.384  1.00  0.00     0.034 A 
ATOM     64  C   UNL A   1      41.466  31.706  36.050  1.00  0.00     0.049 A 
ATOM     65  C   UNL A   1      41.817  28.454  31.508  1.00  0.00     0.074 A 
ATOM     66  C   UNL A   1      42.415  31.503  37.036  1.00  0.00     0.029 A 
ATOM     67  N   UNL A   1      41.727  30.785  35.047  1.00  0.00    -0.354 N 
ATOM     68  N   UNL A   1      41.831  29.098  32.650  1.00  0.00    -0.248 NA
ATOM     69  C   UNL A   1      42.927  27.503  31.342  1.00  0.00     0.031 C 
ATOM     70  C   UNL A   1      43.255  30.463  36.626  1.00  0.00     0.029 A 
ATOM     71  C   UNL A   1      42.820  30.010  35.390  1.00  0.00     0.049 A 
ATOM     72  H   UNL A   1      41.211  30.696  34.213  1.00  0.00     0.167 HD
ATOM     73  C   UNL A   1      42.922  28.601  33.354  1.00  0.00     0.074 A 
ATOM     74  C   UNL A   1      43.540  27.595  32.516  1.00  0.00     0.031 C 
ATOM     75  C   UNL A   1      43.377  28.957  34.580  1.00  0.00     0.034 A 
BRANCH  62  76
ATOM     76  C   UNL A   1      40.274  33.624  37.177  1.00  0.00     0.023 A 
ATOM     77  C   UNL A   1      40.910  34.881  37.100  1.00  0.00     0.012 A 
ATOM     78  C   UNL A   1      39.489  33.313  38.305  1.00  0.00     0.148 A 
ATOM     79  C   UNL A   1      40.796  35.798  38.144  1.00  0.00     0.002 A 
ATOM     80  C   UNL A   1      39.348  34.249  39.323  1.00  0.00     0.091 A 
ATOM     81  F   UNL A   1      38.910  32.106  38.369  1.00  0.00    -0.205 F 
ATOM     82  C   UNL A   1      40.008  35.487  39.248  1.00  0.00     0.022 A 
BRANCH  80  83
ATOM     83  S   UNL A   1      38.293  33.970  40.750  1.00  0.00     0.127 S 
ATOM     84  O   UNL A   1      38.181  35.319  41.302  1.00  0.00    -0.237 OA
ATOM     85  O   UNL A   1      37.067  33.459  40.136  1.00  0.00    -0.237 OA
ATOM     86  O   UNL A   1      38.997  33.005  41.583  1.00  0.00    -0.744 OA
ENDBRANCH  80  83
ENDBRANCH  62  76
BRANCH  63  87
ATOM     87  C   UNL A   1      40.958  27.693  29.168  1.00  0.00     0.023 A 
ATOM     88  C   UNL A   1      40.223  26.494  29.086  1.00  0.00     0.012 A 
ATOM     89  C   UNL A   1      41.776  28.073  28.087  1.00  0.00     0.148 A 
ATOM     90  C   UNL A   1      40.324  25.673  27.963  1.00  0.00     0.002 A 
ATOM     91  C   UNL A   1      41.831  27.276  26.948  1.00  0.00     0.091 A 
ATOM     92  F   UNL A   1      42.478  29.210  28.188  1.00  0.00    -0.205 F 
ATOM     93  C   UNL A   1      41.118  26.068  26.890  1.00  0.00     0.022 A 
BRANCH  91  94
ATOM     94  S   UNL A   1      42.725  27.774  25.471  1.00  0.00     0.127 S 
ATOM     95  O   UNL A   1      42.622  26.577  24.641  1.00  0.00    -0.237 OA
ATOM     96  O   UNL A   1      41.937  28.916  25.007  1.00  0.00    -0.237 OA
ATOM     97  O   UNL A   1      44.065  28.120  25.926  1.00  0.00    -0.744 OA
ENDBRANCH  91  94
ENDBRANCH  63  87
BRANCH  75  98
ATOM     98  C   UNL A   1      44.572  28.229  35.131  1.00  0.00     0.023 A 
ATOM     99  C   UNL A   1      45.865  28.742  34.914  1.00  0.00     0.012 A 
ATOM    100  C   UNL A   1      44.400  27.108  35.967  1.00  0.00     0.148 A 
ATOM    101  C   UNL A   1      46.971  28.141  35.513  1.00  0.00     0.002 A 
ATOM    102  C   UNL A   1      45.502  26.542  36.594  1.00  0.00     0.091 A 
ATOM    103  F   UNL A   1      43.159  26.627  36.144  1.00  0.00    -0.205 F 
ATOM    104  C   UNL A   1      46.789  27.053  36.363  1.00  0.00     0.022 A 
BRANCH 102 105
ATOM    105  S   UNL A   1      45.354  25.200  37.780  1.00  0.00     0.127 S 
ATOM    106  O   UNL A   1      44.738  24.151  36.967  1.00  0.00    -0.237 OA
ATOM    107  O   UNL A   1      46.750  24.950  38.140  1.00  0.00    -0.237 OA
ATOM    108  O   UNL A   1      44.531  25.710  38.868  1.00  0.00    -0.744 OA
ENDBRANCH 102 105
ENDBRANCH  75  98
ENDBRANCH  49  50
ENDBRANCH  41  44
ENDBRANCH  39  40
ENDBRANCH   1  39
TORSDOF 15
ENDMDL
MODEL 3
REMARK VINA RESULT:     -13.4      5.460     11.510
REMARK SMILES C[C@H]1[C@H](C)CC[C@@]2(C(=O)NCCCCNC(=O)c3ccc(-c4c5nc(c(-c6cccc(S(=O)(=O)[O-])c6F)c6ccc([nH]6)c(-c6cccc(S(=O)(=O)[O-])c6F)c6nc(c(-c7cccc(S(=O)(=O)[O-])c7F)c7ccc4[nH]7)C=C6)C=C5)cc3)CC[C@@]3(C)C(=CC[C@@H]4[C@@]5(C)CC[C@H](O)C(C)(C)[C@@H]5CC[C@]43C)[C@H]12
REMARK SMILES IDX 13 1 12 2 11 3 10 4 8 5 9 6 7 8 1 9 2 10 3 11 103 12 4 13
REMARK SMILES IDX 5 14 85 15 6 16 81 17 83 18 86 19 82 20 84 21 101 22 87 23
REMARK SMILES IDX 88 24 100 25 102 26 89 27 99 28 90 29 91 30 98 31 92 32
REMARK SMILES IDX 95 33 93 34 96 35 97 36 94 37 14 39 15 40 16 41 17 43 18 44
REMARK SMILES IDX 19 45 80 46 20 47 79 48 21 49 22 50 23 51 73 52 24 53 78 54
REMARK SMILES IDX 72 55 74 56 25 57 77 58 71 59 70 60 26 62 58 63 38 64 57 65
REMARK SMILES IDX 39 66 42 67 56 68 75 69 40 70 41 71 55 73 76 74 43 75 27 76
REMARK SMILES IDX 28 77 36 78 29 79 31 80 37 81 30 82 32 83 33 84 34 85 35 86
REMARK SMILES IDX 59 87 60 88 68 89 61 90 63 91 69 92 62 93 64 94 65 95 66 96
REMARK SMILES IDX 67 97 44 98 45 99 53 100 46 101 48 102 54 103 47 104 49 105
REMARK SMILES IDX 50 106 51 107 52 108
REMARK H PARENT 10 7 94 38 15 42 74 61 42 72
REMARK Flexibility Score: inf
ROOT
ATOM      1  C   UNL A   1      39.074  22.236  26.642  1.00  0.00     0.023 C 
ENDROOT
BRANCH   1   2
ATOM      2  C   UNL A   1      38.482  23.634  26.436  1.00  0.00     0.023 C 
BRANCH   2   3
ATOM      3  C   UNL A   1      37.011  23.701  26.019  1.00  0.00     0.116 C 
BRANCH   3   4
ATOM      4  N   UNL A   1      36.145  22.730  26.654  1.00  0.00    -0.356 N 
ATOM      5  C   UNL A   1      35.208  21.884  26.129  1.00  0.00     0.226 C 
ATOM      6  O   UNL A   1      34.244  21.680  26.880  1.00  0.00    -0.274 OA
ATOM      7  H   UNL A   1      36.249  22.669  27.631  1.00  0.00     0.163 HD
BRANCH   5   8
ATOM      8  C   UNL A   1      35.299  21.158  24.729  1.00  0.00     0.056 C 
ATOM      9  C   UNL A   1      32.131  18.859  24.170  1.00  0.00     0.008 C 
ATOM     10  C   UNL A   1      33.461  19.316  24.799  1.00  0.00    -0.003 C 
ATOM     11  C   UNL A   1      34.555  18.222  24.592  1.00  0.00    -0.011 C 
ATOM     12  C   UNL A   1      33.928  20.659  24.191  1.00  0.00     0.034 C 
ATOM     13  C   UNL A   1      34.237  16.907  25.320  1.00  0.00     0.008 C 
ATOM     14  C   UNL A   1      35.978  18.635  25.001  1.00  0.00     0.005 C 
ATOM     15  C   UNL A   1      33.000  21.884  24.232  1.00  0.00    -0.063 C 
ATOM     16  C   UNL A   1      36.391  20.070  24.721  1.00  0.00     0.018 C 
ATOM     17  C   UNL A   1      35.781  22.223  23.659  1.00  0.00     0.018 C 
ATOM     18  C   UNL A   1      33.282  22.960  23.149  1.00  0.00    -0.006 C 
ATOM     19  C   UNL A   1      32.205  22.125  25.295  1.00  0.00    -0.027 C 
ATOM     20  C   UNL A   1      34.796  23.347  23.279  1.00  0.00     0.013 C 
ATOM     21  C   UNL A   1      33.064  22.355  21.735  1.00  0.00     0.017 C 
ATOM     22  C   UNL A   1      32.317  24.261  23.335  1.00  0.00    -0.020 C 
ATOM     23  C   UNL A   1      31.657  23.483  25.653  1.00  0.00     0.032 C 
ATOM     24  C   UNL A   1      32.360  24.619  24.869  1.00  0.00     0.006 C 
ATOM     25  C   UNL A   1      32.774  25.457  22.458  1.00  0.00     0.008 C 
ATOM     26  C   UNL A   1      30.863  23.929  22.872  1.00  0.00     0.012 C 
ATOM     27  C   UNL A   1      32.011  26.098  25.329  1.00  0.00    -0.025 C 
ATOM     28  C   UNL A   1      32.143  26.790  22.865  1.00  0.00     0.005 C 
ATOM     29  C   UNL A   1      30.499  26.235  25.594  1.00  0.00     0.012 C 
ATOM     30  C   UNL A   1      32.773  26.376  26.668  1.00  0.00     0.010 C 
ATOM     31  C   UNL A   1      32.584  27.134  24.293  1.00  0.00     0.003 C 
ATOM     32  C   UNL A   1      32.703  27.826  27.144  1.00  0.00     0.033 C 
ATOM     33  C   UNL A   1      32.465  28.654  24.691  1.00  0.00    -0.006 C 
ATOM     34  C   UNL A   1      33.146  28.834  26.081  1.00  0.00     0.120 C 
ATOM     35  C   UNL A   1      31.026  29.212  24.679  1.00  0.00     0.014 C 
ATOM     36  C   UNL A   1      33.255  29.532  23.677  1.00  0.00     0.014 C 
BRANCH  34  37
ATOM     37  O   UNL A   1      32.957  30.161  26.577  1.00  0.00    -0.393 OA
ATOM     38  H   UNL A   1      33.789  30.486  26.955  1.00  0.00     0.210 HD
ENDBRANCH  34  37
ENDBRANCH   5   8
ENDBRANCH   3   4
ENDBRANCH   2   3
ENDBRANCH   1   2
BRANCH   1  39
ATOM     39  C   UNL A   1      39.172  21.333  25.413  1.00  0.00     0.116 C 
BRANCH  39  40
ATOM     40  N   UNL A   1      39.873  20.074  25.639  1.00  0.00    -0.352 N 
ATOM     41  C   UNL A   1      41.142  19.837  26.117  1.00  0.00     0.251 C 
ATOM     42  H   UNL A   1      39.357  19.266  25.414  1.00  0.00     0.163 HD
ATOM     43  O   UNL A   1      41.557  18.685  26.226  1.00  0.00    -0.269 OA
BRANCH  41  44
ATOM     44  C   UNL A   1      42.028  20.972  26.438  1.00  0.00     0.039 A 
ATOM     45  C   UNL A   1      42.450  21.805  25.398  1.00  0.00     0.014 A 
ATOM     46  C   UNL A   1      42.381  21.256  27.759  1.00  0.00     0.014 A 
ATOM     47  C   UNL A   1      43.118  22.997  25.695  1.00  0.00     0.010 A 
ATOM     48  C   UNL A   1      42.986  22.473  28.056  1.00  0.00     0.010 A 
ATOM     49  C   UNL A   1      43.329  23.372  27.031  1.00  0.00    -0.014 A 
BRANCH  49  50
ATOM     50  C   UNL A   1      43.832  24.722  27.396  1.00  0.00     0.031 A 
ATOM     51  C   UNL A   1      42.880  25.773  27.891  1.00  0.00     0.074 A 
ATOM     52  C   UNL A   1      45.117  25.041  27.138  1.00  0.00     0.049 A 
ATOM     53  N   UNL A   1      43.088  27.049  28.085  1.00  0.00    -0.248 NA
ATOM     54  C   UNL A   1      41.503  25.337  28.175  1.00  0.00     0.031 C 
ATOM     55  C   UNL A   1      46.124  24.129  26.591  1.00  0.00     0.029 A 
ATOM     56  N   UNL A   1      45.787  26.235  27.259  1.00  0.00    -0.354 N 
ATOM     57  C   UNL A   1      41.861  27.579  28.460  1.00  0.00     0.074 A 
ATOM     58  C   UNL A   1      40.909  26.489  28.455  1.00  0.00     0.031 C 
ATOM     59  C   UNL A   1      47.277  24.796  26.415  1.00  0.00     0.029 A 
ATOM     60  C   UNL A   1      47.083  26.191  26.798  1.00  0.00     0.049 A 
ATOM     61  H   UNL A   1      45.378  27.046  27.640  1.00  0.00     0.167 HD
ATOM     62  C   UNL A   1      41.558  28.855  28.798  1.00  0.00     0.034 A 
ATOM     63  C   UNL A   1      48.007  27.165  26.677  1.00  0.00     0.034 A 
ATOM     64  C   UNL A   1      42.519  29.923  28.860  1.00  0.00     0.049 A 
ATOM     65  C   UNL A   1      47.659  28.562  27.114  1.00  0.00     0.074 A 
ATOM     66  C   UNL A   1      42.327  31.229  29.276  1.00  0.00     0.029 A 
ATOM     67  N   UNL A   1      43.853  29.808  28.502  1.00  0.00    -0.354 N 
ATOM     68  N   UNL A   1      46.529  29.014  27.600  1.00  0.00    -0.248 NA
ATOM     69  C   UNL A   1      48.718  29.578  27.014  1.00  0.00     0.031 C 
ATOM     70  C   UNL A   1      43.546  31.906  29.162  1.00  0.00     0.029 A 
ATOM     71  C   UNL A   1      44.498  31.017  28.689  1.00  0.00     0.049 A 
ATOM     72  H   UNL A   1      44.279  28.986  28.164  1.00  0.00     0.167 HD
ATOM     73  C   UNL A   1      46.752  30.352  27.904  1.00  0.00     0.074 A 
ATOM     74  C   UNL A   1      48.129  30.637  27.556  1.00  0.00     0.031 C 
ATOM     75  C   UNL A   1      45.890  31.265  28.413  1.00  0.00     0.034 A 
BRANCH  62  76
ATOM     76  C   UNL A   1      40.135  29.157  29.185  1.00  0.00     0.023 A 
ATOM     77  C   UNL A   1      39.185  29.415  28.175  1.00  0.00     0.012 A 
ATOM     78  C   UNL A   1      39.724  29.130  30.532  1.00  0.00     0.148 A 
ATOM     79  C   UNL A   1      37.856  29.676  28.503  1.00  0.00     0.002 A 
ATOM     80  C   UNL A   1      38.389  29.351  30.847  1.00  0.00     0.091 A 
ATOM     81  F   UNL A   1      40.646  28.904  31.479  1.00  0.00    -0.205 F 
ATOM     82  C   UNL A   1      37.456  29.633  29.836  1.00  0.00     0.022 A 
BRANCH  80  83
ATOM     83  S   UNL A   1      37.764  29.242  32.528  1.00  0.00     0.127 S 
ATOM     84  O   UNL A   1      38.703  30.100  33.248  1.00  0.00    -0.237 OA
ATOM     85  O   UNL A   1      36.414  29.793  32.395  1.00  0.00    -0.237 OA
ATOM     86  O   UNL A   1      37.806  27.829  32.878  1.00  0.00    -0.744 OA
ENDBRANCH  80  83
ENDBRANCH  62  76
BRANCH  63  87
ATOM     87  C   UNL A   1      49.375  26.838  26.181  1.00  0.00     0.023 A 
ATOM     88  C   UNL A   1      50.245  26.100  27.008  1.00  0.00     0.012 A 
ATOM     89  C   UNL A   1      49.807  27.216  24.895  1.00  0.00     0.148 A 
ATOM     90  C   UNL A   1      51.531  25.772  26.576  1.00  0.00     0.002 A 
ATOM     91  C   UNL A   1      51.070  26.840  24.451  1.00  0.00     0.091 A 
ATOM     92  F   UNL A   1      48.970  27.928  24.127  1.00  0.00    -0.205 F 
ATOM     93  C   UNL A   1      51.940  26.132  25.295  1.00  0.00     0.022 A 
BRANCH  91  94
ATOM     94  S   UNL A   1      51.627  27.149  22.771  1.00  0.00     0.127 S 
ATOM     95  O   UNL A   1      52.808  26.293  22.685  1.00  0.00    -0.237 OA
ATOM     96  O   UNL A   1      50.481  26.700  21.981  1.00  0.00    -0.237 OA
ATOM     97  O   UNL A   1      51.874  28.582  22.701  1.00  0.00    -0.744 OA
ENDBRANCH  91  94
ENDBRANCH  63  87
BRANCH  75  98
ATOM     98  C   UNL A   1      46.404  32.653  28.682  1.00  0.00     0.023 A 
ATOM     99  C   UNL A   1      47.065  32.930  29.894  1.00  0.00     0.012 A 
ATOM    100  C   UNL A   1      46.340  33.643  27.683  1.00  0.00     0.148 A 
ATOM    101  C   UNL A   1      47.646  34.179  30.111  1.00  0.00     0.002 A 
ATOM    102  C   UNL A   1      46.958  34.870  27.889  1.00  0.00     0.091 A 
ATOM    103  F   UNL A   1      45.689  33.360  26.544  1.00  0.00    -0.205 F 
ATOM    104  C   UNL A   1      47.606  35.141  29.105  1.00  0.00     0.022 A 
BRANCH 102 105
ATOM    105  S   UNL A   1      47.041  36.135  26.616  1.00  0.00     0.127 S 
ATOM    106  O   UNL A   1      45.634  36.507  26.474  1.00  0.00    -0.237 OA
ATOM    107  O   UNL A   1      47.880  37.154  27.246  1.00  0.00    -0.237 OA
ATOM    108  O   UNL A   1      47.637  35.497  25.450  1.00  0.00    -0.744 OA
ENDBRANCH 102 105
ENDBRANCH  75  98
ENDBRANCH  49  50
ENDBRANCH  41  44
ENDBRANCH  39  40
ENDBRANCH   1  39
TORSDOF 15
ENDMDL
