MODEL 1
REMARK VINA RESULT:     -11.1      0.000      0.000
REMARK SMILES CCc1cc(/C=C/C(=O)NCCCCNC(=O)c2ccc(-c3c4nc(c(-c5cccc(S(=O)(=O)[O-])c5F)c5ccc([nH]5)c(-c5cccc(S(=O)(=O)[O-])c5F)c5nc(c(-c6cccc(S(=O)(=O)[O-])c6F)c6ccc3[nH]6)C=C5)C=C4)cc2)cc(C(=O)c2ccccc2)c1
REMARK SMILES IDX 12 1 11 2 10 3 8 4 9 5 7 7 6 8 5 9 3 10 4 11 91 12 82 13
REMARK SMILES IDX 81 14 2 15 1 16 83 17 84 18 85 19 86 20 90 21 87 22 89 23
REMARK SMILES IDX 88 24 13 25 14 26 15 27 16 28 17 30 18 31 19 32 80 33 20 34
REMARK SMILES IDX 79 35 21 36 22 37 23 38 73 39 24 40 78 41 72 42 74 43 25 44
REMARK SMILES IDX 77 45 71 46 70 47 26 49 58 50 38 51 57 52 39 53 42 54 56 55
REMARK SMILES IDX 75 56 40 57 41 58 55 60 76 61 43 62 27 63 28 64 36 65 29 66
REMARK SMILES IDX 31 67 37 68 30 69 32 70 33 71 34 72 35 73 59 74 60 75 68 76
REMARK SMILES IDX 61 77 63 78 69 79 62 80 64 81 65 82 66 83 67 84 44 85 45 86
REMARK SMILES IDX 53 87 46 88 48 89 54 90 47 91 49 92 50 93 51 94 52 95
REMARK H PARENT 10 6 15 29 74 48 42 59
REMARK Flexibility Score: inf
ROOT
ATOM      1  C   UNL A   1      34.389  33.344  28.367  1.00  0.00     0.023 C 
ENDROOT
BRANCH   1   2
ATOM      2  C   UNL A   1      34.084  31.966  27.777  1.00  0.00     0.116 C 
BRANCH   2   3
ATOM      3  N   UNL A   1      35.162  31.028  28.031  1.00  0.00    -0.353 N 
ATOM      4  C   UNL A   1      35.359  29.766  27.567  1.00  0.00     0.243 C 
ATOM      5  O   UNL A   1      36.414  29.182  27.807  1.00  0.00    -0.270 OA
ATOM      6  H   UNL A   1      35.864  31.360  28.637  1.00  0.00     0.163 HD
BRANCH   4   7
ATOM      7  C   UNL A   1      34.357  29.091  26.709  1.00  0.00     0.072 C 
ATOM      8  C   UNL A   1      33.348  28.334  27.163  1.00  0.00     0.014 C 
BRANCH   8   9
ATOM      9  C   UNL A   1      32.420  27.593  26.303  1.00  0.00    -0.024 A 
ATOM     10  C   UNL A   1      30.990  25.651  25.887  1.00  0.00    -0.047 A 
ATOM     11  C   UNL A   1      31.944  26.327  26.667  1.00  0.00     0.011 A 
ATOM     12  C   UNL A   1      30.527  26.270  24.719  1.00  0.00     0.016 A 
ATOM     13  C   UNL A   1      30.962  27.555  24.364  1.00  0.00     0.023 A 
ATOM     14  C   UNL A   1      31.918  28.206  25.151  1.00  0.00     0.020 A 
BRANCH  10  15
ATOM     15  C   UNL A   1      30.500  24.308  26.378  1.00  0.00     0.032 C 
ATOM     16  C   UNL A   1      31.556  23.233  26.607  1.00  0.00     0.009 C 
ENDBRANCH  10  15
BRANCH  13  17
ATOM     17  C   UNL A   1      30.446  28.249  23.151  1.00  0.00     0.193 C 
ATOM     18  O   UNL A   1      30.793  27.873  22.035  1.00  0.00    -0.289 OA
BRANCH  17  19
ATOM     19  C   UNL A   1      29.498  29.384  23.258  1.00  0.00     0.022 A 
ATOM     20  C   UNL A   1      28.193  29.210  22.786  1.00  0.00     0.012 A 
ATOM     21  C   UNL A   1      29.885  30.612  23.808  1.00  0.00     0.012 A 
ATOM     22  C   UNL A   1      27.264  30.242  22.911  1.00  0.00     0.001 A 
ATOM     23  C   UNL A   1      28.950  31.641  23.935  1.00  0.00     0.001 A 
ATOM     24  C   UNL A   1      27.641  31.453  23.494  1.00  0.00     0.000 A 
ENDBRANCH  17  19
ENDBRANCH  13  17
ENDBRANCH   8   9
ENDBRANCH   4   7
ENDBRANCH   2   3
ENDBRANCH   1   2
BRANCH   1  25
ATOM     25  C   UNL A   1      33.157  34.169  28.748  1.00  0.00     0.023 C 
BRANCH  25  26
ATOM     26  C   UNL A   1      33.452  35.581  29.243  1.00  0.00     0.116 C 
BRANCH  26  27
ATOM     27  N   UNL A   1      32.558  36.023  30.299  1.00  0.00    -0.352 N 
ATOM     28  C   UNL A   1      32.652  35.772  31.654  1.00  0.00     0.251 C 
ATOM     29  H   UNL A   1      31.789  36.569  30.015  1.00  0.00     0.163 HD
ATOM     30  O   UNL A   1      31.771  36.128  32.415  1.00  0.00    -0.269 OA
BRANCH  28  31
ATOM     31  C   UNL A   1      33.824  35.021  32.154  1.00  0.00     0.039 A 
ATOM     32  C   UNL A   1      33.661  33.681  32.513  1.00  0.00     0.014 A 
ATOM     33  C   UNL A   1      35.080  35.627  32.221  1.00  0.00     0.014 A 
ATOM     34  C   UNL A   1      34.777  32.926  32.880  1.00  0.00     0.010 A 
ATOM     35  C   UNL A   1      36.199  34.858  32.524  1.00  0.00     0.010 A 
ATOM     36  C   UNL A   1      36.058  33.502  32.858  1.00  0.00    -0.014 A 
BRANCH  36  37
ATOM     37  C   UNL A   1      37.271  32.710  33.177  1.00  0.00     0.031 A 
ATOM     38  C   UNL A   1      37.980  32.926  34.484  1.00  0.00     0.074 A 
ATOM     39  C   UNL A   1      37.793  31.885  32.248  1.00  0.00     0.049 A 
ATOM     40  N   UNL A   1      39.107  32.414  34.906  1.00  0.00    -0.248 NA
ATOM     41  C   UNL A   1      37.359  33.868  35.431  1.00  0.00     0.031 C 
ATOM     42  C   UNL A   1      37.239  31.655  30.912  1.00  0.00     0.029 A 
ATOM     43  N   UNL A   1      38.927  31.113  32.274  1.00  0.00    -0.354 N 
ATOM     44  C   UNL A   1      39.352  33.003  36.139  1.00  0.00     0.074 A 
ATOM     45  C   UNL A   1      38.272  33.932  36.388  1.00  0.00     0.031 C 
ATOM     46  C   UNL A   1      38.036  30.804  30.246  1.00  0.00     0.029 A 
ATOM     47  C   UNL A   1      39.167  30.445  31.096  1.00  0.00     0.049 A 
ATOM     48  H   UNL A   1      39.513  31.042  33.062  1.00  0.00     0.167 HD
ATOM     49  C   UNL A   1      40.369  32.770  37.003  1.00  0.00     0.034 A 
ATOM     50  C   UNL A   1      40.187  29.638  30.740  1.00  0.00     0.034 A 
ATOM     51  C   UNL A   1      41.404  31.798  36.779  1.00  0.00     0.049 A 
ATOM     52  C   UNL A   1      41.266  29.340  31.748  1.00  0.00     0.074 A 
ATOM     53  C   UNL A   1      42.425  31.418  37.630  1.00  0.00     0.029 A 
ATOM     54  N   UNL A   1      41.547  31.049  35.621  1.00  0.00    -0.354 N 
ATOM     55  N   UNL A   1      41.394  29.785  32.974  1.00  0.00    -0.248 NA
ATOM     56  C   UNL A   1      42.317  28.397  31.338  1.00  0.00     0.031 C 
ATOM     57  C   UNL A   1      43.189  30.440  36.985  1.00  0.00     0.029 A 
ATOM     58  C   UNL A   1      42.637  30.205  35.736  1.00  0.00     0.049 A 
ATOM     59  H   UNL A   1      40.959  31.109  34.834  1.00  0.00     0.167 HD
ATOM     60  C   UNL A   1      42.513  29.149  33.496  1.00  0.00     0.074 A 
ATOM     61  C   UNL A   1      43.019  28.274  32.457  1.00  0.00     0.031 C 
ATOM     62  C   UNL A   1      43.083  29.287  34.719  1.00  0.00     0.034 A 
BRANCH  49  63
ATOM     63  C   UNL A   1      40.370  33.529  38.302  1.00  0.00     0.023 A 
ATOM     64  C   UNL A   1      39.627  33.033  39.393  1.00  0.00     0.012 A 
ATOM     65  C   UNL A   1      41.137  34.698  38.463  1.00  0.00     0.148 A 
ATOM     66  C   UNL A   1      39.620  33.705  40.613  1.00  0.00     0.002 A 
ATOM     67  C   UNL A   1      41.158  35.342  39.697  1.00  0.00     0.091 A 
ATOM     68  F   UNL A   1      41.817  35.171  37.409  1.00  0.00    -0.205 F 
ATOM     69  C   UNL A   1      40.393  34.852  40.768  1.00  0.00     0.022 A 
BRANCH  67  70
ATOM     70  S   UNL A   1      42.182  36.783  40.016  1.00  0.00     0.127 S 
ATOM     71  O   UNL A   1      43.510  36.284  39.666  1.00  0.00    -0.237 OA
ATOM     72  O   UNL A   1      41.634  37.767  39.081  1.00  0.00    -0.237 OA
ATOM     73  O   UNL A   1      41.983  37.110  41.421  1.00  0.00    -0.744 OA
ENDBRANCH  67  70
ENDBRANCH  49  63
BRANCH  50  74
ATOM     74  C   UNL A   1      40.188  28.987  29.400  1.00  0.00     0.023 A 
ATOM     75  C   UNL A   1      40.472  29.764  28.261  1.00  0.00     0.012 A 
ATOM     76  C   UNL A   1      39.947  27.608  29.248  1.00  0.00     0.148 A 
ATOM     77  C   UNL A   1      40.487  29.187  26.990  1.00  0.00     0.002 A 
ATOM     78  C   UNL A   1      40.014  27.029  27.985  1.00  0.00     0.091 A 
ATOM     79  F   UNL A   1      39.666  26.887  30.342  1.00  0.00    -0.205 F 
ATOM     80  C   UNL A   1      40.269  27.820  26.853  1.00  0.00     0.022 A 
BRANCH  78  81
ATOM     81  S   UNL A   1      39.875  25.256  27.733  1.00  0.00     0.127 S 
ATOM     82  O   UNL A   1      40.973  24.750  28.551  1.00  0.00    -0.237 OA
ATOM     83  O   UNL A   1      38.537  24.977  28.257  1.00  0.00    -0.237 OA
ATOM     84  O   UNL A   1      40.005  25.057  26.295  1.00  0.00    -0.744 OA
ENDBRANCH  78  81
ENDBRANCH  50  74
BRANCH  62  85
ATOM     85  C   UNL A   1      44.292  28.448  35.030  1.00  0.00     0.023 A 
ATOM     86  C   UNL A   1      45.580  28.981  34.830  1.00  0.00     0.012 A 
ATOM     87  C   UNL A   1      44.151  27.173  35.611  1.00  0.00     0.148 A 
ATOM     88  C   UNL A   1      46.711  28.246  35.182  1.00  0.00     0.002 A 
ATOM     89  C   UNL A   1      45.281  26.465  36.001  1.00  0.00     0.091 A 
ATOM     90  F   UNL A   1      42.915  26.677  35.774  1.00  0.00    -0.205 F 
ATOM     91  C   UNL A   1      46.562  26.996  35.780  1.00  0.00     0.022 A 
BRANCH  89  92
ATOM     92  S   UNL A   1      45.177  24.892  36.862  1.00  0.00     0.127 S 
ATOM     93  O   UNL A   1      46.587  24.587  37.099  1.00  0.00    -0.237 OA
ATOM     94  O   UNL A   1      44.418  25.242  38.064  1.00  0.00    -0.237 OA
ATOM     95  O   UNL A   1      44.482  23.987  35.956  1.00  0.00    -0.744 OA
ENDBRANCH  89  92
ENDBRANCH  62  85
ENDBRANCH  36  37
ENDBRANCH  28  31
ENDBRANCH  26  27
ENDBRANCH  25  26
ENDBRANCH   1  25
TORSDOF 18
ENDMDL
MODEL 2
REMARK VINA RESULT:     -11.0      1.595      3.134
REMARK SMILES CCc1cc(/C=C/C(=O)NCCCCNC(=O)c2ccc(-c3c4nc(c(-c5cccc(S(=O)(=O)[O-])c5F)c5ccc([nH]5)c(-c5cccc(S(=O)(=O)[O-])c5F)c5nc(c(-c6cccc(S(=O)(=O)[O-])c6F)c6ccc3[nH]6)C=C5)C=C4)cc2)cc(C(=O)c2ccccc2)c1
REMARK SMILES IDX 12 1 11 2 10 3 8 4 9 5 7 7 6 8 5 9 3 10 4 11 91 12 82 13
REMARK SMILES IDX 81 14 2 15 1 16 83 17 84 18 85 19 86 20 90 21 87 22 89 23
REMARK SMILES IDX 88 24 13 25 14 26 15 27 16 28 17 30 18 31 19 32 80 33 20 34
REMARK SMILES IDX 79 35 21 36 22 37 23 38 73 39 24 40 78 41 72 42 74 43 25 44
REMARK SMILES IDX 77 45 71 46 70 47 26 49 58 50 38 51 57 52 39 53 42 54 56 55
REMARK SMILES IDX 75 56 40 57 41 58 55 60 76 61 43 62 27 63 28 64 36 65 29 66
REMARK SMILES IDX 31 67 37 68 30 69 32 70 33 71 34 72 35 73 59 74 60 75 68 76
REMARK SMILES IDX 61 77 63 78 69 79 62 80 64 81 65 82 66 83 67 84 44 85 45 86
REMARK SMILES IDX 53 87 46 88 48 89 54 90 47 91 49 92 50 93 51 94 52 95
REMARK H PARENT 10 6 15 29 74 48 42 59
REMARK Flexibility Score: inf
ROOT
ATOM      1  C   UNL A   1      34.332  33.231  28.818  1.00  0.00     0.023 C 
ENDROOT
BRANCH   1   2
ATOM      2  C   UNL A   1      34.117  31.952  28.006  1.00  0.00     0.116 C 
BRANCH   2   3
ATOM      3  N   UNL A   1      35.253  31.055  28.118  1.00  0.00    -0.353 N 
ATOM      4  C   UNL A   1      35.457  29.822  27.583  1.00  0.00     0.243 C 
ATOM      5  O   UNL A   1      36.553  29.277  27.699  1.00  0.00    -0.270 OA
ATOM      6  H   UNL A   1      35.994  31.394  28.670  1.00  0.00     0.163 HD
BRANCH   4   7
ATOM      7  C   UNL A   1      34.407  29.137  26.794  1.00  0.00     0.072 C 
ATOM      8  C   UNL A   1      33.286  28.609  27.307  1.00  0.00     0.014 C 
BRANCH   8   9
ATOM      9  C   UNL A   1      32.301  27.850  26.532  1.00  0.00    -0.024 A 
ATOM     10  C   UNL A   1      30.704  27.694  24.684  1.00  0.00    -0.047 A 
ATOM     11  C   UNL A   1      31.587  28.441  25.483  1.00  0.00     0.011 A 
ATOM     12  C   UNL A   1      30.541  26.332  24.968  1.00  0.00     0.016 A 
ATOM     13  C   UNL A   1      31.281  25.716  25.989  1.00  0.00     0.023 A 
ATOM     14  C   UNL A   1      32.148  26.480  26.776  1.00  0.00     0.020 A 
BRANCH  10  15
ATOM     15  C   UNL A   1      30.009  28.404  23.546  1.00  0.00     0.032 C 
ATOM     16  C   UNL A   1      30.874  28.808  22.358  1.00  0.00     0.009 C 
ENDBRANCH  10  15
BRANCH  13  17
ATOM     17  C   UNL A   1      31.157  24.260  26.275  1.00  0.00     0.193 C 
ATOM     18  O   UNL A   1      30.451  23.875  27.204  1.00  0.00    -0.289 OA
BRANCH  17  19
ATOM     19  C   UNL A   1      31.857  23.248  25.446  1.00  0.00     0.022 A 
ATOM     20  C   UNL A   1      32.924  23.666  24.644  1.00  0.00     0.012 A 
ATOM     21  C   UNL A   1      31.467  21.904  25.448  1.00  0.00     0.012 A 
ATOM     22  C   UNL A   1      33.631  22.733  23.886  1.00  0.00     0.001 A 
ATOM     23  C   UNL A   1      32.181  20.973  24.691  1.00  0.00     0.001 A 
ATOM     24  C   UNL A   1      33.265  21.387  23.918  1.00  0.00     0.000 A 
ENDBRANCH  17  19
ENDBRANCH  13  17
ENDBRANCH   8   9
ENDBRANCH   4   7
ENDBRANCH   2   3
ENDBRANCH   1   2
BRANCH   1  25
ATOM     25  C   UNL A   1      33.247  34.297  28.639  1.00  0.00     0.023 C 
BRANCH  25  26
ATOM     26  C   UNL A   1      33.571  35.658  29.245  1.00  0.00     0.116 C 
BRANCH  26  27
ATOM     27  N   UNL A   1      32.638  36.069  30.279  1.00  0.00    -0.352 N 
ATOM     28  C   UNL A   1      32.696  35.801  31.632  1.00  0.00     0.251 C 
ATOM     29  H   UNL A   1      31.868  36.605  29.978  1.00  0.00     0.163 HD
ATOM     30  O   UNL A   1      31.786  36.131  32.372  1.00  0.00    -0.269 OA
BRANCH  28  31
ATOM     31  C   UNL A   1      33.867  35.065  32.158  1.00  0.00     0.039 A 
ATOM     32  C   UNL A   1      33.704  33.735  32.551  1.00  0.00     0.014 A 
ATOM     33  C   UNL A   1      35.121  35.675  32.218  1.00  0.00     0.014 A 
ATOM     34  C   UNL A   1      34.819  32.992  32.943  1.00  0.00     0.010 A 
ATOM     35  C   UNL A   1      36.239  34.916  32.546  1.00  0.00     0.010 A 
ATOM     36  C   UNL A   1      36.099  33.569  32.913  1.00  0.00    -0.014 A 
BRANCH  36  37
ATOM     37  C   UNL A   1      37.311  32.789  33.260  1.00  0.00     0.031 A 
ATOM     38  C   UNL A   1      38.014  33.040  34.564  1.00  0.00     0.074 A 
ATOM     39  C   UNL A   1      37.840  31.940  32.355  1.00  0.00     0.049 A 
ATOM     40  N   UNL A   1      39.139  32.540  35.005  1.00  0.00    -0.248 NA
ATOM     41  C   UNL A   1      37.386  34.005  35.482  1.00  0.00     0.031 C 
ATOM     42  C   UNL A   1      37.293  31.674  31.023  1.00  0.00     0.029 A 
ATOM     43  N   UNL A   1      38.975  31.171  32.407  1.00  0.00    -0.354 N 
ATOM     44  C   UNL A   1      39.377  33.162  36.224  1.00  0.00     0.074 A 
ATOM     45  C   UNL A   1      38.294  34.095  36.443  1.00  0.00     0.031 C 
ATOM     46  C   UNL A   1      38.095  30.807  30.383  1.00  0.00     0.029 A 
ATOM     47  C   UNL A   1      39.222  30.472  31.249  1.00  0.00     0.049 A 
ATOM     48  H   UNL A   1      39.556  31.122  33.200  1.00  0.00     0.167 HD
ATOM     49  C   UNL A   1      40.390  32.953  37.099  1.00  0.00     0.034 A 
ATOM     50  C   UNL A   1      40.246  29.659  30.919  1.00  0.00     0.034 A 
ATOM     51  C   UNL A   1      41.427  31.977  36.905  1.00  0.00     0.049 A 
ATOM     52  C   UNL A   1      41.319  29.389  31.940  1.00  0.00     0.074 A 
ATOM     53  C   UNL A   1      42.445  31.622  37.772  1.00  0.00     0.029 A 
ATOM     54  N   UNL A   1      41.577  31.199  35.768  1.00  0.00    -0.354 N 
ATOM     55  N   UNL A   1      41.440  29.866  33.154  1.00  0.00    -0.248 NA
ATOM     56  C   UNL A   1      42.374  28.437  31.560  1.00  0.00     0.031 C 
ATOM     57  C   UNL A   1      43.213  30.629  37.156  1.00  0.00     0.029 A 
ATOM     58  C   UNL A   1      42.668  30.360  35.911  1.00  0.00     0.049 A 
ATOM     59  H   UNL A   1      40.993  31.237  34.976  1.00  0.00     0.167 HD
ATOM     60  C   UNL A   1      42.558  29.246  33.699  1.00  0.00     0.074 A 
ATOM     61  C   UNL A   1      43.070  28.345  32.686  1.00  0.00     0.031 C 
ATOM     62  C   UNL A   1      43.120  29.417  34.920  1.00  0.00     0.034 A 
BRANCH  49  63
ATOM     63  C   UNL A   1      40.382  33.746  38.377  1.00  0.00     0.023 A 
ATOM     64  C   UNL A   1      41.217  34.876  38.494  1.00  0.00     0.012 A 
ATOM     65  C   UNL A   1      39.521  33.410  39.439  1.00  0.00     0.148 A 
ATOM     66  C   UNL A   1      41.221  35.641  39.659  1.00  0.00     0.002 A 
ATOM     67  C   UNL A   1      39.501  34.202  40.584  1.00  0.00     0.091 A 
ATOM     68  F   UNL A   1      38.752  32.318  39.322  1.00  0.00    -0.205 F 
ATOM     69  C   UNL A   1      40.357  35.310  40.698  1.00  0.00     0.022 A 
BRANCH  67  70
ATOM     70  S   UNL A   1      38.368  33.901  41.945  1.00  0.00     0.127 S 
ATOM     71  O   UNL A   1      38.872  32.635  42.474  1.00  0.00    -0.237 OA
ATOM     72  O   UNL A   1      38.604  35.059  42.808  1.00  0.00    -0.237 OA
ATOM     73  O   UNL A   1      37.038  33.850  41.353  1.00  0.00    -0.744 OA
ENDBRANCH  67  70
ENDBRANCH  49  63
BRANCH  50  74
ATOM     74  C   UNL A   1      40.254  28.973  29.597  1.00  0.00     0.023 A 
ATOM     75  C   UNL A   1      40.664  29.689  28.455  1.00  0.00     0.012 A 
ATOM     76  C   UNL A   1      39.898  27.617  29.464  1.00  0.00     0.148 A 
ATOM     77  C   UNL A   1      40.690  29.078  27.201  1.00  0.00     0.002 A 
ATOM     78  C   UNL A   1      39.976  26.999  28.220  1.00  0.00     0.091 A 
ATOM     79  F   UNL A   1      39.499  26.955  30.559  1.00  0.00    -0.205 F 
ATOM     80  C   UNL A   1      40.357  27.732  27.085  1.00  0.00     0.022 A 
BRANCH  78  81
ATOM     81  S   UNL A   1      39.689  25.239  28.003  1.00  0.00     0.127 S 
ATOM     82  O   UNL A   1      40.978  24.675  28.396  1.00  0.00    -0.237 OA
ATOM     83  O   UNL A   1      38.596  24.989  28.943  1.00  0.00    -0.237 OA
ATOM     84  O   UNL A   1      39.321  25.076  26.603  1.00  0.00    -0.744 OA
ENDBRANCH  78  81
ENDBRANCH  50  74
BRANCH  62  85
ATOM     85  C   UNL A   1      44.329  28.588  35.260  1.00  0.00     0.023 A 
ATOM     86  C   UNL A   1      45.617  29.095  35.000  1.00  0.00     0.012 A 
ATOM     87  C   UNL A   1      44.190  27.353  35.923  1.00  0.00     0.148 A 
ATOM     88  C   UNL A   1      46.749  28.374  35.376  1.00  0.00     0.002 A 
ATOM     89  C   UNL A   1      45.323  26.662  36.334  1.00  0.00     0.091 A 
ATOM     90  F   UNL A   1      42.955  26.880  36.142  1.00  0.00    -0.205 F 
ATOM     91  C   UNL A   1      46.603  27.166  36.054  1.00  0.00     0.022 A 
BRANCH  89  92
ATOM     92  S   UNL A   1      45.224  25.147  37.296  1.00  0.00     0.127 S 
ATOM     93  O   UNL A   1      46.636  24.807  37.462  1.00  0.00    -0.237 OA
ATOM     94  O   UNL A   1      44.557  25.594  38.518  1.00  0.00    -0.237 OA
ATOM     95  O   UNL A   1      44.444  24.216  36.492  1.00  0.00    -0.744 OA
ENDBRANCH  89  92
ENDBRANCH  62  85
ENDBRANCH  36  37
ENDBRANCH  28  31
ENDBRANCH  26  27
ENDBRANCH  25  26
ENDBRANCH   1  25
TORSDOF 18
ENDMDL
MODEL 3
REMARK VINA RESULT:     -11.0      3.303      8.743
REMARK SMILES CCc1cc(/C=C/C(=O)NCCCCNC(=O)c2ccc(-c3c4nc(c(-c5cccc(S(=O)(=O)[O-])c5F)c5ccc([nH]5)c(-c5cccc(S(=O)(=O)[O-])c5F)c5nc(c(-c6cccc(S(=O)(=O)[O-])c6F)c6ccc3[nH]6)C=C5)C=C4)cc2)cc(C(=O)c2ccccc2)c1
REMARK SMILES IDX 12 1 11 2 10 3 8 4 9 5 7 7 6 8 5 9 3 10 4 11 91 12 82 13
REMARK SMILES IDX 81 14 2 15 1 16 83 17 84 18 85 19 86 20 90 21 87 22 89 23
REMARK SMILES IDX 88 24 13 25 14 26 15 27 16 28 17 30 18 31 19 32 80 33 20 34
REMARK SMILES IDX 79 35 21 36 22 37 23 38 73 39 24 40 78 41 72 42 74 43 25 44
REMARK SMILES IDX 77 45 71 46 70 47 26 49 58 50 38 51 57 52 39 53 42 54 56 55
REMARK SMILES IDX 75 56 40 57 41 58 55 60 76 61 43 62 27 63 28 64 36 65 29 66
REMARK SMILES IDX 31 67 37 68 30 69 32 70 33 71 34 72 35 73 59 74 60 75 68 76
REMARK SMILES IDX 61 77 63 78 69 79 62 80 64 81 65 82 66 83 67 84 44 85 45 86
REMARK SMILES IDX 53 87 46 88 48 89 54 90 47 91 49 92 50 93 51 94 52 95
REMARK H PARENT 10 6 15 29 74 48 42 59
REMARK Flexibility Score: inf
ROOT
ATOM      1  C   UNL A   1      34.261  29.942  27.460  1.00  0.00     0.023 C 
ENDROOT
BRANCH   1   2
ATOM      2  C   UNL A   1      34.076  28.595  26.757  1.00  0.00     0.116 C 
BRANCH   2   3
ATOM      3  N   UNL A   1      32.693  28.158  26.801  1.00  0.00    -0.353 N 
ATOM      4  C   UNL A   1      32.150  26.931  26.587  1.00  0.00     0.243 C 
ATOM      5  O   UNL A   1      30.954  26.743  26.798  1.00  0.00    -0.270 OA
ATOM      6  H   UNL A   1      32.044  28.864  27.023  1.00  0.00     0.163 HD
BRANCH   4   7
ATOM      7  C   UNL A   1      32.983  25.779  26.166  1.00  0.00     0.072 C 
ATOM      8  C   UNL A   1      32.539  24.734  25.453  1.00  0.00     0.014 C 
BRANCH   8   9
ATOM      9  C   UNL A   1      33.345  23.555  25.125  1.00  0.00    -0.024 A 
ATOM     10  C   UNL A   1      35.446  22.307  25.256  1.00  0.00    -0.047 A 
ATOM     11  C   UNL A   1      34.694  23.470  25.494  1.00  0.00     0.011 A 
ATOM     12  C   UNL A   1      34.818  21.225  24.626  1.00  0.00     0.016 A 
ATOM     13  C   UNL A   1      33.458  21.280  24.288  1.00  0.00     0.023 A 
ATOM     14  C   UNL A   1      32.730  22.450  24.527  1.00  0.00     0.020 A 
BRANCH  10  15
ATOM     15  C   UNL A   1      36.882  22.287  25.727  1.00  0.00     0.032 C 
ATOM     16  C   UNL A   1      37.590  23.632  25.831  1.00  0.00     0.009 C 
ENDBRANCH  10  15
BRANCH  13  17
ATOM     17  C   UNL A   1      32.760  20.124  23.660  1.00  0.00     0.193 C 
ATOM     18  O   UNL A   1      31.950  20.313  22.757  1.00  0.00    -0.289 OA
BRANCH  17  19
ATOM     19  C   UNL A   1      33.035  18.731  24.090  1.00  0.00     0.022 A 
ATOM     20  C   UNL A   1      32.652  18.343  25.378  1.00  0.00     0.012 A 
ATOM     21  C   UNL A   1      33.669  17.816  23.242  1.00  0.00     0.012 A 
ATOM     22  C   UNL A   1      32.856  17.028  25.797  1.00  0.00     0.001 A 
ATOM     23  C   UNL A   1      33.868  16.500  23.665  1.00  0.00     0.001 A 
ATOM     24  C   UNL A   1      33.455  16.106  24.937  1.00  0.00     0.000 A 
ENDBRANCH  17  19
ENDBRANCH  13  17
ENDBRANCH   8   9
ENDBRANCH   4   7
ENDBRANCH   2   3
ENDBRANCH   1   2
BRANCH   1  25
ATOM     25  C   UNL A   1      33.601  31.131  26.757  1.00  0.00     0.023 C 
BRANCH  25  26
ATOM     26  C   UNL A   1      32.460  31.786  27.526  1.00  0.00     0.116 C 
BRANCH  26  27
ATOM     27  N   UNL A   1      32.556  33.234  27.585  1.00  0.00    -0.352 N 
ATOM     28  C   UNL A   1      33.520  33.998  28.214  1.00  0.00     0.251 C 
ATOM     29  H   UNL A   1      31.847  33.734  27.118  1.00  0.00     0.163 HD
ATOM     30  O   UNL A   1      33.419  35.211  28.262  1.00  0.00    -0.269 OA
BRANCH  28  31
ATOM     31  C   UNL A   1      34.653  33.308  28.869  1.00  0.00     0.039 A 
ATOM     32  C   UNL A   1      35.940  33.503  28.365  1.00  0.00     0.014 A 
ATOM     33  C   UNL A   1      34.445  32.515  29.999  1.00  0.00     0.014 A 
ATOM     34  C   UNL A   1      37.033  32.952  29.036  1.00  0.00     0.010 A 
ATOM     35  C   UNL A   1      35.538  32.021  30.702  1.00  0.00     0.010 A 
ATOM     36  C   UNL A   1      36.841  32.233  30.227  1.00  0.00    -0.014 A 
BRANCH  36  37
ATOM     37  C   UNL A   1      37.985  31.691  31.000  1.00  0.00     0.031 A 
ATOM     38  C   UNL A   1      38.847  30.615  30.403  1.00  0.00     0.074 A 
ATOM     39  C   UNL A   1      38.176  32.087  32.275  1.00  0.00     0.049 A 
ATOM     40  N   UNL A   1      39.824  29.941  30.953  1.00  0.00    -0.248 NA
ATOM     41  C   UNL A   1      38.552  30.219  29.016  1.00  0.00     0.031 C 
ATOM     42  C   UNL A   1      37.354  33.065  32.990  1.00  0.00     0.029 A 
ATOM     43  N   UNL A   1      39.102  31.688  33.206  1.00  0.00    -0.354 N 
ATOM     44  C   UNL A   1      40.227  29.014  29.999  1.00  0.00     0.074 A 
ATOM     45  C   UNL A   1      39.372  29.193  28.846  1.00  0.00     0.031 C 
ATOM     46  C   UNL A   1      37.810  33.187  34.248  1.00  0.00     0.029 A 
ATOM     47  C   UNL A   1      38.939  32.281  34.436  1.00  0.00     0.049 A 
ATOM     48  H   UNL A   1      39.816  31.039  33.011  1.00  0.00     0.167 HD
ATOM     49  C   UNL A   1      41.239  28.116  30.065  1.00  0.00     0.034 A 
ATOM     50  C   UNL A   1      39.621  32.110  35.586  1.00  0.00     0.034 A 
ATOM     51  C   UNL A   1      42.125  27.988  31.188  1.00  0.00     0.049 A 
ATOM     52  C   UNL A   1      40.786  31.158  35.608  1.00  0.00     0.074 A 
ATOM     53  C   UNL A   1      43.238  27.176  31.317  1.00  0.00     0.029 A 
ATOM     54  N   UNL A   1      42.004  28.695  32.374  1.00  0.00    -0.354 N 
ATOM     55  N   UNL A   1      41.253  30.405  34.642  1.00  0.00    -0.248 NA
ATOM     56  C   UNL A   1      41.544  31.061  36.864  1.00  0.00     0.031 C 
ATOM     57  C   UNL A   1      43.787  27.390  32.586  1.00  0.00     0.029 A 
ATOM     58  C   UNL A   1      43.023  28.342  33.241  1.00  0.00     0.049 A 
ATOM     59  H   UNL A   1      41.297  29.352  32.571  1.00  0.00     0.167 HD
ATOM     60  C   UNL A   1      42.380  29.776  35.158  1.00  0.00     0.074 A 
ATOM     61  C   UNL A   1      42.535  30.249  36.519  1.00  0.00     0.031 C 
ATOM     62  C   UNL A   1      43.204  28.877  34.566  1.00  0.00     0.034 A 
BRANCH  49  63
ATOM     63  C   UNL A   1      41.482  27.251  28.858  1.00  0.00     0.023 A 
ATOM     64  C   UNL A   1      40.757  26.052  28.710  1.00  0.00     0.012 A 
ATOM     65  C   UNL A   1      42.385  27.641  27.850  1.00  0.00     0.148 A 
ATOM     66  C   UNL A   1      40.949  25.236  27.596  1.00  0.00     0.002 A 
ATOM     67  C   UNL A   1      42.541  26.844  26.721  1.00  0.00     0.091 A 
ATOM     68  F   UNL A   1      43.085  28.772  28.018  1.00  0.00    -0.205 F 
ATOM     69  C   UNL A   1      41.832  25.637  26.598  1.00  0.00     0.022 A 
BRANCH  67  70
ATOM     70  S   UNL A   1      43.599  27.313  25.347  1.00  0.00     0.127 S 
ATOM     71  O   UNL A   1      44.473  28.303  25.972  1.00  0.00    -0.237 OA
ATOM     72  O   UNL A   1      44.253  26.048  25.012  1.00  0.00    -0.237 OA
ATOM     73  O   UNL A   1      42.707  27.823  24.314  1.00  0.00    -0.744 OA
ENDBRANCH  67  70
ENDBRANCH  49  63
BRANCH  50  74
ATOM     74  C   UNL A   1      39.273  32.924  36.785  1.00  0.00     0.023 A 
ATOM     75  C   UNL A   1      39.803  34.224  36.908  1.00  0.00     0.012 A 
ATOM     76  C   UNL A   1      38.400  32.443  37.779  1.00  0.00     0.148 A 
ATOM     77  C   UNL A   1      39.495  35.017  38.013  1.00  0.00     0.002 A 
ATOM     78  C   UNL A   1      38.056  33.259  38.852  1.00  0.00     0.091 A 
ATOM     79  F   UNL A   1      37.915  31.200  37.651  1.00  0.00    -0.205 F 
ATOM     80  C   UNL A   1      38.614  34.540  38.979  1.00  0.00     0.022 A 
BRANCH  78  81
ATOM     81  S   UNL A   1      36.830  32.773  40.072  1.00  0.00     0.127 S 
ATOM     82  O   UNL A   1      36.839  33.918  40.978  1.00  0.00    -0.237 OA
ATOM     83  O   UNL A   1      35.622  32.642  39.256  1.00  0.00    -0.237 OA
ATOM     84  O   UNL A   1      37.313  31.515  40.628  1.00  0.00    -0.744 OA
ENDBRANCH  78  81
ENDBRANCH  50  74
BRANCH  62  85
ATOM     85  C   UNL A   1      44.376  28.369  35.360  1.00  0.00     0.023 A 
ATOM     86  C   UNL A   1      45.637  28.978  35.210  1.00  0.00     0.012 A 
ATOM     87  C   UNL A   1      44.206  27.355  36.324  1.00  0.00     0.148 A 
ATOM     88  C   UNL A   1      46.716  28.570  35.991  1.00  0.00     0.002 A 
ATOM     89  C   UNL A   1      45.275  26.985  37.130  1.00  0.00     0.091 A 
ATOM     90  F   UNL A   1      43.002  26.775  36.436  1.00  0.00    -0.205 F 
ATOM     91  C   UNL A   1      46.533  27.585  36.960  1.00  0.00     0.022 A 
BRANCH  89  92
ATOM     92  S   UNL A   1      45.102  25.793  38.463  1.00  0.00     0.127 S 
ATOM     93  O   UNL A   1      46.453  25.773  39.022  1.00  0.00    -0.237 OA
ATOM     94  O   UNL A   1      44.098  26.424  39.320  1.00  0.00    -0.237 OA
ATOM     95  O   UNL A   1      44.663  24.554  37.835  1.00  0.00    -0.744 OA
ENDBRANCH  89  92
ENDBRANCH  62  85
ENDBRANCH  36  37
ENDBRANCH  28  31
ENDBRANCH  26  27
ENDBRANCH  25  26
ENDBRANCH   1  25
TORSDOF 18
ENDMDL
