MODEL 1
REMARK VINA RESULT:     -12.3      0.000      0.000
REMARK SMILES Cc1ccc(Nc2c(Cl)cccc2Cl)c(CC(=O)NCCCCNC(=O)c2ccc(-c3c4nc(c(-c5cccc(S(=O)(=O)[O-])c5F)c5ccc([nH]5)c(-c5cccc(S(=O)(=O)[O-])c5F)c5nc(c(-c6cccc(S(=O)(=O)[O-])c6F)c6ccc3[nH]6)C=C5)C=C4)cc2)c1
REMARK SMILES IDX 21 1 20 2 19 3 17 4 18 5 16 7 15 8 1 9 2 10 3 11 90 12 4 13
REMARK SMILES IDX 5 14 6 15 7 17 8 18 13 19 9 20 10 21 12 22 14 23 11 24 22 25
REMARK SMILES IDX 23 26 24 27 25 28 26 30 27 31 28 32 89 33 29 34 88 35 30 36
REMARK SMILES IDX 31 37 32 38 82 39 33 40 87 41 81 42 83 43 34 44 86 45 80 46
REMARK SMILES IDX 79 47 35 49 67 50 47 51 66 52 48 53 51 54 65 55 84 56 49 57
REMARK SMILES IDX 50 58 64 60 85 61 52 62 36 63 37 64 45 65 38 66 40 67 46 68
REMARK SMILES IDX 39 69 41 70 42 71 43 72 44 73 68 74 69 75 77 76 70 77 72 78
REMARK SMILES IDX 78 79 71 80 73 81 74 82 75 83 76 84 53 85 54 86 62 87 55 88
REMARK SMILES IDX 57 89 63 90 56 91 58 92 59 93 60 94 61 95
REMARK H PARENT 19 6 6 16 24 29 83 48 51 59
REMARK Flexibility Score: inf
ROOT
ATOM      1  C   UNL A   1      33.842  28.103  26.378  1.00  0.00     0.023 C 
ENDROOT
BRANCH   1   2
ATOM      2  C   UNL A   1      32.865  27.144  25.674  1.00  0.00     0.116 C 
BRANCH   2   3
ATOM      3  N   UNL A   1      32.274  26.167  26.575  1.00  0.00    -0.356 N 
ATOM      4  C   UNL A   1      32.077  24.829  26.406  1.00  0.00     0.224 C 
ATOM      5  O   UNL A   1      31.422  24.212  27.251  1.00  0.00    -0.275 OA
ATOM      6  H   UNL A   1      31.969  26.527  27.440  1.00  0.00     0.163 HD
BRANCH   4   7
ATOM      7  C   UNL A   1      32.617  24.103  25.187  1.00  0.00     0.137 C 
BRANCH   7   8
ATOM      8  C   UNL A   1      33.844  23.268  25.482  1.00  0.00    -0.015 A 
ATOM      9  C   UNL A   1      37.529  24.055  26.112  1.00  0.00     0.044 C 
ATOM     10  C   UNL A   1      36.253  23.295  25.914  1.00  0.00    -0.051 A 
ATOM     11  C   UNL A   1      36.275  21.911  25.759  1.00  0.00     0.005 A 
ATOM     12  C   UNL A   1      35.030  23.959  25.815  1.00  0.00     0.009 A 
ATOM     13  C   UNL A   1      35.096  21.208  25.494  1.00  0.00     0.026 A 
ATOM     14  C   UNL A   1      33.862  21.863  25.338  1.00  0.00     0.042 A 
BRANCH  14  15
ATOM     15  N   UNL A   1      32.678  21.136  25.070  1.00  0.00    -0.353 N 
ATOM     16  H   UNL A   1      31.889  21.399  25.597  1.00  0.00     0.167 HD
BRANCH  15  17
ATOM     17  C   UNL A   1      32.472  20.080  24.146  1.00  0.00     0.076 A 
ATOM     18  C   UNL A   1      32.613  18.721  24.492  1.00  0.00     0.066 A 
ATOM     19  C   UNL A   1      32.208  20.380  22.793  1.00  0.00     0.066 A 
ATOM     20  Cl  UNL A   1      32.823  18.202  26.133  1.00  0.00    -0.082 Cl
ATOM     21  C   UNL A   1      32.526  17.714  23.520  1.00  0.00     0.023 A 
ATOM     22  C   UNL A   1      32.114  19.372  21.826  1.00  0.00     0.023 A 
ATOM     23  Cl  UNL A   1      32.020  22.015  22.259  1.00  0.00    -0.082 Cl
ATOM     24  C   UNL A   1      32.285  18.040  22.188  1.00  0.00     0.003 A 
ENDBRANCH  15  17
ENDBRANCH  14  15
ENDBRANCH   7   8
ENDBRANCH   4   7
ENDBRANCH   2   3
ENDBRANCH   1   2
BRANCH   1  25
ATOM     25  C   UNL A   1      33.553  29.592  26.209  1.00  0.00     0.023 C 
BRANCH  25  26
ATOM     26  C   UNL A   1      33.518  30.355  27.519  1.00  0.00     0.116 C 
BRANCH  26  27
ATOM     27  N   UNL A   1      34.469  31.451  27.589  1.00  0.00    -0.352 N 
ATOM     28  C   UNL A   1      35.747  31.473  28.120  1.00  0.00     0.251 C 
ATOM     29  H   UNL A   1      34.160  32.302  27.203  1.00  0.00     0.163 HD
ATOM     30  O   UNL A   1      36.282  32.564  28.305  1.00  0.00    -0.269 OA
BRANCH  28  31
ATOM     31  C   UNL A   1      36.510  30.208  28.294  1.00  0.00     0.039 A 
ATOM     32  C   UNL A   1      36.771  29.797  29.609  1.00  0.00     0.014 A 
ATOM     33  C   UNL A   1      37.201  29.622  27.240  1.00  0.00     0.014 A 
ATOM     34  C   UNL A   1      37.920  29.062  29.884  1.00  0.00     0.010 A 
ATOM     35  C   UNL A   1      38.390  28.986  27.509  1.00  0.00     0.010 A 
ATOM     36  C   UNL A   1      38.786  28.793  28.835  1.00  0.00    -0.014 A 
BRANCH  36  37
ATOM     37  C   UNL A   1      40.162  28.365  28.983  1.00  0.00     0.031 A 
ATOM     38  C   UNL A   1      40.497  26.942  28.856  1.00  0.00     0.074 A 
ATOM     39  C   UNL A   1      41.122  29.319  28.942  1.00  0.00     0.049 A 
ATOM     40  N   UNL A   1      41.682  26.481  29.042  1.00  0.00    -0.248 NA
ATOM     41  C   UNL A   1      39.515  25.911  28.528  1.00  0.00     0.031 C 
ATOM     42  C   UNL A   1      42.526  29.163  28.577  1.00  0.00     0.029 A 
ATOM     43  N   UNL A   1      41.052  30.624  29.443  1.00  0.00    -0.354 N 
ATOM     44  C   UNL A   1      41.696  25.214  28.517  1.00  0.00     0.074 A 
ATOM     45  C   UNL A   1      40.312  24.848  28.371  1.00  0.00     0.031 C 
ATOM     46  C   UNL A   1      43.225  30.176  29.113  1.00  0.00     0.029 A 
ATOM     47  C   UNL A   1      42.319  30.880  30.002  1.00  0.00     0.049 A 
ATOM     48  H   UNL A   1      40.279  31.234  29.411  1.00  0.00     0.167 HD
ATOM     49  C   UNL A   1      42.890  24.703  28.116  1.00  0.00     0.034 A 
ATOM     50  C   UNL A   1      42.512  31.055  31.345  1.00  0.00     0.034 A 
ATOM     51  C   UNL A   1      44.011  25.502  28.638  1.00  0.00     0.049 A 
ATOM     52  C   UNL A   1      43.444  30.012  31.965  1.00  0.00     0.074 A 
ATOM     53  C   UNL A   1      44.962  26.346  28.094  1.00  0.00     0.029 A 
ATOM     54  N   UNL A   1      44.091  25.682  30.013  1.00  0.00    -0.354 N 
ATOM     55  N   UNL A   1      44.092  29.088  31.305  1.00  0.00    -0.248 NA
ATOM     56  C   UNL A   1      43.634  29.883  33.408  1.00  0.00     0.031 C 
ATOM     57  C   UNL A   1      45.562  27.088  29.166  1.00  0.00     0.029 A 
ATOM     58  C   UNL A   1      45.016  26.651  30.361  1.00  0.00     0.049 A 
ATOM     59  H   UNL A   1      43.552  25.178  30.665  1.00  0.00     0.167 HD
ATOM     60  C   UNL A   1      44.614  28.166  32.182  1.00  0.00     0.074 A 
ATOM     61  C   UNL A   1      44.328  28.735  33.491  1.00  0.00     0.031 C 
ATOM     62  C   UNL A   1      45.166  26.974  31.779  1.00  0.00     0.034 A 
BRANCH  49  63
ATOM     63  C   UNL A   1      43.054  23.547  27.151  1.00  0.00     0.023 A 
ATOM     64  C   UNL A   1      43.839  23.772  26.001  1.00  0.00     0.012 A 
ATOM     65  C   UNL A   1      42.411  22.285  27.232  1.00  0.00     0.148 A 
ATOM     66  C   UNL A   1      43.987  22.805  24.997  1.00  0.00     0.002 A 
ATOM     67  C   UNL A   1      42.623  21.292  26.272  1.00  0.00     0.091 A 
ATOM     68  F   UNL A   1      41.495  22.055  28.179  1.00  0.00    -0.205 F 
ATOM     69  C   UNL A   1      43.398  21.556  25.141  1.00  0.00     0.022 A 
BRANCH  67  70
ATOM     70  S   UNL A   1      41.945  19.630  26.445  1.00  0.00     0.127 S 
ATOM     71  O   UNL A   1      40.522  19.848  26.189  1.00  0.00    -0.237 OA
ATOM     72  O   UNL A   1      42.644  18.889  25.395  1.00  0.00    -0.237 OA
ATOM     73  O   UNL A   1      42.279  19.201  27.799  1.00  0.00    -0.744 OA
ENDBRANCH  67  70
ENDBRANCH  49  63
BRANCH  50  74
ATOM     74  C   UNL A   1      41.330  31.679  32.022  1.00  0.00     0.023 A 
ATOM     75  C   UNL A   1      40.966  32.982  31.596  1.00  0.00     0.012 A 
ATOM     76  C   UNL A   1      40.378  30.906  32.709  1.00  0.00     0.148 A 
ATOM     77  C   UNL A   1      39.647  33.429  31.702  1.00  0.00     0.002 A 
ATOM     78  C   UNL A   1      39.068  31.370  32.830  1.00  0.00     0.091 A 
ATOM     79  F   UNL A   1      40.734  29.699  33.163  1.00  0.00    -0.205 F 
ATOM     80  C   UNL A   1      38.690  32.605  32.282  1.00  0.00     0.022 A 
BRANCH  78  81
ATOM     81  S   UNL A   1      37.788  30.354  33.580  1.00  0.00     0.127 S 
ATOM     82  O   UNL A   1      36.595  30.836  32.892  1.00  0.00    -0.237 OA
ATOM     83  O   UNL A   1      38.204  29.001  33.217  1.00  0.00    -0.237 OA
ATOM     84  O   UNL A   1      37.875  30.641  35.004  1.00  0.00    -0.744 OA
ENDBRANCH  78  81
ENDBRANCH  50  74
BRANCH  62  85
ATOM     85  C   UNL A   1      45.804  25.945  32.717  1.00  0.00     0.023 A 
ATOM     86  C   UNL A   1      47.200  25.762  32.776  1.00  0.00     0.012 A 
ATOM     87  C   UNL A   1      45.032  25.051  33.512  1.00  0.00     0.148 A 
ATOM     88  C   UNL A   1      47.802  24.869  33.672  1.00  0.00     0.002 A 
ATOM     89  C   UNL A   1      45.628  24.142  34.384  1.00  0.00     0.091 A 
ATOM     90  F   UNL A   1      43.701  25.031  33.400  1.00  0.00    -0.205 F 
ATOM     91  C   UNL A   1      47.017  24.072  34.492  1.00  0.00     0.022 A 
BRANCH  89  92
ATOM     92  S   UNL A   1      44.671  22.990  35.384  1.00  0.00     0.127 S 
ATOM     93  O   UNL A   1      43.429  23.737  35.582  1.00  0.00    -0.237 OA
ATOM     94  O   UNL A   1      44.555  21.838  34.491  1.00  0.00    -0.237 OA
ATOM     95  O   UNL A   1      45.451  22.748  36.589  1.00  0.00    -0.744 OA
ENDBRANCH  89  92
ENDBRANCH  62  85
ENDBRANCH  36  37
ENDBRANCH  28  31
ENDBRANCH  26  27
ENDBRANCH  25  26
ENDBRANCH   1  25
TORSDOF 17
ENDMDL
MODEL 2
REMARK VINA RESULT:     -12.2      3.984      9.317
REMARK SMILES Cc1ccc(Nc2c(Cl)cccc2Cl)c(CC(=O)NCCCCNC(=O)c2ccc(-c3c4nc(c(-c5cccc(S(=O)(=O)[O-])c5F)c5ccc([nH]5)c(-c5cccc(S(=O)(=O)[O-])c5F)c5nc(c(-c6cccc(S(=O)(=O)[O-])c6F)c6ccc3[nH]6)C=C5)C=C4)cc2)c1
REMARK SMILES IDX 21 1 20 2 19 3 17 4 18 5 16 7 15 8 1 9 2 10 3 11 90 12 4 13
REMARK SMILES IDX 5 14 6 15 7 17 8 18 13 19 9 20 10 21 12 22 14 23 11 24 22 25
REMARK SMILES IDX 23 26 24 27 25 28 26 30 27 31 28 32 89 33 29 34 88 35 30 36
REMARK SMILES IDX 31 37 32 38 82 39 33 40 87 41 81 42 83 43 34 44 86 45 80 46
REMARK SMILES IDX 79 47 35 49 67 50 47 51 66 52 48 53 51 54 65 55 84 56 49 57
REMARK SMILES IDX 50 58 64 60 85 61 52 62 36 63 37 64 45 65 38 66 40 67 46 68
REMARK SMILES IDX 39 69 41 70 42 71 43 72 44 73 68 74 69 75 77 76 70 77 72 78
REMARK SMILES IDX 78 79 71 80 73 81 74 82 75 83 76 84 53 85 54 86 62 87 55 88
REMARK SMILES IDX 57 89 63 90 56 91 58 92 59 93 60 94 61 95
REMARK H PARENT 19 6 6 16 24 29 83 48 51 59
REMARK Flexibility Score: inf
ROOT
ATOM      1  C   UNL A   1      36.868  23.714  24.940  1.00  0.00     0.023 C 
ENDROOT
BRANCH   1   2
ATOM      2  C   UNL A   1      35.502  23.431  24.291  1.00  0.00     0.116 C 
BRANCH   2   3
ATOM      3  N   UNL A   1      34.891  24.614  23.704  1.00  0.00    -0.356 N 
ATOM      4  C   UNL A   1      34.209  25.632  24.300  1.00  0.00     0.224 C 
ATOM      5  O   UNL A   1      33.648  26.470  23.588  1.00  0.00    -0.275 OA
ATOM      6  H   UNL A   1      34.984  24.690  22.727  1.00  0.00     0.163 HD
BRANCH   4   7
ATOM      7  C   UNL A   1      34.101  25.728  25.812  1.00  0.00     0.137 C 
BRANCH   7   8
ATOM      8  C   UNL A   1      33.321  26.936  26.281  1.00  0.00    -0.015 A 
ATOM      9  C   UNL A   1      34.247  30.527  27.204  1.00  0.00     0.044 C 
ATOM     10  C   UNL A   1      33.446  29.281  26.972  1.00  0.00    -0.051 A 
ATOM     11  C   UNL A   1      32.128  29.200  27.414  1.00  0.00     0.005 A 
ATOM     12  C   UNL A   1      34.020  28.161  26.370  1.00  0.00     0.009 A 
ATOM     13  C   UNL A   1      31.405  28.012  27.271  1.00  0.00     0.026 A 
ATOM     14  C   UNL A   1      31.980  26.855  26.717  1.00  0.00     0.042 A 
BRANCH  14  15
ATOM     15  N   UNL A   1      31.234  25.661  26.580  1.00  0.00    -0.353 N 
ATOM     16  H   UNL A   1      30.639  25.443  27.333  1.00  0.00     0.167 HD
BRANCH  15  17
ATOM     17  C   UNL A   1      31.226  24.734  25.507  1.00  0.00     0.076 A 
ATOM     18  C   UNL A   1      30.647  25.018  24.253  1.00  0.00     0.066 A 
ATOM     19  C   UNL A   1      31.730  23.432  25.707  1.00  0.00     0.066 A 
ATOM     20  Cl  UNL A   1      30.094  26.605  23.829  1.00  0.00    -0.082 Cl
ATOM     21  C   UNL A   1      30.547  24.030  23.263  1.00  0.00     0.023 A 
ATOM     22  C   UNL A   1      31.636  22.451  24.714  1.00  0.00     0.023 A 
ATOM     23  Cl  UNL A   1      32.459  22.976  27.210  1.00  0.00    -0.082 Cl
ATOM     24  C   UNL A   1      31.033  22.747  23.496  1.00  0.00     0.003 A 
ENDBRANCH  15  17
ENDBRANCH  14  15
ENDBRANCH   7   8
ENDBRANCH   4   7
ENDBRANCH   2   3
ENDBRANCH   1   2
BRANCH   1  25
ATOM     25  C   UNL A   1      37.872  22.565  24.911  1.00  0.00     0.023 C 
BRANCH  25  26
ATOM     26  C   UNL A   1      38.280  22.082  26.289  1.00  0.00     0.116 C 
BRANCH  26  27
ATOM     27  N   UNL A   1      39.708  22.158  26.542  1.00  0.00    -0.352 N 
ATOM     28  C   UNL A   1      40.530  23.268  26.616  1.00  0.00     0.251 C 
ATOM     29  H   UNL A   1      40.157  21.293  26.683  1.00  0.00     0.163 HD
ATOM     30  O   UNL A   1      41.747  23.095  26.587  1.00  0.00    -0.269 OA
BRANCH  28  31
ATOM     31  C   UNL A   1      39.956  24.612  26.897  1.00  0.00     0.039 A 
ATOM     32  C   UNL A   1      40.499  25.697  26.196  1.00  0.00     0.014 A 
ATOM     33  C   UNL A   1      39.151  24.842  28.006  1.00  0.00     0.014 A 
ATOM     34  C   UNL A   1      40.508  26.959  26.782  1.00  0.00     0.010 A 
ATOM     35  C   UNL A   1      39.243  26.059  28.642  1.00  0.00     0.010 A 
ATOM     36  C   UNL A   1      40.001  27.082  28.067  1.00  0.00    -0.014 A 
BRANCH  36  37
ATOM     37  C   UNL A   1      40.242  28.204  28.950  1.00  0.00     0.031 A 
ATOM     38  C   UNL A   1      39.400  29.402  28.847  1.00  0.00     0.074 A 
ATOM     39  C   UNL A   1      41.036  27.994  30.026  1.00  0.00     0.049 A 
ATOM     40  N   UNL A   1      39.598  30.461  29.550  1.00  0.00    -0.248 NA
ATOM     41  C   UNL A   1      38.274  29.517  27.925  1.00  0.00     0.031 C 
ATOM     42  C   UNL A   1      41.056  28.732  31.285  1.00  0.00     0.029 A 
ATOM     43  N   UNL A   1      42.166  27.171  30.107  1.00  0.00    -0.354 N 
ATOM     44  C   UNL A   1      38.458  31.216  29.449  1.00  0.00     0.074 A 
ATOM     45  C   UNL A   1      37.749  30.684  28.315  1.00  0.00     0.031 C 
ATOM     46  C   UNL A   1      42.252  28.557  31.868  1.00  0.00     0.029 A 
ATOM     47  C   UNL A   1      43.091  27.880  30.898  1.00  0.00     0.049 A 
ATOM     48  H   UNL A   1      42.287  26.283  29.696  1.00  0.00     0.167 HD
ATOM     49  C   UNL A   1      38.182  32.091  30.451  1.00  0.00     0.034 A 
ATOM     50  C   UNL A   1      44.268  28.367  30.398  1.00  0.00     0.034 A 
ATOM     51  C   UNL A   1      39.358  32.300  31.311  1.00  0.00     0.049 A 
ATOM     52  C   UNL A   1      44.384  29.890  30.494  1.00  0.00     0.074 A 
ATOM     53  C   UNL A   1      39.704  31.975  32.610  1.00  0.00     0.029 A 
ATOM     54  N   UNL A   1      40.532  32.735  30.708  1.00  0.00    -0.354 N 
ATOM     55  N   UNL A   1      43.517  30.680  31.072  1.00  0.00    -0.248 NA
ATOM     56  C   UNL A   1      45.457  30.641  29.847  1.00  0.00     0.031 C 
ATOM     57  C   UNL A   1      41.121  32.155  32.750  1.00  0.00     0.029 A 
ATOM     58  C   UNL A   1      41.622  32.643  31.555  1.00  0.00     0.049 A 
ATOM     59  H   UNL A   1      40.582  33.069  29.783  1.00  0.00     0.167 HD
ATOM     60  C   UNL A   1      43.786  31.988  30.743  1.00  0.00     0.074 A 
ATOM     61  C   UNL A   1      45.036  31.907  30.003  1.00  0.00     0.031 C 
ATOM     62  C   UNL A   1      42.931  33.026  31.028  1.00  0.00     0.034 A 
BRANCH  49  63
ATOM     63  C   UNL A   1      36.814  32.676  30.735  1.00  0.00     0.023 A 
ATOM     64  C   UNL A   1      36.291  32.497  32.033  1.00  0.00     0.012 A 
ATOM     65  C   UNL A   1      35.954  33.301  29.795  1.00  0.00     0.148 A 
ATOM     66  C   UNL A   1      35.000  32.917  32.382  1.00  0.00     0.002 A 
ATOM     67  C   UNL A   1      34.699  33.792  30.164  1.00  0.00     0.091 A 
ATOM     68  F   UNL A   1      36.284  33.335  28.499  1.00  0.00    -0.205 F 
ATOM     69  C   UNL A   1      34.211  33.585  31.455  1.00  0.00     0.022 A 
BRANCH  67  70
ATOM     70  S   UNL A   1      33.663  34.730  29.024  1.00  0.00     0.127 S 
ATOM     71  O   UNL A   1      33.323  33.726  28.017  1.00  0.00    -0.237 OA
ATOM     72  O   UNL A   1      32.546  35.141  29.874  1.00  0.00    -0.237 OA
ATOM     73  O   UNL A   1      34.489  35.836  28.551  1.00  0.00    -0.744 OA
ENDBRANCH  67  70
ENDBRANCH  49  63
BRANCH  50  74
ATOM     74  C   UNL A   1      44.823  27.518  29.295  1.00  0.00     0.023 A 
ATOM     75  C   UNL A   1      45.235  26.207  29.645  1.00  0.00     0.012 A 
ATOM     76  C   UNL A   1      44.568  27.804  27.943  1.00  0.00     0.148 A 
ATOM     77  C   UNL A   1      45.227  25.177  28.703  1.00  0.00     0.002 A 
ATOM     78  C   UNL A   1      44.584  26.773  27.004  1.00  0.00     0.091 A 
ATOM     79  F   UNL A   1      44.236  29.054  27.600  1.00  0.00    -0.205 F 
ATOM     80  C   UNL A   1      44.862  25.453  27.390  1.00  0.00     0.022 A 
BRANCH  78  81
ATOM     81  S   UNL A   1      44.131  27.071  25.289  1.00  0.00     0.127 S 
ATOM     82  O   UNL A   1      43.649  25.754  24.884  1.00  0.00    -0.237 OA
ATOM     83  O   UNL A   1      43.096  28.097  25.408  1.00  0.00    -0.237 OA
ATOM     84  O   UNL A   1      45.358  27.535  24.657  1.00  0.00    -0.744 OA
ENDBRANCH  78  81
ENDBRANCH  50  74
BRANCH  62  85
ATOM     85  C   UNL A   1      43.215  34.500  30.727  1.00  0.00     0.023 A 
ATOM     86  C   UNL A   1      43.494  35.425  31.754  1.00  0.00     0.012 A 
ATOM     87  C   UNL A   1      43.123  35.045  29.415  1.00  0.00     0.148 A 
ATOM     88  C   UNL A   1      43.816  36.763  31.489  1.00  0.00     0.002 A 
ATOM     89  C   UNL A   1      43.414  36.383  29.154  1.00  0.00     0.091 A 
ATOM     90  F   UNL A   1      42.700  34.286  28.400  1.00  0.00    -0.205 F 
ATOM     91  C   UNL A   1      43.796  37.238  30.186  1.00  0.00     0.022 A 
BRANCH  89  92
ATOM     92  S   UNL A   1      43.287  37.096  27.505  1.00  0.00     0.127 S 
ATOM     93  O   UNL A   1      43.708  38.475  27.749  1.00  0.00    -0.237 OA
ATOM     94  O   UNL A   1      44.247  36.289  26.752  1.00  0.00    -0.237 OA
ATOM     95  O   UNL A   1      41.900  36.930  27.093  1.00  0.00    -0.744 OA
ENDBRANCH  89  92
ENDBRANCH  62  85
ENDBRANCH  36  37
ENDBRANCH  28  31
ENDBRANCH  26  27
ENDBRANCH  25  26
ENDBRANCH   1  25
TORSDOF 17
ENDMDL
MODEL 3
REMARK VINA RESULT:     -12.0      3.793      9.214
REMARK SMILES Cc1ccc(Nc2c(Cl)cccc2Cl)c(CC(=O)NCCCCNC(=O)c2ccc(-c3c4nc(c(-c5cccc(S(=O)(=O)[O-])c5F)c5ccc([nH]5)c(-c5cccc(S(=O)(=O)[O-])c5F)c5nc(c(-c6cccc(S(=O)(=O)[O-])c6F)c6ccc3[nH]6)C=C5)C=C4)cc2)c1
REMARK SMILES IDX 21 1 20 2 19 3 17 4 18 5 16 7 15 8 1 9 2 10 3 11 90 12 4 13
REMARK SMILES IDX 5 14 6 15 7 17 8 18 13 19 9 20 10 21 12 22 14 23 11 24 22 25
REMARK SMILES IDX 23 26 24 27 25 28 26 30 27 31 28 32 89 33 29 34 88 35 30 36
REMARK SMILES IDX 31 37 32 38 82 39 33 40 87 41 81 42 83 43 34 44 86 45 80 46
REMARK SMILES IDX 79 47 35 49 67 50 47 51 66 52 48 53 51 54 65 55 84 56 49 57
REMARK SMILES IDX 50 58 64 60 85 61 52 62 36 63 37 64 45 65 38 66 40 67 46 68
REMARK SMILES IDX 39 69 41 70 42 71 43 72 44 73 68 74 69 75 77 76 70 77 72 78
REMARK SMILES IDX 78 79 71 80 73 81 74 82 75 83 76 84 53 85 54 86 62 87 55 88
REMARK SMILES IDX 57 89 63 90 56 91 58 92 59 93 60 94 61 95
REMARK H PARENT 19 6 6 16 24 29 83 48 51 59
REMARK Flexibility Score: inf
ROOT
ATOM      1  C   UNL A   1      36.241  23.574  25.165  1.00  0.00     0.023 C 
ENDROOT
BRANCH   1   2
ATOM      2  C   UNL A   1      34.810  23.917  25.616  1.00  0.00     0.116 C 
BRANCH   2   3
ATOM      3  N   UNL A   1      34.389  23.178  26.796  1.00  0.00    -0.356 N 
ATOM      4  C   UNL A   1      33.142  22.793  27.187  1.00  0.00     0.224 C 
ATOM      5  O   UNL A   1      32.997  22.292  28.306  1.00  0.00    -0.275 OA
ATOM      6  H   UNL A   1      35.117  22.915  27.405  1.00  0.00     0.163 HD
BRANCH   4   7
ATOM      7  C   UNL A   1      31.936  23.002  26.288  1.00  0.00     0.137 C 
BRANCH   7   8
ATOM      8  C   UNL A   1      31.941  22.113  25.064  1.00  0.00    -0.015 A 
ATOM      9  C   UNL A   1      33.153  18.562  24.340  1.00  0.00     0.044 C 
ATOM     10  C   UNL A   1      32.571  19.931  24.152  1.00  0.00    -0.051 A 
ATOM     11  C   UNL A   1      32.303  20.411  22.872  1.00  0.00     0.005 A 
ATOM     12  C   UNL A   1      32.348  20.772  25.243  1.00  0.00     0.009 A 
ATOM     13  C   UNL A   1      31.836  21.716  22.689  1.00  0.00     0.026 A 
ATOM     14  C   UNL A   1      31.655  22.598  23.769  1.00  0.00     0.042 A 
BRANCH  14  15
ATOM     15  N   UNL A   1      31.183  23.916  23.565  1.00  0.00    -0.353 N 
ATOM     16  H   UNL A   1      30.207  24.008  23.472  1.00  0.00     0.167 HD
BRANCH  15  17
ATOM     17  C   UNL A   1      31.922  25.123  23.475  1.00  0.00     0.076 A 
ATOM     18  C   UNL A   1      32.953  25.321  22.535  1.00  0.00     0.066 A 
ATOM     19  C   UNL A   1      31.699  26.148  24.419  1.00  0.00     0.066 A 
ATOM     20  Cl  UNL A   1      33.260  24.199  21.249  1.00  0.00    -0.082 Cl
ATOM     21  C   UNL A   1      33.744  26.479  22.563  1.00  0.00     0.023 A 
ATOM     22  C   UNL A   1      32.485  27.306  24.439  1.00  0.00     0.023 A 
ATOM     23  Cl  UNL A   1      30.461  26.005  25.620  1.00  0.00    -0.082 Cl
ATOM     24  C   UNL A   1      33.516  27.465  23.518  1.00  0.00     0.003 A 
ENDBRANCH  15  17
ENDBRANCH  14  15
ENDBRANCH   7   8
ENDBRANCH   4   7
ENDBRANCH   2   3
ENDBRANCH   1   2
BRANCH   1  25
ATOM     25  C   UNL A   1      36.900  22.395  25.876  1.00  0.00     0.023 C 
BRANCH  25  26
ATOM     26  C   UNL A   1      38.329  22.144  25.436  1.00  0.00     0.116 C 
BRANCH  26  27
ATOM     27  N   UNL A   1      39.246  21.877  26.530  1.00  0.00    -0.352 N 
ATOM     28  C   UNL A   1      40.088  22.745  27.203  1.00  0.00     0.251 C 
ATOM     29  H   UNL A   1      39.272  20.942  26.839  1.00  0.00     0.163 HD
ATOM     30  O   UNL A   1      40.962  22.266  27.923  1.00  0.00    -0.269 OA
BRANCH  28  31
ATOM     31  C   UNL A   1      39.827  24.209  27.187  1.00  0.00     0.039 A 
ATOM     32  C   UNL A   1      40.819  25.028  26.631  1.00  0.00     0.014 A 
ATOM     33  C   UNL A   1      38.815  24.777  27.952  1.00  0.00     0.014 A 
ATOM     34  C   UNL A   1      40.980  26.328  27.099  1.00  0.00     0.010 A 
ATOM     35  C   UNL A   1      39.025  26.022  28.498  1.00  0.00     0.010 A 
ATOM     36  C   UNL A   1      40.160  26.752  28.135  1.00  0.00    -0.014 A 
BRANCH  36  37
ATOM     37  C   UNL A   1      40.408  27.909  28.970  1.00  0.00     0.031 A 
ATOM     38  C   UNL A   1      39.559  29.098  28.832  1.00  0.00     0.074 A 
ATOM     39  C   UNL A   1      41.219  27.746  30.041  1.00  0.00     0.049 A 
ATOM     40  N   UNL A   1      39.762  30.184  29.489  1.00  0.00    -0.248 NA
ATOM     41  C   UNL A   1      38.419  29.171  27.922  1.00  0.00     0.031 C 
ATOM     42  C   UNL A   1      41.253  28.533  31.269  1.00  0.00     0.029 A 
ATOM     43  N   UNL A   1      42.354  26.931  30.138  1.00  0.00    -0.354 N 
ATOM     44  C   UNL A   1      38.616  30.930  29.374  1.00  0.00     0.074 A 
ATOM     45  C   UNL A   1      37.893  30.350  28.273  1.00  0.00     0.031 C 
ATOM     46  C   UNL A   1      42.458  28.387  31.841  1.00  0.00     0.029 A 
ATOM     47  C   UNL A   1      43.287  27.675  30.887  1.00  0.00     0.049 A 
ATOM     48  H   UNL A   1      42.474  26.029  29.761  1.00  0.00     0.167 HD
ATOM     49  C   UNL A   1      38.350  31.843  30.345  1.00  0.00     0.034 A 
ATOM     50  C   UNL A   1      44.454  28.148  30.351  1.00  0.00     0.034 A 
ATOM     51  C   UNL A   1      39.537  32.092  31.179  1.00  0.00     0.049 A 
ATOM     52  C   UNL A   1      44.563  29.674  30.384  1.00  0.00     0.074 A 
ATOM     53  C   UNL A   1      39.904  31.820  32.485  1.00  0.00     0.029 A 
ATOM     54  N   UNL A   1      40.700  32.507  30.542  1.00  0.00    -0.354 N 
ATOM     55  N   UNL A   1      43.701  30.482  30.944  1.00  0.00    -0.248 NA
ATOM     56  C   UNL A   1      45.623  30.404  29.692  1.00  0.00     0.031 C 
ATOM     57  C   UNL A   1      41.321  32.012  32.597  1.00  0.00     0.029 A 
ATOM     58  C   UNL A   1      41.802  32.455  31.376  1.00  0.00     0.049 A 
ATOM     59  H   UNL A   1      40.734  32.805  29.603  1.00  0.00     0.167 HD
ATOM     60  C   UNL A   1      43.958  31.778  30.559  1.00  0.00     0.074 A 
ATOM     61  C   UNL A   1      45.198  31.673  29.804  1.00  0.00     0.031 C 
ATOM     62  C   UNL A   1      43.102  32.822  30.815  1.00  0.00     0.034 A 
BRANCH  49  63
ATOM     63  C   UNL A   1      36.983  32.432  30.625  1.00  0.00     0.023 A 
ATOM     64  C   UNL A   1      36.474  32.291  31.934  1.00  0.00     0.012 A 
ATOM     65  C   UNL A   1      36.111  33.025  29.676  1.00  0.00     0.148 A 
ATOM     66  C   UNL A   1      35.186  32.719  32.283  1.00  0.00     0.002 A 
ATOM     67  C   UNL A   1      34.858  33.524  30.043  1.00  0.00     0.091 A 
ATOM     68  F   UNL A   1      36.427  33.021  28.376  1.00  0.00    -0.205 F 
ATOM     69  C   UNL A   1      34.384  33.356  31.345  1.00  0.00     0.022 A 
BRANCH  67  70
ATOM     70  S   UNL A   1      33.807  34.424  28.886  1.00  0.00     0.127 S 
ATOM     71  O   UNL A   1      32.728  34.895  29.751  1.00  0.00    -0.237 OA
ATOM     72  O   UNL A   1      34.699  35.476  28.398  1.00  0.00    -0.237 OA
ATOM     73  O   UNL A   1      33.415  33.456  27.867  1.00  0.00    -0.744 OA
ENDBRANCH  67  70
ENDBRANCH  49  63
BRANCH  50  74
ATOM     74  C   UNL A   1      44.997  27.259  29.275  1.00  0.00     0.023 A 
ATOM     75  C   UNL A   1      45.375  25.948  29.661  1.00  0.00     0.012 A 
ATOM     76  C   UNL A   1      44.761  27.516  27.913  1.00  0.00     0.148 A 
ATOM     77  C   UNL A   1      45.350  24.894  28.745  1.00  0.00     0.002 A 
ATOM     78  C   UNL A   1      44.760  26.462  27.000  1.00  0.00     0.091 A 
ATOM     79  F   UNL A   1      44.461  28.764  27.536  1.00  0.00    -0.205 F 
ATOM     80  C   UNL A   1      45.002  25.146  27.422  1.00  0.00     0.022 A 
BRANCH  78  81
ATOM     81  S   UNL A   1      44.327  26.727  25.275  1.00  0.00     0.127 S 
ATOM     82  O   UNL A   1      43.435  27.877  25.374  1.00  0.00    -0.237 OA
ATOM     83  O   UNL A   1      45.625  27.005  24.662  1.00  0.00    -0.237 OA
ATOM     84  O   UNL A   1      43.724  25.473  24.848  1.00  0.00    -0.744 OA
ENDBRANCH  78  81
ENDBRANCH  50  74
BRANCH  62  85
ATOM     85  C   UNL A   1      43.374  34.285  30.452  1.00  0.00     0.023 A 
ATOM     86  C   UNL A   1      43.505  35.281  31.440  1.00  0.00     0.012 A 
ATOM     87  C   UNL A   1      43.416  34.744  29.105  1.00  0.00     0.148 A 
ATOM     88  C   UNL A   1      43.814  36.611  31.126  1.00  0.00     0.002 A 
ATOM     89  C   UNL A   1      43.695  36.072  28.791  1.00  0.00     0.091 A 
ATOM     90  F   UNL A   1      43.136  33.908  28.101  1.00  0.00    -0.205 F 
ATOM     91  C   UNL A   1      43.930  37.004  29.801  1.00  0.00     0.022 A 
BRANCH  89  92
ATOM     92  S   UNL A   1      43.737  36.677  27.095  1.00  0.00     0.127 S 
ATOM     93  O   UNL A   1      42.347  36.487  26.682  1.00  0.00    -0.237 OA
ATOM     94  O   UNL A   1      44.133  38.072  27.281  1.00  0.00    -0.237 OA
ATOM     95  O   UNL A   1      44.713  35.857  26.392  1.00  0.00    -0.744 OA
ENDBRANCH  89  92
ENDBRANCH  62  85
ENDBRANCH  36  37
ENDBRANCH  28  31
ENDBRANCH  26  27
ENDBRANCH  25  26
ENDBRANCH   1  25
TORSDOF 17
ENDMDL
