MODEL 1
REMARK VINA RESULT:     -12.8      0.000      0.000
REMARK SMILES O=C(NCCCCNC(=O)c1ccc(-c2c3nc(c(-c4cccc(S(=O)(=O)[O-])c4F)c4ccc([nH]4)c(-c4cccc(S(=O)(=O)[O-])c4F)c4nc(c(-c5cccc(S(=O)(=O)[O-])c5F)c5ccc2[nH]5)C=C4)C=C3)cc1)C1=Cc2cc(C(F)(F)F)ccc2O[C@@H]1C(F)(F)F
REMARK SMILES IDX 6 1 5 2 4 3 3 4 1 5 2 6 74 8 75 9 87 10 76 11 86 12 77 13
REMARK SMILES IDX 85 14 78 15 84 16 83 17 88 18 89 19 90 20 91 21 79 22 80 23
REMARK SMILES IDX 81 24 82 25 7 26 8 27 9 28 10 30 11 31 12 32 73 33 13 34
REMARK SMILES IDX 72 35 14 36 15 37 16 38 66 39 17 40 71 41 65 42 67 43 18 44
REMARK SMILES IDX 70 45 64 46 63 47 19 49 51 50 31 51 50 52 32 53 35 54 49 55
REMARK SMILES IDX 68 56 33 57 34 58 48 60 69 61 36 62 20 63 21 64 29 65 22 66
REMARK SMILES IDX 24 67 30 68 23 69 25 70 26 71 27 72 28 73 52 74 53 75 61 76
REMARK SMILES IDX 54 77 56 78 62 79 55 80 57 81 58 82 59 83 60 84 37 85 38 86
REMARK SMILES IDX 46 87 39 88 41 89 47 90 40 91 42 92 43 93 44 94 45 95
REMARK H PARENT 3 7 8 29 67 48 35 59
REMARK Flexibility Score: inf
ROOT
ATOM      1  C   UNL A   1      36.519  22.639  23.582  1.00  0.00     0.023 C 
ENDROOT
BRANCH   1   2
ATOM      2  C   UNL A   1      35.072  23.035  23.253  1.00  0.00     0.023 C 
BRANCH   2   3
ATOM      3  C   UNL A   1      34.741  24.505  23.550  1.00  0.00     0.116 C 
BRANCH   3   4
ATOM      4  N   UNL A   1      33.710  25.064  22.665  1.00  0.00    -0.352 N 
ATOM      5  O   UNL A   1      31.696  25.963  22.118  1.00  0.00    -0.270 OA
ATOM      6  C   UNL A   1      32.358  25.231  22.842  1.00  0.00     0.251 C 
ATOM      7  H   UNL A   1      34.046  25.372  21.792  1.00  0.00     0.163 HD
BRANCH   6   8
ATOM      8  C   UNL A   1      31.730  24.539  23.979  1.00  0.00     0.067 C 
ATOM      9  C   UNL A   1      31.348  23.269  23.810  1.00  0.00     0.025 C 
ATOM     10  C   UNL A   1      31.814  25.178  25.331  1.00  0.00     0.314 C 
ATOM     11  C   UNL A   1      31.868  22.410  24.877  1.00  0.00     0.018 A 
ATOM     12  O   UNL A   1      32.421  24.311  26.322  1.00  0.00    -0.475 OA
ATOM     13  C   UNL A   1      32.125  21.074  24.555  1.00  0.00     0.025 A 
ATOM     14  C   UNL A   1      32.456  22.972  26.024  1.00  0.00     0.128 A 
ATOM     15  C   UNL A   1      33.019  20.313  25.325  1.00  0.00     0.056 A 
ATOM     16  C   UNL A   1      33.284  22.200  26.837  1.00  0.00     0.048 A 
ATOM     17  C   UNL A   1      33.579  20.882  26.479  1.00  0.00     0.017 A 
BRANCH  10  18
ATOM     18  C   UNL A   1      30.419  25.626  25.803  1.00  0.00     0.429 C 
ATOM     19  F   UNL A   1      29.815  24.660  26.540  1.00  0.00    -0.167 F 
ATOM     20  F   UNL A   1      30.470  26.733  26.581  1.00  0.00    -0.167 F 
ATOM     21  F   UNL A   1      29.588  25.906  24.768  1.00  0.00    -0.167 F 
ENDBRANCH  10  18
BRANCH  15  22
ATOM     22  C   UNL A   1      33.403  18.924  24.878  1.00  0.00     0.416 C 
ATOM     23  F   UNL A   1      32.795  18.568  23.716  1.00  0.00    -0.166 F 
ATOM     24  F   UNL A   1      34.742  18.798  24.658  1.00  0.00    -0.166 F 
ATOM     25  F   UNL A   1      33.086  17.967  25.787  1.00  0.00    -0.166 F 
ENDBRANCH  15  22
ENDBRANCH   6   8
ENDBRANCH   3   4
ENDBRANCH   2   3
ENDBRANCH   1   2
BRANCH   1  26
ATOM     26  C   UNL A   1      36.782  22.097  24.986  1.00  0.00     0.116 C 
BRANCH  26  27
ATOM     27  N   UNL A   1      37.815  21.072  25.060  1.00  0.00    -0.352 N 
ATOM     28  C   UNL A   1      39.004  21.093  25.773  1.00  0.00     0.251 C 
ATOM     29  H   UNL A   1      37.647  20.258  24.534  1.00  0.00     0.163 HD
ATOM     30  O   UNL A   1      39.775  20.159  25.736  1.00  0.00    -0.269 OA
BRANCH  28  31
ATOM     31  C   UNL A   1      39.350  22.314  26.543  1.00  0.00     0.039 A 
ATOM     32  C   UNL A   1      40.376  22.237  27.487  1.00  0.00     0.014 A 
ATOM     33  C   UNL A   1      38.750  23.538  26.243  1.00  0.00     0.014 A 
ATOM     34  C   UNL A   1      40.897  23.414  28.033  1.00  0.00     0.010 A 
ATOM     35  C   UNL A   1      39.314  24.711  26.734  1.00  0.00     0.010 A 
ATOM     36  C   UNL A   1      40.418  24.661  27.601  1.00  0.00    -0.014 A 
BRANCH  36  37
ATOM     37  C   UNL A   1      41.131  25.920  27.944  1.00  0.00     0.031 A 
ATOM     38  C   UNL A   1      40.420  27.040  28.647  1.00  0.00     0.074 A 
ATOM     39  C   UNL A   1      42.387  26.104  27.488  1.00  0.00     0.049 A 
ATOM     40  N   UNL A   1      40.860  28.234  28.943  1.00  0.00    -0.248 NA
ATOM     41  C   UNL A   1      39.023  26.796  29.040  1.00  0.00     0.031 C 
ATOM     42  C   UNL A   1      43.148  25.135  26.694  1.00  0.00     0.029 A 
ATOM     43  N   UNL A   1      43.232  27.183  27.586  1.00  0.00    -0.354 N 
ATOM     44  C   UNL A   1      39.789  28.898  29.526  1.00  0.00     0.074 A 
ATOM     45  C   UNL A   1      38.668  27.982  29.514  1.00  0.00     0.031 C 
ATOM     46  C   UNL A   1      44.337  25.666  26.371  1.00  0.00     0.029 A 
ATOM     47  C   UNL A   1      44.418  27.019  26.908  1.00  0.00     0.049 A 
ATOM     48  H   UNL A   1      43.009  27.996  28.094  1.00  0.00     0.167 HD
ATOM     49  C   UNL A   1      39.749  30.145  30.053  1.00  0.00     0.034 A 
ATOM     50  C   UNL A   1      45.451  27.865  26.727  1.00  0.00     0.034 A 
ATOM     51  C   UNL A   1      40.877  31.036  30.103  1.00  0.00     0.049 A 
ATOM     52  C   UNL A   1      45.408  29.222  27.370  1.00  0.00     0.074 A 
ATOM     53  C   UNL A   1      40.972  32.270  30.722  1.00  0.00     0.029 A 
ATOM     54  N   UNL A   1      42.103  30.796  29.503  1.00  0.00    -0.354 N 
ATOM     55  N   UNL A   1      44.455  29.757  28.094  1.00  0.00    -0.248 NA
ATOM     56  C   UNL A   1      46.590  30.079  27.204  1.00  0.00     0.031 C 
ATOM     57  C   UNL A   1      42.252  32.782  30.484  1.00  0.00     0.029 A 
ATOM     58  C   UNL A   1      42.957  31.863  29.723  1.00  0.00     0.049 A 
ATOM     59  H   UNL A   1      42.332  29.984  28.995  1.00  0.00     0.167 HD
ATOM     60  C   UNL A   1      44.927  31.005  28.486  1.00  0.00     0.074 A 
ATOM     61  C   UNL A   1      46.264  31.134  27.941  1.00  0.00     0.031 C 
ATOM     62  C   UNL A   1      44.301  31.963  29.212  1.00  0.00     0.034 A 
BRANCH  49  63
ATOM     63  C   UNL A   1      38.455  30.589  30.681  1.00  0.00     0.023 A 
ATOM     64  C   UNL A   1      38.205  30.277  32.033  1.00  0.00     0.012 A 
ATOM     65  C   UNL A   1      37.504  31.331  29.954  1.00  0.00     0.148 A 
ATOM     66  C   UNL A   1      37.013  30.665  32.643  1.00  0.00     0.002 A 
ATOM     67  C   UNL A   1      36.335  31.747  30.581  1.00  0.00     0.091 A 
ATOM     68  F   UNL A   1      37.745  31.594  28.662  1.00  0.00    -0.205 F 
ATOM     69  C   UNL A   1      36.083  31.406  31.920  1.00  0.00     0.022 A 
BRANCH  67  70
ATOM     70  S   UNL A   1      35.111  32.762  29.743  1.00  0.00     0.127 S 
ATOM     71  O   UNL A   1      35.938  33.840  29.207  1.00  0.00    -0.237 OA
ATOM     72  O   UNL A   1      34.579  31.843  28.734  1.00  0.00    -0.237 OA
ATOM     73  O   UNL A   1      34.152  33.146  30.769  1.00  0.00    -0.744 OA
ENDBRANCH  67  70
ENDBRANCH  49  63
BRANCH  50  74
ATOM     74  C   UNL A   1      46.639  27.414  25.949  1.00  0.00     0.023 A 
ATOM     75  C   UNL A   1      46.722  27.715  24.576  1.00  0.00     0.012 A 
ATOM     76  C   UNL A   1      47.714  26.749  26.572  1.00  0.00     0.148 A 
ATOM     77  C   UNL A   1      47.845  27.349  23.834  1.00  0.00     0.002 A 
ATOM     78  C   UNL A   1      48.853  26.436  25.839  1.00  0.00     0.091 A 
ATOM     79  F   UNL A   1      47.610  26.458  27.876  1.00  0.00    -0.205 F 
ATOM     80  C   UNL A   1      48.916  26.722  24.467  1.00  0.00     0.022 A 
BRANCH  78  81
ATOM     81  S   UNL A   1      50.330  25.760  26.607  1.00  0.00     0.127 S 
ATOM     82  O   UNL A   1      51.224  25.613  25.462  1.00  0.00    -0.237 OA
ATOM     83  O   UNL A   1      50.699  26.821  27.545  1.00  0.00    -0.237 OA
ATOM     84  O   UNL A   1      49.905  24.522  27.247  1.00  0.00    -0.744 OA
ENDBRANCH  78  81
ENDBRANCH  50  74
BRANCH  62  85
ATOM     85  C   UNL A   1      45.048  33.246  29.466  1.00  0.00     0.023 A 
ATOM     86  C   UNL A   1      45.889  33.342  30.591  1.00  0.00     0.012 A 
ATOM     87  C   UNL A   1      44.986  34.315  28.552  1.00  0.00     0.148 A 
ATOM     88  C   UNL A   1      46.644  34.493  30.814  1.00  0.00     0.002 A 
ATOM     89  C   UNL A   1      45.773  35.443  28.760  1.00  0.00     0.091 A 
ATOM     90  F   UNL A   1      44.162  34.211  27.499  1.00  0.00    -0.205 F 
ATOM     91  C   UNL A   1      46.597  35.536  29.893  1.00  0.00     0.022 A 
BRANCH  89  92
ATOM     92  S   UNL A   1      45.842  36.798  27.580  1.00  0.00     0.127 S 
ATOM     93  O   UNL A   1      44.425  37.116  27.410  1.00  0.00    -0.237 OA
ATOM     94  O   UNL A   1      46.611  37.807  28.308  1.00  0.00    -0.237 OA
ATOM     95  O   UNL A   1      46.510  36.266  26.400  1.00  0.00    -0.744 OA
ENDBRANCH  89  92
ENDBRANCH  62  85
ENDBRANCH  36  37
ENDBRANCH  28  31
ENDBRANCH  26  27
ENDBRANCH   1  26
TORSDOF 16
ENDMDL
MODEL 2
REMARK VINA RESULT:     -12.8      5.057      7.555
REMARK SMILES O=C(NCCCCNC(=O)c1ccc(-c2c3nc(c(-c4cccc(S(=O)(=O)[O-])c4F)c4ccc([nH]4)c(-c4cccc(S(=O)(=O)[O-])c4F)c4nc(c(-c5cccc(S(=O)(=O)[O-])c5F)c5ccc2[nH]5)C=C4)C=C3)cc1)C1=Cc2cc(C(F)(F)F)ccc2O[C@@H]1C(F)(F)F
REMARK SMILES IDX 6 1 5 2 4 3 3 4 1 5 2 6 74 8 75 9 87 10 76 11 86 12 77 13
REMARK SMILES IDX 85 14 78 15 84 16 83 17 88 18 89 19 90 20 91 21 79 22 80 23
REMARK SMILES IDX 81 24 82 25 7 26 8 27 9 28 10 30 11 31 12 32 73 33 13 34
REMARK SMILES IDX 72 35 14 36 15 37 16 38 66 39 17 40 71 41 65 42 67 43 18 44
REMARK SMILES IDX 70 45 64 46 63 47 19 49 51 50 31 51 50 52 32 53 35 54 49 55
REMARK SMILES IDX 68 56 33 57 34 58 48 60 69 61 36 62 20 63 21 64 29 65 22 66
REMARK SMILES IDX 24 67 30 68 23 69 25 70 26 71 27 72 28 73 52 74 53 75 61 76
REMARK SMILES IDX 54 77 56 78 62 79 55 80 57 81 58 82 59 83 60 84 37 85 38 86
REMARK SMILES IDX 46 87 39 88 41 89 47 90 40 91 42 92 43 93 44 94 45 95
REMARK H PARENT 3 7 8 29 67 48 35 59
REMARK Flexibility Score: inf
ROOT
ATOM      1  C   UNL A   1      31.773  28.819  26.759  1.00  0.00     0.023 C 
ENDROOT
BRANCH   1   2
ATOM      2  C   UNL A   1      32.281  27.380  26.931  1.00  0.00     0.023 C 
BRANCH   2   3
ATOM      3  C   UNL A   1      31.458  26.328  26.173  1.00  0.00     0.116 C 
BRANCH   3   4
ATOM      4  N   UNL A   1      31.401  25.027  26.852  1.00  0.00    -0.352 N 
ATOM      5  O   UNL A   1      32.174  23.013  27.567  1.00  0.00    -0.270 OA
ATOM      6  C   UNL A   1      32.188  23.908  26.732  1.00  0.00     0.251 C 
ATOM      7  H   UNL A   1      30.672  24.942  27.509  1.00  0.00     0.163 HD
BRANCH   6   8
ATOM      8  C   UNL A   1      33.103  23.839  25.581  1.00  0.00     0.067 C 
ATOM      9  C   UNL A   1      34.185  24.623  25.588  1.00  0.00     0.025 C 
ATOM     10  C   UNL A   1      32.942  22.705  24.616  1.00  0.00     0.314 C 
ATOM     11  C   UNL A   1      35.403  23.856  25.315  1.00  0.00     0.018 A 
ATOM     12  O   UNL A   1      34.155  21.928  24.457  1.00  0.00    -0.475 OA
ATOM     13  C   UNL A   1      36.592  24.317  25.888  1.00  0.00     0.025 A 
ATOM     14  C   UNL A   1      35.323  22.529  24.858  1.00  0.00     0.128 A 
ATOM     15  C   UNL A   1      37.678  23.448  26.073  1.00  0.00     0.056 A 
ATOM     16  C   UNL A   1      36.424  21.682  24.968  1.00  0.00     0.048 A 
ATOM     17  C   UNL A   1      37.590  22.134  25.591  1.00  0.00     0.017 A 
BRANCH  10  18
ATOM     18  C   UNL A   1      32.465  23.226  23.247  1.00  0.00     0.429 C 
ATOM     19  F   UNL A   1      31.788  22.269  22.565  1.00  0.00    -0.167 F 
ATOM     20  F   UNL A   1      31.631  24.286  23.362  1.00  0.00    -0.167 F 
ATOM     21  F   UNL A   1      33.496  23.616  22.456  1.00  0.00    -0.167 F 
ENDBRANCH  10  18
BRANCH  15  22
ATOM     22  C   UNL A   1      38.898  23.918  26.829  1.00  0.00     0.416 C 
ATOM     23  F   UNL A   1      39.631  22.885  27.321  1.00  0.00    -0.166 F 
ATOM     24  F   UNL A   1      39.746  24.647  26.049  1.00  0.00    -0.166 F 
ATOM     25  F   UNL A   1      38.594  24.712  27.886  1.00  0.00    -0.166 F 
ENDBRANCH  15  22
ENDBRANCH   6   8
ENDBRANCH   3   4
ENDBRANCH   2   3
ENDBRANCH   1   2
BRANCH   1  26
ATOM     26  C   UNL A   1      32.774  29.844  26.227  1.00  0.00     0.116 C 
BRANCH  26  27
ATOM     27  N   UNL A   1      32.631  31.182  26.786  1.00  0.00    -0.352 N 
ATOM     28  C   UNL A   1      33.555  31.919  27.510  1.00  0.00     0.251 C 
ATOM     29  H   UNL A   1      31.763  31.620  26.629  1.00  0.00     0.163 HD
ATOM     30  O   UNL A   1      33.292  33.030  27.917  1.00  0.00    -0.269 OA
BRANCH  28  31
ATOM     31  C   UNL A   1      34.864  31.298  27.834  1.00  0.00     0.039 A 
ATOM     32  C   UNL A   1      35.973  32.130  28.002  1.00  0.00     0.014 A 
ATOM     33  C   UNL A   1      34.958  29.928  28.087  1.00  0.00     0.014 A 
ATOM     34  C   UNL A   1      37.144  31.609  28.557  1.00  0.00     0.010 A 
ATOM     35  C   UNL A   1      36.101  29.427  28.702  1.00  0.00     0.010 A 
ATOM     36  C   UNL A   1      37.188  30.271  28.981  1.00  0.00    -0.014 A 
BRANCH  36  37
ATOM     37  C   UNL A   1      38.304  29.765  29.821  1.00  0.00     0.031 A 
ATOM     38  C   UNL A   1      38.521  30.291  31.211  1.00  0.00     0.074 A 
ATOM     39  C   UNL A   1      39.209  28.930  29.271  1.00  0.00     0.049 A 
ATOM     40  N   UNL A   1      39.491  30.028  32.046  1.00  0.00    -0.248 NA
ATOM     41  C   UNL A   1      37.538  31.264  31.713  1.00  0.00     0.031 C 
ATOM     42  C   UNL A   1      39.172  28.434  27.892  1.00  0.00     0.029 A 
ATOM     43  N   UNL A   1      40.360  28.384  29.785  1.00  0.00    -0.354 N 
ATOM     44  C   UNL A   1      39.257  30.824  33.160  1.00  0.00     0.074 A 
ATOM     45  C   UNL A   1      38.069  31.603  32.879  1.00  0.00     0.031 C 
ATOM     46  C   UNL A   1      40.251  27.669  27.669  1.00  0.00     0.029 A 
ATOM     47  C   UNL A   1      41.072  27.638  28.875  1.00  0.00     0.049 A 
ATOM     48  H   UNL A   1      40.648  28.514  30.718  1.00  0.00     0.167 HD
ATOM     49  C   UNL A   1      39.949  30.879  34.323  1.00  0.00     0.034 A 
ATOM     50  C   UNL A   1      42.259  27.008  28.989  1.00  0.00     0.034 A 
ATOM     51  C   UNL A   1      41.102  30.072  34.616  1.00  0.00     0.049 A 
ATOM     52  C   UNL A   1      42.978  27.037  30.307  1.00  0.00     0.074 A 
ATOM     53  C   UNL A   1      41.799  29.966  35.806  1.00  0.00     0.029 A 
ATOM     54  N   UNL A   1      41.736  29.239  33.707  1.00  0.00    -0.354 N 
ATOM     55  N   UNL A   1      42.631  27.639  31.419  1.00  0.00    -0.248 NA
ATOM     56  C   UNL A   1      44.231  26.274  30.403  1.00  0.00     0.031 C 
ATOM     57  C   UNL A   1      42.864  29.079  35.612  1.00  0.00     0.029 A 
ATOM     58  C   UNL A   1      42.825  28.627  34.303  1.00  0.00     0.049 A 
ATOM     59  H   UNL A   1      41.452  29.103  32.773  1.00  0.00     0.167 HD
ATOM     60  C   UNL A   1      43.611  27.315  32.351  1.00  0.00     0.074 A 
ATOM     61  C   UNL A   1      44.550  26.440  31.680  1.00  0.00     0.031 C 
ATOM     62  C   UNL A   1      43.730  27.723  33.638  1.00  0.00     0.034 A 
BRANCH  49  63
ATOM     63  C   UNL A   1      39.427  31.801  35.393  1.00  0.00     0.023 A 
ATOM     64  C   UNL A   1      38.467  31.319  36.307  1.00  0.00     0.012 A 
ATOM     65  C   UNL A   1      39.899  33.122  35.517  1.00  0.00     0.148 A 
ATOM     66  C   UNL A   1      37.957  32.149  37.304  1.00  0.00     0.002 A 
ATOM     67  C   UNL A   1      39.413  33.930  36.538  1.00  0.00     0.091 A 
ATOM     68  F   UNL A   1      40.790  33.572  34.623  1.00  0.00    -0.205 F 
ATOM     69  C   UNL A   1      38.435  33.450  37.425  1.00  0.00     0.022 A 
BRANCH  67  70
ATOM     70  S   UNL A   1      40.022  35.599  36.807  1.00  0.00     0.127 S 
ATOM     71  O   UNL A   1      39.397  35.940  38.083  1.00  0.00    -0.237 OA
ATOM     72  O   UNL A   1      41.471  35.397  36.874  1.00  0.00    -0.237 OA
ATOM     73  O   UNL A   1      39.577  36.370  35.655  1.00  0.00    -0.744 OA
ENDBRANCH  67  70
ENDBRANCH  49  63
BRANCH  50  74
ATOM     74  C   UNL A   1      42.798  26.246  27.828  1.00  0.00     0.023 A 
ATOM     75  C   UNL A   1      43.632  26.898  26.899  1.00  0.00     0.012 A 
ATOM     76  C   UNL A   1      42.545  24.868  27.675  1.00  0.00     0.148 A 
ATOM     77  C   UNL A   1      44.192  26.197  25.831  1.00  0.00     0.002 A 
ATOM     78  C   UNL A   1      43.150  24.164  26.639  1.00  0.00     0.091 A 
ATOM     79  F   UNL A   1      41.737  24.269  28.560  1.00  0.00    -0.205 F 
ATOM     80  C   UNL A   1      43.962  24.829  25.708  1.00  0.00     0.022 A 
BRANCH  78  81
ATOM     81  S   UNL A   1      43.023  22.378  26.493  1.00  0.00     0.127 S 
ATOM     82  O   UNL A   1      42.721  21.985  27.867  1.00  0.00    -0.237 OA
ATOM     83  O   UNL A   1      41.913  22.227  25.551  1.00  0.00    -0.237 OA
ATOM     84  O   UNL A   1      44.310  21.937  25.973  1.00  0.00    -0.744 OA
ENDBRANCH  78  81
ENDBRANCH  50  74
BRANCH  62  85
ATOM     85  C   UNL A   1      44.922  27.234  34.417  1.00  0.00     0.023 A 
ATOM     86  C   UNL A   1      46.121  27.972  34.378  1.00  0.00     0.012 A 
ATOM     87  C   UNL A   1      44.831  26.103  35.250  1.00  0.00     0.148 A 
ATOM     88  C   UNL A   1      47.219  27.580  35.142  1.00  0.00     0.002 A 
ATOM     89  C   UNL A   1      45.917  25.741  36.040  1.00  0.00     0.091 A 
ATOM     90  F   UNL A   1      43.687  25.402  35.256  1.00  0.00    -0.205 F 
ATOM     91  C   UNL A   1      47.113  26.474  35.982  1.00  0.00     0.022 A 
BRANCH  89  92
ATOM     92  S   UNL A   1      45.841  24.384  37.217  1.00  0.00     0.127 S 
ATOM     93  O   UNL A   1      44.803  24.846  38.137  1.00  0.00    -0.237 OA
ATOM     94  O   UNL A   1      45.449  23.258  36.370  1.00  0.00    -0.237 OA
ATOM     95  O   UNL A   1      47.178  24.273  37.786  1.00  0.00    -0.744 OA
ENDBRANCH  89  92
ENDBRANCH  62  85
ENDBRANCH  36  37
ENDBRANCH  28  31
ENDBRANCH  26  27
ENDBRANCH   1  26
TORSDOF 16
ENDMDL
MODEL 3
REMARK VINA RESULT:     -12.8      5.152     10.293
REMARK SMILES O=C(NCCCCNC(=O)c1ccc(-c2c3nc(c(-c4cccc(S(=O)(=O)[O-])c4F)c4ccc([nH]4)c(-c4cccc(S(=O)(=O)[O-])c4F)c4nc(c(-c5cccc(S(=O)(=O)[O-])c5F)c5ccc2[nH]5)C=C4)C=C3)cc1)C1=Cc2cc(C(F)(F)F)ccc2O[C@@H]1C(F)(F)F
REMARK SMILES IDX 6 1 5 2 4 3 3 4 1 5 2 6 74 8 75 9 87 10 76 11 86 12 77 13
REMARK SMILES IDX 85 14 78 15 84 16 83 17 88 18 89 19 90 20 91 21 79 22 80 23
REMARK SMILES IDX 81 24 82 25 7 26 8 27 9 28 10 30 11 31 12 32 73 33 13 34
REMARK SMILES IDX 72 35 14 36 15 37 16 38 66 39 17 40 71 41 65 42 67 43 18 44
REMARK SMILES IDX 70 45 64 46 63 47 19 49 51 50 31 51 50 52 32 53 35 54 49 55
REMARK SMILES IDX 68 56 33 57 34 58 48 60 69 61 36 62 20 63 21 64 29 65 22 66
REMARK SMILES IDX 24 67 30 68 23 69 25 70 26 71 27 72 28 73 52 74 53 75 61 76
REMARK SMILES IDX 54 77 56 78 62 79 55 80 57 81 58 82 59 83 60 84 37 85 38 86
REMARK SMILES IDX 46 87 39 88 41 89 47 90 40 91 42 92 43 93 44 94 45 95
REMARK H PARENT 3 7 8 29 67 48 35 59
REMARK Flexibility Score: inf
ROOT
ATOM      1  C   UNL A   1      31.403  29.818  26.340  1.00  0.00     0.023 C 
ENDROOT
BRANCH   1   2
ATOM      2  C   UNL A   1      31.765  28.670  27.293  1.00  0.00     0.023 C 
BRANCH   2   3
ATOM      3  C   UNL A   1      32.122  27.355  26.585  1.00  0.00     0.116 C 
BRANCH   3   4
ATOM      4  N   UNL A   1      31.236  26.238  26.941  1.00  0.00    -0.352 N 
ATOM      5  O   UNL A   1      30.151  24.263  26.648  1.00  0.00    -0.270 OA
ATOM      6  C   UNL A   1      30.630  25.280  26.165  1.00  0.00     0.251 C 
ATOM      7  H   UNL A   1      31.042  26.163  27.903  1.00  0.00     0.163 HD
BRANCH   6   8
ATOM      8  C   UNL A   1      30.622  25.489  24.708  1.00  0.00     0.067 C 
ATOM      9  C   UNL A   1      29.557  26.085  24.163  1.00  0.00     0.025 C 
ATOM     10  C   UNL A   1      31.905  25.299  23.959  1.00  0.00     0.314 C 
ATOM     11  C   UNL A   1      29.953  27.204  23.304  1.00  0.00     0.018 A 
ATOM     12  O   UNL A   1      32.290  26.474  23.202  1.00  0.00    -0.475 OA
ATOM     13  C   UNL A   1      29.056  28.271  23.190  1.00  0.00     0.025 A 
ATOM     14  C   UNL A   1      31.300  27.391  22.950  1.00  0.00     0.128 A 
ATOM     15  C   UNL A   1      29.503  29.541  22.793  1.00  0.00     0.056 A 
ATOM     16  C   UNL A   1      31.736  28.629  22.481  1.00  0.00     0.048 A 
ATOM     17  C   UNL A   1      30.846  29.704  22.421  1.00  0.00     0.017 A 
BRANCH  10  18
ATOM     18  C   UNL A   1      31.809  24.078  23.027  1.00  0.00     0.429 C 
ATOM     19  F   UNL A   1      32.097  24.413  21.745  1.00  0.00    -0.167 F 
ATOM     20  F   UNL A   1      32.673  23.096  23.375  1.00  0.00    -0.167 F 
ATOM     21  F   UNL A   1      30.568  23.530  23.019  1.00  0.00    -0.167 F 
ENDBRANCH  10  18
BRANCH  15  22
ATOM     22  C   UNL A   1      28.556  30.715  22.820  1.00  0.00     0.416 C 
ATOM     23  F   UNL A   1      28.526  31.327  24.034  1.00  0.00    -0.166 F 
ATOM     24  F   UNL A   1      28.895  31.681  21.919  1.00  0.00    -0.166 F 
ATOM     25  F   UNL A   1      27.276  30.372  22.531  1.00  0.00    -0.166 F 
ENDBRANCH  15  22
ENDBRANCH   6   8
ENDBRANCH   3   4
ENDBRANCH   2   3
ENDBRANCH   1   2
BRANCH   1  26
ATOM     26  C   UNL A   1      32.474  30.883  26.105  1.00  0.00     0.116 C 
BRANCH  26  27
ATOM     27  N   UNL A   1      32.258  32.132  26.822  1.00  0.00    -0.352 N 
ATOM     28  C   UNL A   1      33.142  32.825  27.636  1.00  0.00     0.251 C 
ATOM     29  H   UNL A   1      31.368  32.538  26.716  1.00  0.00     0.163 HD
ATOM     30  O   UNL A   1      32.819  33.861  28.175  1.00  0.00    -0.269 OA
BRANCH  28  31
ATOM     31  C   UNL A   1      34.482  32.240  27.889  1.00  0.00     0.039 A 
ATOM     32  C   UNL A   1      35.576  33.103  27.993  1.00  0.00     0.014 A 
ATOM     33  C   UNL A   1      34.628  30.875  28.141  1.00  0.00     0.014 A 
ATOM     34  C   UNL A   1      36.790  32.617  28.484  1.00  0.00     0.010 A 
ATOM     35  C   UNL A   1      35.816  30.407  28.694  1.00  0.00     0.010 A 
ATOM     36  C   UNL A   1      36.894  31.282  28.909  1.00  0.00    -0.014 A 
BRANCH  36  37
ATOM     37  C   UNL A   1      38.068  30.811  29.688  1.00  0.00     0.031 A 
ATOM     38  C   UNL A   1      38.993  29.767  29.131  1.00  0.00     0.074 A 
ATOM     39  C   UNL A   1      38.215  31.226  30.963  1.00  0.00     0.049 A 
ATOM     40  N   UNL A   1      40.008  29.179  29.706  1.00  0.00    -0.248 NA
ATOM     41  C   UNL A   1      38.720  29.300  27.763  1.00  0.00     0.031 C 
ATOM     42  C   UNL A   1      37.318  32.154  31.658  1.00  0.00     0.029 A 
ATOM     43  N   UNL A   1      39.145  30.892  31.918  1.00  0.00    -0.354 N 
ATOM     44  C   UNL A   1      40.478  28.250  28.787  1.00  0.00     0.074 A 
ATOM     45  C   UNL A   1      39.615  28.332  27.627  1.00  0.00     0.031 C 
ATOM     46  C   UNL A   1      37.733  32.304  32.924  1.00  0.00     0.029 A 
ATOM     47  C   UNL A   1      38.909  31.469  33.144  1.00  0.00     0.049 A 
ATOM     48  H   UNL A   1      39.908  30.296  31.740  1.00  0.00     0.167 HD
ATOM     49  C   UNL A   1      41.549  27.427  28.884  1.00  0.00     0.034 A 
ATOM     50  C   UNL A   1      39.555  31.333  34.320  1.00  0.00     0.034 A 
ATOM     51  C   UNL A   1      42.430  27.380  30.019  1.00  0.00     0.049 A 
ATOM     52  C   UNL A   1      40.774  30.458  34.387  1.00  0.00     0.074 A 
ATOM     53  C   UNL A   1      43.608  26.669  30.166  1.00  0.00     0.029 A 
ATOM     54  N   UNL A   1      42.226  28.062  31.208  1.00  0.00    -0.354 N 
ATOM     55  N   UNL A   1      41.322  29.738  33.438  1.00  0.00    -0.248 NA
ATOM     56  C   UNL A   1      41.487  30.402  35.671  1.00  0.00     0.031 C 
ATOM     57  C   UNL A   1      44.109  26.912  31.450  1.00  0.00     0.029 A 
ATOM     58  C   UNL A   1      43.247  27.780  32.100  1.00  0.00     0.049 A 
ATOM     59  H   UNL A   1      41.465  28.661  31.392  1.00  0.00     0.167 HD
ATOM     60  C   UNL A   1      42.451  29.156  34.002  1.00  0.00     0.074 A 
ATOM     61  C   UNL A   1      42.525  29.632  35.369  1.00  0.00     0.031 C 
ATOM     62  C   UNL A   1      43.334  28.292  33.444  1.00  0.00     0.034 A 
BRANCH  49  63
ATOM     63  C   UNL A   1      41.862  26.558  27.695  1.00  0.00     0.023 A 
ATOM     64  C   UNL A   1      42.503  27.129  26.577  1.00  0.00     0.012 A 
ATOM     65  C   UNL A   1      41.554  25.184  27.690  1.00  0.00     0.148 A 
ATOM     66  C   UNL A   1      42.800  26.356  25.456  1.00  0.00     0.002 A 
ATOM     67  C   UNL A   1      41.888  24.412  26.583  1.00  0.00     0.091 A 
ATOM     68  F   UNL A   1      40.920  24.663  28.749  1.00  0.00    -0.205 F 
ATOM     69  C   UNL A   1      42.501  24.997  25.463  1.00  0.00     0.022 A 
BRANCH  67  70
ATOM     70  S   UNL A   1      41.598  22.639  26.533  1.00  0.00     0.127 S 
ATOM     71  O   UNL A   1      40.140  22.579  26.466  1.00  0.00    -0.237 OA
ATOM     72  O   UNL A   1      42.281  22.244  25.299  1.00  0.00    -0.237 OA
ATOM     73  O   UNL A   1      42.201  22.109  27.748  1.00  0.00    -0.744 OA
ENDBRANCH  67  70
ENDBRANCH  49  63
BRANCH  50  74
ATOM     74  C   UNL A   1      39.086  32.103  35.506  1.00  0.00     0.023 A 
ATOM     75  C   UNL A   1      38.197  31.498  36.416  1.00  0.00     0.012 A 
ATOM     76  C   UNL A   1      39.566  33.400  35.774  1.00  0.00     0.148 A 
ATOM     77  C   UNL A   1      37.782  32.177  37.561  1.00  0.00     0.002 A 
ATOM     78  C   UNL A   1      39.190  34.049  36.945  1.00  0.00     0.091 A 
ATOM     79  F   UNL A   1      40.399  33.964  34.889  1.00  0.00    -0.205 F 
ATOM     80  C   UNL A   1      38.287  33.445  37.833  1.00  0.00     0.022 A 
BRANCH  78  81
ATOM     81  S   UNL A   1      39.906  35.621  37.441  1.00  0.00     0.127 S 
ATOM     82  O   UNL A   1      41.306  35.262  37.648  1.00  0.00    -0.237 OA
ATOM     83  O   UNL A   1      39.650  36.456  36.267  1.00  0.00    -0.237 OA
ATOM     84  O   UNL A   1      39.170  36.026  38.631  1.00  0.00    -0.744 OA
ENDBRANCH  78  81
ENDBRANCH  50  74
BRANCH  62  85
ATOM     85  C   UNL A   1      44.462  27.793  34.307  1.00  0.00     0.023 A 
ATOM     86  C   UNL A   1      45.646  28.551  34.399  1.00  0.00     0.012 A 
ATOM     87  C   UNL A   1      44.321  26.631  35.088  1.00  0.00     0.148 A 
ATOM     88  C   UNL A   1      46.681  28.149  35.242  1.00  0.00     0.002 A 
ATOM     89  C   UNL A   1      45.341  26.258  35.957  1.00  0.00     0.091 A 
ATOM     90  F   UNL A   1      43.195  25.912  34.969  1.00  0.00    -0.205 F 
ATOM     91  C   UNL A   1      46.524  27.012  36.030  1.00  0.00     0.022 A 
BRANCH  89  92
ATOM     92  S   UNL A   1      45.189  24.858  37.074  1.00  0.00     0.127 S 
ATOM     93  O   UNL A   1      46.445  24.933  37.818  1.00  0.00    -0.237 OA
ATOM     94  O   UNL A   1      43.998  25.205  37.849  1.00  0.00    -0.237 OA
ATOM     95  O   UNL A   1      45.034  23.684  36.224  1.00  0.00    -0.744 OA
ENDBRANCH  89  92
ENDBRANCH  62  85
ENDBRANCH  36  37
ENDBRANCH  28  31
ENDBRANCH  26  27
ENDBRANCH   1  26
TORSDOF 16
ENDMDL
