MODEL 1
REMARK VINA RESULT:     -11.4      0.000      0.000
REMARK SMILES CCCC1CN(c2cc(C(=O)NCCCCNC(=O)c3ccc(-c4c5nc(c(-c6cccc(S(=O)(=O)[O-])c6F)c6ccc([nH]6)c(-c6cccc(S(=O)(=O)[O-])c6F)c6nc(c(-c7cccc(S(=O)(=O)[O-])c7F)c7ccc4[nH]7)C=C6)C=C5)cc3)ccc2C)C1
REMARK SMILES IDX 14 1 13 2 12 3 10 4 11 5 9 7 7 8 8 9 85 10 84 11 86 12 83 13
REMARK SMILES IDX 6 14 4 15 5 16 87 17 3 18 2 19 1 20 15 21 16 22 17 23 18 24
REMARK SMILES IDX 19 26 20 27 21 28 82 29 22 30 81 31 23 32 24 33 25 34 75 35
REMARK SMILES IDX 26 36 80 37 74 38 76 39 27 40 79 41 73 42 72 43 28 45 60 46
REMARK SMILES IDX 40 47 59 48 41 49 44 50 58 51 77 52 42 53 43 54 57 56 78 57
REMARK SMILES IDX 45 58 29 59 30 60 38 61 31 62 33 63 39 64 32 65 34 66 35 67
REMARK SMILES IDX 36 68 37 69 61 70 62 71 70 72 63 73 65 74 71 75 64 76 66 77
REMARK SMILES IDX 67 78 68 79 69 80 46 81 47 82 55 83 48 84 50 85 56 86 49 87
REMARK SMILES IDX 51 88 52 89 53 90 54 91
REMARK H PARENT 12 6 17 25 76 44 44 55
REMARK Flexibility Score: inf
ROOT
ATOM      1  C   UNL A   1      35.206  31.126  27.772  1.00  0.00     0.023 C 
ENDROOT
BRANCH   1   2
ATOM      2  C   UNL A   1      34.953  29.640  27.522  1.00  0.00     0.116 C 
BRANCH   2   3
ATOM      3  N   UNL A   1      33.615  29.188  27.868  1.00  0.00    -0.352 N 
ATOM      4  C   UNL A   1      32.647  28.489  27.183  1.00  0.00     0.251 C 
ATOM      5  O   UNL A   1      31.556  28.325  27.732  1.00  0.00    -0.269 OA
ATOM      6  H   UNL A   1      33.345  29.432  28.782  1.00  0.00     0.163 HD
BRANCH   4   7
ATOM      7  C   UNL A   1      32.822  27.982  25.794  1.00  0.00     0.041 A 
ATOM      8  C   UNL A   1      33.280  26.201  24.183  1.00  0.00     0.040 A 
ATOM      9  C   UNL A   1      32.927  26.629  25.474  1.00  0.00     0.040 A 
ATOM     10  C   UNL A   1      33.306  27.152  23.143  1.00  0.00    -0.028 A 
ATOM     11  C   UNL A   1      33.056  28.503  23.439  1.00  0.00     0.006 A 
ATOM     12  C   UNL A   1      33.482  26.778  21.695  1.00  0.00     0.046 C 
ATOM     13  C   UNL A   1      32.850  28.917  24.755  1.00  0.00     0.014 A 
BRANCH   8  14
ATOM     14  N   UNL A   1      33.668  24.858  23.959  1.00  0.00    -0.371 N 
ATOM     15  C   UNL A   1      33.633  23.032  24.959  1.00  0.00     0.028 C 
ATOM     16  C   UNL A   1      34.644  24.171  24.771  1.00  0.00     0.122 C 
ATOM     17  C   UNL A   1      32.848  23.688  23.815  1.00  0.00     0.122 C 
BRANCH  15  18
ATOM     18  C   UNL A   1      34.179  21.625  24.754  1.00  0.00     0.007 C 
BRANCH  18  19
ATOM     19  C   UNL A   1      33.938  20.725  25.968  1.00  0.00    -0.003 C 
ATOM     20  C   UNL A   1      33.995  21.458  27.300  1.00  0.00     0.004 C 
ENDBRANCH  18  19
ENDBRANCH  15  18
ENDBRANCH   8  14
ENDBRANCH   4   7
ENDBRANCH   2   3
ENDBRANCH   1   2
BRANCH   1  21
ATOM     21  C   UNL A   1      34.038  31.978  28.281  1.00  0.00     0.023 C 
BRANCH  21  22
ATOM     22  C   UNL A   1      34.120  33.484  28.034  1.00  0.00     0.116 C 
BRANCH  22  23
ATOM     23  N   UNL A   1      33.573  34.276  29.135  1.00  0.00    -0.352 N 
ATOM     24  C   UNL A   1      33.940  34.340  30.468  1.00  0.00     0.251 C 
ATOM     25  H   UNL A   1      32.820  34.859  28.888  1.00  0.00     0.163 HD
ATOM     26  O   UNL A   1      33.136  34.797  31.277  1.00  0.00    -0.269 OA
BRANCH  24  27
ATOM     27  C   UNL A   1      35.296  33.943  30.900  1.00  0.00     0.039 A 
ATOM     28  C   UNL A   1      36.454  34.281  30.182  1.00  0.00     0.014 A 
ATOM     29  C   UNL A   1      35.389  33.064  31.967  1.00  0.00     0.014 A 
ATOM     30  C   UNL A   1      37.674  33.673  30.508  1.00  0.00     0.010 A 
ATOM     31  C   UNL A   1      36.598  32.636  32.424  1.00  0.00     0.010 A 
ATOM     32  C   UNL A   1      37.707  32.807  31.597  1.00  0.00    -0.014 A 
BRANCH  32  33
ATOM     33  C   UNL A   1      38.689  31.765  31.852  1.00  0.00     0.031 A 
ATOM     34  C   UNL A   1      38.599  30.450  31.203  1.00  0.00     0.074 A 
ATOM     35  C   UNL A   1      39.877  32.281  32.256  1.00  0.00     0.049 A 
ATOM     36  N   UNL A   1      39.465  29.510  31.358  1.00  0.00    -0.248 NA
ATOM     37  C   UNL A   1      37.517  30.097  30.295  1.00  0.00     0.031 C 
ATOM     38  C   UNL A   1      41.220  31.799  31.973  1.00  0.00     0.029 A 
ATOM     39  N   UNL A   1      40.119  33.437  33.014  1.00  0.00    -0.354 N 
ATOM     40  C   UNL A   1      39.271  28.609  30.331  1.00  0.00     0.074 A 
ATOM     41  C   UNL A   1      37.962  28.932  29.814  1.00  0.00     0.031 C 
ATOM     42  C   UNL A   1      42.082  32.442  32.783  1.00  0.00     0.029 A 
ATOM     43  C   UNL A   1      41.270  33.161  33.753  1.00  0.00     0.049 A 
ATOM     44  H   UNL A   1      39.588  34.266  33.024  1.00  0.00     0.167 HD
ATOM     45  C   UNL A   1      40.328  27.838  29.936  1.00  0.00     0.034 A 
ATOM     46  C   UNL A   1      41.216  32.879  35.094  1.00  0.00     0.034 A 
ATOM     47  C   UNL A   1      41.484  28.051  30.834  1.00  0.00     0.049 A 
ATOM     48  C   UNL A   1      41.729  31.480  35.414  1.00  0.00     0.074 A 
ATOM     49  C   UNL A   1      42.670  28.756  30.697  1.00  0.00     0.029 A 
ATOM     50  N   UNL A   1      41.375  27.738  32.188  1.00  0.00    -0.354 N 
ATOM     51  N   UNL A   1      41.932  30.558  34.514  1.00  0.00    -0.248 NA
ATOM     52  C   UNL A   1      42.074  31.012  36.754  1.00  0.00     0.031 C 
ATOM     53  C   UNL A   1      43.211  28.963  31.999  1.00  0.00     0.029 A 
ATOM     54  C   UNL A   1      42.378  28.354  32.924  1.00  0.00     0.049 A 
ATOM     55  H   UNL A   1      40.679  27.156  32.571  1.00  0.00     0.167 HD
ATOM     56  C   UNL A   1      42.313  29.385  35.100  1.00  0.00     0.074 A 
ATOM     57  C   UNL A   1      42.457  29.745  36.502  1.00  0.00     0.031 C 
ATOM     58  C   UNL A   1      42.419  28.221  34.383  1.00  0.00     0.034 A 
BRANCH  45  59
ATOM     59  C   UNL A   1      40.468  27.110  28.595  1.00  0.00     0.023 A 
ATOM     60  C   UNL A   1      39.563  26.050  28.340  1.00  0.00     0.012 A 
ATOM     61  C   UNL A   1      41.442  27.322  27.588  1.00  0.00     0.148 A 
ATOM     62  C   UNL A   1      39.664  25.211  27.220  1.00  0.00     0.002 A 
ATOM     63  C   UNL A   1      41.559  26.477  26.477  1.00  0.00     0.091 A 
ATOM     64  F   UNL A   1      42.255  28.372  27.652  1.00  0.00    -0.205 F 
ATOM     65  C   UNL A   1      40.675  25.413  26.296  1.00  0.00     0.022 A 
BRANCH  63  66
ATOM     66  S   UNL A   1      42.855  26.673  25.235  1.00  0.00     0.127 S 
ATOM     67  O   UNL A   1      44.056  26.801  26.063  1.00  0.00    -0.237 OA
ATOM     68  O   UNL A   1      42.764  25.420  24.488  1.00  0.00    -0.237 OA
ATOM     69  O   UNL A   1      42.523  27.871  24.474  1.00  0.00    -0.744 OA
ENDBRANCH  63  66
ENDBRANCH  45  59
BRANCH  46  70
ATOM     70  C   UNL A   1      40.087  33.584  35.792  1.00  0.00     0.023 A 
ATOM     71  C   UNL A   1      38.843  32.903  35.818  1.00  0.00     0.012 A 
ATOM     72  C   UNL A   1      40.316  34.594  36.746  1.00  0.00     0.148 A 
ATOM     73  C   UNL A   1      37.942  33.087  36.868  1.00  0.00     0.002 A 
ATOM     74  C   UNL A   1      39.398  34.787  37.784  1.00  0.00     0.091 A 
ATOM     75  F   UNL A   1      41.449  35.305  36.671  1.00  0.00    -0.205 F 
ATOM     76  C   UNL A   1      38.240  34.000  37.874  1.00  0.00     0.022 A 
BRANCH  74  77
ATOM     77  S   UNL A   1      39.711  35.959  39.115  1.00  0.00     0.127 S 
ATOM     78  O   UNL A   1      38.681  35.591  40.079  1.00  0.00    -0.237 OA
ATOM     79  O   UNL A   1      41.078  35.636  39.522  1.00  0.00    -0.237 OA
ATOM     80  O   UNL A   1      39.577  37.270  38.490  1.00  0.00    -0.744 OA
ENDBRANCH  74  77
ENDBRANCH  46  70
BRANCH  58  81
ATOM     81  C   UNL A   1      42.556  26.835  34.988  1.00  0.00     0.023 A 
ATOM     82  C   UNL A   1      41.466  26.152  35.559  1.00  0.00     0.012 A 
ATOM     83  C   UNL A   1      43.764  26.098  34.858  1.00  0.00     0.148 A 
ATOM     84  C   UNL A   1      41.575  24.842  36.035  1.00  0.00     0.002 A 
ATOM     85  C   UNL A   1      43.832  24.756  35.220  1.00  0.00     0.091 A 
ATOM     86  F   UNL A   1      44.871  26.699  34.397  1.00  0.00    -0.205 F 
ATOM     87  C   UNL A   1      42.751  24.133  35.843  1.00  0.00     0.022 A 
BRANCH  85  88
ATOM     88  S   UNL A   1      45.241  23.742  34.745  1.00  0.00     0.127 S 
ATOM     89  O   UNL A   1      45.279  23.932  33.297  1.00  0.00    -0.237 OA
ATOM     90  O   UNL A   1      46.345  24.374  35.471  1.00  0.00    -0.237 OA
ATOM     91  O   UNL A   1      44.914  22.402  35.214  1.00  0.00    -0.744 OA
ENDBRANCH  85  88
ENDBRANCH  58  81
ENDBRANCH  32  33
ENDBRANCH  24  27
ENDBRANCH  22  23
ENDBRANCH  21  22
ENDBRANCH   1  21
TORSDOF 17
ENDMDL
MODEL 2
REMARK VINA RESULT:     -11.1      4.027      8.179
REMARK SMILES CCCC1CN(c2cc(C(=O)NCCCCNC(=O)c3ccc(-c4c5nc(c(-c6cccc(S(=O)(=O)[O-])c6F)c6ccc([nH]6)c(-c6cccc(S(=O)(=O)[O-])c6F)c6nc(c(-c7cccc(S(=O)(=O)[O-])c7F)c7ccc4[nH]7)C=C6)C=C5)cc3)ccc2C)C1
REMARK SMILES IDX 14 1 13 2 12 3 10 4 11 5 9 7 7 8 8 9 85 10 84 11 86 12 83 13
REMARK SMILES IDX 6 14 4 15 5 16 87 17 3 18 2 19 1 20 15 21 16 22 17 23 18 24
REMARK SMILES IDX 19 26 20 27 21 28 82 29 22 30 81 31 23 32 24 33 25 34 75 35
REMARK SMILES IDX 26 36 80 37 74 38 76 39 27 40 79 41 73 42 72 43 28 45 60 46
REMARK SMILES IDX 40 47 59 48 41 49 44 50 58 51 77 52 42 53 43 54 57 56 78 57
REMARK SMILES IDX 45 58 29 59 30 60 38 61 31 62 33 63 39 64 32 65 34 66 35 67
REMARK SMILES IDX 36 68 37 69 61 70 62 71 70 72 63 73 65 74 71 75 64 76 66 77
REMARK SMILES IDX 67 78 68 79 69 80 46 81 47 82 55 83 48 84 50 85 56 86 49 87
REMARK SMILES IDX 51 88 52 89 53 90 54 91
REMARK H PARENT 12 6 17 25 76 44 44 55
REMARK Flexibility Score: inf
ROOT
ATOM      1  C   UNL A   1      34.812  32.483  30.551  1.00  0.00     0.023 C 
ENDROOT
BRANCH   1   2
ATOM      2  C   UNL A   1      34.815  32.513  32.078  1.00  0.00     0.116 C 
BRANCH   2   3
ATOM      3  N   UNL A   1      34.533  33.817  32.658  1.00  0.00    -0.352 N 
ATOM      4  C   UNL A   1      35.241  34.653  33.491  1.00  0.00     0.251 C 
ATOM      5  O   UNL A   1      34.688  35.682  33.883  1.00  0.00    -0.269 OA
ATOM      6  H   UNL A   1      33.654  34.177  32.401  1.00  0.00     0.163 HD
BRANCH   4   7
ATOM      7  C   UNL A   1      36.608  34.350  33.998  1.00  0.00     0.041 A 
ATOM      8  C   UNL A   1      38.154  33.588  35.731  1.00  0.00     0.040 A 
ATOM      9  C   UNL A   1      36.858  33.687  35.198  1.00  0.00     0.040 A 
ATOM     10  C   UNL A   1      39.244  33.971  34.925  1.00  0.00    -0.028 A 
ATOM     11  C   UNL A   1      39.002  34.508  33.649  1.00  0.00     0.006 A 
ATOM     12  C   UNL A   1      40.678  33.731  35.318  1.00  0.00     0.046 C 
ATOM     13  C   UNL A   1      37.698  34.726  33.205  1.00  0.00     0.014 A 
BRANCH   8  14
ATOM     14  N   UNL A   1      38.342  33.180  37.075  1.00  0.00    -0.371 N 
ATOM     15  C   UNL A   1      37.341  33.287  38.897  1.00  0.00     0.028 C 
ATOM     16  C   UNL A   1      38.422  34.106  38.178  1.00  0.00     0.122 C 
ATOM     17  C   UNL A   1      37.612  32.209  37.839  1.00  0.00     0.122 C 
BRANCH  15  18
ATOM     18  C   UNL A   1      37.624  32.960  40.358  1.00  0.00     0.007 C 
BRANCH  18  19
ATOM     19  C   UNL A   1      36.343  32.852  41.188  1.00  0.00    -0.003 C 
ATOM     20  C   UNL A   1      35.694  31.477  41.143  1.00  0.00     0.004 C 
ENDBRANCH  18  19
ENDBRANCH  15  18
ENDBRANCH   8  14
ENDBRANCH   4   7
ENDBRANCH   2   3
ENDBRANCH   1   2
BRANCH   1  21
ATOM     21  C   UNL A   1      36.076  32.953  29.821  1.00  0.00     0.023 C 
BRANCH  21  22
ATOM     22  C   UNL A   1      36.262  32.475  28.381  1.00  0.00     0.116 C 
BRANCH  22  23
ATOM     23  N   UNL A   1      35.619  31.189  28.117  1.00  0.00    -0.352 N 
ATOM     24  C   UNL A   1      36.158  29.973  27.734  1.00  0.00     0.251 C 
ATOM     25  H   UNL A   1      34.641  31.187  28.228  1.00  0.00     0.163 HD
ATOM     26  O   UNL A   1      35.415  29.132  27.234  1.00  0.00    -0.269 OA
BRANCH  24  27
ATOM     27  C   UNL A   1      37.579  29.660  27.993  1.00  0.00     0.039 A 
ATOM     28  C   UNL A   1      38.511  29.444  26.968  1.00  0.00     0.014 A 
ATOM     29  C   UNL A   1      37.944  29.414  29.308  1.00  0.00     0.014 A 
ATOM     30  C   UNL A   1      39.772  28.916  27.276  1.00  0.00     0.010 A 
ATOM     31  C   UNL A   1      39.228  29.108  29.637  1.00  0.00     0.010 A 
ATOM     32  C   UNL A   1      40.085  28.700  28.615  1.00  0.00    -0.014 A 
BRANCH  32  33
ATOM     33  C   UNL A   1      41.096  27.796  29.140  1.00  0.00     0.031 A 
ATOM     34  C   UNL A   1      41.013  26.345  28.928  1.00  0.00     0.074 A 
ATOM     35  C   UNL A   1      42.286  28.423  29.319  1.00  0.00     0.049 A 
ATOM     36  N   UNL A   1      41.904  25.506  29.329  1.00  0.00    -0.248 NA
ATOM     37  C   UNL A   1      39.909  25.720  28.214  1.00  0.00     0.031 C 
ATOM     38  C   UNL A   1      43.629  27.891  29.147  1.00  0.00     0.029 A 
ATOM     39  N   UNL A   1      42.529  29.758  29.678  1.00  0.00    -0.354 N 
ATOM     40  C   UNL A   1      41.694  24.332  28.636  1.00  0.00     0.074 A 
ATOM     41  C   UNL A   1      40.362  24.468  28.095  1.00  0.00     0.031 C 
ATOM     42  C   UNL A   1      44.504  28.760  29.687  1.00  0.00     0.029 A 
ATOM     43  C   UNL A   1      43.710  29.733  30.421  1.00  0.00     0.049 A 
ATOM     44  H   UNL A   1      41.982  30.545  29.454  1.00  0.00     0.167 HD
ATOM     45  C   UNL A   1      42.753  23.487  28.456  1.00  0.00     0.034 A 
ATOM     46  C   UNL A   1      43.707  29.876  31.785  1.00  0.00     0.034 A 
ATOM     47  C   UNL A   1      43.934  23.977  29.201  1.00  0.00     0.049 A 
ATOM     48  C   UNL A   1      44.260  28.648  32.498  1.00  0.00     0.074 A 
ATOM     49  C   UNL A   1      45.100  24.617  28.809  1.00  0.00     0.029 A 
ATOM     50  N   UNL A   1      43.877  24.093  30.588  1.00  0.00    -0.354 N 
ATOM     51  N   UNL A   1      44.452  27.496  31.916  1.00  0.00    -0.248 NA
ATOM     52  C   UNL A   1      44.660  28.616  33.902  1.00  0.00     0.031 C 
ATOM     53  C   UNL A   1      45.679  25.219  29.963  1.00  0.00     0.029 A 
ATOM     54  C   UNL A   1      44.891  24.915  31.062  1.00  0.00     0.049 A 
ATOM     55  H   UNL A   1      43.207  23.650  31.158  1.00  0.00     0.167 HD
ATOM     56  C   UNL A   1      44.877  26.563  32.818  1.00  0.00     0.074 A 
ATOM     57  C   UNL A   1      45.060  27.337  34.036  1.00  0.00     0.031 C 
ATOM     58  C   UNL A   1      44.984  25.236  32.489  1.00  0.00     0.034 A 
BRANCH  45  59
ATOM     59  C   UNL A   1      42.864  22.384  27.397  1.00  0.00     0.023 A 
ATOM     60  C   UNL A   1      42.077  21.222  27.594  1.00  0.00     0.012 A 
ATOM     61  C   UNL A   1      43.712  22.350  26.264  1.00  0.00     0.148 A 
ATOM     62  C   UNL A   1      42.182  20.083  26.784  1.00  0.00     0.002 A 
ATOM     63  C   UNL A   1      43.834  21.208  25.461  1.00  0.00     0.091 A 
ATOM     64  F   UNL A   1      44.393  23.433  25.901  1.00  0.00    -0.205 F 
ATOM     65  C   UNL A   1      43.076  20.067  25.726  1.00  0.00     0.022 A 
BRANCH  63  66
ATOM     66  S   UNL A   1      44.983  21.111  24.071  1.00  0.00     0.127 S 
ATOM     67  O   UNL A   1      46.280  21.255  24.734  1.00  0.00    -0.237 OA
ATOM     68  O   UNL A   1      44.718  19.776  23.539  1.00  0.00    -0.237 OA
ATOM     69  O   UNL A   1      44.644  22.211  23.175  1.00  0.00    -0.744 OA
ENDBRANCH  63  66
ENDBRANCH  45  59
BRANCH  46  70
ATOM     70  C   UNL A   1      42.587  30.750  32.277  1.00  0.00     0.023 A 
ATOM     71  C   UNL A   1      42.442  32.004  31.631  1.00  0.00     0.012 A 
ATOM     72  C   UNL A   1      41.481  30.223  32.971  1.00  0.00     0.148 A 
ATOM     73  C   UNL A   1      41.193  32.618  31.521  1.00  0.00     0.002 A 
ATOM     74  C   UNL A   1      40.237  30.855  32.873  1.00  0.00     0.091 A 
ATOM     75  F   UNL A   1      41.637  29.084  33.660  1.00  0.00    -0.205 F 
ATOM     76  C   UNL A   1      40.083  32.021  32.107  1.00  0.00     0.022 A 
BRANCH  74  77
ATOM     77  S   UNL A   1      38.757  30.146  33.615  1.00  0.00     0.127 S 
ATOM     78  O   UNL A   1      39.064  30.247  35.037  1.00  0.00    -0.237 OA
ATOM     79  O   UNL A   1      37.697  31.040  33.150  1.00  0.00    -0.237 OA
ATOM     80  O   UNL A   1      38.676  28.799  33.061  1.00  0.00    -0.744 OA
ENDBRANCH  74  77
ENDBRANCH  46  70
BRANCH  58  81
ATOM     81  C   UNL A   1      45.171  24.104  33.483  1.00  0.00     0.023 A 
ATOM     82  C   UNL A   1      44.139  23.200  33.796  1.00  0.00     0.012 A 
ATOM     83  C   UNL A   1      46.452  23.810  34.021  1.00  0.00     0.148 A 
ATOM     84  C   UNL A   1      44.338  22.106  34.644  1.00  0.00     0.002 A 
ATOM     85  C   UNL A   1      46.673  22.653  34.763  1.00  0.00     0.091 A 
ATOM     86  F   UNL A   1      47.471  24.663  33.836  1.00  0.00    -0.205 F 
ATOM     87  C   UNL A   1      45.612  21.816  35.108  1.00  0.00     0.022 A 
BRANCH  85  88
ATOM     88  S   UNL A   1      48.345  22.111  35.152  1.00  0.00     0.127 S 
ATOM     89  O   UNL A   1      48.533  22.645  36.498  1.00  0.00    -0.237 OA
ATOM     90  O   UNL A   1      48.228  20.653  35.086  1.00  0.00    -0.237 OA
ATOM     91  O   UNL A   1      49.179  22.687  34.105  1.00  0.00    -0.744 OA
ENDBRANCH  85  88
ENDBRANCH  58  81
ENDBRANCH  32  33
ENDBRANCH  24  27
ENDBRANCH  22  23
ENDBRANCH  21  22
ENDBRANCH   1  21
TORSDOF 17
ENDMDL
MODEL 3
REMARK VINA RESULT:     -10.7      2.233      3.105
REMARK SMILES CCCC1CN(c2cc(C(=O)NCCCCNC(=O)c3ccc(-c4c5nc(c(-c6cccc(S(=O)(=O)[O-])c6F)c6ccc([nH]6)c(-c6cccc(S(=O)(=O)[O-])c6F)c6nc(c(-c7cccc(S(=O)(=O)[O-])c7F)c7ccc4[nH]7)C=C6)C=C5)cc3)ccc2C)C1
REMARK SMILES IDX 14 1 13 2 12 3 10 4 11 5 9 7 7 8 8 9 85 10 84 11 86 12 83 13
REMARK SMILES IDX 6 14 4 15 5 16 87 17 3 18 2 19 1 20 15 21 16 22 17 23 18 24
REMARK SMILES IDX 19 26 20 27 21 28 82 29 22 30 81 31 23 32 24 33 25 34 75 35
REMARK SMILES IDX 26 36 80 37 74 38 76 39 27 40 79 41 73 42 72 43 28 45 60 46
REMARK SMILES IDX 40 47 59 48 41 49 44 50 58 51 77 52 42 53 43 54 57 56 78 57
REMARK SMILES IDX 45 58 29 59 30 60 38 61 31 62 33 63 39 64 32 65 34 66 35 67
REMARK SMILES IDX 36 68 37 69 61 70 62 71 70 72 63 73 65 74 71 75 64 76 66 77
REMARK SMILES IDX 67 78 68 79 69 80 46 81 47 82 55 83 48 84 50 85 56 86 49 87
REMARK SMILES IDX 51 88 52 89 53 90 54 91
REMARK H PARENT 12 6 17 25 76 44 44 55
REMARK Flexibility Score: inf
ROOT
ATOM      1  C   UNL A   1      32.762  28.231  27.198  1.00  0.00     0.023 C 
ENDROOT
BRANCH   1   2
ATOM      2  C   UNL A   1      31.643  27.926  26.204  1.00  0.00     0.116 C 
BRANCH   2   3
ATOM      3  N   UNL A   1      30.681  26.936  26.660  1.00  0.00    -0.352 N 
ATOM      4  C   UNL A   1      30.413  25.638  26.289  1.00  0.00     0.251 C 
ATOM      5  O   UNL A   1      29.457  25.071  26.821  1.00  0.00    -0.269 OA
ATOM      6  H   UNL A   1      30.101  27.261  27.386  1.00  0.00     0.163 HD
BRANCH   4   7
ATOM      7  C   UNL A   1      31.169  24.908  25.235  1.00  0.00     0.041 A 
ATOM      8  C   UNL A   1      33.128  23.687  24.431  1.00  0.00     0.040 A 
ATOM      9  C   UNL A   1      32.346  24.201  25.478  1.00  0.00     0.040 A 
ATOM     10  C   UNL A   1      32.594  23.692  23.126  1.00  0.00    -0.028 A 
ATOM     11  C   UNL A   1      31.336  24.277  22.901  1.00  0.00     0.006 A 
ATOM     12  C   UNL A   1      33.258  22.999  21.966  1.00  0.00     0.046 C 
ATOM     13  C   UNL A   1      30.648  24.907  23.937  1.00  0.00     0.014 A 
BRANCH   8  14
ATOM     14  N   UNL A   1      34.449  23.242  24.681  1.00  0.00    -0.371 N 
ATOM     15  C   UNL A   1      36.154  23.887  25.688  1.00  0.00     0.028 C 
ATOM     16  C   UNL A   1      35.622  23.965  24.250  1.00  0.00     0.122 C 
ATOM     17  C   UNL A   1      35.054  22.842  25.920  1.00  0.00     0.122 C 
BRANCH  15  18
ATOM     18  C   UNL A   1      37.608  23.457  25.830  1.00  0.00     0.007 C 
BRANCH  18  19
ATOM     19  C   UNL A   1      38.376  24.324  26.830  1.00  0.00    -0.003 C 
ATOM     20  C   UNL A   1      39.716  24.824  26.311  1.00  0.00     0.004 C 
ENDBRANCH  18  19
ENDBRANCH  15  18
ENDBRANCH   8  14
ENDBRANCH   4   7
ENDBRANCH   2   3
ENDBRANCH   1   2
BRANCH   1  21
ATOM     21  C   UNL A   1      34.060  28.840  26.656  1.00  0.00     0.023 C 
BRANCH  21  22
ATOM     22  C   UNL A   1      34.986  29.514  27.668  1.00  0.00     0.116 C 
BRANCH  22  23
ATOM     23  N   UNL A   1      34.542  30.856  28.045  1.00  0.00    -0.352 N 
ATOM     24  C   UNL A   1      34.976  31.697  29.055  1.00  0.00     0.251 C 
ATOM     25  H   UNL A   1      33.815  31.220  27.491  1.00  0.00     0.163 HD
ATOM     26  O   UNL A   1      34.242  32.617  29.409  1.00  0.00    -0.269 OA
BRANCH  24  27
ATOM     27  C   UNL A   1      36.324  31.545  29.640  1.00  0.00     0.039 A 
ATOM     28  C   UNL A   1      37.470  32.123  29.074  1.00  0.00     0.014 A 
ATOM     29  C   UNL A   1      36.460  30.656  30.695  1.00  0.00     0.014 A 
ATOM     30  C   UNL A   1      38.738  31.742  29.534  1.00  0.00     0.010 A 
ATOM     31  C   UNL A   1      37.667  30.445  31.287  1.00  0.00     0.010 A 
ATOM     32  C   UNL A   1      38.811  30.855  30.603  1.00  0.00    -0.014 A 
BRANCH  32  33
ATOM     33  C   UNL A   1      39.937  30.005  30.957  1.00  0.00     0.031 A 
ATOM     34  C   UNL A   1      40.218  28.760  30.231  1.00  0.00     0.074 A 
ATOM     35  C   UNL A   1      40.921  30.707  31.575  1.00  0.00     0.049 A 
ATOM     36  N   UNL A   1      41.227  27.996  30.473  1.00  0.00    -0.248 NA
ATOM     37  C   UNL A   1      39.377  28.282  29.143  1.00  0.00     0.031 C 
ATOM     38  C   UNL A   1      42.361  30.522  31.488  1.00  0.00     0.029 A 
ATOM     39  N   UNL A   1      40.805  31.818  32.425  1.00  0.00    -0.354 N 
ATOM     40  C   UNL A   1      41.375  27.167  29.381  1.00  0.00     0.074 A 
ATOM     41  C   UNL A   1      40.119  27.272  28.677  1.00  0.00     0.031 C 
ATOM     42  C   UNL A   1      42.943  31.249  32.460  1.00  0.00     0.029 A 
ATOM     43  C   UNL A   1      41.867  31.709  33.324  1.00  0.00     0.049 A 
ATOM     44  H   UNL A   1      40.119  32.524  32.394  1.00  0.00     0.167 HD
ATOM     45  C   UNL A   1      42.615  26.653  29.120  1.00  0.00     0.034 A 
ATOM     46  C   UNL A   1      41.674  31.308  34.621  1.00  0.00     0.034 A 
ATOM     47  C   UNL A   1      43.557  27.009  30.204  1.00  0.00     0.049 A 
ATOM     48  C   UNL A   1      42.412  30.014  34.943  1.00  0.00     0.074 A 
ATOM     49  C   UNL A   1      44.580  27.941  30.300  1.00  0.00     0.029 A 
ATOM     50  N   UNL A   1      43.316  26.566  31.503  1.00  0.00    -0.354 N 
ATOM     51  N   UNL A   1      42.931  29.229  34.039  1.00  0.00    -0.248 NA
ATOM     52  C   UNL A   1      42.645  29.508  36.293  1.00  0.00     0.031 C 
ATOM     53  C   UNL A   1      44.868  28.137  31.682  1.00  0.00     0.029 A 
ATOM     54  C   UNL A   1      44.051  27.300  32.425  1.00  0.00     0.049 A 
ATOM     55  H   UNL A   1      42.706  25.829  31.737  1.00  0.00     0.167 HD
ATOM     56  C   UNL A   1      43.454  28.107  34.614  1.00  0.00     0.074 A 
ATOM     57  C   UNL A   1      43.313  28.367  36.039  1.00  0.00     0.031 C 
ATOM     58  C   UNL A   1      43.903  27.052  33.862  1.00  0.00     0.034 A 
BRANCH  45  59
ATOM     59  C   UNL A   1      43.098  26.085  27.782  1.00  0.00     0.023 A 
ATOM     60  C   UNL A   1      43.530  27.016  26.805  1.00  0.00     0.012 A 
ATOM     61  C   UNL A   1      43.109  24.730  27.367  1.00  0.00     0.148 A 
ATOM     62  C   UNL A   1      43.866  26.647  25.494  1.00  0.00     0.002 A 
ATOM     63  C   UNL A   1      43.426  24.358  26.053  1.00  0.00     0.091 A 
ATOM     64  F   UNL A   1      42.857  23.759  28.238  1.00  0.00    -0.205 F 
ATOM     65  C   UNL A   1      43.796  25.318  25.111  1.00  0.00     0.022 A 
BRANCH  63  66
ATOM     66  S   UNL A   1      43.350  22.648  25.479  1.00  0.00     0.127 S 
ATOM     67  O   UNL A   1      44.425  22.019  26.247  1.00  0.00    -0.237 OA
ATOM     68  O   UNL A   1      42.003  22.244  25.877  1.00  0.00    -0.237 OA
ATOM     69  O   UNL A   1      43.583  22.683  24.040  1.00  0.00    -0.744 OA
ENDBRANCH  63  66
ENDBRANCH  45  59
BRANCH  46  70
ATOM     70  C   UNL A   1      40.333  31.717  35.165  1.00  0.00     0.023 A 
ATOM     71  C   UNL A   1      39.234  30.901  34.796  1.00  0.00     0.012 A 
ATOM     72  C   UNL A   1      40.210  32.531  36.306  1.00  0.00     0.148 A 
ATOM     73  C   UNL A   1      38.128  30.759  35.637  1.00  0.00     0.002 A 
ATOM     74  C   UNL A   1      39.090  32.398  37.133  1.00  0.00     0.091 A 
ATOM     75  F   UNL A   1      41.208  33.372  36.609  1.00  0.00    -0.205 F 
ATOM     76  C   UNL A   1      38.076  31.476  36.826  1.00  0.00     0.022 A 
BRANCH  74  77
ATOM     77  S   UNL A   1      38.948  33.303  38.684  1.00  0.00     0.127 S 
ATOM     78  O   UNL A   1      37.616  32.912  39.131  1.00  0.00    -0.237 OA
ATOM     79  O   UNL A   1      40.047  32.761  39.482  1.00  0.00    -0.237 OA
ATOM     80  O   UNL A   1      39.125  34.702  38.312  1.00  0.00    -0.744 OA
ENDBRANCH  74  77
ENDBRANCH  46  70
BRANCH  58  81
ATOM     81  C   UNL A   1      44.232  25.673  34.404  1.00  0.00     0.023 A 
ATOM     82  C   UNL A   1      43.300  24.619  34.395  1.00  0.00     0.012 A 
ATOM     83  C   UNL A   1      45.556  25.341  34.800  1.00  0.00     0.148 A 
ATOM     84  C   UNL A   1      43.632  23.327  34.813  1.00  0.00     0.002 A 
ATOM     85  C   UNL A   1      45.911  24.028  35.096  1.00  0.00     0.091 A 
ATOM     86  F   UNL A   1      46.485  26.302  34.912  1.00  0.00    -0.205 F 
ATOM     87  C   UNL A   1      44.945  23.023  35.140  1.00  0.00     0.022 A 
BRANCH  85  88
ATOM     88  S   UNL A   1      47.640  23.555  35.262  1.00  0.00     0.127 S 
ATOM     89  O   UNL A   1      48.042  24.288  36.460  1.00  0.00    -0.237 OA
ATOM     90  O   UNL A   1      47.555  22.104  35.436  1.00  0.00    -0.237 OA
ATOM     91  O   UNL A   1      48.264  23.967  34.012  1.00  0.00    -0.744 OA
ENDBRANCH  85  88
ENDBRANCH  58  81
ENDBRANCH  32  33
ENDBRANCH  24  27
ENDBRANCH  22  23
ENDBRANCH  21  22
ENDBRANCH   1  21
TORSDOF 17
ENDMDL
