MODEL 1
REMARK VINA RESULT:      -9.5      0.000      0.000
REMARK SMILES O=C(CCCOc1ccc(Cl)cc1Cl)Nc1cccc(C(=O)NCCCCNC(=O)c2ccc(-c3c4nc(c(-c5cccc(S(=O)(=O)[O-])c5F)c5ccc([nH]5)c(-c5cccc(S(=O)(=O)[O-])c5F)c5nc(c(-c6cccc(S(=O)(=O)[O-])c6F)c6ccc3[nH]6)C=C5)C=C4)cc2)c1
REMARK SMILES IDX 24 1 23 2 21 3 22 4 20 6 16 7 17 8 94 9 18 10 19 11 15 12
REMARK SMILES IDX 1 13 2 14 3 16 4 17 5 18 6 19 7 20 8 21 13 22 9 23 12 24
REMARK SMILES IDX 14 25 10 26 11 27 25 28 26 29 27 30 28 31 29 32 30 34 31 35
REMARK SMILES IDX 32 36 93 37 33 38 92 39 34 40 35 41 36 42 86 43 37 44 91 45
REMARK SMILES IDX 85 46 87 47 38 48 90 49 84 50 83 51 39 53 71 54 51 55 70 56
REMARK SMILES IDX 52 57 55 58 69 59 88 60 53 61 54 62 68 64 89 65 56 66 40 67
REMARK SMILES IDX 41 68 49 69 42 70 44 71 50 72 43 73 45 74 46 75 47 76 48 77
REMARK SMILES IDX 72 78 73 79 81 80 74 81 76 82 82 83 75 84 77 85 78 86 79 87
REMARK SMILES IDX 80 88 57 89 58 90 66 91 59 92 61 93 67 94 60 95 62 96 63 97
REMARK SMILES IDX 64 98 65 99
REMARK H PARENT 23 5 15 15 28 33 87 52 55 63
REMARK Flexibility Score: inf
ROOT
ATOM      1  C   UNL A   1      39.984  28.193  27.536  1.00  0.00     0.116 C 
ENDROOT
BRANCH   1   2
ATOM      2  N   UNL A   1      40.952  28.074  26.456  1.00  0.00    -0.352 N 
ATOM      3  C   UNL A   1      41.496  26.950  25.869  1.00  0.00     0.251 C 
ATOM      4  O   UNL A   1      42.320  27.068  24.966  1.00  0.00    -0.269 OA
ATOM      5  H   UNL A   1      41.269  28.929  26.086  1.00  0.00     0.163 HD
BRANCH   3   6
ATOM      6  C   UNL A   1      41.166  25.592  26.370  1.00  0.00     0.041 A 
ATOM      7  C   UNL A   1      39.532  23.861  26.808  1.00  0.00     0.041 A 
ATOM      8  C   UNL A   1      40.437  23.250  27.683  1.00  0.00     0.026 A 
ATOM      9  C   UNL A   1      39.942  24.980  26.084  1.00  0.00     0.040 A 
ATOM     10  C   UNL A   1      41.723  23.771  27.852  1.00  0.00     0.003 A 
ATOM     11  C   UNL A   1      42.081  24.957  27.213  1.00  0.00     0.014 A 
BRANCH   7  12
ATOM     12  N   UNL A   1      38.190  23.415  26.819  1.00  0.00    -0.326 N 
ATOM     13  O   UNL A   1      38.242  21.683  25.291  1.00  0.00    -0.275 OA
ATOM     14  C   UNL A   1      37.621  22.535  25.923  1.00  0.00     0.224 C 
ATOM     15  H   UNL A   1      37.608  23.763  27.533  1.00  0.00     0.169 HD
BRANCH  14  16
ATOM     16  C   UNL A   1      36.153  22.776  25.596  1.00  0.00     0.104 C 
BRANCH  16  17
ATOM     17  C   UNL A   1      35.790  23.746  24.473  1.00  0.00     0.051 C 
BRANCH  17  18
ATOM     18  C   UNL A   1      34.964  23.166  23.317  1.00  0.00     0.230 C 
BRANCH  18  19
ATOM     19  O   UNL A   1      33.759  22.529  23.757  1.00  0.00    -0.492 OA
BRANCH  19  20
ATOM     20  C   UNL A   1      32.716  23.381  24.001  1.00  0.00     0.137 A 
ATOM     21  C   UNL A   1      32.182  24.005  22.869  1.00  0.00     0.049 A 
ATOM     22  C   UNL A   1      32.126  23.596  25.254  1.00  0.00     0.084 A 
ATOM     23  C   UNL A   1      31.129  24.910  22.994  1.00  0.00     0.024 A 
ATOM     24  C   UNL A   1      31.064  24.495  25.378  1.00  0.00     0.045 A 
ATOM     25  Cl  UNL A   1      32.620  22.738  26.671  1.00  0.00    -0.080 Cl
ATOM     26  C   UNL A   1      30.576  25.152  24.248  1.00  0.00     0.042 A 
ATOM     27  Cl  UNL A   1      29.256  26.243  24.401  1.00  0.00    -0.084 Cl
ENDBRANCH  19  20
ENDBRANCH  18  19
ENDBRANCH  17  18
ENDBRANCH  16  17
ENDBRANCH  14  16
ENDBRANCH   7  12
ENDBRANCH   3   6
ENDBRANCH   1   2
BRANCH   1  28
ATOM     28  C   UNL A   1      39.868  29.587  28.134  1.00  0.00     0.023 C 
BRANCH  28  29
ATOM     29  C   UNL A   1      38.458  30.088  28.420  1.00  0.00     0.023 C 
BRANCH  29  30
ATOM     30  C   UNL A   1      37.511  29.078  29.055  1.00  0.00     0.116 C 
BRANCH  30  31
ATOM     31  N   UNL A   1      36.755  29.607  30.185  1.00  0.00    -0.352 N 
ATOM     32  C   UNL A   1      37.121  29.708  31.507  1.00  0.00     0.251 C 
ATOM     33  H   UNL A   1      35.854  29.941  29.969  1.00  0.00     0.163 HD
ATOM     34  O   UNL A   1      36.308  30.103  32.341  1.00  0.00    -0.269 OA
BRANCH  32  35
ATOM     35  C   UNL A   1      38.480  29.300  31.930  1.00  0.00     0.039 A 
ATOM     36  C   UNL A   1      38.725  27.955  32.224  1.00  0.00     0.014 A 
ATOM     37  C   UNL A   1      39.519  30.231  31.990  1.00  0.00     0.014 A 
ATOM     38  C   UNL A   1      40.031  27.531  32.485  1.00  0.00     0.010 A 
ATOM     39  C   UNL A   1      40.829  29.792  32.166  1.00  0.00     0.010 A 
ATOM     40  C   UNL A   1      41.101  28.438  32.410  1.00  0.00    -0.014 A 
BRANCH  40  41
ATOM     41  C   UNL A   1      42.513  27.995  32.555  1.00  0.00     0.031 A 
ATOM     42  C   UNL A   1      43.304  27.579  31.343  1.00  0.00     0.074 A 
ATOM     43  C   UNL A   1      43.047  27.856  33.785  1.00  0.00     0.049 A 
ATOM     44  N   UNL A   1      44.510  27.077  31.278  1.00  0.00    -0.248 NA
ATOM     45  C   UNL A   1      42.641  27.715  30.035  1.00  0.00     0.031 C 
ATOM     46  C   UNL A   1      42.356  28.137  35.047  1.00  0.00     0.029 A 
ATOM     47  N   UNL A   1      44.285  27.410  34.181  1.00  0.00    -0.354 N 
ATOM     48  C   UNL A   1      44.733  26.795  29.935  1.00  0.00     0.074 A 
ATOM     49  C   UNL A   1      43.524  27.153  29.224  1.00  0.00     0.031 C 
ATOM     50  C   UNL A   1      43.178  27.861  36.071  1.00  0.00     0.029 A 
ATOM     51  C   UNL A   1      44.444  27.357  35.547  1.00  0.00     0.049 A 
ATOM     52  H   UNL A   1      44.993  27.154  33.546  1.00  0.00     0.167 HD
ATOM     53  C   UNL A   1      45.851  26.315  29.341  1.00  0.00     0.034 A 
ATOM     54  C   UNL A   1      45.487  26.945  36.294  1.00  0.00     0.034 A 
ATOM     55  C   UNL A   1      47.071  26.017  30.041  1.00  0.00     0.049 A 
ATOM     56  C   UNL A   1      46.741  26.475  35.604  1.00  0.00     0.074 A 
ATOM     57  C   UNL A   1      48.289  25.622  29.517  1.00  0.00     0.029 A 
ATOM     58  N   UNL A   1      47.229  26.084  31.416  1.00  0.00    -0.354 N 
ATOM     59  N   UNL A   1      46.988  26.376  34.321  1.00  0.00    -0.248 NA
ATOM     60  C   UNL A   1      47.872  26.096  36.464  1.00  0.00     0.031 C 
ATOM     61  C   UNL A   1      49.181  25.438  30.577  1.00  0.00     0.029 A 
ATOM     62  C   UNL A   1      48.524  25.735  31.760  1.00  0.00     0.049 A 
ATOM     63  H   UNL A   1      46.525  26.340  32.054  1.00  0.00     0.167 HD
ATOM     64  C   UNL A   1      48.311  25.962  34.219  1.00  0.00     0.074 A 
ATOM     65  C   UNL A   1      48.819  25.847  35.571  1.00  0.00     0.031 C 
ATOM     66  C   UNL A   1      49.035  25.685  33.106  1.00  0.00     0.034 A 
BRANCH  53  67
ATOM     67  C   UNL A   1      45.828  26.146  27.844  1.00  0.00     0.023 A 
ATOM     68  C   UNL A   1      46.115  27.253  27.020  1.00  0.00     0.012 A 
ATOM     69  C   UNL A   1      45.580  24.891  27.254  1.00  0.00     0.148 A 
ATOM     70  C   UNL A   1      46.119  27.125  25.631  1.00  0.00     0.002 A 
ATOM     71  C   UNL A   1      45.629  24.761  25.871  1.00  0.00     0.091 A 
ATOM     72  F   UNL A   1      45.287  23.854  28.052  1.00  0.00    -0.205 F 
ATOM     73  C   UNL A   1      45.886  25.878  25.058  1.00  0.00     0.022 A 
BRANCH  71  74
ATOM     74  S   UNL A   1      45.422  23.181  25.040  1.00  0.00     0.127 S 
ATOM     75  O   UNL A   1      46.385  22.344  25.754  1.00  0.00    -0.237 OA
ATOM     76  O   UNL A   1      44.019  22.868  25.318  1.00  0.00    -0.237 OA
ATOM     77  O   UNL A   1      45.722  23.425  23.636  1.00  0.00    -0.744 OA
ENDBRANCH  71  74
ENDBRANCH  53  67
BRANCH  54  78
ATOM     78  C   UNL A   1      45.422  27.035  37.781  1.00  0.00     0.023 A 
ATOM     79  C   UNL A   1      45.028  25.904  38.521  1.00  0.00     0.012 A 
ATOM     80  C   UNL A   1      45.775  28.214  38.465  1.00  0.00     0.148 A 
ATOM     81  C   UNL A   1      44.954  25.953  39.913  1.00  0.00     0.002 A 
ATOM     82  C   UNL A   1      45.750  28.240  39.856  1.00  0.00     0.091 A 
ATOM     83  F   UNL A   1      46.136  29.285  37.744  1.00  0.00    -0.205 F 
ATOM     84  C   UNL A   1      45.324  27.116  40.581  1.00  0.00     0.022 A 
BRANCH  82  85
ATOM     85  S   UNL A   1      46.333  29.652  40.802  1.00  0.00     0.127 S 
ATOM     86  O   UNL A   1      45.363  30.680  40.434  1.00  0.00    -0.237 OA
ATOM     87  O   UNL A   1      46.219  29.164  42.178  1.00  0.00    -0.237 OA
ATOM     88  O   UNL A   1      47.701  29.880  40.360  1.00  0.00    -0.744 OA
ENDBRANCH  82  85
ENDBRANCH  54  78
BRANCH  66  89
ATOM     89  C   UNL A   1      50.470  25.265  33.289  1.00  0.00     0.023 A 
ATOM     90  C   UNL A   1      51.446  26.230  33.605  1.00  0.00     0.012 A 
ATOM     91  C   UNL A   1      50.833  23.905  33.231  1.00  0.00     0.148 A 
ATOM     92  C   UNL A   1      52.768  25.851  33.834  1.00  0.00     0.002 A 
ATOM     93  C   UNL A   1      52.143  23.530  33.507  1.00  0.00     0.091 A 
ATOM     94  F   UNL A   1      49.894  23.004  32.908  1.00  0.00    -0.205 F 
ATOM     95  C   UNL A   1      53.113  24.502  33.798  1.00  0.00     0.022 A 
BRANCH  93  96
ATOM     96  S   UNL A   1      52.655  21.809  33.574  1.00  0.00     0.127 S 
ATOM     97  O   UNL A   1      52.335  21.349  32.225  1.00  0.00    -0.237 OA
ATOM     98  O   UNL A   1      54.086  21.921  33.858  1.00  0.00    -0.237 OA
ATOM     99  O   UNL A   1      51.875  21.203  34.645  1.00  0.00    -0.744 OA
ENDBRANCH  93  96
ENDBRANCH  66  89
ENDBRANCH  40  41
ENDBRANCH  32  35
ENDBRANCH  30  31
ENDBRANCH  29  30
ENDBRANCH  28  29
ENDBRANCH   1  28
TORSDOF 20
ENDMDL
MODEL 2
REMARK VINA RESULT:      -9.5      4.628     10.569
REMARK SMILES O=C(CCCOc1ccc(Cl)cc1Cl)Nc1cccc(C(=O)NCCCCNC(=O)c2ccc(-c3c4nc(c(-c5cccc(S(=O)(=O)[O-])c5F)c5ccc([nH]5)c(-c5cccc(S(=O)(=O)[O-])c5F)c5nc(c(-c6cccc(S(=O)(=O)[O-])c6F)c6ccc3[nH]6)C=C5)C=C4)cc2)c1
REMARK SMILES IDX 24 1 23 2 21 3 22 4 20 6 16 7 17 8 94 9 18 10 19 11 15 12
REMARK SMILES IDX 1 13 2 14 3 16 4 17 5 18 6 19 7 20 8 21 13 22 9 23 12 24
REMARK SMILES IDX 14 25 10 26 11 27 25 28 26 29 27 30 28 31 29 32 30 34 31 35
REMARK SMILES IDX 32 36 93 37 33 38 92 39 34 40 35 41 36 42 86 43 37 44 91 45
REMARK SMILES IDX 85 46 87 47 38 48 90 49 84 50 83 51 39 53 71 54 51 55 70 56
REMARK SMILES IDX 52 57 55 58 69 59 88 60 53 61 54 62 68 64 89 65 56 66 40 67
REMARK SMILES IDX 41 68 49 69 42 70 44 71 50 72 43 73 45 74 46 75 47 76 48 77
REMARK SMILES IDX 72 78 73 79 81 80 74 81 76 82 82 83 75 84 77 85 78 86 79 87
REMARK SMILES IDX 80 88 57 89 58 90 66 91 59 92 61 93 67 94 60 95 62 96 63 97
REMARK SMILES IDX 64 98 65 99
REMARK H PARENT 23 5 15 15 28 33 87 52 55 63
REMARK Flexibility Score: inf
ROOT
ATOM      1  C   UNL A   1      38.596  34.155  30.588  1.00  0.00     0.116 C 
ENDROOT
BRANCH   1   2
ATOM      2  N   UNL A   1      37.629  34.805  31.460  1.00  0.00    -0.352 N 
ATOM      3  C   UNL A   1      36.995  34.337  32.591  1.00  0.00     0.251 C 
ATOM      4  O   UNL A   1      36.191  35.051  33.184  1.00  0.00    -0.269 OA
ATOM      5  H   UNL A   1      37.390  35.725  31.201  1.00  0.00     0.163 HD
BRANCH   3   6
ATOM      6  C   UNL A   1      37.204  32.944  33.060  1.00  0.00     0.041 A 
ATOM      7  C   UNL A   1      38.633  31.257  34.046  1.00  0.00     0.041 A 
ATOM      8  C   UNL A   1      37.781  30.266  33.547  1.00  0.00     0.026 A 
ATOM      9  C   UNL A   1      38.284  32.596  33.877  1.00  0.00     0.040 A 
ATOM     10  C   UNL A   1      36.612  30.612  32.864  1.00  0.00     0.003 A 
ATOM     11  C   UNL A   1      36.334  31.952  32.600  1.00  0.00     0.014 A 
BRANCH   7  12
ATOM     12  N   UNL A   1      39.891  30.859  34.553  1.00  0.00    -0.326 N 
ATOM     13  O   UNL A   1      40.162  28.774  33.597  1.00  0.00    -0.275 OA
ATOM     14  C   UNL A   1      40.436  29.595  34.469  1.00  0.00     0.224 C 
ATOM     15  H   UNL A   1      40.429  31.547  35.009  1.00  0.00     0.169 HD
BRANCH  14  16
ATOM     16  C   UNL A   1      41.301  29.164  35.647  1.00  0.00     0.104 C 
BRANCH  16  17
ATOM     17  C   UNL A   1      42.530  28.295  35.389  1.00  0.00     0.051 C 
BRANCH  17  18
ATOM     18  C   UNL A   1      43.317  27.849  36.629  1.00  0.00     0.230 C 
BRANCH  18  19
ATOM     19  O   UNL A   1      42.796  26.652  37.219  1.00  0.00    -0.492 OA
BRANCH  19  20
ATOM     20  C   UNL A   1      43.309  25.490  36.709  1.00  0.00     0.137 A 
ATOM     21  C   UNL A   1      42.596  24.947  35.636  1.00  0.00     0.049 A 
ATOM     22  C   UNL A   1      44.499  24.880  37.130  1.00  0.00     0.084 A 
ATOM     23  C   UNL A   1      43.012  23.755  35.045  1.00  0.00     0.024 A 
ATOM     24  C   UNL A   1      44.921  23.691  36.532  1.00  0.00     0.045 A 
ATOM     25  Cl  UNL A   1      45.521  25.578  38.337  1.00  0.00    -0.080 Cl
ATOM     26  C   UNL A   1      44.171  23.131  35.497  1.00  0.00     0.042 A 
ATOM     27  Cl  UNL A   1      44.703  21.677  34.750  1.00  0.00    -0.084 Cl
ENDBRANCH  19  20
ENDBRANCH  18  19
ENDBRANCH  17  18
ENDBRANCH  16  17
ENDBRANCH  14  16
ENDBRANCH   7  12
ENDBRANCH   3   6
ENDBRANCH   1   2
BRANCH   1  28
ATOM     28  C   UNL A   1      38.020  33.627  29.282  1.00  0.00     0.023 C 
BRANCH  28  29
ATOM     29  C   UNL A   1      36.513  33.412  29.242  1.00  0.00     0.023 C 
BRANCH  29  30
ATOM     30  C   UNL A   1      35.887  33.352  27.854  1.00  0.00     0.116 C 
BRANCH  30  31
ATOM     31  N   UNL A   1      34.773  32.416  27.749  1.00  0.00    -0.352 N 
ATOM     32  C   UNL A   1      34.769  31.047  27.884  1.00  0.00     0.251 C 
ATOM     33  H   UNL A   1      33.898  32.824  27.554  1.00  0.00     0.163 HD
ATOM     34  O   UNL A   1      33.738  30.412  27.670  1.00  0.00    -0.269 OA
BRANCH  32  35
ATOM     35  C   UNL A   1      36.017  30.338  28.246  1.00  0.00     0.039 A 
ATOM     36  C   UNL A   1      37.090  30.351  27.350  1.00  0.00     0.014 A 
ATOM     37  C   UNL A   1      36.145  29.703  29.484  1.00  0.00     0.014 A 
ATOM     38  C   UNL A   1      38.321  29.810  27.736  1.00  0.00     0.010 A 
ATOM     39  C   UNL A   1      37.393  29.243  29.896  1.00  0.00     0.010 A 
ATOM     40  C   UNL A   1      38.495  29.295  29.031  1.00  0.00    -0.014 A 
BRANCH  40  41
ATOM     41  C   UNL A   1      39.822  28.830  29.515  1.00  0.00     0.031 A 
ATOM     42  C   UNL A   1      40.695  29.750  30.327  1.00  0.00     0.074 A 
ATOM     43  C   UNL A   1      40.291  27.627  29.128  1.00  0.00     0.049 A 
ATOM     44  N   UNL A   1      41.917  29.561  30.758  1.00  0.00    -0.248 NA
ATOM     45  C   UNL A   1      40.136  31.067  30.675  1.00  0.00     0.031 C 
ATOM     46  C   UNL A   1      39.583  26.678  28.265  1.00  0.00     0.029 A 
ATOM     47  N   UNL A   1      41.491  27.008  29.382  1.00  0.00    -0.354 N 
ATOM     48  C   UNL A   1      42.287  30.745  31.383  1.00  0.00     0.074 A 
ATOM     49  C   UNL A   1      41.172  31.659  31.249  1.00  0.00     0.031 C 
ATOM     50  C   UNL A   1      40.358  25.600  28.065  1.00  0.00     0.029 A 
ATOM     51  C   UNL A   1      41.628  25.789  28.759  1.00  0.00     0.049 A 
ATOM     52  H   UNL A   1      42.188  27.400  29.957  1.00  0.00     0.167 HD
ATOM     53  C   UNL A   1      43.434  31.038  32.040  1.00  0.00     0.034 A 
ATOM     54  C   UNL A   1      42.660  24.922  28.743  1.00  0.00     0.034 A 
ATOM     55  C   UNL A   1      44.516  30.108  32.224  1.00  0.00     0.049 A 
ATOM     56  C   UNL A   1      43.900  25.245  29.534  1.00  0.00     0.074 A 
ATOM     57  C   UNL A   1      45.677  30.275  32.959  1.00  0.00     0.029 A 
ATOM     58  N   UNL A   1      44.570  28.839  31.672  1.00  0.00    -0.354 N 
ATOM     59  N   UNL A   1      44.161  26.305  30.260  1.00  0.00    -0.248 NA
ATOM     60  C   UNL A   1      44.972  24.238  29.535  1.00  0.00     0.031 C 
ATOM     61  C   UNL A   1      46.439  29.109  32.840  1.00  0.00     0.029 A 
ATOM     62  C   UNL A   1      45.745  28.210  32.046  1.00  0.00     0.049 A 
ATOM     63  H   UNL A   1      43.876  28.442  31.098  1.00  0.00     0.167 HD
ATOM     64  C   UNL A   1      45.407  26.076  30.833  1.00  0.00     0.074 A 
ATOM     65  C   UNL A   1      45.840  24.768  30.385  1.00  0.00     0.031 C 
ATOM     66  C   UNL A   1      46.135  26.883  31.645  1.00  0.00     0.034 A 
BRANCH  53  67
ATOM     67  C   UNL A   1      43.550  32.402  32.669  1.00  0.00     0.023 A 
ATOM     68  C   UNL A   1      43.885  33.508  31.862  1.00  0.00     0.012 A 
ATOM     69  C   UNL A   1      43.278  32.601  34.036  1.00  0.00     0.148 A 
ATOM     70  C   UNL A   1      43.983  34.786  32.411  1.00  0.00     0.002 A 
ATOM     71  C   UNL A   1      43.335  33.885  34.568  1.00  0.00     0.091 A 
ATOM     72  F   UNL A   1      42.983  31.535  34.794  1.00  0.00    -0.205 F 
ATOM     73  C   UNL A   1      43.699  34.975  33.761  1.00  0.00     0.022 A 
BRANCH  71  74
ATOM     74  S   UNL A   1      42.908  34.245  36.276  1.00  0.00     0.127 S 
ATOM     75  O   UNL A   1      41.534  33.751  36.347  1.00  0.00    -0.237 OA
ATOM     76  O   UNL A   1      43.884  33.440  37.013  1.00  0.00    -0.237 OA
ATOM     77  O   UNL A   1      43.068  35.683  36.434  1.00  0.00    -0.744 OA
ENDBRANCH  71  74
ENDBRANCH  53  67
BRANCH  54  78
ATOM     78  C   UNL A   1      42.535  23.625  28.017  1.00  0.00     0.023 A 
ATOM     79  C   UNL A   1      41.502  22.737  28.374  1.00  0.00     0.012 A 
ATOM     80  C   UNL A   1      43.404  23.280  26.966  1.00  0.00     0.148 A 
ATOM     81  C   UNL A   1      41.356  21.514  27.718  1.00  0.00     0.002 A 
ATOM     82  C   UNL A   1      43.221  22.082  26.281  1.00  0.00     0.091 A 
ATOM     83  F   UNL A   1      44.389  24.132  26.648  1.00  0.00    -0.205 F 
ATOM     84  C   UNL A   1      42.208  21.191  26.667  1.00  0.00     0.022 A 
BRANCH  82  85
ATOM     85  S   UNL A   1      44.189  21.645  24.832  1.00  0.00     0.127 S 
ATOM     86  O   UNL A   1      45.555  21.800  25.326  1.00  0.00    -0.237 OA
ATOM     87  O   UNL A   1      43.773  20.261  24.595  1.00  0.00    -0.237 OA
ATOM     88  O   UNL A   1      43.779  22.578  23.792  1.00  0.00    -0.744 OA
ENDBRANCH  82  85
ENDBRANCH  54  78
BRANCH  66  89
ATOM     89  C   UNL A   1      47.462  26.370  32.138  1.00  0.00     0.023 A 
ATOM     90  C   UNL A   1      48.648  26.763  31.487  1.00  0.00     0.012 A 
ATOM     91  C   UNL A   1      47.538  25.569  33.294  1.00  0.00     0.148 A 
ATOM     92  C   UNL A   1      49.890  26.343  31.965  1.00  0.00     0.002 A 
ATOM     93  C   UNL A   1      48.781  25.194  33.791  1.00  0.00     0.091 A 
ATOM     94  F   UNL A   1      46.397  25.189  33.887  1.00  0.00    -0.205 F 
ATOM     95  C   UNL A   1      49.956  25.571  33.122  1.00  0.00     0.022 A 
BRANCH  93  96
ATOM     96  S   UNL A   1      48.964  24.280  35.327  1.00  0.00     0.127 S 
ATOM     97  O   UNL A   1      48.282  25.155  36.278  1.00  0.00    -0.237 OA
ATOM     98  O   UNL A   1      48.260  23.031  35.033  1.00  0.00    -0.237 OA
ATOM     99  O   UNL A   1      50.398  24.127  35.532  1.00  0.00    -0.744 OA
ENDBRANCH  93  96
ENDBRANCH  66  89
ENDBRANCH  40  41
ENDBRANCH  32  35
ENDBRANCH  30  31
ENDBRANCH  29  30
ENDBRANCH  28  29
ENDBRANCH   1  28
TORSDOF 20
ENDMDL
MODEL 3
REMARK VINA RESULT:      -9.4      6.210      9.480
REMARK SMILES O=C(CCCOc1ccc(Cl)cc1Cl)Nc1cccc(C(=O)NCCCCNC(=O)c2ccc(-c3c4nc(c(-c5cccc(S(=O)(=O)[O-])c5F)c5ccc([nH]5)c(-c5cccc(S(=O)(=O)[O-])c5F)c5nc(c(-c6cccc(S(=O)(=O)[O-])c6F)c6ccc3[nH]6)C=C5)C=C4)cc2)c1
REMARK SMILES IDX 24 1 23 2 21 3 22 4 20 6 16 7 17 8 94 9 18 10 19 11 15 12
REMARK SMILES IDX 1 13 2 14 3 16 4 17 5 18 6 19 7 20 8 21 13 22 9 23 12 24
REMARK SMILES IDX 14 25 10 26 11 27 25 28 26 29 27 30 28 31 29 32 30 34 31 35
REMARK SMILES IDX 32 36 93 37 33 38 92 39 34 40 35 41 36 42 86 43 37 44 91 45
REMARK SMILES IDX 85 46 87 47 38 48 90 49 84 50 83 51 39 53 71 54 51 55 70 56
REMARK SMILES IDX 52 57 55 58 69 59 88 60 53 61 54 62 68 64 89 65 56 66 40 67
REMARK SMILES IDX 41 68 49 69 42 70 44 71 50 72 43 73 45 74 46 75 47 76 48 77
REMARK SMILES IDX 72 78 73 79 81 80 74 81 76 82 82 83 75 84 77 85 78 86 79 87
REMARK SMILES IDX 80 88 57 89 58 90 66 91 59 92 61 93 67 94 60 95 62 96 63 97
REMARK SMILES IDX 64 98 65 99
REMARK H PARENT 23 5 15 15 28 33 87 52 55 63
REMARK Flexibility Score: inf
ROOT
ATOM      1  C   UNL A   1      40.071  21.944  27.208  1.00  0.00     0.116 C 
ENDROOT
BRANCH   1   2
ATOM      2  N   UNL A   1      39.797  23.369  27.311  1.00  0.00    -0.352 N 
ATOM      3  C   UNL A   1      38.748  24.112  26.810  1.00  0.00     0.251 C 
ATOM      4  O   UNL A   1      38.708  25.324  27.001  1.00  0.00    -0.269 OA
ATOM      5  H   UNL A   1      40.464  23.885  27.818  1.00  0.00     0.163 HD
BRANCH   3   6
ATOM      6  C   UNL A   1      37.702  23.481  25.965  1.00  0.00     0.041 A 
ATOM      7  C   UNL A   1      35.371  23.194  25.383  1.00  0.00     0.041 A 
ATOM      8  C   UNL A   1      35.700  22.012  24.711  1.00  0.00     0.026 A 
ATOM      9  C   UNL A   1      36.394  23.971  25.925  1.00  0.00     0.040 A 
ATOM     10  C   UNL A   1      37.032  21.599  24.611  1.00  0.00     0.003 A 
ATOM     11  C   UNL A   1      38.033  22.322  25.259  1.00  0.00     0.014 A 
BRANCH   7  12
ATOM     12  N   UNL A   1      34.004  23.464  25.623  1.00  0.00    -0.326 N 
ATOM     13  O   UNL A   1      33.600  22.250  27.547  1.00  0.00    -0.275 OA
ATOM     14  C   UNL A   1      33.196  22.812  26.531  1.00  0.00     0.224 C 
ATOM     15  H   UNL A   1      33.589  24.184  25.094  1.00  0.00     0.169 HD
BRANCH  14  16
ATOM     16  C   UNL A   1      31.735  22.655  26.129  1.00  0.00     0.104 C 
BRANCH  16  17
ATOM     17  C   UNL A   1      30.728  23.721  26.552  1.00  0.00     0.051 C 
BRANCH  17  18
ATOM     18  C   UNL A   1      30.415  24.808  25.515  1.00  0.00     0.230 C 
BRANCH  18  19
ATOM     19  O   UNL A   1      31.593  25.403  24.957  1.00  0.00    -0.492 OA
BRANCH  19  20
ATOM     20  C   UNL A   1      31.835  26.686  25.364  1.00  0.00     0.137 A 
ATOM     21  C   UNL A   1      32.845  26.826  26.321  1.00  0.00     0.049 A 
ATOM     22  C   UNL A   1      31.211  27.829  24.844  1.00  0.00     0.084 A 
ATOM     23  C   UNL A   1      33.168  28.084  26.827  1.00  0.00     0.024 A 
ATOM     24  C   UNL A   1      31.541  29.091  25.344  1.00  0.00     0.045 A 
ATOM     25  Cl  UNL A   1      30.074  27.754  23.545  1.00  0.00    -0.080 Cl
ATOM     26  C   UNL A   1      32.513  29.211  26.337  1.00  0.00     0.042 A 
ATOM     27  Cl  UNL A   1      32.932  30.767  26.937  1.00  0.00    -0.084 Cl
ENDBRANCH  19  20
ENDBRANCH  18  19
ENDBRANCH  17  18
ENDBRANCH  16  17
ENDBRANCH  14  16
ENDBRANCH   7  12
ENDBRANCH   3   6
ENDBRANCH   1   2
BRANCH   1  28
ATOM     28  C   UNL A   1      41.357  21.596  26.473  1.00  0.00     0.023 C 
BRANCH  28  29
ATOM     29  C   UNL A   1      41.512  20.150  26.021  1.00  0.00     0.023 C 
BRANCH  29  30
ATOM     30  C   UNL A   1      42.840  19.486  26.362  1.00  0.00     0.116 C 
BRANCH  30  31
ATOM     31  N   UNL A   1      43.560  18.975  25.201  1.00  0.00    -0.352 N 
ATOM     32  C   UNL A   1      44.461  19.617  24.382  1.00  0.00     0.251 C 
ATOM     33  H   UNL A   1      43.376  18.036  24.972  1.00  0.00     0.163 HD
ATOM     34  O   UNL A   1      44.902  19.044  23.387  1.00  0.00    -0.269 OA
BRANCH  32  35
ATOM     35  C   UNL A   1      44.863  21.011  24.677  1.00  0.00     0.039 A 
ATOM     36  C   UNL A   1      44.439  22.035  23.826  1.00  0.00     0.014 A 
ATOM     37  C   UNL A   1      45.616  21.312  25.815  1.00  0.00     0.014 A 
ATOM     38  C   UNL A   1      44.689  23.368  24.168  1.00  0.00     0.010 A 
ATOM     39  C   UNL A   1      45.789  22.640  26.195  1.00  0.00     0.010 A 
ATOM     40  C   UNL A   1      45.323  23.682  25.381  1.00  0.00    -0.014 A 
BRANCH  40  41
ATOM     41  C   UNL A   1      45.490  25.089  25.834  1.00  0.00     0.031 A 
ATOM     42  C   UNL A   1      46.864  25.700  25.914  1.00  0.00     0.074 A 
ATOM     43  C   UNL A   1      44.421  25.778  26.283  1.00  0.00     0.049 A 
ATOM     44  N   UNL A   1      47.219  26.873  26.372  1.00  0.00    -0.248 NA
ATOM     45  C   UNL A   1      47.990  24.873  25.449  1.00  0.00     0.031 C 
ATOM     46  C   UNL A   1      43.049  25.268  26.345  1.00  0.00     0.029 A 
ATOM     47  N   UNL A   1      44.326  27.044  26.805  1.00  0.00    -0.354 N 
ATOM     48  C   UNL A   1      48.606  26.907  26.294  1.00  0.00     0.074 A 
ATOM     49  C   UNL A   1      49.030  25.625  25.774  1.00  0.00     0.031 C 
ATOM     50  C   UNL A   1      42.251  26.211  26.871  1.00  0.00     0.029 A 
ATOM     51  C   UNL A   1      43.054  27.382  27.210  1.00  0.00     0.049 A 
ATOM     52  H   UNL A   1      45.094  27.655  26.882  1.00  0.00     0.167 HD
ATOM     53  C   UNL A   1      49.450  27.923  26.593  1.00  0.00     0.034 A 
ATOM     54  C   UNL A   1      42.587  28.503  27.793  1.00  0.00     0.034 A 
ATOM     55  C   UNL A   1      49.022  29.217  27.052  1.00  0.00     0.049 A 
ATOM     56  C   UNL A   1      43.538  29.642  28.057  1.00  0.00     0.074 A 
ATOM     57  C   UNL A   1      49.790  30.344  27.287  1.00  0.00     0.029 A 
ATOM     58  N   UNL A   1      47.712  29.559  27.343  1.00  0.00    -0.354 N 
ATOM     59  N   UNL A   1      44.824  29.714  27.817  1.00  0.00    -0.248 NA
ATOM     60  C   UNL A   1      42.966  30.867  28.636  1.00  0.00     0.031 C 
ATOM     61  C   UNL A   1      48.944  31.364  27.733  1.00  0.00     0.029 A 
ATOM     62  C   UNL A   1      47.647  30.877  27.759  1.00  0.00     0.049 A 
ATOM     63  H   UNL A   1      46.939  28.953  27.267  1.00  0.00     0.167 HD
ATOM     64  C   UNL A   1      45.208  30.999  28.179  1.00  0.00     0.074 A 
ATOM     65  C   UNL A   1      44.013  31.679  28.637  1.00  0.00     0.031 C 
ATOM     66  C   UNL A   1      46.442  31.562  28.151  1.00  0.00     0.034 A 
BRANCH  53  67
ATOM     67  C   UNL A   1      50.922  27.697  26.368  1.00  0.00     0.023 A 
ATOM     68  C   UNL A   1      51.731  27.290  27.447  1.00  0.00     0.012 A 
ATOM     69  C   UNL A   1      51.495  27.832  25.088  1.00  0.00     0.148 A 
ATOM     70  C   UNL A   1      53.094  27.056  27.268  1.00  0.00     0.002 A 
ATOM     71  C   UNL A   1      52.844  27.554  24.907  1.00  0.00     0.091 A 
ATOM     72  F   UNL A   1      50.715  28.241  24.076  1.00  0.00    -0.205 F 
ATOM     73  C   UNL A   1      53.648  27.179  25.996  1.00  0.00     0.022 A 
BRANCH  71  74
ATOM     74  S   UNL A   1      53.635  27.606  23.294  1.00  0.00     0.127 S 
ATOM     75  O   UNL A   1      54.586  28.703  23.466  1.00  0.00    -0.237 OA
ATOM     76  O   UNL A   1      54.247  26.278  23.208  1.00  0.00    -0.237 OA
ATOM     77  O   UNL A   1      52.568  27.844  22.332  1.00  0.00    -0.744 OA
ENDBRANCH  71  74
ENDBRANCH  53  67
BRANCH  54  78
ATOM     78  C   UNL A   1      41.133  28.640  28.092  1.00  0.00     0.023 A 
ATOM     79  C   UNL A   1      40.246  28.973  27.050  1.00  0.00     0.012 A 
ATOM     80  C   UNL A   1      40.620  28.414  29.384  1.00  0.00     0.148 A 
ATOM     81  C   UNL A   1      38.879  29.111  27.294  1.00  0.00     0.002 A 
ATOM     82  C   UNL A   1      39.250  28.502  29.610  1.00  0.00     0.091 A 
ATOM     83  F   UNL A   1      41.480  28.110  30.366  1.00  0.00    -0.205 F 
ATOM     84  C   UNL A   1      38.380  28.866  28.570  1.00  0.00     0.022 A 
BRANCH  82  85
ATOM     85  S   UNL A   1      38.506  28.077  31.189  1.00  0.00     0.127 S 
ATOM     86  O   UNL A   1      37.187  28.692  31.073  1.00  0.00    -0.237 OA
ATOM     87  O   UNL A   1      38.509  26.613  31.142  1.00  0.00    -0.237 OA
ATOM     88  O   UNL A   1      39.387  28.643  32.200  1.00  0.00    -0.744 OA
ENDBRANCH  82  85
ENDBRANCH  54  78
BRANCH  66  89
ATOM     89  C   UNL A   1      46.570  32.996  28.592  1.00  0.00     0.023 A 
ATOM     90  C   UNL A   1      46.951  33.289  29.916  1.00  0.00     0.012 A 
ATOM     91  C   UNL A   1      46.395  34.049  27.672  1.00  0.00     0.148 A 
ATOM     92  C   UNL A   1      47.130  34.610  30.326  1.00  0.00     0.002 A 
ATOM     93  C   UNL A   1      46.620  35.359  28.076  1.00  0.00     0.091 A 
ATOM     94  F   UNL A   1      46.012  33.751  26.422  1.00  0.00    -0.205 F 
ATOM     95  C   UNL A   1      46.977  35.642  29.404  1.00  0.00     0.022 A 
BRANCH  93  96
ATOM     96  S   UNL A   1      46.539  36.743  26.932  1.00  0.00     0.127 S 
ATOM     97  O   UNL A   1      45.103  36.837  26.679  1.00  0.00    -0.237 OA
ATOM     98  O   UNL A   1      47.091  37.839  27.729  1.00  0.00    -0.237 OA
ATOM     99  O   UNL A   1      47.355  36.362  25.787  1.00  0.00    -0.744 OA
ENDBRANCH  93  96
ENDBRANCH  66  89
ENDBRANCH  40  41
ENDBRANCH  32  35
ENDBRANCH  30  31
ENDBRANCH  29  30
ENDBRANCH  28  29
ENDBRANCH   1  28
TORSDOF 20
ENDMDL
