MODEL 1
REMARK VINA RESULT:     -13.2      0.000      0.000
REMARK SMILES COc1cccc(-c2c(C(=O)NCCCCNC(=O)c3ccc(-c4c5nc(c(-c6cccc(S(=O)(=O)[O-])c6F)c6ccc([nH]6)c(-c6cccc(S(=O)(=O)[O-])c6F)c6nc(c(-c7cccc(S(=O)(=O)[O-])c7F)c7ccc4[nH]7)C=C6)C=C5)cc3)nnn2-c2ccc(OC(F)(F)F)cc2)c1
REMARK SMILES IDX 14 1 13 2 12 3 10 4 11 5 9 7 8 8 85 9 83 10 84 11 7 12 3 13
REMARK SMILES IDX 4 14 97 15 5 16 6 17 2 18 1 19 86 20 87 21 96 22 88 23 95 24
REMARK SMILES IDX 89 25 90 26 91 27 92 28 93 29 94 30 15 31 16 32 17 33 18 34
REMARK SMILES IDX 19 36 20 37 21 38 82 39 22 40 81 41 23 42 24 43 25 44 75 45
REMARK SMILES IDX 26 46 80 47 74 48 76 49 27 50 79 51 73 52 72 53 28 55 60 56
REMARK SMILES IDX 40 57 59 58 41 59 44 60 58 61 77 62 42 63 43 64 57 66 78 67
REMARK SMILES IDX 45 68 29 69 30 70 38 71 31 72 33 73 39 74 32 75 34 76 35 77
REMARK SMILES IDX 36 78 37 79 61 80 62 81 70 82 63 83 65 84 71 85 64 86 66 87
REMARK SMILES IDX 67 88 68 89 69 90 46 91 47 92 55 93 48 94 50 95 56 96 49 97
REMARK SMILES IDX 51 98 52 99 53 100 54 101
REMARK H PARENT 12 6 17 35 76 54 44 65
REMARK Flexibility Score: inf
ROOT
ATOM      1  C   UNL A   1      35.618  23.038  23.925  1.00  0.00     0.023 C 
ENDROOT
BRANCH   1   2
ATOM      2  C   UNL A   1      34.448  22.105  24.211  1.00  0.00     0.116 C 
BRANCH   2   3
ATOM      3  N   UNL A   1      33.775  22.280  25.468  1.00  0.00    -0.351 N 
ATOM      4  C   UNL A   1      32.725  23.083  25.860  1.00  0.00     0.274 C 
ATOM      5  O   UNL A   1      32.455  23.006  27.063  1.00  0.00    -0.267 OA
ATOM      6  H   UNL A   1      34.134  21.717  26.191  1.00  0.00     0.163 HD
BRANCH   4   7
ATOM      7  C   UNL A   1      31.979  24.036  25.009  1.00  0.00     0.178 A 
ATOM      8  C   UNL A   1      31.788  25.422  24.938  1.00  0.00     0.108 A 
ATOM      9  N   UNL A   1      30.941  25.584  23.838  1.00  0.00    -0.212 N 
ATOM     10  N   UNL A   1      31.195  23.462  24.011  1.00  0.00    -0.124 NA
ATOM     11  N   UNL A   1      30.494  24.397  23.402  1.00  0.00    -0.061 NA
BRANCH   8  12
ATOM     12  C   UNL A   1      32.071  26.552  25.828  1.00  0.00     0.006 A 
ATOM     13  C   UNL A   1      33.625  28.322  26.470  1.00  0.00     0.119 A 
ATOM     14  C   UNL A   1      32.654  28.835  27.331  1.00  0.00     0.046 A 
ATOM     15  C   UNL A   1      33.336  27.178  25.730  1.00  0.00     0.056 A 
ATOM     16  C   UNL A   1      31.406  28.215  27.450  1.00  0.00     0.005 A 
ATOM     17  C   UNL A   1      31.113  27.065  26.709  1.00  0.00     0.011 A 
BRANCH  13  18
ATOM     18  O   UNL A   1      34.817  28.993  26.454  1.00  0.00    -0.497 OA
ATOM     19  C   UNL A   1      35.367  29.337  27.721  1.00  0.00     0.278 C 
ENDBRANCH  13  18
ENDBRANCH   8  12
BRANCH   9  20
ATOM     20  C   UNL A   1      30.419  26.796  23.320  1.00  0.00     0.067 A 
ATOM     21  C   UNL A   1      29.067  27.096  23.501  1.00  0.00     0.032 A 
ATOM     22  C   UNL A   1      31.272  27.728  22.721  1.00  0.00     0.032 A 
ATOM     23  C   UNL A   1      28.603  28.372  23.168  1.00  0.00     0.049 A 
ATOM     24  C   UNL A   1      30.794  28.990  22.367  1.00  0.00     0.049 A 
ATOM     25  C   UNL A   1      29.464  29.330  22.616  1.00  0.00     0.129 A 
BRANCH  25  26
ATOM     26  O   UNL A   1      28.888  30.545  22.375  1.00  0.00    -0.406 OA
BRANCH  26  27
ATOM     27  C   UNL A   1      28.612  31.366  23.497  1.00  0.00     0.573 C 
ATOM     28  F   UNL A   1      27.418  31.065  24.050  1.00  0.00    -0.132 F 
ATOM     29  F   UNL A   1      29.585  31.263  24.428  1.00  0.00    -0.132 F 
ATOM     30  F   UNL A   1      28.566  32.655  23.086  1.00  0.00    -0.132 F 
ENDBRANCH  26  27
ENDBRANCH  25  26
ENDBRANCH   9  20
ENDBRANCH   4   7
ENDBRANCH   2   3
ENDBRANCH   1   2
BRANCH   1  31
ATOM     31  C   UNL A   1      37.009  22.529  24.302  1.00  0.00     0.023 C 
BRANCH  31  32
ATOM     32  C   UNL A   1      37.566  23.075  25.613  1.00  0.00     0.116 C 
BRANCH  32  33
ATOM     33  N   UNL A   1      38.517  22.184  26.291  1.00  0.00    -0.352 N 
ATOM     34  C   UNL A   1      39.746  22.532  26.844  1.00  0.00     0.251 C 
ATOM     35  H   UNL A   1      38.257  21.237  26.362  1.00  0.00     0.163 HD
ATOM     36  O   UNL A   1      40.614  21.707  27.053  1.00  0.00    -0.269 OA
BRANCH  34  37
ATOM     37  C   UNL A   1      39.949  23.950  27.205  1.00  0.00     0.039 A 
ATOM     38  C   UNL A   1      38.922  24.898  27.173  1.00  0.00     0.014 A 
ATOM     39  C   UNL A   1      41.215  24.280  27.666  1.00  0.00     0.014 A 
ATOM     40  C   UNL A   1      39.169  26.166  27.701  1.00  0.00     0.010 A 
ATOM     41  C   UNL A   1      41.383  25.434  28.374  1.00  0.00     0.010 A 
ATOM     42  C   UNL A   1      40.404  26.419  28.317  1.00  0.00    -0.014 A 
BRANCH  42  43
ATOM     43  C   UNL A   1      40.690  27.669  29.012  1.00  0.00     0.031 A 
ATOM     44  C   UNL A   1      41.701  28.533  28.343  1.00  0.00     0.074 A 
ATOM     45  C   UNL A   1      39.889  28.113  30.008  1.00  0.00     0.049 A 
ATOM     46  N   UNL A   1      42.873  28.863  28.776  1.00  0.00    -0.248 NA
ATOM     47  C   UNL A   1      41.442  28.953  26.956  1.00  0.00     0.031 C 
ATOM     48  C   UNL A   1      38.652  27.491  30.515  1.00  0.00     0.029 A 
ATOM     49  N   UNL A   1      39.899  29.306  30.661  1.00  0.00    -0.354 N 
ATOM     50  C   UNL A   1      43.382  29.751  27.827  1.00  0.00     0.074 A 
ATOM     51  C   UNL A   1      42.589  29.561  26.645  1.00  0.00     0.031 C 
ATOM     52  C   UNL A   1      37.907  28.417  31.153  1.00  0.00     0.029 A 
ATOM     53  C   UNL A   1      38.689  29.629  31.274  1.00  0.00     0.049 A 
ATOM     54  H   UNL A   1      40.691  29.889  30.699  1.00  0.00     0.167 HD
ATOM     55  C   UNL A   1      44.207  30.774  28.194  1.00  0.00     0.034 A 
ATOM     56  C   UNL A   1      38.334  30.828  31.797  1.00  0.00     0.034 A 
ATOM     57  C   UNL A   1      44.718  30.565  29.529  1.00  0.00     0.049 A 
ATOM     58  C   UNL A   1      39.584  31.580  32.036  1.00  0.00     0.074 A 
ATOM     59  C   UNL A   1      45.437  29.572  30.164  1.00  0.00     0.029 A 
ATOM     60  N   UNL A   1      44.143  31.310  30.531  1.00  0.00    -0.354 N 
ATOM     61  N   UNL A   1      40.487  31.212  32.902  1.00  0.00    -0.248 NA
ATOM     62  C   UNL A   1      40.040  32.487  30.998  1.00  0.00     0.031 C 
ATOM     63  C   UNL A   1      44.868  29.486  31.470  1.00  0.00     0.029 A 
ATOM     64  C   UNL A   1      43.893  30.479  31.587  1.00  0.00     0.049 A 
ATOM     65  H   UNL A   1      43.947  32.274  30.493  1.00  0.00     0.167 HD
ATOM     66  C   UNL A   1      41.691  31.443  32.254  1.00  0.00     0.074 A 
ATOM     67  C   UNL A   1      41.359  32.338  31.146  1.00  0.00     0.031 C 
ATOM     68  C   UNL A   1      42.779  30.650  32.493  1.00  0.00     0.034 A 
BRANCH  55  69
ATOM     69  C   UNL A   1      44.226  32.163  27.569  1.00  0.00     0.023 A 
ATOM     70  C   UNL A   1      45.223  32.405  26.591  1.00  0.00     0.012 A 
ATOM     71  C   UNL A   1      43.554  33.300  28.073  1.00  0.00     0.148 A 
ATOM     72  C   UNL A   1      45.606  33.700  26.227  1.00  0.00     0.002 A 
ATOM     73  C   UNL A   1      43.893  34.585  27.659  1.00  0.00     0.091 A 
ATOM     74  F   UNL A   1      42.656  33.182  29.050  1.00  0.00    -0.205 F 
ATOM     75  C   UNL A   1      44.944  34.793  26.767  1.00  0.00     0.022 A 
BRANCH  73  76
ATOM     76  S   UNL A   1      43.044  36.036  28.301  1.00  0.00     0.127 S 
ATOM     77  O   UNL A   1      43.607  37.092  27.465  1.00  0.00    -0.237 OA
ATOM     78  O   UNL A   1      41.644  35.706  28.029  1.00  0.00    -0.237 OA
ATOM     79  O   UNL A   1      43.378  36.093  29.719  1.00  0.00    -0.744 OA
ENDBRANCH  73  76
ENDBRANCH  55  69
BRANCH  56  80
ATOM     80  C   UNL A   1      37.004  31.475  31.868  1.00  0.00     0.023 A 
ATOM     81  C   UNL A   1      36.477  31.859  33.117  1.00  0.00     0.012 A 
ATOM     82  C   UNL A   1      36.383  31.973  30.701  1.00  0.00     0.148 A 
ATOM     83  C   UNL A   1      35.392  32.741  33.202  1.00  0.00     0.002 A 
ATOM     84  C   UNL A   1      35.302  32.843  30.790  1.00  0.00     0.091 A 
ATOM     85  F   UNL A   1      36.915  31.667  29.510  1.00  0.00    -0.205 F 
ATOM     86  C   UNL A   1      34.810  33.241  32.041  1.00  0.00     0.022 A 
BRANCH  84  87
ATOM     87  S   UNL A   1      34.517  33.545  29.334  1.00  0.00     0.127 S 
ATOM     88  O   UNL A   1      33.419  34.311  29.924  1.00  0.00    -0.237 OA
ATOM     89  O   UNL A   1      35.597  34.350  28.771  1.00  0.00    -0.237 OA
ATOM     90  O   UNL A   1      34.090  32.404  28.533  1.00  0.00    -0.744 OA
ENDBRANCH  84  87
ENDBRANCH  56  80
BRANCH  68  91
ATOM     91  C   UNL A   1      42.718  29.693  33.658  1.00  0.00     0.023 A 
ATOM     92  C   UNL A   1      42.186  28.390  33.548  1.00  0.00     0.012 A 
ATOM     93  C   UNL A   1      43.374  30.057  34.844  1.00  0.00     0.148 A 
ATOM     94  C   UNL A   1      42.291  27.480  34.604  1.00  0.00     0.002 A 
ATOM     95  C   UNL A   1      43.518  29.136  35.874  1.00  0.00     0.091 A 
ATOM     96  F   UNL A   1      43.878  31.297  34.933  1.00  0.00    -0.205 F 
ATOM     97  C   UNL A   1      42.970  27.848  35.763  1.00  0.00     0.022 A 
BRANCH  95  98
ATOM     98  S   UNL A   1      44.491  29.510  37.333  1.00  0.00     0.127 S 
ATOM     99  O   UNL A   1      44.520  28.221  38.019  1.00  0.00    -0.237 OA
ATOM    100  O   UNL A   1      45.771  29.929  36.760  1.00  0.00    -0.237 OA
ATOM    101  O   UNL A   1      43.776  30.574  38.028  1.00  0.00    -0.744 OA
ENDBRANCH  95  98
ENDBRANCH  68  91
ENDBRANCH  42  43
ENDBRANCH  34  37
ENDBRANCH  32  33
ENDBRANCH  31  32
ENDBRANCH   1  31
TORSDOF 19
ENDMDL
MODEL 2
REMARK VINA RESULT:     -12.6      4.406      9.111
REMARK SMILES COc1cccc(-c2c(C(=O)NCCCCNC(=O)c3ccc(-c4c5nc(c(-c6cccc(S(=O)(=O)[O-])c6F)c6ccc([nH]6)c(-c6cccc(S(=O)(=O)[O-])c6F)c6nc(c(-c7cccc(S(=O)(=O)[O-])c7F)c7ccc4[nH]7)C=C6)C=C5)cc3)nnn2-c2ccc(OC(F)(F)F)cc2)c1
REMARK SMILES IDX 14 1 13 2 12 3 10 4 11 5 9 7 8 8 85 9 83 10 84 11 7 12 3 13
REMARK SMILES IDX 4 14 97 15 5 16 6 17 2 18 1 19 86 20 87 21 96 22 88 23 95 24
REMARK SMILES IDX 89 25 90 26 91 27 92 28 93 29 94 30 15 31 16 32 17 33 18 34
REMARK SMILES IDX 19 36 20 37 21 38 82 39 22 40 81 41 23 42 24 43 25 44 75 45
REMARK SMILES IDX 26 46 80 47 74 48 76 49 27 50 79 51 73 52 72 53 28 55 60 56
REMARK SMILES IDX 40 57 59 58 41 59 44 60 58 61 77 62 42 63 43 64 57 66 78 67
REMARK SMILES IDX 45 68 29 69 30 70 38 71 31 72 33 73 39 74 32 75 34 76 35 77
REMARK SMILES IDX 36 78 37 79 61 80 62 81 70 82 63 83 65 84 71 85 64 86 66 87
REMARK SMILES IDX 67 88 68 89 69 90 46 91 47 92 55 93 48 94 50 95 56 96 49 97
REMARK SMILES IDX 51 98 52 99 53 100 54 101
REMARK H PARENT 12 6 17 35 76 54 44 65
REMARK Flexibility Score: inf
ROOT
ATOM      1  C   UNL A   1      34.027  28.700  26.067  1.00  0.00     0.023 C 
ENDROOT
BRANCH   1   2
ATOM      2  C   UNL A   1      33.560  27.268  26.302  1.00  0.00     0.116 C 
BRANCH   2   3
ATOM      3  N   UNL A   1      32.150  27.070  26.484  1.00  0.00    -0.351 N 
ATOM      4  C   UNL A   1      31.363  25.938  26.514  1.00  0.00     0.274 C 
ATOM      5  O   UNL A   1      30.155  26.169  26.632  1.00  0.00    -0.267 OA
ATOM      6  H   UNL A   1      31.646  27.906  26.610  1.00  0.00     0.163 HD
BRANCH   4   7
ATOM      7  C   UNL A   1      31.822  24.541  26.354  1.00  0.00     0.178 A 
ATOM      8  C   UNL A   1      32.400  23.756  25.348  1.00  0.00     0.108 A 
ATOM      9  N   UNL A   1      32.559  22.506  25.953  1.00  0.00    -0.212 N 
ATOM     10  N   UNL A   1      31.609  23.710  27.451  1.00  0.00    -0.124 NA
ATOM     11  N   UNL A   1      31.949  22.474  27.147  1.00  0.00    -0.061 NA
BRANCH   8  12
ATOM     12  C   UNL A   1      32.611  23.914  23.906  1.00  0.00     0.006 A 
ATOM     13  C   UNL A   1      33.413  25.335  22.090  1.00  0.00     0.119 A 
ATOM     14  C   UNL A   1      33.239  24.270  21.206  1.00  0.00     0.046 A 
ATOM     15  C   UNL A   1      33.090  25.158  23.433  1.00  0.00     0.056 A 
ATOM     16  C   UNL A   1      32.750  23.039  21.658  1.00  0.00     0.005 A 
ATOM     17  C   UNL A   1      32.423  22.859  23.005  1.00  0.00     0.011 A 
BRANCH  13  18
ATOM     18  O   UNL A   1      33.871  26.497  21.535  1.00  0.00    -0.497 OA
ATOM     19  C   UNL A   1      33.601  27.694  22.256  1.00  0.00     0.278 C 
ENDBRANCH  13  18
ENDBRANCH   8  12
BRANCH   9  20
ATOM     20  C   UNL A   1      33.096  21.328  25.375  1.00  0.00     0.067 A 
ATOM     21  C   UNL A   1      34.481  21.146  25.344  1.00  0.00     0.032 A 
ATOM     22  C   UNL A   1      32.243  20.313  24.931  1.00  0.00     0.032 A 
ATOM     23  C   UNL A   1      34.995  19.905  24.959  1.00  0.00     0.049 A 
ATOM     24  C   UNL A   1      32.767  19.086  24.523  1.00  0.00     0.049 A 
ATOM     25  C   UNL A   1      34.144  18.864  24.562  1.00  0.00     0.129 A 
BRANCH  25  26
ATOM     26  O   UNL A   1      34.778  17.696  24.249  1.00  0.00    -0.406 OA
BRANCH  26  27
ATOM     27  C   UNL A   1      34.344  16.523  24.916  1.00  0.00     0.573 C 
ATOM     28  F   UNL A   1      33.714  16.815  26.074  1.00  0.00    -0.132 F 
ATOM     29  F   UNL A   1      33.531  15.787  24.128  1.00  0.00    -0.132 F 
ATOM     30  F   UNL A   1      35.428  15.770  25.212  1.00  0.00    -0.132 F 
ENDBRANCH  26  27
ENDBRANCH  25  26
ENDBRANCH   9  20
ENDBRANCH   4   7
ENDBRANCH   2   3
ENDBRANCH   1   2
BRANCH   1  31
ATOM     31  C   UNL A   1      33.762  29.700  27.192  1.00  0.00     0.023 C 
BRANCH  31  32
ATOM     32  C   UNL A   1      34.838  30.763  27.381  1.00  0.00     0.116 C 
BRANCH  32  33
ATOM     33  N   UNL A   1      34.529  31.771  28.403  1.00  0.00    -0.352 N 
ATOM     34  C   UNL A   1      35.025  31.831  29.703  1.00  0.00     0.251 C 
ATOM     35  H   UNL A   1      33.902  32.483  28.140  1.00  0.00     0.163 HD
ATOM     36  O   UNL A   1      34.462  32.458  30.578  1.00  0.00    -0.269 OA
BRANCH  34  37
ATOM     37  C   UNL A   1      36.294  31.126  29.975  1.00  0.00     0.039 A 
ATOM     38  C   UNL A   1      36.386  29.735  30.081  1.00  0.00     0.014 A 
ATOM     39  C   UNL A   1      37.427  31.925  30.037  1.00  0.00     0.014 A 
ATOM     40  C   UNL A   1      37.652  29.155  30.161  1.00  0.00     0.010 A 
ATOM     41  C   UNL A   1      38.654  31.348  29.893  1.00  0.00     0.010 A 
ATOM     42  C   UNL A   1      38.785  29.973  30.048  1.00  0.00    -0.014 A 
BRANCH  42  43
ATOM     43  C   UNL A   1      40.138  29.431  29.985  1.00  0.00     0.031 A 
ATOM     44  C   UNL A   1      40.782  29.214  31.309  1.00  0.00     0.074 A 
ATOM     45  C   UNL A   1      40.628  28.911  28.836  1.00  0.00     0.049 A 
ATOM     46  N   UNL A   1      41.819  29.812  31.796  1.00  0.00    -0.248 NA
ATOM     47  C   UNL A   1      40.098  28.337  32.275  1.00  0.00     0.031 C 
ATOM     48  C   UNL A   1      39.933  28.765  27.545  1.00  0.00     0.029 A 
ATOM     49  N   UNL A   1      41.786  28.231  28.618  1.00  0.00    -0.354 N 
ATOM     50  C   UNL A   1      42.068  29.189  33.019  1.00  0.00     0.074 A 
ATOM     51  C   UNL A   1      40.856  28.497  33.362  1.00  0.00     0.031 C 
ATOM     52  C   UNL A   1      40.545  27.818  26.804  1.00  0.00     0.029 A 
ATOM     53  C   UNL A   1      41.772  27.436  27.473  1.00  0.00     0.049 A 
ATOM     54  H   UNL A   1      42.565  28.295  29.216  1.00  0.00     0.167 HD
ATOM     55  C   UNL A   1      43.341  29.046  33.489  1.00  0.00     0.034 A 
ATOM     56  C   UNL A   1      42.678  26.492  27.123  1.00  0.00     0.034 A 
ATOM     57  C   UNL A   1      44.251  29.905  32.767  1.00  0.00     0.049 A 
ATOM     58  C   UNL A   1      43.908  26.771  27.895  1.00  0.00     0.074 A 
ATOM     59  C   UNL A   1      44.343  31.261  32.526  1.00  0.00     0.029 A 
ATOM     60  N   UNL A   1      45.047  29.301  31.822  1.00  0.00    -0.354 N 
ATOM     61  N   UNL A   1      44.627  27.846  27.734  1.00  0.00    -0.248 NA
ATOM     62  C   UNL A   1      44.090  26.074  29.156  1.00  0.00     0.031 C 
ATOM     63  C   UNL A   1      44.792  31.363  31.175  1.00  0.00     0.029 A 
ATOM     64  C   UNL A   1      45.024  30.073  30.694  1.00  0.00     0.049 A 
ATOM     65  H   UNL A   1      45.546  28.461  31.939  1.00  0.00     0.167 HD
ATOM     66  C   UNL A   1      44.972  28.219  29.025  1.00  0.00     0.074 A 
ATOM     67  C   UNL A   1      44.722  27.031  29.842  1.00  0.00     0.031 C 
ATOM     68  C   UNL A   1      45.134  29.536  29.355  1.00  0.00     0.034 A 
BRANCH  55  69
ATOM     69  C   UNL A   1      43.866  27.851  34.273  1.00  0.00     0.023 A 
ATOM     70  C   UNL A   1      44.649  28.138  35.418  1.00  0.00     0.012 A 
ATOM     71  C   UNL A   1      43.898  26.514  33.812  1.00  0.00     0.148 A 
ATOM     72  C   UNL A   1      45.499  27.187  35.994  1.00  0.00     0.002 A 
ATOM     73  C   UNL A   1      44.695  25.554  34.427  1.00  0.00     0.091 A 
ATOM     74  F   UNL A   1      43.256  26.165  32.698  1.00  0.00    -0.205 F 
ATOM     75  C   UNL A   1      45.527  25.894  35.493  1.00  0.00     0.022 A 
BRANCH  73  76
ATOM     76  S   UNL A   1      44.743  23.853  33.841  1.00  0.00     0.127 S 
ATOM     77  O   UNL A   1      45.012  24.047  32.420  1.00  0.00    -0.237 OA
ATOM     78  O   UNL A   1      45.854  23.302  34.616  1.00  0.00    -0.237 OA
ATOM     79  O   UNL A   1      43.442  23.285  34.175  1.00  0.00    -0.744 OA
ENDBRANCH  73  76
ENDBRANCH  55  69
BRANCH  56  80
ATOM     80  C   UNL A   1      42.491  25.227  26.378  1.00  0.00     0.023 A 
ATOM     81  C   UNL A   1      43.409  24.862  25.373  1.00  0.00     0.012 A 
ATOM     82  C   UNL A   1      41.585  24.247  26.841  1.00  0.00     0.148 A 
ATOM     83  C   UNL A   1      43.450  23.554  24.874  1.00  0.00     0.002 A 
ATOM     84  C   UNL A   1      41.625  22.951  26.338  1.00  0.00     0.091 A 
ATOM     85  F   UNL A   1      40.751  24.564  27.841  1.00  0.00    -0.205 F 
ATOM     86  C   UNL A   1      42.566  22.596  25.361  1.00  0.00     0.022 A 
BRANCH  84  87
ATOM     87  S   UNL A   1      40.530  21.658  26.937  1.00  0.00     0.127 S 
ATOM     88  O   UNL A   1      39.215  22.187  26.574  1.00  0.00    -0.237 OA
ATOM     89  O   UNL A   1      40.968  20.507  26.154  1.00  0.00    -0.237 OA
ATOM     90  O   UNL A   1      40.770  21.579  28.373  1.00  0.00    -0.744 OA
ENDBRANCH  84  87
ENDBRANCH  56  80
BRANCH  68  91
ATOM     91  C   UNL A   1      45.188  30.546  28.236  1.00  0.00     0.023 A 
ATOM     92  C   UNL A   1      44.028  31.054  27.612  1.00  0.00     0.012 A 
ATOM     93  C   UNL A   1      46.428  31.127  27.931  1.00  0.00     0.148 A 
ATOM     94  C   UNL A   1      44.109  32.104  26.691  1.00  0.00     0.002 A 
ATOM     95  C   UNL A   1      46.501  32.200  27.052  1.00  0.00     0.091 A 
ATOM     96  F   UNL A   1      47.521  30.636  28.537  1.00  0.00    -0.205 F 
ATOM     97  C   UNL A   1      45.345  32.686  26.422  1.00  0.00     0.022 A 
BRANCH  95  98
ATOM     98  S   UNL A   1      48.042  33.071  26.766  1.00  0.00     0.127 S 
ATOM     99  O   UNL A   1      47.674  33.998  25.699  1.00  0.00    -0.237 OA
ATOM    100  O   UNL A   1      48.295  33.699  28.064  1.00  0.00    -0.237 OA
ATOM    101  O   UNL A   1      49.017  32.050  26.402  1.00  0.00    -0.744 OA
ENDBRANCH  95  98
ENDBRANCH  68  91
ENDBRANCH  42  43
ENDBRANCH  34  37
ENDBRANCH  32  33
ENDBRANCH  31  32
ENDBRANCH   1  31
TORSDOF 19
ENDMDL
MODEL 3
REMARK VINA RESULT:     -12.3      4.127      7.886
REMARK SMILES COc1cccc(-c2c(C(=O)NCCCCNC(=O)c3ccc(-c4c5nc(c(-c6cccc(S(=O)(=O)[O-])c6F)c6ccc([nH]6)c(-c6cccc(S(=O)(=O)[O-])c6F)c6nc(c(-c7cccc(S(=O)(=O)[O-])c7F)c7ccc4[nH]7)C=C6)C=C5)cc3)nnn2-c2ccc(OC(F)(F)F)cc2)c1
REMARK SMILES IDX 14 1 13 2 12 3 10 4 11 5 9 7 8 8 85 9 83 10 84 11 7 12 3 13
REMARK SMILES IDX 4 14 97 15 5 16 6 17 2 18 1 19 86 20 87 21 96 22 88 23 95 24
REMARK SMILES IDX 89 25 90 26 91 27 92 28 93 29 94 30 15 31 16 32 17 33 18 34
REMARK SMILES IDX 19 36 20 37 21 38 82 39 22 40 81 41 23 42 24 43 25 44 75 45
REMARK SMILES IDX 26 46 80 47 74 48 76 49 27 50 79 51 73 52 72 53 28 55 60 56
REMARK SMILES IDX 40 57 59 58 41 59 44 60 58 61 77 62 42 63 43 64 57 66 78 67
REMARK SMILES IDX 45 68 29 69 30 70 38 71 31 72 33 73 39 74 32 75 34 76 35 77
REMARK SMILES IDX 36 78 37 79 61 80 62 81 70 82 63 83 65 84 71 85 64 86 66 87
REMARK SMILES IDX 67 88 68 89 69 90 46 91 47 92 55 93 48 94 50 95 56 96 49 97
REMARK SMILES IDX 51 98 52 99 53 100 54 101
REMARK H PARENT 12 6 17 35 76 54 44 65
REMARK Flexibility Score: inf
ROOT
ATOM      1  C   UNL A   1      33.674  28.771  26.226  1.00  0.00     0.023 C 
ENDROOT
BRANCH   1   2
ATOM      2  C   UNL A   1      33.024  27.556  25.574  1.00  0.00     0.116 C 
BRANCH   2   3
ATOM      3  N   UNL A   1      32.902  27.580  24.143  1.00  0.00    -0.351 N 
ATOM      4  C   UNL A   1      32.627  26.598  23.214  1.00  0.00     0.274 C 
ATOM      5  O   UNL A   1      32.665  26.990  22.043  1.00  0.00    -0.267 OA
ATOM      6  H   UNL A   1      33.042  28.470  23.749  1.00  0.00     0.163 HD
BRANCH   4   7
ATOM      7  C   UNL A   1      32.372  25.168  23.492  1.00  0.00     0.178 A 
ATOM      8  C   UNL A   1      33.113  24.048  23.893  1.00  0.00     0.108 A 
ATOM      9  N   UNL A   1      32.162  23.025  23.952  1.00  0.00    -0.212 N 
ATOM     10  N   UNL A   1      31.065  24.738  23.273  1.00  0.00    -0.124 NA
ATOM     11  N   UNL A   1      30.991  23.433  23.441  1.00  0.00    -0.061 NA
BRANCH   8  12
ATOM     12  C   UNL A   1      34.541  23.740  24.004  1.00  0.00     0.006 A 
ATOM     13  C   UNL A   1      36.550  23.779  25.391  1.00  0.00     0.119 A 
ATOM     14  C   UNL A   1      37.214  23.035  24.417  1.00  0.00     0.046 A 
ATOM     15  C   UNL A   1      35.221  24.138  25.179  1.00  0.00     0.056 A 
ATOM     16  C   UNL A   1      36.558  22.649  23.242  1.00  0.00     0.005 A 
ATOM     17  C   UNL A   1      35.225  23.009  23.025  1.00  0.00     0.011 A 
BRANCH  13  18
ATOM     18  O   UNL A   1      37.295  24.123  26.485  1.00  0.00    -0.497 OA
ATOM     19  C   UNL A   1      38.656  23.704  26.481  1.00  0.00     0.278 C 
ENDBRANCH  13  18
ENDBRANCH   8  12
BRANCH   9  20
ATOM     20  C   UNL A   1      32.374  21.668  24.299  1.00  0.00     0.067 A 
ATOM     21  C   UNL A   1      32.200  20.674  23.333  1.00  0.00     0.032 A 
ATOM     22  C   UNL A   1      32.849  21.335  25.572  1.00  0.00     0.032 A 
ATOM     23  C   UNL A   1      32.601  19.367  23.621  1.00  0.00     0.049 A 
ATOM     24  C   UNL A   1      33.222  20.021  25.860  1.00  0.00     0.049 A 
ATOM     25  C   UNL A   1      33.127  19.035  24.877  1.00  0.00     0.129 A 
BRANCH  25  26
ATOM     26  O   UNL A   1      33.514  17.732  25.009  1.00  0.00    -0.406 OA
BRANCH  26  27
ATOM     27  C   UNL A   1      34.600  17.292  24.211  1.00  0.00     0.573 C 
ATOM     28  F   UNL A   1      34.983  16.042  24.544  1.00  0.00    -0.132 F 
ATOM     29  F   UNL A   1      34.291  17.341  22.898  1.00  0.00    -0.132 F 
ATOM     30  F   UNL A   1      35.651  18.119  24.422  1.00  0.00    -0.132 F 
ENDBRANCH  26  27
ENDBRANCH  25  26
ENDBRANCH   9  20
ENDBRANCH   4   7
ENDBRANCH   2   3
ENDBRANCH   1   2
BRANCH   1  31
ATOM     31  C   UNL A   1      33.013  30.124  25.964  1.00  0.00     0.023 C 
BRANCH  31  32
ATOM     32  C   UNL A   1      32.564  30.879  27.210  1.00  0.00     0.116 C 
BRANCH  32  33
ATOM     33  N   UNL A   1      32.248  32.295  26.987  1.00  0.00    -0.352 N 
ATOM     34  C   UNL A   1      32.739  33.388  27.697  1.00  0.00     0.251 C 
ATOM     35  H   UNL A   1      31.619  32.494  26.256  1.00  0.00     0.163 HD
ATOM     36  O   UNL A   1      32.171  34.462  27.698  1.00  0.00    -0.269 OA
BRANCH  34  37
ATOM     37  C   UNL A   1      34.009  33.204  28.428  1.00  0.00     0.039 A 
ATOM     38  C   UNL A   1      34.069  32.755  29.750  1.00  0.00     0.014 A 
ATOM     39  C   UNL A   1      35.166  33.424  27.693  1.00  0.00     0.014 A 
ATOM     40  C   UNL A   1      35.316  32.444  30.292  1.00  0.00     0.010 A 
ATOM     41  C   UNL A   1      36.347  32.914  28.146  1.00  0.00     0.010 A 
ATOM     42  C   UNL A   1      36.452  32.511  29.472  1.00  0.00    -0.014 A 
BRANCH  42  43
ATOM     43  C   UNL A   1      37.769  32.072  29.922  1.00  0.00     0.031 A 
ATOM     44  C   UNL A   1      38.173  30.724  29.437  1.00  0.00     0.074 A 
ATOM     45  C   UNL A   1      38.641  32.943  30.482  1.00  0.00     0.049 A 
ATOM     46  N   UNL A   1      38.374  29.656  30.137  1.00  0.00    -0.248 NA
ATOM     47  C   UNL A   1      38.203  30.493  27.983  1.00  0.00     0.031 C 
ATOM     48  C   UNL A   1      38.459  34.391  30.690  1.00  0.00     0.029 A 
ATOM     49  N   UNL A   1      39.947  32.765  30.817  1.00  0.00    -0.354 N 
ATOM     50  C   UNL A   1      38.817  28.695  29.228  1.00  0.00     0.074 A 
ATOM     51  C   UNL A   1      38.447  29.182  27.928  1.00  0.00     0.031 C 
ATOM     52  C   UNL A   1      39.663  34.982  30.831  1.00  0.00     0.029 A 
ATOM     53  C   UNL A   1      40.674  33.950  30.919  1.00  0.00     0.049 A 
ATOM     54  H   UNL A   1      40.343  31.877  30.975  1.00  0.00     0.167 HD
ATOM     55  C   UNL A   1      39.716  27.738  29.600  1.00  0.00     0.034 A 
ATOM     56  C   UNL A   1      42.020  34.076  31.017  1.00  0.00     0.034 A 
ATOM     57  C   UNL A   1      39.816  27.663  31.039  1.00  0.00     0.049 A 
ATOM     58  C   UNL A   1      42.541  32.768  31.470  1.00  0.00     0.074 A 
ATOM     59  C   UNL A   1      38.934  27.438  32.077  1.00  0.00     0.029 A 
ATOM     60  N   UNL A   1      40.926  28.241  31.608  1.00  0.00    -0.354 N 
ATOM     61  N   UNL A   1      42.276  32.256  32.639  1.00  0.00    -0.248 NA
ATOM     62  C   UNL A   1      42.987  31.828  30.456  1.00  0.00     0.031 C 
ATOM     63  C   UNL A   1      39.358  28.320  33.115  1.00  0.00     0.029 A 
ATOM     64  C   UNL A   1      40.515  28.974  32.687  1.00  0.00     0.049 A 
ATOM     65  H   UNL A   1      41.854  28.143  31.294  1.00  0.00     0.167 HD
ATOM     66  C   UNL A   1      42.055  30.912  32.377  1.00  0.00     0.074 A 
ATOM     67  C   UNL A   1      42.627  30.686  31.050  1.00  0.00     0.031 C 
ATOM     68  C   UNL A   1      41.168  30.188  33.125  1.00  0.00     0.034 A 
BRANCH  55  69
ATOM     69  C   UNL A   1      40.822  27.172  28.718  1.00  0.00     0.023 A 
ATOM     70  C   UNL A   1      40.911  25.760  28.641  1.00  0.00     0.012 A 
ATOM     71  C   UNL A   1      41.929  27.897  28.221  1.00  0.00     0.148 A 
ATOM     72  C   UNL A   1      42.073  25.112  28.206  1.00  0.00     0.002 A 
ATOM     73  C   UNL A   1      43.057  27.250  27.727  1.00  0.00     0.091 A 
ATOM     74  F   UNL A   1      41.971  29.226  28.321  1.00  0.00    -0.205 F 
ATOM     75  C   UNL A   1      43.151  25.859  27.754  1.00  0.00     0.022 A 
BRANCH  73  76
ATOM     76  S   UNL A   1      44.470  28.169  27.097  1.00  0.00     0.127 S 
ATOM     77  O   UNL A   1      45.471  27.113  26.980  1.00  0.00    -0.237 OA
ATOM     78  O   UNL A   1      43.951  28.679  25.827  1.00  0.00    -0.237 OA
ATOM     79  O   UNL A   1      44.741  29.203  28.088  1.00  0.00    -0.744 OA
ENDBRANCH  73  76
ENDBRANCH  55  69
BRANCH  56  80
ATOM     80  C   UNL A   1      42.912  35.143  30.511  1.00  0.00     0.023 A 
ATOM     81  C   UNL A   1      43.953  35.632  31.325  1.00  0.00     0.012 A 
ATOM     82  C   UNL A   1      42.924  35.478  29.139  1.00  0.00     0.148 A 
ATOM     83  C   UNL A   1      44.993  36.397  30.783  1.00  0.00     0.002 A 
ATOM     84  C   UNL A   1      43.957  36.243  28.606  1.00  0.00     0.091 A 
ATOM     85  F   UNL A   1      41.976  34.965  28.343  1.00  0.00    -0.205 F 
ATOM     86  C   UNL A   1      45.002  36.695  29.423  1.00  0.00     0.022 A 
BRANCH  84  87
ATOM     87  S   UNL A   1      44.044  36.646  26.857  1.00  0.00     0.127 S 
ATOM     88  O   UNL A   1      44.186  35.322  26.250  1.00  0.00    -0.237 OA
ATOM     89  O   UNL A   1      42.752  37.289  26.634  1.00  0.00    -0.237 OA
ATOM     90  O   UNL A   1      45.214  37.502  26.711  1.00  0.00    -0.744 OA
ENDBRANCH  84  87
ENDBRANCH  56  80
BRANCH  68  91
ATOM     91  C   UNL A   1      40.636  30.809  34.392  1.00  0.00     0.023 A 
ATOM     92  C   UNL A   1      41.405  30.916  35.571  1.00  0.00     0.012 A 
ATOM     93  C   UNL A   1      39.393  31.457  34.336  1.00  0.00     0.148 A 
ATOM     94  C   UNL A   1      40.936  31.638  36.672  1.00  0.00     0.002 A 
ATOM     95  C   UNL A   1      38.949  32.212  35.415  1.00  0.00     0.091 A 
ATOM     96  F   UNL A   1      38.674  31.350  33.208  1.00  0.00    -0.205 F 
ATOM     97  C   UNL A   1      39.713  32.298  36.589  1.00  0.00     0.022 A 
BRANCH  95  98
ATOM     98  S   UNL A   1      37.446  33.187  35.318  1.00  0.00     0.127 S 
ATOM     99  O   UNL A   1      36.928  33.083  36.679  1.00  0.00    -0.237 OA
ATOM    100  O   UNL A   1      37.953  34.511  34.955  1.00  0.00    -0.237 OA
ATOM    101  O   UNL A   1      36.629  32.560  34.286  1.00  0.00    -0.744 OA
ENDBRANCH  95  98
ENDBRANCH  68  91
ENDBRANCH  42  43
ENDBRANCH  34  37
ENDBRANCH  32  33
ENDBRANCH  31  32
ENDBRANCH   1  31
TORSDOF 19
ENDMDL
