MODEL 1
REMARK VINA RESULT:     -13.5      0.000      0.000
REMARK SMILES Cc1cc(C)c(S(=O)(=O)Nc2ccc(N3CCN(c4ccccn4)CC3)c(C(=O)NCCCCNC(=O)c3ccc(-c4c5nc(c(-c6cccc(S(=O)(=O)[O-])c6F)c6ccc([nH]6)c(-c6cccc(S(=O)(=O)[O-])c6F)c6nc(c(-c7cccc(S(=O)(=O)[O-])c7F)c7ccc4[nH]7)C=C6)C=C5)cc3)c2)c(C)c1
REMARK SMILES IDX 32 1 31 2 30 3 28 4 29 5 27 7 11 8 12 9 101 10 13 11 14 12
REMARK SMILES IDX 10 13 7 15 8 16 9 17 6 18 1 19 2 20 3 21 104 22 4 23 102 24
REMARK SMILES IDX 5 25 103 26 15 27 16 28 26 29 17 30 25 31 18 32 19 33 20 34
REMARK SMILES IDX 24 35 21 36 23 37 22 38 33 39 34 40 35 41 36 42 37 44 38 45
REMARK SMILES IDX 39 46 100 47 40 48 99 49 41 50 42 51 43 52 93 53 44 54 98 55
REMARK SMILES IDX 92 56 94 57 45 58 97 59 91 60 90 61 46 63 78 64 58 65 77 66
REMARK SMILES IDX 59 67 62 68 76 69 95 70 60 71 61 72 75 74 96 75 63 76 47 77
REMARK SMILES IDX 48 78 56 79 49 80 51 81 57 82 50 83 52 84 53 85 54 86 55 87
REMARK SMILES IDX 79 88 80 89 88 90 81 91 83 92 89 93 82 94 84 95 85 96 86 97
REMARK SMILES IDX 87 98 64 99 65 100 73 101 66 102 68 103 74 104 67 105 69 106
REMARK SMILES IDX 70 107 71 108 72 109
REMARK H PARENT 30 6 10 14 35 43 94 62 62 73
REMARK Flexibility Score: inf
ROOT
ATOM      1  C   UNL A   1      31.659  29.133  27.642  1.00  0.00     0.023 C 
ENDROOT
BRANCH   1   2
ATOM      2  C   UNL A   1      32.381  27.881  27.140  1.00  0.00     0.116 C 
BRANCH   2   3
ATOM      3  N   UNL A   1      31.474  26.757  27.163  1.00  0.00    -0.352 N 
ATOM      4  C   UNL A   1      31.316  25.675  26.333  1.00  0.00     0.253 C 
ATOM      5  O   UNL A   1      30.235  25.097  26.442  1.00  0.00    -0.269 OA
ATOM      6  H   UNL A   1      30.846  26.770  27.922  1.00  0.00     0.163 HD
BRANCH   4   7
ATOM      7  C   UNL A   1      32.373  25.198  25.370  1.00  0.00     0.065 A 
ATOM      8  C   UNL A   1      33.802  23.402  24.584  1.00  0.00     0.050 A 
ATOM      9  C   UNL A   1      34.214  24.176  23.506  1.00  0.00     0.029 A 
ATOM     10  C   UNL A   1      33.057  23.991  25.596  1.00  0.00     0.042 A 
ATOM     11  C   UNL A   1      33.630  25.420  23.303  1.00  0.00     0.029 A 
ATOM     12  C   UNL A   1      32.614  25.894  24.153  1.00  0.00     0.050 A 
BRANCH   8  13
ATOM     13  N   UNL A   1      34.053  22.009  24.491  1.00  0.00    -0.280 N 
ATOM     14  H   UNL A   1      34.974  21.714  24.675  1.00  0.00     0.180 HD
BRANCH  13  15
ATOM     15  S   UNL A   1      32.948  20.812  24.102  1.00  0.00     0.262 S 
ATOM     16  O   UNL A   1      32.458  21.131  22.775  1.00  0.00    -0.201 OA
ATOM     17  O   UNL A   1      32.048  20.778  25.239  1.00  0.00    -0.201 OA
BRANCH  15  18
ATOM     18  C   UNL A   1      33.670  19.158  23.993  1.00  0.00     0.093 A 
ATOM     19  C   UNL A   1      35.067  15.162  24.951  1.00  0.00     0.044 C 
ATOM     20  C   UNL A   1      34.612  16.543  24.581  1.00  0.00    -0.051 A 
ATOM     21  C   UNL A   1      35.355  17.657  24.955  1.00  0.00     0.008 A 
ATOM     22  C   UNL A   1      33.488  16.740  23.781  1.00  0.00     0.008 A 
ATOM     23  C   UNL A   1      34.904  18.964  24.675  1.00  0.00    -0.030 A 
ATOM     24  C   UNL A   1      33.035  18.035  23.428  1.00  0.00    -0.030 A 
ATOM     25  C   UNL A   1      35.865  20.072  25.036  1.00  0.00     0.046 C 
ATOM     26  C   UNL A   1      31.939  18.056  22.409  1.00  0.00     0.046 C 
ENDBRANCH  15  18
ENDBRANCH  13  15
ENDBRANCH   8  13
BRANCH  12  27
ATOM     27  N   UNL A   1      31.809  26.921  23.687  1.00  0.00    -0.367 N 
ATOM     28  C   UNL A   1      30.547  26.614  22.980  1.00  0.00     0.138 C 
ATOM     29  C   UNL A   1      32.400  28.229  23.359  1.00  0.00     0.138 C 
ATOM     30  C   UNL A   1      29.516  27.761  23.129  1.00  0.00     0.139 C 
ATOM     31  C   UNL A   1      31.354  29.336  23.608  1.00  0.00     0.139 C 
ATOM     32  N   UNL A   1      30.151  29.044  22.799  1.00  0.00    -0.353 N 
BRANCH  32  33
ATOM     33  C   UNL A   1      29.348  30.102  22.423  1.00  0.00     0.128 A 
ATOM     34  C   UNL A   1      29.014  31.075  23.366  1.00  0.00     0.047 A 
ATOM     35  N   UNL A   1      28.946  30.217  21.139  1.00  0.00    -0.239 NA
ATOM     36  C   UNL A   1      28.229  32.165  23.004  1.00  0.00     0.005 A 
ATOM     37  C   UNL A   1      28.157  31.267  20.813  1.00  0.00     0.113 A 
ATOM     38  C   UNL A   1      27.778  32.260  21.699  1.00  0.00     0.020 A 
ENDBRANCH  32  33
ENDBRANCH  12  27
ENDBRANCH   4   7
ENDBRANCH   2   3
ENDBRANCH   1   2
BRANCH   1  39
ATOM     39  C   UNL A   1      31.855  30.349  26.734  1.00  0.00     0.023 C 
BRANCH  39  40
ATOM     40  C   UNL A   1      33.194  31.048  26.915  1.00  0.00     0.116 C 
BRANCH  40  41
ATOM     41  N   UNL A   1      33.056  32.473  27.176  1.00  0.00    -0.352 N 
ATOM     42  C   UNL A   1      33.817  33.256  28.006  1.00  0.00     0.251 C 
ATOM     43  H   UNL A   1      32.328  32.931  26.697  1.00  0.00     0.163 HD
ATOM     44  O   UNL A   1      33.508  34.423  28.223  1.00  0.00    -0.269 OA
BRANCH  42  45
ATOM     45  C   UNL A   1      35.003  32.662  28.652  1.00  0.00     0.039 A 
ATOM     46  C   UNL A   1      34.830  31.588  29.528  1.00  0.00     0.014 A 
ATOM     47  C   UNL A   1      36.281  33.148  28.363  1.00  0.00     0.014 A 
ATOM     48  C   UNL A   1      35.950  30.980  30.094  1.00  0.00     0.010 A 
ATOM     49  C   UNL A   1      37.396  32.490  28.865  1.00  0.00     0.010 A 
ATOM     50  C   UNL A   1      37.242  31.416  29.754  1.00  0.00    -0.014 A 
BRANCH  50  51
ATOM     51  C   UNL A   1      38.446  30.793  30.353  1.00  0.00     0.031 A 
ATOM     52  C   UNL A   1      38.915  31.236  31.713  1.00  0.00     0.074 A 
ATOM     53  C   UNL A   1      39.155  29.891  29.648  1.00  0.00     0.049 A 
ATOM     54  N   UNL A   1      39.959  30.843  32.393  1.00  0.00    -0.248 NA
ATOM     55  C   UNL A   1      38.124  32.283  32.384  1.00  0.00     0.031 C 
ATOM     56  C   UNL A   1      38.849  29.448  28.287  1.00  0.00     0.029 A 
ATOM     57  N   UNL A   1      40.294  29.199  29.974  1.00  0.00    -0.354 N 
ATOM     58  C   UNL A   1      39.977  31.622  33.544  1.00  0.00     0.074 A 
ATOM     59  C   UNL A   1      38.862  32.537  33.454  1.00  0.00     0.031 C 
ATOM     60  C   UNL A   1      39.771  28.551  27.898  1.00  0.00     0.029 A 
ATOM     61  C   UNL A   1      40.739  28.367  28.975  1.00  0.00     0.049 A 
ATOM     62  H   UNL A   1      40.749  29.291  30.843  1.00  0.00     0.167 HD
ATOM     63  C   UNL A   1      40.822  31.558  34.598  1.00  0.00     0.034 A 
ATOM     64  C   UNL A   1      41.803  27.540  28.939  1.00  0.00     0.034 A 
ATOM     65  C   UNL A   1      41.887  30.599  34.713  1.00  0.00     0.049 A 
ATOM     66  C   UNL A   1      42.673  27.424  30.164  1.00  0.00     0.074 A 
ATOM     67  C   UNL A   1      42.744  30.386  35.777  1.00  0.00     0.029 A 
ATOM     68  N   UNL A   1      42.232  29.685  33.729  1.00  0.00    -0.354 N 
ATOM     69  N   UNL A   1      42.576  28.053  31.309  1.00  0.00    -0.248 NA
ATOM     70  C   UNL A   1      43.770  26.447  30.107  1.00  0.00     0.031 C 
ATOM     71  C   UNL A   1      43.613  29.344  35.435  1.00  0.00     0.029 A 
ATOM     72  C   UNL A   1      43.285  28.899  34.163  1.00  0.00     0.049 A 
ATOM     73  H   UNL A   1      41.793  29.607  32.852  1.00  0.00     0.167 HD
ATOM     74  C   UNL A   1      43.564  27.514  32.126  1.00  0.00     0.074 A 
ATOM     75  C   UNL A   1      44.239  26.497  31.346  1.00  0.00     0.031 C 
ATOM     76  C   UNL A   1      43.892  27.841  33.400  1.00  0.00     0.034 A 
BRANCH  63  77
ATOM     77  C   UNL A   1      40.586  32.507  35.743  1.00  0.00     0.023 A 
ATOM     78  C   UNL A   1      41.364  33.680  35.844  1.00  0.00     0.012 A 
ATOM     79  C   UNL A   1      39.570  32.271  36.688  1.00  0.00     0.148 A 
ATOM     80  C   UNL A   1      41.161  34.581  36.888  1.00  0.00     0.002 A 
ATOM     81  C   UNL A   1      39.342  33.197  37.701  1.00  0.00     0.091 A 
ATOM     82  F   UNL A   1      38.855  31.139  36.592  1.00  0.00    -0.205 F 
ATOM     83  C   UNL A   1      40.144  34.345  37.809  1.00  0.00     0.022 A 
BRANCH  81  84
ATOM     84  S   UNL A   1      38.006  33.022  38.890  1.00  0.00     0.127 S 
ATOM     85  O   UNL A   1      38.395  31.801  39.594  1.00  0.00    -0.237 OA
ATOM     86  O   UNL A   1      38.134  34.247  39.679  1.00  0.00    -0.237 OA
ATOM     87  O   UNL A   1      36.782  32.932  38.105  1.00  0.00    -0.744 OA
ENDBRANCH  81  84
ENDBRANCH  63  77
BRANCH  64  88
ATOM     88  C   UNL A   1      42.040  26.677  27.748  1.00  0.00     0.023 A 
ATOM     89  C   UNL A   1      42.731  27.210  26.642  1.00  0.00     0.012 A 
ATOM     90  C   UNL A   1      41.610  25.337  27.708  1.00  0.00     0.148 A 
ATOM     91  C   UNL A   1      42.957  26.438  25.503  1.00  0.00     0.002 A 
ATOM     92  C   UNL A   1      41.882  24.557  26.589  1.00  0.00     0.091 A 
ATOM     93  F   UNL A   1      40.944  24.850  28.765  1.00  0.00    -0.205 F 
ATOM     94  C   UNL A   1      42.542  25.110  25.479  1.00  0.00     0.022 A 
BRANCH  92  95
ATOM     95  S   UNL A   1      41.493  22.805  26.522  1.00  0.00     0.127 S 
ATOM     96  O   UNL A   1      42.028  22.331  27.796  1.00  0.00    -0.237 OA
ATOM     97  O   UNL A   1      40.032  22.819  26.433  1.00  0.00    -0.237 OA
ATOM     98  O   UNL A   1      42.159  22.304  25.327  1.00  0.00    -0.744 OA
ENDBRANCH  92  95
ENDBRANCH  64  88
BRANCH  76  99
ATOM     99  C   UNL A   1      44.995  27.056  34.059  1.00  0.00     0.023 A 
ATOM    100  C   UNL A   1      46.332  27.479  33.932  1.00  0.00     0.012 A 
ATOM    101  C   UNL A   1      44.695  25.940  34.866  1.00  0.00     0.148 A 
ATOM    102  C   UNL A   1      47.358  26.781  34.569  1.00  0.00     0.002 A 
ATOM    103  C   UNL A   1      45.718  25.280  35.536  1.00  0.00     0.091 A 
ATOM    104  F   UNL A   1      43.418  25.538  34.958  1.00  0.00    -0.205 F 
ATOM    105  C   UNL A   1      47.050  25.691  35.380  1.00  0.00     0.022 A 
BRANCH 103 106
ATOM    106  S   UNL A   1      45.389  23.930  36.675  1.00  0.00     0.127 S 
ATOM    107  O   UNL A   1      44.711  22.967  35.811  1.00  0.00    -0.237 OA
ATOM    108  O   UNL A   1      46.735  23.533  37.092  1.00  0.00    -0.237 OA
ATOM    109  O   UNL A   1      44.580  24.504  37.742  1.00  0.00    -0.744 OA
ENDBRANCH 103 106
ENDBRANCH  76  99
ENDBRANCH  50  51
ENDBRANCH  42  45
ENDBRANCH  40  41
ENDBRANCH  39  40
ENDBRANCH   1  39
TORSDOF 19
ENDMDL
MODEL 2
REMARK VINA RESULT:     -12.6      2.116      2.498
REMARK SMILES Cc1cc(C)c(S(=O)(=O)Nc2ccc(N3CCN(c4ccccn4)CC3)c(C(=O)NCCCCNC(=O)c3ccc(-c4c5nc(c(-c6cccc(S(=O)(=O)[O-])c6F)c6ccc([nH]6)c(-c6cccc(S(=O)(=O)[O-])c6F)c6nc(c(-c7cccc(S(=O)(=O)[O-])c7F)c7ccc4[nH]7)C=C6)C=C5)cc3)c2)c(C)c1
REMARK SMILES IDX 32 1 31 2 30 3 28 4 29 5 27 7 11 8 12 9 101 10 13 11 14 12
REMARK SMILES IDX 10 13 7 15 8 16 9 17 6 18 1 19 2 20 3 21 104 22 4 23 102 24
REMARK SMILES IDX 5 25 103 26 15 27 16 28 26 29 17 30 25 31 18 32 19 33 20 34
REMARK SMILES IDX 24 35 21 36 23 37 22 38 33 39 34 40 35 41 36 42 37 44 38 45
REMARK SMILES IDX 39 46 100 47 40 48 99 49 41 50 42 51 43 52 93 53 44 54 98 55
REMARK SMILES IDX 92 56 94 57 45 58 97 59 91 60 90 61 46 63 78 64 58 65 77 66
REMARK SMILES IDX 59 67 62 68 76 69 95 70 60 71 61 72 75 74 96 75 63 76 47 77
REMARK SMILES IDX 48 78 56 79 49 80 51 81 57 82 50 83 52 84 53 85 54 86 55 87
REMARK SMILES IDX 79 88 80 89 88 90 81 91 83 92 89 93 82 94 84 95 85 96 86 97
REMARK SMILES IDX 87 98 64 99 65 100 73 101 66 102 68 103 74 104 67 105 69 106
REMARK SMILES IDX 70 107 71 108 72 109
REMARK H PARENT 30 6 10 14 35 43 94 62 62 73
REMARK Flexibility Score: inf
ROOT
ATOM      1  C   UNL A   1      34.031  30.419  27.820  1.00  0.00     0.023 C 
ENDROOT
BRANCH   1   2
ATOM      2  C   UNL A   1      33.898  29.193  26.914  1.00  0.00     0.116 C 
BRANCH   2   3
ATOM      3  N   UNL A   1      32.769  28.397  27.341  1.00  0.00    -0.352 N 
ATOM      4  C   UNL A   1      32.179  27.271  26.823  1.00  0.00     0.253 C 
ATOM      5  O   UNL A   1      31.039  27.054  27.232  1.00  0.00    -0.269 OA
ATOM      6  H   UNL A   1      32.341  28.726  28.164  1.00  0.00     0.163 HD
BRANCH   4   7
ATOM      7  C   UNL A   1      32.857  26.345  25.845  1.00  0.00     0.065 A 
ATOM      8  C   UNL A   1      33.847  24.179  25.387  1.00  0.00     0.050 A 
ATOM      9  C   UNL A   1      33.968  24.496  24.040  1.00  0.00     0.029 A 
ATOM     10  C   UNL A   1      33.489  25.171  26.289  1.00  0.00     0.042 A 
ATOM     11  C   UNL A   1      33.441  25.696  23.578  1.00  0.00     0.029 A 
ATOM     12  C   UNL A   1      32.767  26.577  24.444  1.00  0.00     0.050 A 
BRANCH   8  13
ATOM     13  N   UNL A   1      33.958  22.804  25.723  1.00  0.00    -0.280 N 
ATOM     14  H   UNL A   1      33.221  22.419  26.250  1.00  0.00     0.180 HD
BRANCH  13  15
ATOM     15  S   UNL A   1      35.211  21.770  25.319  1.00  0.00     0.262 S 
ATOM     16  O   UNL A   1      35.933  21.508  26.549  1.00  0.00    -0.201 OA
ATOM     17  O   UNL A   1      35.863  22.423  24.199  1.00  0.00    -0.201 OA
BRANCH  15  18
ATOM     18  C   UNL A   1      34.661  20.161  24.701  1.00  0.00     0.093 A 
ATOM     19  C   UNL A   1      33.398  16.017  24.451  1.00  0.00     0.044 C 
ATOM     20  C   UNL A   1      33.845  17.448  24.491  1.00  0.00    -0.051 A 
ATOM     21  C   UNL A   1      35.189  17.767  24.648  1.00  0.00     0.008 A 
ATOM     22  C   UNL A   1      32.943  18.490  24.282  1.00  0.00     0.008 A 
ATOM     23  C   UNL A   1      35.616  19.107  24.758  1.00  0.00    -0.030 A 
ATOM     24  C   UNL A   1      33.341  19.848  24.325  1.00  0.00    -0.030 A 
ATOM     25  C   UNL A   1      37.112  19.308  24.810  1.00  0.00     0.046 C 
ATOM     26  C   UNL A   1      32.290  20.820  23.887  1.00  0.00     0.046 C 
ENDBRANCH  15  18
ENDBRANCH  13  15
ENDBRANCH   8  13
BRANCH  12  27
ATOM     27  N   UNL A   1      31.935  27.528  23.878  1.00  0.00    -0.367 N 
ATOM     28  C   UNL A   1      30.836  27.115  22.979  1.00  0.00     0.138 C 
ATOM     29  C   UNL A   1      32.422  28.901  23.668  1.00  0.00     0.138 C 
ATOM     30  C   UNL A   1      29.675  28.141  22.988  1.00  0.00     0.139 C 
ATOM     31  C   UNL A   1      31.236  29.883  23.773  1.00  0.00     0.139 C 
ATOM     32  N   UNL A   1      30.209  29.494  22.783  1.00  0.00    -0.353 N 
BRANCH  32  33
ATOM     33  C   UNL A   1      29.361  30.474  22.306  1.00  0.00     0.128 A 
ATOM     34  C   UNL A   1      29.026  31.548  23.132  1.00  0.00     0.047 A 
ATOM     35  N   UNL A   1      28.916  30.416  21.032  1.00  0.00    -0.239 NA
ATOM     36  C   UNL A   1      28.196  32.562  22.664  1.00  0.00     0.005 A 
ATOM     37  C   UNL A   1      28.084  31.395  20.606  1.00  0.00     0.113 A 
ATOM     38  C   UNL A   1      27.702  32.480  21.374  1.00  0.00     0.020 A 
ENDBRANCH  32  33
ENDBRANCH  12  27
ENDBRANCH   4   7
ENDBRANCH   2   3
ENDBRANCH   1   2
BRANCH   1  39
ATOM     39  C   UNL A   1      32.950  31.472  27.575  1.00  0.00     0.023 C 
BRANCH  39  40
ATOM     40  C   UNL A   1      33.494  32.840  27.188  1.00  0.00     0.116 C 
BRANCH  40  41
ATOM     41  N   UNL A   1      32.954  33.915  28.006  1.00  0.00    -0.352 N 
ATOM     42  C   UNL A   1      33.372  34.321  29.248  1.00  0.00     0.251 C 
ATOM     43  H   UNL A   1      32.195  34.411  27.622  1.00  0.00     0.163 HD
ATOM     44  O   UNL A   1      32.741  35.166  29.875  1.00  0.00    -0.269 OA
BRANCH  42  45
ATOM     45  C   UNL A   1      34.583  33.708  29.824  1.00  0.00     0.039 A 
ATOM     46  C   UNL A   1      34.443  32.715  30.795  1.00  0.00     0.014 A 
ATOM     47  C   UNL A   1      35.850  34.095  29.378  1.00  0.00     0.014 A 
ATOM     48  C   UNL A   1      35.581  32.085  31.299  1.00  0.00     0.010 A 
ATOM     49  C   UNL A   1      36.974  33.412  29.823  1.00  0.00     0.010 A 
ATOM     50  C   UNL A   1      36.853  32.419  30.805  1.00  0.00    -0.014 A 
BRANCH  50  51
ATOM     51  C   UNL A   1      38.077  31.771  31.336  1.00  0.00     0.031 A 
ATOM     52  C   UNL A   1      38.714  32.301  32.593  1.00  0.00     0.074 A 
ATOM     53  C   UNL A   1      38.653  30.765  30.651  1.00  0.00     0.049 A 
ATOM     54  N   UNL A   1      39.801  31.901  33.198  1.00  0.00    -0.248 NA
ATOM     55  C   UNL A   1      38.061  33.454  33.237  1.00  0.00     0.031 C 
ATOM     56  C   UNL A   1      38.178  30.224  29.376  1.00  0.00     0.029 A 
ATOM     57  N   UNL A   1      39.780  30.030  30.925  1.00  0.00    -0.354 N 
ATOM     58  C   UNL A   1      39.987  32.776  34.261  1.00  0.00     0.074 A 
ATOM     59  C   UNL A   1      38.922  33.752  34.198  1.00  0.00     0.031 C 
ATOM     60  C   UNL A   1      39.001  29.236  28.984  1.00  0.00     0.029 A 
ATOM     61  C   UNL A   1      40.067  29.084  29.969  1.00  0.00     0.049 A 
ATOM     62  H   UNL A   1      40.330  30.168  31.730  1.00  0.00     0.167 HD
ATOM     63  C   UNL A   1      40.935  32.750  35.225  1.00  0.00     0.034 A 
ATOM     64  C   UNL A   1      41.072  28.189  29.904  1.00  0.00     0.034 A 
ATOM     65  C   UNL A   1      41.949  31.736  35.322  1.00  0.00     0.049 A 
ATOM     66  C   UNL A   1      42.060  28.124  31.040  1.00  0.00     0.074 A 
ATOM     67  C   UNL A   1      42.902  31.561  36.309  1.00  0.00     0.029 A 
ATOM     68  N   UNL A   1      42.134  30.717  34.400  1.00  0.00    -0.354 N 
ATOM     69  N   UNL A   1      42.122  28.857  32.124  1.00  0.00    -0.248 NA
ATOM     70  C   UNL A   1      43.087  27.074  30.966  1.00  0.00     0.031 C 
ATOM     71  C   UNL A   1      43.668  30.437  35.981  1.00  0.00     0.029 A 
ATOM     72  C   UNL A   1      43.180  29.904  34.797  1.00  0.00     0.049 A 
ATOM     73  H   UNL A   1      41.599  30.591  33.583  1.00  0.00     0.167 HD
ATOM     74  C   UNL A   1      43.159  28.328  32.884  1.00  0.00     0.074 A 
ATOM     75  C   UNL A   1      43.688  27.202  32.140  1.00  0.00     0.031 C 
ATOM     76  C   UNL A   1      43.641  28.744  34.081  1.00  0.00     0.034 A 
BRANCH  63  77
ATOM     77  C   UNL A   1      40.877  33.811  36.292  1.00  0.00     0.023 A 
ATOM     78  C   UNL A   1      39.833  33.784  37.241  1.00  0.00     0.012 A 
ATOM     79  C   UNL A   1      41.872  34.802  36.389  1.00  0.00     0.148 A 
ATOM     80  C   UNL A   1      39.759  34.748  38.245  1.00  0.00     0.002 A 
ATOM     81  C   UNL A   1      41.817  35.734  37.420  1.00  0.00     0.091 A 
ATOM     82  F   UNL A   1      42.844  34.828  35.464  1.00  0.00    -0.205 F 
ATOM     83  C   UNL A   1      40.756  35.716  38.341  1.00  0.00     0.022 A 
BRANCH  81  84
ATOM     84  S   UNL A   1      43.095  36.971  37.675  1.00  0.00     0.127 S 
ATOM     85  O   UNL A   1      42.585  37.686  38.844  1.00  0.00    -0.237 OA
ATOM     86  O   UNL A   1      44.276  36.146  37.933  1.00  0.00    -0.237 OA
ATOM     87  O   UNL A   1      43.155  37.744  36.442  1.00  0.00    -0.744 OA
ENDBRANCH  81  84
ENDBRANCH  63  77
BRANCH  64  88
ATOM     88  C   UNL A   1      41.129  27.210  28.784  1.00  0.00     0.023 A 
ATOM     89  C   UNL A   1      40.230  26.126  28.774  1.00  0.00     0.012 A 
ATOM     90  C   UNL A   1      42.045  27.351  27.724  1.00  0.00     0.148 A 
ATOM     91  C   UNL A   1      40.264  25.179  27.749  1.00  0.00     0.002 A 
ATOM     92  C   UNL A   1      42.042  26.432  26.679  1.00  0.00     0.091 A 
ATOM     93  F   UNL A   1      42.901  28.383  27.755  1.00  0.00    -0.205 F 
ATOM     94  C   UNL A   1      41.163  25.337  26.698  1.00  0.00     0.022 A 
BRANCH  92  95
ATOM     95  S   UNL A   1      43.079  26.626  25.225  1.00  0.00     0.127 S 
ATOM     96  O   UNL A   1      42.914  25.332  24.567  1.00  0.00    -0.237 OA
ATOM     97  O   UNL A   1      42.440  27.752  24.542  1.00  0.00    -0.237 OA
ATOM     98  O   UNL A   1      44.412  26.916  25.735  1.00  0.00    -0.744 OA
ENDBRANCH  92  95
ENDBRANCH  64  88
BRANCH  76  99
ATOM     99  C   UNL A   1      44.761  27.948  34.697  1.00  0.00     0.023 A 
ATOM    100  C   UNL A   1      46.098  28.338  34.487  1.00  0.00     0.012 A 
ATOM    101  C   UNL A   1      44.482  26.857  35.543  1.00  0.00     0.148 A 
ATOM    102  C   UNL A   1      47.142  27.632  35.083  1.00  0.00     0.002 A 
ATOM    103  C   UNL A   1      45.526  26.188  36.172  1.00  0.00     0.091 A 
ATOM    104  F   UNL A   1      43.204  26.486  35.713  1.00  0.00    -0.205 F 
ATOM    105  C   UNL A   1      46.856  26.566  35.934  1.00  0.00     0.022 A 
BRANCH 103 106
ATOM    106  S   UNL A   1      45.232  24.871  37.357  1.00  0.00     0.127 S 
ATOM    107  O   UNL A   1      44.068  25.375  38.082  1.00  0.00    -0.237 OA
ATOM    108  O   UNL A   1      44.960  23.722  36.492  1.00  0.00    -0.237 OA
ATOM    109  O   UNL A   1      46.460  24.757  38.131  1.00  0.00    -0.744 OA
ENDBRANCH 103 106
ENDBRANCH  76  99
ENDBRANCH  50  51
ENDBRANCH  42  45
ENDBRANCH  40  41
ENDBRANCH  39  40
ENDBRANCH   1  39
TORSDOF 19
ENDMDL
MODEL 3
REMARK VINA RESULT:     -12.4      2.716      3.243
REMARK SMILES Cc1cc(C)c(S(=O)(=O)Nc2ccc(N3CCN(c4ccccn4)CC3)c(C(=O)NCCCCNC(=O)c3ccc(-c4c5nc(c(-c6cccc(S(=O)(=O)[O-])c6F)c6ccc([nH]6)c(-c6cccc(S(=O)(=O)[O-])c6F)c6nc(c(-c7cccc(S(=O)(=O)[O-])c7F)c7ccc4[nH]7)C=C6)C=C5)cc3)c2)c(C)c1
REMARK SMILES IDX 32 1 31 2 30 3 28 4 29 5 27 7 11 8 12 9 101 10 13 11 14 12
REMARK SMILES IDX 10 13 7 15 8 16 9 17 6 18 1 19 2 20 3 21 104 22 4 23 102 24
REMARK SMILES IDX 5 25 103 26 15 27 16 28 26 29 17 30 25 31 18 32 19 33 20 34
REMARK SMILES IDX 24 35 21 36 23 37 22 38 33 39 34 40 35 41 36 42 37 44 38 45
REMARK SMILES IDX 39 46 100 47 40 48 99 49 41 50 42 51 43 52 93 53 44 54 98 55
REMARK SMILES IDX 92 56 94 57 45 58 97 59 91 60 90 61 46 63 78 64 58 65 77 66
REMARK SMILES IDX 59 67 62 68 76 69 95 70 60 71 61 72 75 74 96 75 63 76 47 77
REMARK SMILES IDX 48 78 56 79 49 80 51 81 57 82 50 83 52 84 53 85 54 86 55 87
REMARK SMILES IDX 79 88 80 89 88 90 81 91 83 92 89 93 82 94 84 95 85 96 86 97
REMARK SMILES IDX 87 98 64 99 65 100 73 101 66 102 68 103 74 104 67 105 69 106
REMARK SMILES IDX 70 107 71 108 72 109
REMARK H PARENT 30 6 10 14 35 43 94 62 62 73
REMARK Flexibility Score: inf
ROOT
ATOM      1  C   UNL A   1      34.616  29.402  27.553  1.00  0.00     0.023 C 
ENDROOT
BRANCH   1   2
ATOM      2  C   UNL A   1      34.206  28.414  26.460  1.00  0.00     0.116 C 
BRANCH   2   3
ATOM      3  N   UNL A   1      33.131  27.577  26.943  1.00  0.00    -0.352 N 
ATOM      4  C   UNL A   1      32.494  26.485  26.409  1.00  0.00     0.253 C 
ATOM      5  O   UNL A   1      31.404  26.227  26.918  1.00  0.00    -0.269 OA
ATOM      6  H   UNL A   1      32.791  27.841  27.828  1.00  0.00     0.163 HD
BRANCH   4   7
ATOM      7  C   UNL A   1      33.068  25.640  25.300  1.00  0.00     0.065 A 
ATOM      8  C   UNL A   1      33.968  23.508  24.574  1.00  0.00     0.050 A 
ATOM      9  C   UNL A   1      33.985  23.942  23.254  1.00  0.00     0.029 A 
ATOM     10  C   UNL A   1      33.707  24.421  25.586  1.00  0.00     0.042 A 
ATOM     11  C   UNL A   1      33.449  25.186  22.944  1.00  0.00     0.029 A 
ATOM     12  C   UNL A   1      32.869  25.996  23.937  1.00  0.00     0.050 A 
BRANCH   8  13
ATOM     13  N   UNL A   1      34.075  22.107  24.777  1.00  0.00    -0.280 N 
ATOM     14  H   UNL A   1      34.840  21.797  25.313  1.00  0.00     0.180 HD
BRANCH  13  15
ATOM     15  S   UNL A   1      33.036  20.927  24.201  1.00  0.00     0.262 S 
ATOM     16  O   UNL A   1      32.692  21.317  22.848  1.00  0.00    -0.201 OA
ATOM     17  O   UNL A   1      32.016  20.820  25.227  1.00  0.00    -0.201 OA
BRANCH  15  18
ATOM     18  C   UNL A   1      33.789  19.287  24.080  1.00  0.00     0.093 A 
ATOM     19  C   UNL A   1      35.282  15.320  25.016  1.00  0.00     0.044 C 
ATOM     20  C   UNL A   1      34.794  16.692  24.653  1.00  0.00    -0.051 A 
ATOM     21  C   UNL A   1      35.520  17.821  25.014  1.00  0.00     0.008 A 
ATOM     22  C   UNL A   1      33.653  16.866  23.872  1.00  0.00     0.008 A 
ATOM     23  C   UNL A   1      35.038  19.118  24.742  1.00  0.00    -0.030 A 
ATOM     24  C   UNL A   1      33.168  18.151  23.526  1.00  0.00    -0.030 A 
ATOM     25  C   UNL A   1      35.983  20.245  25.087  1.00  0.00     0.046 C 
ATOM     26  C   UNL A   1      32.055  18.149  22.526  1.00  0.00     0.046 C 
ENDBRANCH  15  18
ENDBRANCH  13  15
ENDBRANCH   8  13
BRANCH  12  27
ATOM     27  N   UNL A   1      32.015  27.007  23.528  1.00  0.00    -0.367 N 
ATOM     28  C   UNL A   1      30.725  26.676  22.886  1.00  0.00     0.138 C 
ATOM     29  C   UNL A   1      32.554  28.333  23.186  1.00  0.00     0.138 C 
ATOM     30  C   UNL A   1      29.675  27.794  23.105  1.00  0.00     0.139 C 
ATOM     31  C   UNL A   1      31.496  29.410  23.505  1.00  0.00     0.139 C 
ATOM     32  N   UNL A   1      30.259  29.097  22.758  1.00  0.00    -0.353 N 
BRANCH  32  33
ATOM     33  C   UNL A   1      29.410  30.138  22.438  1.00  0.00     0.128 A 
ATOM     34  C   UNL A   1      28.857  30.907  23.463  1.00  0.00     0.047 A 
ATOM     35  N   UNL A   1      29.173  30.439  21.143  1.00  0.00    -0.239 NA
ATOM     36  C   UNL A   1      28.022  31.979  23.165  1.00  0.00     0.005 A 
ATOM     37  C   UNL A   1      28.333  31.465  20.874  1.00  0.00     0.113 A 
ATOM     38  C   UNL A   1      27.741  32.259  21.839  1.00  0.00     0.020 A 
ENDBRANCH  32  33
ENDBRANCH  12  27
ENDBRANCH   4   7
ENDBRANCH   2   3
ENDBRANCH   1   2
BRANCH   1  39
ATOM     39  C   UNL A   1      34.094  30.820  27.314  1.00  0.00     0.023 C 
BRANCH  39  40
ATOM     40  C   UNL A   1      34.977  31.912  27.899  1.00  0.00     0.116 C 
BRANCH  40  41
ATOM     41  N   UNL A   1      34.441  32.475  29.129  1.00  0.00    -0.352 N 
ATOM     42  C   UNL A   1      34.932  32.339  30.403  1.00  0.00     0.251 C 
ATOM     43  H   UNL A   1      33.626  33.018  29.036  1.00  0.00     0.163 HD
ATOM     44  O   UNL A   1      34.303  32.769  31.365  1.00  0.00    -0.269 OA
BRANCH  42  45
ATOM     45  C   UNL A   1      36.220  31.646  30.596  1.00  0.00     0.039 A 
ATOM     46  C   UNL A   1      37.386  32.235  30.104  1.00  0.00     0.014 A 
ATOM     47  C   UNL A   1      36.271  30.435  31.292  1.00  0.00     0.014 A 
ATOM     48  C   UNL A   1      38.615  31.619  30.338  1.00  0.00     0.010 A 
ATOM     49  C   UNL A   1      37.502  29.866  31.591  1.00  0.00     0.010 A 
ATOM     50  C   UNL A   1      38.683  30.438  31.097  1.00  0.00    -0.014 A 
BRANCH  50  51
ATOM     51  C   UNL A   1      39.977  29.760  31.347  1.00  0.00     0.031 A 
ATOM     52  C   UNL A   1      40.820  30.173  32.523  1.00  0.00     0.074 A 
ATOM     53  C   UNL A   1      40.426  28.833  30.480  1.00  0.00     0.049 A 
ATOM     54  N   UNL A   1      41.992  29.732  32.894  1.00  0.00    -0.248 NA
ATOM     55  C   UNL A   1      40.289  31.250  33.379  1.00  0.00     0.031 C 
ATOM     56  C   UNL A   1      39.740  28.411  29.257  1.00  0.00     0.029 A 
ATOM     57  N   UNL A   1      41.581  28.090  30.485  1.00  0.00    -0.354 N 
ATOM     58  C   UNL A   1      42.358  30.502  33.991  1.00  0.00     0.074 A 
ATOM     59  C   UNL A   1      41.301  31.465  34.205  1.00  0.00     0.031 C 
ATOM     60  C   UNL A   1      40.482  27.478  28.636  1.00  0.00     0.029 A 
ATOM     61  C   UNL A   1      41.699  27.245  29.407  1.00  0.00     0.049 A 
ATOM     62  H   UNL A   1      42.260  28.157  31.195  1.00  0.00     0.167 HD
ATOM     63  C   UNL A   1      43.456  30.395  34.774  1.00  0.00     0.034 A 
ATOM     64  C   UNL A   1      42.676  26.374  29.086  1.00  0.00     0.034 A 
ATOM     65  C   UNL A   1      44.469  29.391  34.598  1.00  0.00     0.049 A 
ATOM     66  C   UNL A   1      43.842  26.213  30.026  1.00  0.00     0.074 A 
ATOM     67  C   UNL A   1      45.575  29.134  35.388  1.00  0.00     0.029 A 
ATOM     68  N   UNL A   1      44.492  28.469  33.563  1.00  0.00    -0.354 N 
ATOM     69  N   UNL A   1      44.089  26.839  31.151  1.00  0.00    -0.248 NA
ATOM     70  C   UNL A   1      44.838  25.189  29.677  1.00  0.00     0.031 C 
ATOM     71  C   UNL A   1      46.271  28.058  34.827  1.00  0.00     0.029 A 
ATOM     72  C   UNL A   1      45.588  27.636  33.696  1.00  0.00     0.049 A 
ATOM     73  H   UNL A   1      43.826  28.416  32.840  1.00  0.00     0.167 HD
ATOM     74  C   UNL A   1      45.239  26.252  31.669  1.00  0.00     0.074 A 
ATOM     75  C   UNL A   1      45.630  25.212  30.740  1.00  0.00     0.031 C 
ATOM     76  C   UNL A   1      45.917  26.557  32.802  1.00  0.00     0.034 A 
BRANCH  63  77
ATOM     77  C   UNL A   1      43.583  31.347  35.934  1.00  0.00     0.023 A 
ATOM     78  C   UNL A   1      43.012  31.005  37.178  1.00  0.00     0.012 A 
ATOM     79  C   UNL A   1      44.303  32.551  35.814  1.00  0.00     0.148 A 
ATOM     80  C   UNL A   1      43.121  31.862  38.271  1.00  0.00     0.002 A 
ATOM     81  C   UNL A   1      44.447  33.381  36.921  1.00  0.00     0.091 A 
ATOM     82  F   UNL A   1      44.819  32.873  34.618  1.00  0.00    -0.205 F 
ATOM     83  C   UNL A   1      43.846  33.044  38.146  1.00  0.00     0.022 A 
BRANCH  81  84
ATOM     84  S   UNL A   1      45.428  34.885  36.881  1.00  0.00     0.127 S 
ATOM     85  O   UNL A   1      46.604  34.452  36.129  1.00  0.00    -0.237 OA
ATOM     86  O   UNL A   1      44.549  35.808  36.161  1.00  0.00    -0.237 OA
ATOM     87  O   UNL A   1      45.668  35.242  38.273  1.00  0.00    -0.744 OA
ENDBRANCH  81  84
ENDBRANCH  63  77
BRANCH  64  88
ATOM     88  C   UNL A   1      42.540  25.509  27.881  1.00  0.00     0.023 A 
ATOM     89  C   UNL A   1      42.933  26.015  26.627  1.00  0.00     0.012 A 
ATOM     90  C   UNL A   1      42.048  24.193  27.966  1.00  0.00     0.148 A 
ATOM     91  C   UNL A   1      42.806  25.240  25.473  1.00  0.00     0.002 A 
ATOM     92  C   UNL A   1      41.970  23.408  26.820  1.00  0.00     0.091 A 
ATOM     93  F   UNL A   1      41.668  23.732  29.167  1.00  0.00    -0.205 F 
ATOM     94  C   UNL A   1      42.333  23.935  25.571  1.00  0.00     0.022 A 
BRANCH  92  95
ATOM     95  S   UNL A   1      41.490  21.678  26.872  1.00  0.00     0.127 S 
ATOM     96  O   UNL A   1      41.426  21.343  25.451  1.00  0.00    -0.237 OA
ATOM     97  O   UNL A   1      42.607  21.072  27.598  1.00  0.00    -0.237 OA
ATOM     98  O   UNL A   1      40.223  21.647  27.591  1.00  0.00    -0.744 OA
ENDBRANCH  92  95
ENDBRANCH  64  88
BRANCH  76  99
ATOM     99  C   UNL A   1      47.124  25.721  33.139  1.00  0.00     0.023 A 
ATOM    100  C   UNL A   1      47.009  24.659  34.057  1.00  0.00     0.012 A 
ATOM    101  C   UNL A   1      48.353  25.944  32.488  1.00  0.00     0.148 A 
ATOM    102  C   UNL A   1      48.110  23.855  34.349  1.00  0.00     0.002 A 
ATOM    103  C   UNL A   1      49.432  25.108  32.748  1.00  0.00     0.091 A 
ATOM    104  F   UNL A   1      48.450  26.974  31.633  1.00  0.00    -0.205 F 
ATOM    105  C   UNL A   1      49.316  24.070  33.686  1.00  0.00     0.022 A 
BRANCH 103 106
ATOM    106  S   UNL A   1      50.987  25.261  31.861  1.00  0.00     0.127 S 
ATOM    107  O   UNL A   1      51.765  24.162  32.428  1.00  0.00    -0.237 OA
ATOM    108  O   UNL A   1      50.578  25.063  30.469  1.00  0.00    -0.237 OA
ATOM    109  O   UNL A   1      51.476  26.601  32.153  1.00  0.00    -0.744 OA
ENDBRANCH 103 106
ENDBRANCH  76  99
ENDBRANCH  50  51
ENDBRANCH  42  45
ENDBRANCH  40  41
ENDBRANCH  39  40
ENDBRANCH   1  39
TORSDOF 19
ENDMDL
