MODEL 1
REMARK VINA RESULT:     -11.6      0.000      0.000
REMARK SMILES COc1cc([N+](=O)[O-])cc([C@H]2[NH2+][C@H](C(=O)NCCCCNC(=O)c3ccc(-c4c5nc(c(-c6cccc(S(=O)(=O)[O-])c6F)c6ccc([nH]6)c(-c6cccc(S(=O)(=O)[O-])c6F)c6nc(c(-c7cccc(S(=O)(=O)[O-])c7F)c7ccc4[nH]7)C=C6)C=C5)cc3)CS2)c1O
REMARK SMILES IDX 19 1 18 2 17 3 16 4 14 5 15 6 13 8 11 9 12 10 88 11 87 14
REMARK SMILES IDX 10 15 3 16 4 17 89 18 5 19 9 20 2 21 1 22 90 23 6 25 7 26
REMARK SMILES IDX 8 27 20 28 21 29 22 30 23 32 24 33 25 34 86 35 26 36 85 37
REMARK SMILES IDX 27 38 28 39 29 40 79 41 30 42 84 43 78 44 80 45 31 46 83 47
REMARK SMILES IDX 77 48 76 49 32 51 64 52 44 53 63 54 45 55 48 56 62 57 81 58
REMARK SMILES IDX 46 59 47 60 61 62 82 63 49 64 33 65 34 66 42 67 35 68 37 69
REMARK SMILES IDX 43 70 36 71 38 72 39 73 40 74 41 75 65 76 66 77 74 78 67 79
REMARK SMILES IDX 69 80 75 81 68 82 70 83 71 84 72 85 73 86 50 87 51 88 59 89
REMARK SMILES IDX 52 90 54 91 60 92 53 93 55 94 56 95 57 96 58 97
REMARK H PARENT 16 7 12 12 12 13 90 24 21 31 80 50 48 61
REMARK Flexibility Score: inf
ROOT
ATOM      1  C   UNL A   1      37.934  19.176  24.939  1.00  0.00     0.023 C 
ENDROOT
BRANCH   1   2
ATOM      2  C   UNL A   1      36.547  19.815  25.014  1.00  0.00     0.023 C 
BRANCH   2   3
ATOM      3  C   UNL A   1      36.533  21.294  25.397  1.00  0.00     0.116 C 
BRANCH   3   4
ATOM      4  N   UNL A   1      36.689  22.174  24.259  1.00  0.00    -0.351 N 
ATOM      5  C   UNL A   1      35.805  23.020  23.657  1.00  0.00     0.279 C 
ATOM      6  O   UNL A   1      36.229  23.706  22.721  1.00  0.00    -0.268 OA
ATOM      7  H   UNL A   1      37.584  22.159  23.850  1.00  0.00     0.163 HD
BRANCH   5   8
ATOM      8  C   UNL A   1      34.336  23.158  24.101  1.00  0.00     0.283 C 
ATOM      9  C   UNL A   1      32.683  24.653  23.132  1.00  0.00     0.278 C 
ATOM     10  N   UNL A   1      33.872  24.566  23.986  1.00  0.00    -0.320 N 
ATOM     11  S   UNL A   1      31.820  23.093  23.325  1.00  0.00    -0.087 SA
ATOM     12  H   UNL A   1      33.643  24.919  24.915  1.00  0.00     0.348 HD
ATOM     13  H   UNL A   1      34.617  25.123  23.568  1.00  0.00     0.348 HD
ATOM     14  C   UNL A   1      33.373  22.163  23.466  1.00  0.00     0.151 C 
BRANCH   9  15
ATOM     15  C   UNL A   1      31.952  25.980  23.323  1.00  0.00     0.073 A 
ATOM     16  C   UNL A   1      30.713  27.997  22.652  1.00  0.00     0.167 A 
ATOM     17  C   UNL A   1      30.745  28.469  23.969  1.00  0.00     0.136 A 
ATOM     18  C   UNL A   1      31.344  26.775  22.327  1.00  0.00     0.168 A 
ATOM     19  C   UNL A   1      31.391  27.733  24.956  1.00  0.00     0.273 A 
ATOM     20  C   UNL A   1      31.982  26.508  24.640  1.00  0.00     0.100 A 
BRANCH  16  21
ATOM     21  O   UNL A   1      30.063  28.870  21.817  1.00  0.00    -0.493 OA
ATOM     22  C   UNL A   1      29.536  30.074  22.351  1.00  0.00     0.278 C 
ENDBRANCH  16  21
BRANCH  18  23
ATOM     23  O   UNL A   1      31.385  26.409  21.013  1.00  0.00    -0.504 OA
ATOM     24  H   UNL A   1      30.646  25.985  20.622  1.00  0.00     0.293 HD
ENDBRANCH  18  23
BRANCH  19  25
ATOM     25  N   UNL A   1      31.464  28.249  26.327  1.00  0.00     0.062 N 
ATOM     26  O   UNL A   1      31.866  29.410  26.486  1.00  0.00    -0.258 OA
ATOM     27  O   UNL A   1      31.122  27.490  27.245  1.00  0.00    -0.258 OA
ENDBRANCH  19  25
ENDBRANCH   9  15
ENDBRANCH   5   8
ENDBRANCH   3   4
ENDBRANCH   2   3
ENDBRANCH   1   2
BRANCH   1  28
ATOM     28  C   UNL A   1      39.031  19.892  25.720  1.00  0.00     0.116 C 
BRANCH  28  29
ATOM     29  N   UNL A   1      40.200  19.065  25.985  1.00  0.00    -0.352 N 
ATOM     30  C   UNL A   1      41.452  19.467  26.388  1.00  0.00     0.251 C 
ATOM     31  H   UNL A   1      40.079  18.097  25.858  1.00  0.00     0.163 HD
ATOM     32  O   UNL A   1      42.361  18.645  26.481  1.00  0.00    -0.269 OA
BRANCH  30  33
ATOM     33  C   UNL A   1      41.703  20.897  26.667  1.00  0.00     0.039 A 
ATOM     34  C   UNL A   1      42.064  21.279  27.961  1.00  0.00     0.014 A 
ATOM     35  C   UNL A   1      41.623  21.849  25.648  1.00  0.00     0.014 A 
ATOM     36  C   UNL A   1      42.406  22.609  28.218  1.00  0.00     0.010 A 
ATOM     37  C   UNL A   1      42.036  23.156  25.889  1.00  0.00     0.010 A 
ATOM     38  C   UNL A   1      42.428  23.552  27.177  1.00  0.00    -0.014 A 
BRANCH  38  39
ATOM     39  C   UNL A   1      42.864  24.951  27.414  1.00  0.00     0.031 A 
ATOM     40  C   UNL A   1      41.914  25.949  28.021  1.00  0.00     0.074 A 
ATOM     41  C   UNL A   1      44.088  25.344  27.009  1.00  0.00     0.049 A 
ATOM     42  N   UNL A   1      42.102  27.218  28.271  1.00  0.00    -0.248 NA
ATOM     43  C   UNL A   1      40.567  25.464  28.369  1.00  0.00     0.031 C 
ATOM     44  C   UNL A   1      45.069  24.495  26.330  1.00  0.00     0.029 A 
ATOM     45  N   UNL A   1      44.709  26.566  27.090  1.00  0.00    -0.354 N 
ATOM     46  C   UNL A   1      40.896  27.689  28.776  1.00  0.00     0.074 A 
ATOM     47  C   UNL A   1      39.968  26.580  28.758  1.00  0.00     0.031 C 
ATOM     48  C   UNL A   1      46.171  25.216  26.068  1.00  0.00     0.029 A 
ATOM     49  C   UNL A   1      45.968  26.583  26.535  1.00  0.00     0.049 A 
ATOM     50  H   UNL A   1      44.292  27.355  27.506  1.00  0.00     0.167 HD
ATOM     51  C   UNL A   1      40.596  28.922  29.248  1.00  0.00     0.034 A 
ATOM     52  C   UNL A   1      46.859  27.588  26.420  1.00  0.00     0.034 A 
ATOM     53  C   UNL A   1      41.534  30.010  29.310  1.00  0.00     0.049 A 
ATOM     54  C   UNL A   1      46.515  28.938  26.993  1.00  0.00     0.074 A 
ATOM     55  C   UNL A   1      41.353  31.273  29.845  1.00  0.00     0.029 A 
ATOM     56  N   UNL A   1      42.830  29.965  28.820  1.00  0.00    -0.354 N 
ATOM     57  N   UNL A   1      45.425  29.317  27.616  1.00  0.00    -0.248 NA
ATOM     58  C   UNL A   1      47.538  29.988  26.882  1.00  0.00     0.031 C 
ATOM     59  C   UNL A   1      42.537  31.997  29.665  1.00  0.00     0.029 A 
ATOM     60  C   UNL A   1      43.460  31.178  29.036  1.00  0.00     0.049 A 
ATOM     61  H   UNL A   1      43.242  29.185  28.382  1.00  0.00     0.167 HD
ATOM     62  C   UNL A   1      45.646  30.634  28.003  1.00  0.00     0.074 A 
ATOM     63  C   UNL A   1      46.982  30.979  27.564  1.00  0.00     0.031 C 
ATOM     64  C   UNL A   1      44.812  31.486  28.648  1.00  0.00     0.034 A 
BRANCH  51  65
ATOM     65  C   UNL A   1      39.212  29.141  29.804  1.00  0.00     0.023 A 
ATOM     66  C   UNL A   1      38.939  28.767  31.136  1.00  0.00     0.012 A 
ATOM     67  C   UNL A   1      38.208  29.765  29.041  1.00  0.00     0.148 A 
ATOM     68  C   UNL A   1      37.677  28.980  31.689  1.00  0.00     0.002 A 
ATOM     69  C   UNL A   1      36.965  30.013  29.614  1.00  0.00     0.091 A 
ATOM     70  F   UNL A   1      38.480  30.095  27.770  1.00  0.00    -0.205 F 
ATOM     71  C   UNL A   1      36.694  29.611  30.932  1.00  0.00     0.022 A 
BRANCH  69  72
ATOM     72  S   UNL A   1      35.656  30.888  28.749  1.00  0.00     0.127 S 
ATOM     73  O   UNL A   1      36.421  31.755  27.854  1.00  0.00    -0.237 OA
ATOM     74  O   UNL A   1      34.947  29.796  28.078  1.00  0.00    -0.237 OA
ATOM     75  O   UNL A   1      34.883  31.573  29.775  1.00  0.00    -0.744 OA
ENDBRANCH  69  72
ENDBRANCH  51  65
BRANCH  52  76
ATOM     76  C   UNL A   1      48.196  27.339  25.811  1.00  0.00     0.023 A 
ATOM     77  C   UNL A   1      49.258  26.910  26.631  1.00  0.00     0.012 A 
ATOM     78  C   UNL A   1      48.420  27.506  24.431  1.00  0.00     0.148 A 
ATOM     79  C   UNL A   1      50.528  26.689  26.096  1.00  0.00     0.002 A 
ATOM     80  C   UNL A   1      49.674  27.233  23.896  1.00  0.00     0.091 A 
ATOM     81  F   UNL A   1      47.402  27.928  23.667  1.00  0.00    -0.205 F 
ATOM     82  C   UNL A   1      50.734  26.841  24.728  1.00  0.00     0.022 A 
BRANCH  80  83
ATOM     83  S   UNL A   1      49.992  27.280  22.128  1.00  0.00     0.127 S 
ATOM     84  O   UNL A   1      48.951  26.396  21.613  1.00  0.00    -0.237 OA
ATOM     85  O   UNL A   1      49.801  28.699  21.823  1.00  0.00    -0.237 OA
ATOM     86  O   UNL A   1      51.362  26.814  21.967  1.00  0.00    -0.744 OA
ENDBRANCH  80  83
ENDBRANCH  52  76
BRANCH  64  87
ATOM     87  C   UNL A   1      45.327  32.868  28.957  1.00  0.00     0.023 A 
ATOM     88  C   UNL A   1      46.053  33.093  30.143  1.00  0.00     0.012 A 
ATOM     89  C   UNL A   1      45.157  33.921  28.038  1.00  0.00     0.148 A 
ATOM     90  C   UNL A   1      46.576  34.355  30.424  1.00  0.00     0.002 A 
ATOM     91  C   UNL A   1      45.722  35.163  28.302  1.00  0.00     0.091 A 
ATOM     92  F   UNL A   1      44.446  33.690  26.924  1.00  0.00    -0.205 F 
ATOM     93  C   UNL A   1      46.421  35.385  29.500  1.00  0.00     0.022 A 
BRANCH  91  94
ATOM     94  S   UNL A   1      45.656  36.519  27.125  1.00  0.00     0.127 S 
ATOM     95  O   UNL A   1      46.283  35.922  25.947  1.00  0.00    -0.237 OA
ATOM     96  O   UNL A   1      44.216  36.750  26.999  1.00  0.00    -0.237 OA
ATOM     97  O   UNL A   1      46.390  37.618  27.738  1.00  0.00    -0.744 OA
ENDBRANCH  91  94
ENDBRANCH  64  87
ENDBRANCH  38  39
ENDBRANCH  30  33
ENDBRANCH  28  29
ENDBRANCH   1  28
TORSDOF 18
ENDMDL
MODEL 2
REMARK VINA RESULT:     -11.6      5.477      9.230
REMARK SMILES COc1cc([N+](=O)[O-])cc([C@H]2[NH2+][C@H](C(=O)NCCCCNC(=O)c3ccc(-c4c5nc(c(-c6cccc(S(=O)(=O)[O-])c6F)c6ccc([nH]6)c(-c6cccc(S(=O)(=O)[O-])c6F)c6nc(c(-c7cccc(S(=O)(=O)[O-])c7F)c7ccc4[nH]7)C=C6)C=C5)cc3)CS2)c1O
REMARK SMILES IDX 19 1 18 2 17 3 16 4 14 5 15 6 13 8 11 9 12 10 88 11 87 14
REMARK SMILES IDX 10 15 3 16 4 17 89 18 5 19 9 20 2 21 1 22 90 23 6 25 7 26
REMARK SMILES IDX 8 27 20 28 21 29 22 30 23 32 24 33 25 34 86 35 26 36 85 37
REMARK SMILES IDX 27 38 28 39 29 40 79 41 30 42 84 43 78 44 80 45 31 46 83 47
REMARK SMILES IDX 77 48 76 49 32 51 64 52 44 53 63 54 45 55 48 56 62 57 81 58
REMARK SMILES IDX 46 59 47 60 61 62 82 63 49 64 33 65 34 66 42 67 35 68 37 69
REMARK SMILES IDX 43 70 36 71 38 72 39 73 40 74 41 75 65 76 66 77 74 78 67 79
REMARK SMILES IDX 69 80 75 81 68 82 70 83 71 84 72 85 73 86 50 87 51 88 59 89
REMARK SMILES IDX 52 90 54 91 60 92 53 93 55 94 56 95 57 96 58 97
REMARK H PARENT 16 7 12 12 12 13 90 24 21 31 80 50 48 61
REMARK Flexibility Score: inf
ROOT
ATOM      1  C   UNL A   1      31.684  30.072  26.794  1.00  0.00     0.023 C 
ENDROOT
BRANCH   1   2
ATOM      2  C   UNL A   1      31.695  28.677  27.420  1.00  0.00     0.023 C 
BRANCH   2   3
ATOM      3  C   UNL A   1      31.966  27.531  26.447  1.00  0.00     0.116 C 
BRANCH   3   4
ATOM      4  N   UNL A   1      30.870  27.297  25.532  1.00  0.00    -0.351 N 
ATOM      5  C   UNL A   1      30.823  26.616  24.352  1.00  0.00     0.279 C 
ATOM      6  O   UNL A   1      29.723  26.526  23.796  1.00  0.00    -0.268 OA
ATOM      7  H   UNL A   1      30.014  27.698  25.808  1.00  0.00     0.163 HD
BRANCH   5   8
ATOM      8  C   UNL A   1      32.060  25.959  23.709  1.00  0.00     0.283 C 
ATOM      9  C   UNL A   1      32.432  23.574  23.431  1.00  0.00     0.278 C 
ATOM     10  N   UNL A   1      32.404  24.683  24.389  1.00  0.00    -0.320 N 
ATOM     11  S   UNL A   1      32.915  24.290  21.860  1.00  0.00    -0.087 SA
ATOM     12  H   UNL A   1      33.322  24.773  24.824  1.00  0.00     0.348 HD
ATOM     13  H   UNL A   1      31.694  24.487  25.096  1.00  0.00     0.348 HD
ATOM     14  C   UNL A   1      32.006  25.826  22.192  1.00  0.00     0.151 C 
BRANCH   9  15
ATOM     15  C   UNL A   1      33.168  22.362  23.997  1.00  0.00     0.073 A 
ATOM     16  C   UNL A   1      35.018  21.125  25.047  1.00  0.00     0.167 A 
ATOM     17  C   UNL A   1      34.326  19.921  24.876  1.00  0.00     0.136 A 
ATOM     18  C   UNL A   1      34.454  22.334  24.577  1.00  0.00     0.168 A 
ATOM     19  C   UNL A   1      33.085  19.915  24.251  1.00  0.00     0.273 A 
ATOM     20  C   UNL A   1      32.512  21.115  23.821  1.00  0.00     0.100 A 
BRANCH  16  21
ATOM     21  O   UNL A   1      36.235  20.930  25.649  1.00  0.00    -0.493 OA
ATOM     22  C   UNL A   1      37.394  20.812  24.841  1.00  0.00     0.278 C 
ENDBRANCH  16  21
BRANCH  18  23
ATOM     23  O   UNL A   1      35.212  23.466  24.665  1.00  0.00    -0.504 OA
ATOM     24  H   UNL A   1      34.899  24.202  25.154  1.00  0.00     0.293 HD
ENDBRANCH  18  23
BRANCH  19  25
ATOM     25  N   UNL A   1      32.379  18.648  24.031  1.00  0.00     0.062 N 
ATOM     26  O   UNL A   1      32.050  17.991  25.028  1.00  0.00    -0.258 OA
ATOM     27  O   UNL A   1      32.158  18.310  22.859  1.00  0.00    -0.258 OA
ENDBRANCH  19  25
ENDBRANCH   9  15
ENDBRANCH   5   8
ENDBRANCH   3   4
ENDBRANCH   2   3
ENDBRANCH   1   2
BRANCH   1  28
ATOM     28  C   UNL A   1      33.036  30.773  26.724  1.00  0.00     0.116 C 
BRANCH  28  29
ATOM     29  N   UNL A   1      32.993  32.175  27.115  1.00  0.00    -0.352 N 
ATOM     30  C   UNL A   1      33.893  32.870  27.888  1.00  0.00     0.251 C 
ATOM     31  H   UNL A   1      32.223  32.690  26.784  1.00  0.00     0.163 HD
ATOM     32  O   UNL A   1      33.663  34.036  28.202  1.00  0.00    -0.269 OA
BRANCH  30  33
ATOM     33  C   UNL A   1      35.115  32.193  28.372  1.00  0.00     0.039 A 
ATOM     34  C   UNL A   1      36.325  32.890  28.357  1.00  0.00     0.014 A 
ATOM     35  C   UNL A   1      35.059  30.890  28.874  1.00  0.00     0.014 A 
ATOM     36  C   UNL A   1      37.467  32.302  28.906  1.00  0.00     0.010 A 
ATOM     37  C   UNL A   1      36.179  30.336  29.487  1.00  0.00     0.010 A 
ATOM     38  C   UNL A   1      37.396  31.034  29.506  1.00  0.00    -0.014 A 
BRANCH  38  39
ATOM     39  C   UNL A   1      38.580  30.426  30.164  1.00  0.00     0.031 A 
ATOM     40  C   UNL A   1      38.997  30.874  31.539  1.00  0.00     0.074 A 
ATOM     41  C   UNL A   1      39.327  29.527  29.491  1.00  0.00     0.049 A 
ATOM     42  N   UNL A   1      40.018  30.486  32.258  1.00  0.00    -0.248 NA
ATOM     43  C   UNL A   1      38.175  31.914  32.181  1.00  0.00     0.031 C 
ATOM     44  C   UNL A   1      39.077  29.075  28.121  1.00  0.00     0.029 A 
ATOM     45  N   UNL A   1      40.462  28.849  29.862  1.00  0.00    -0.354 N 
ATOM     46  C   UNL A   1      39.978  31.249  33.418  1.00  0.00     0.074 A 
ATOM     47  C   UNL A   1      38.859  32.155  33.291  1.00  0.00     0.031 C 
ATOM     48  C   UNL A   1      40.022  28.187  27.771  1.00  0.00     0.029 A 
ATOM     49  C   UNL A   1      40.957  28.024  28.879  1.00  0.00     0.049 A 
ATOM     50  H   UNL A   1      40.881  28.944  30.747  1.00  0.00     0.167 HD
ATOM     51  C   UNL A   1      40.778  31.179  34.509  1.00  0.00     0.034 A 
ATOM     52  C   UNL A   1      42.042  27.224  28.874  1.00  0.00     0.034 A 
ATOM     53  C   UNL A   1      41.862  30.246  34.653  1.00  0.00     0.049 A 
ATOM     54  C   UNL A   1      42.889  27.134  30.115  1.00  0.00     0.074 A 
ATOM     55  C   UNL A   1      42.680  30.040  35.750  1.00  0.00     0.029 A 
ATOM     56  N   UNL A   1      42.280  29.362  33.670  1.00  0.00    -0.354 N 
ATOM     57  N   UNL A   1      42.736  27.746  31.265  1.00  0.00    -0.248 NA
ATOM     58  C   UNL A   1      44.034  26.214  30.074  1.00  0.00     0.031 C 
ATOM     59  C   UNL A   1      43.603  29.039  35.425  1.00  0.00     0.029 A 
ATOM     60  C   UNL A   1      43.346  28.610  34.132  1.00  0.00     0.049 A 
ATOM     61  H   UNL A   1      41.878  29.281  32.775  1.00  0.00     0.167 HD
ATOM     62  C   UNL A   1      43.741  27.259  32.093  1.00  0.00     0.074 A 
ATOM     63  C   UNL A   1      44.481  26.283  31.320  1.00  0.00     0.031 C 
ATOM     64  C   UNL A   1      44.035  27.599  33.372  1.00  0.00     0.034 A 
BRANCH  51  65
ATOM     65  C   UNL A   1      40.465  32.093  35.666  1.00  0.00     0.023 A 
ATOM     66  C   UNL A   1      41.240  33.256  35.853  1.00  0.00     0.012 A 
ATOM     67  C   UNL A   1      39.379  31.839  36.525  1.00  0.00     0.148 A 
ATOM     68  C   UNL A   1      40.961  34.135  36.899  1.00  0.00     0.002 A 
ATOM     69  C   UNL A   1      39.080  32.744  37.538  1.00  0.00     0.091 A 
ATOM     70  F   UNL A   1      38.666  30.718  36.344  1.00  0.00    -0.205 F 
ATOM     71  C   UNL A   1      39.876  33.885  37.734  1.00  0.00     0.022 A 
BRANCH  69  72
ATOM     72  S   UNL A   1      37.660  32.553  38.621  1.00  0.00     0.127 S 
ATOM     73  O   UNL A   1      37.944  33.542  39.659  1.00  0.00    -0.237 OA
ATOM     74  O   UNL A   1      36.548  32.903  37.735  1.00  0.00    -0.237 OA
ATOM     75  O   UNL A   1      37.672  31.164  39.059  1.00  0.00    -0.744 OA
ENDBRANCH  69  72
ENDBRANCH  51  65
BRANCH  52  76
ATOM     76  C   UNL A   1      42.345  26.379  27.683  1.00  0.00     0.023 A 
ATOM     77  C   UNL A   1      43.101  26.923  26.627  1.00  0.00     0.012 A 
ATOM     78  C   UNL A   1      41.906  25.044  27.596  1.00  0.00     0.148 A 
ATOM     79  C   UNL A   1      43.382  26.166  25.488  1.00  0.00     0.002 A 
ATOM     80  C   UNL A   1      42.236  24.279  26.483  1.00  0.00     0.091 A 
ATOM     81  F   UNL A   1      41.175  24.547  28.605  1.00  0.00    -0.205 F 
ATOM     82  C   UNL A   1      42.958  24.842  25.420  1.00  0.00     0.022 A 
BRANCH  80  83
ATOM     83  S   UNL A   1      41.838  22.530  26.371  1.00  0.00     0.127 S 
ATOM     84  O   UNL A   1      42.484  22.157  25.116  1.00  0.00    -0.237 OA
ATOM     85  O   UNL A   1      42.477  21.996  27.575  1.00  0.00    -0.237 OA
ATOM     86  O   UNL A   1      40.384  22.460  26.386  1.00  0.00    -0.744 OA
ENDBRANCH  80  83
ENDBRANCH  52  76
BRANCH  64  87
ATOM     87  C   UNL A   1      45.183  26.889  34.038  1.00  0.00     0.023 A 
ATOM     88  C   UNL A   1      46.485  27.420  33.940  1.00  0.00     0.012 A 
ATOM     89  C   UNL A   1      44.961  25.741  34.823  1.00  0.00     0.148 A 
ATOM     90  C   UNL A   1      47.552  26.801  34.587  1.00  0.00     0.002 A 
ATOM     91  C   UNL A   1      46.023  25.158  35.505  1.00  0.00     0.091 A 
ATOM     92  F   UNL A   1      43.719  25.241  34.889  1.00  0.00    -0.205 F 
ATOM     93  C   UNL A   1      47.321  25.678  35.378  1.00  0.00     0.022 A 
BRANCH  91  94
ATOM     94  S   UNL A   1      45.800  23.769  36.622  1.00  0.00     0.127 S 
ATOM     95  O   UNL A   1      47.178  23.474  37.011  1.00  0.00    -0.237 OA
ATOM     96  O   UNL A   1      44.978  24.353  37.684  1.00  0.00    -0.237 OA
ATOM     97  O   UNL A   1      45.132  22.733  35.846  1.00  0.00    -0.744 OA
ENDBRANCH  91  94
ENDBRANCH  64  87
ENDBRANCH  38  39
ENDBRANCH  30  33
ENDBRANCH  28  29
ENDBRANCH   1  28
TORSDOF 18
ENDMDL
MODEL 3
REMARK VINA RESULT:     -11.5      6.378     11.675
REMARK SMILES COc1cc([N+](=O)[O-])cc([C@H]2[NH2+][C@H](C(=O)NCCCCNC(=O)c3ccc(-c4c5nc(c(-c6cccc(S(=O)(=O)[O-])c6F)c6ccc([nH]6)c(-c6cccc(S(=O)(=O)[O-])c6F)c6nc(c(-c7cccc(S(=O)(=O)[O-])c7F)c7ccc4[nH]7)C=C6)C=C5)cc3)CS2)c1O
REMARK SMILES IDX 19 1 18 2 17 3 16 4 14 5 15 6 13 8 11 9 12 10 88 11 87 14
REMARK SMILES IDX 10 15 3 16 4 17 89 18 5 19 9 20 2 21 1 22 90 23 6 25 7 26
REMARK SMILES IDX 8 27 20 28 21 29 22 30 23 32 24 33 25 34 86 35 26 36 85 37
REMARK SMILES IDX 27 38 28 39 29 40 79 41 30 42 84 43 78 44 80 45 31 46 83 47
REMARK SMILES IDX 77 48 76 49 32 51 64 52 44 53 63 54 45 55 48 56 62 57 81 58
REMARK SMILES IDX 46 59 47 60 61 62 82 63 49 64 33 65 34 66 42 67 35 68 37 69
REMARK SMILES IDX 43 70 36 71 38 72 39 73 40 74 41 75 65 76 66 77 74 78 67 79
REMARK SMILES IDX 69 80 75 81 68 82 70 83 71 84 72 85 73 86 50 87 51 88 59 89
REMARK SMILES IDX 52 90 54 91 60 92 53 93 55 94 56 95 57 96 58 97
REMARK H PARENT 16 7 12 12 12 13 90 24 21 31 80 50 48 61
REMARK Flexibility Score: inf
ROOT
ATOM      1  C   UNL A   1      31.589  31.956  26.826  1.00  0.00     0.023 C 
ENDROOT
BRANCH   1   2
ATOM      2  C   UNL A   1      31.771  30.442  26.719  1.00  0.00     0.023 C 
BRANCH   2   3
ATOM      3  C   UNL A   1      32.651  29.974  25.560  1.00  0.00     0.116 C 
BRANCH   3   4
ATOM      4  N   UNL A   1      31.936  29.897  24.304  1.00  0.00    -0.351 N 
ATOM      5  C   UNL A   1      31.921  28.930  23.345  1.00  0.00     0.279 C 
ATOM      6  O   UNL A   1      31.164  29.100  22.383  1.00  0.00    -0.268 OA
ATOM      7  H   UNL A   1      31.364  30.675  24.111  1.00  0.00     0.163 HD
BRANCH   5   8
ATOM      8  C   UNL A   1      32.784  27.655  23.420  1.00  0.00     0.283 C 
ATOM      9  C   UNL A   1      31.959  25.371  23.495  1.00  0.00     0.278 C 
ATOM     10  N   UNL A   1      32.129  26.613  24.254  1.00  0.00    -0.320 N 
ATOM     11  S   UNL A   1      33.309  25.322  22.316  1.00  0.00    -0.087 SA
ATOM     12  H   UNL A   1      32.709  26.429  25.073  1.00  0.00     0.348 HD
ATOM     13  H   UNL A   1      31.210  26.952  24.539  1.00  0.00     0.348 HD
ATOM     14  C   UNL A   1      33.267  27.122  22.077  1.00  0.00     0.151 C 
BRANCH   9  15
ATOM     15  C   UNL A   1      31.682  24.185  24.416  1.00  0.00     0.073 A 
ATOM     16  C   UNL A   1      30.825  23.014  26.403  1.00  0.00     0.167 A 
ATOM     17  C   UNL A   1      31.411  21.820  25.968  1.00  0.00     0.136 A 
ATOM     18  C   UNL A   1      30.991  24.196  25.647  1.00  0.00     0.168 A 
ATOM     19  C   UNL A   1      32.149  21.797  24.790  1.00  0.00     0.273 A 
ATOM     20  C   UNL A   1      32.280  22.958  24.024  1.00  0.00     0.100 A 
BRANCH  16  21
ATOM     21  O   UNL A   1      30.168  22.851  27.596  1.00  0.00    -0.493 OA
ATOM     22  C   UNL A   1      28.791  22.512  27.585  1.00  0.00     0.278 C 
ENDBRANCH  16  21
BRANCH  18  23
ATOM     23  O   UNL A   1      30.497  25.359  26.165  1.00  0.00    -0.504 OA
ATOM     24  H   UNL A   1      30.845  26.182  25.883  1.00  0.00     0.293 HD
ENDBRANCH  18  23
BRANCH  19  25
ATOM     25  N   UNL A   1      32.801  20.557  24.356  1.00  0.00     0.062 N 
ATOM     26  O   UNL A   1      33.775  20.159  25.009  1.00  0.00    -0.258 OA
ATOM     27  O   UNL A   1      32.339  19.983  23.360  1.00  0.00    -0.258 OA
ENDBRANCH  19  25
ENDBRANCH   9  15
ENDBRANCH   5   8
ENDBRANCH   3   4
ENDBRANCH   2   3
ENDBRANCH   1   2
BRANCH   1  28
ATOM     28  C   UNL A   1      32.756  32.717  27.446  1.00  0.00     0.116 C 
BRANCH  28  29
ATOM     29  N   UNL A   1      32.472  34.122  27.704  1.00  0.00    -0.352 N 
ATOM     30  C   UNL A   1      33.098  34.967  28.590  1.00  0.00     0.251 C 
ATOM     31  H   UNL A   1      31.739  34.516  27.179  1.00  0.00     0.163 HD
ATOM     32  O   UNL A   1      32.676  36.109  28.754  1.00  0.00    -0.269 OA
BRANCH  30  33
ATOM     33  C   UNL A   1      34.254  34.477  29.372  1.00  0.00     0.039 A 
ATOM     34  C   UNL A   1      34.041  34.008  30.670  1.00  0.00     0.014 A 
ATOM     35  C   UNL A   1      35.534  34.445  28.812  1.00  0.00     0.014 A 
ATOM     36  C   UNL A   1      35.102  33.446  31.383  1.00  0.00     0.010 A 
ATOM     37  C   UNL A   1      36.572  33.819  29.496  1.00  0.00     0.010 A 
ATOM     38  C   UNL A   1      36.369  33.316  30.790  1.00  0.00    -0.014 A 
BRANCH  38  39
ATOM     39  C   UNL A   1      37.489  32.652  31.503  1.00  0.00     0.031 A 
ATOM     40  C   UNL A   1      38.205  31.487  30.872  1.00  0.00     0.074 A 
ATOM     41  C   UNL A   1      37.810  33.045  32.752  1.00  0.00     0.049 A 
ATOM     42  N   UNL A   1      39.180  30.761  31.354  1.00  0.00    -0.248 NA
ATOM     43  C   UNL A   1      37.749  31.067  29.536  1.00  0.00     0.031 C 
ATOM     44  C   UNL A   1      37.135  34.103  33.506  1.00  0.00     0.029 A 
ATOM     45  N   UNL A   1      38.772  32.585  33.617  1.00  0.00    -0.354 N 
ATOM     46  C   UNL A   1      39.434  29.785  30.398  1.00  0.00     0.074 A 
ATOM     47  C   UNL A   1      38.484  29.983  29.327  1.00  0.00     0.031 C 
ATOM     48  C   UNL A   1      37.710  34.220  34.714  1.00  0.00     0.029 A 
ATOM     49  C   UNL A   1      38.776  33.231  34.832  1.00  0.00     0.049 A 
ATOM     50  H   UNL A   1      39.399  31.861  33.389  1.00  0.00     0.167 HD
ATOM     51  C   UNL A   1      40.396  28.832  30.392  1.00  0.00     0.034 A 
ATOM     52  C   UNL A   1      39.555  33.048  35.916  1.00  0.00     0.034 A 
ATOM     53  C   UNL A   1      41.370  28.666  31.437  1.00  0.00     0.049 A 
ATOM     54  C   UNL A   1      40.644  32.009  35.866  1.00  0.00     0.074 A 
ATOM     55  C   UNL A   1      42.436  27.784  31.488  1.00  0.00     0.029 A 
ATOM     56  N   UNL A   1      41.400  29.398  32.614  1.00  0.00    -0.354 N 
ATOM     57  N   UNL A   1      40.973  31.205  34.884  1.00  0.00    -0.248 NA
ATOM     58  C   UNL A   1      41.495  31.880  37.058  1.00  0.00     0.031 C 
ATOM     59  C   UNL A   1      43.102  27.974  32.704  1.00  0.00     0.029 A 
ATOM     60  C   UNL A   1      42.462  28.987  33.399  1.00  0.00     0.049 A 
ATOM     61  H   UNL A   1      40.760  30.106  32.855  1.00  0.00     0.167 HD
ATOM     62  C   UNL A   1      42.089  30.503  35.325  1.00  0.00     0.074 A 
ATOM     63  C   UNL A   1      42.393  30.993  36.653  1.00  0.00     0.031 C 
ATOM     64  C   UNL A   1      42.789  29.527  34.694  1.00  0.00     0.034 A 
BRANCH  51  65
ATOM     65  C   UNL A   1      40.487  27.936  29.184  1.00  0.00     0.023 A 
ATOM     66  C   UNL A   1      39.606  26.840  29.072  1.00  0.00     0.012 A 
ATOM     67  C   UNL A   1      41.390  28.207  28.139  1.00  0.00     0.148 A 
ATOM     68  C   UNL A   1      39.647  26.007  27.955  1.00  0.00     0.002 A 
ATOM     69  C   UNL A   1      41.395  27.397  27.008  1.00  0.00     0.091 A 
ATOM     70  F   UNL A   1      42.233  29.241  28.272  1.00  0.00    -0.205 F 
ATOM     71  C   UNL A   1      40.533  26.291  26.919  1.00  0.00     0.022 A 
BRANCH  69  72
ATOM     72  S   UNL A   1      42.445  27.721  25.587  1.00  0.00     0.127 S 
ATOM     73  O   UNL A   1      41.838  28.935  25.043  1.00  0.00    -0.237 OA
ATOM     74  O   UNL A   1      43.754  27.922  26.211  1.00  0.00    -0.237 OA
ATOM     75  O   UNL A   1      42.351  26.541  24.740  1.00  0.00    -0.744 OA
ENDBRANCH  69  72
ENDBRANCH  51  65
BRANCH  52  76
ATOM     76  C   UNL A   1      39.392  33.922  37.113  1.00  0.00     0.023 A 
ATOM     77  C   UNL A   1      39.853  35.251  37.063  1.00  0.00     0.012 A 
ATOM     78  C   UNL A   1      38.772  33.454  38.288  1.00  0.00     0.148 A 
ATOM     79  C   UNL A   1      39.736  36.089  38.174  1.00  0.00     0.002 A 
ATOM     80  C   UNL A   1      38.610  34.310  39.372  1.00  0.00     0.091 A 
ATOM     81  F   UNL A   1      38.352  32.181  38.322  1.00  0.00    -0.205 F 
ATOM     82  C   UNL A   1      39.106  35.622  39.324  1.00  0.00     0.022 A 
BRANCH  80  83
ATOM     83  S   UNL A   1      37.699  33.828  40.845  1.00  0.00     0.127 S 
ATOM     84  O   UNL A   1      38.638  32.915  41.491  1.00  0.00    -0.237 OA
ATOM     85  O   UNL A   1      37.521  35.112  41.524  1.00  0.00    -0.237 OA
ATOM     86  O   UNL A   1      36.462  33.233  40.359  1.00  0.00    -0.744 OA
ENDBRANCH  80  83
ENDBRANCH  52  76
BRANCH  64  87
ATOM     87  C   UNL A   1      43.979  28.946  35.411  1.00  0.00     0.023 A 
ATOM     88  C   UNL A   1      45.252  29.522  35.233  1.00  0.00     0.012 A 
ATOM     89  C   UNL A   1      43.822  27.879  36.317  1.00  0.00     0.148 A 
ATOM     90  C   UNL A   1      46.356  29.026  35.923  1.00  0.00     0.002 A 
ATOM     91  C   UNL A   1      44.919  27.421  37.038  1.00  0.00     0.091 A 
ATOM     92  F   UNL A   1      42.606  27.332  36.458  1.00  0.00    -0.205 F 
ATOM     93  C   UNL A   1      46.189  27.985  36.833  1.00  0.00     0.022 A 
BRANCH  91  94
ATOM     94  S   UNL A   1      44.777  26.151  38.300  1.00  0.00     0.127 S 
ATOM     95  O   UNL A   1      43.962  25.145  37.621  1.00  0.00    -0.237 OA
ATOM     96  O   UNL A   1      46.173  25.765  38.511  1.00  0.00    -0.237 OA
ATOM     97  O   UNL A   1      44.150  26.794  39.447  1.00  0.00    -0.744 OA
ENDBRANCH  91  94
ENDBRANCH  64  87
ENDBRANCH  38  39
ENDBRANCH  30  33
ENDBRANCH  28  29
ENDBRANCH   1  28
TORSDOF 18
ENDMDL
