MODEL 1
REMARK VINA RESULT:     -11.7      0.000      0.000
REMARK SMILES CC(C)C(=O)Nc1ccc(NC(=O)[C@@H]2[C@@H](C(=O)NCCCCNC(=O)c3ccc(-c4c5nc(c(-c6cccc(S(=O)(=O)[O-])c6F)c6ccc([nH]6)c(-c6cccc(S(=O)(=O)[O-])c6F)c6nc(c(-c7cccc(S(=O)(=O)[O-])c7F)c7ccc4[nH]7)C=C6)C=C5)cc3)C2(C)C)cc1Cl
REMARK SMILES IDX 20 1 19 2 18 3 16 4 17 5 15 7 14 8 89 9 90 10 91 11 12 12
REMARK SMILES IDX 11 13 13 15 10 16 7 17 8 18 93 19 9 20 92 21 94 22 6 23 4 24
REMARK SMILES IDX 5 25 2 27 1 28 3 29 21 30 22 31 23 32 24 33 25 35 26 36
REMARK SMILES IDX 27 37 88 38 28 39 87 40 29 41 30 42 31 43 81 44 32 45 86 46
REMARK SMILES IDX 80 47 82 48 33 49 85 50 79 51 78 52 34 54 66 55 46 56 65 57
REMARK SMILES IDX 47 58 50 59 64 60 83 61 48 62 49 63 63 65 84 66 51 67 35 68
REMARK SMILES IDX 36 69 44 70 37 71 39 72 45 73 38 74 40 75 41 76 42 77 43 78
REMARK SMILES IDX 67 79 68 80 76 81 69 82 71 83 77 84 70 85 72 86 73 87 74 88
REMARK SMILES IDX 75 89 52 90 53 91 61 92 54 93 56 94 62 95 55 96 57 97 58 98
REMARK SMILES IDX 59 99 60 100
REMARK H PARENT 18 6 11 14 6 26 23 34 82 53 50 64
REMARK Flexibility Score: inf
ROOT
ATOM      1  C   UNL A   1      38.153  22.450  25.214  1.00  0.00     0.023 C 
ENDROOT
BRANCH   1   2
ATOM      2  C   UNL A   1      36.718  22.824  24.844  1.00  0.00     0.116 C 
BRANCH   2   3
ATOM      3  N   UNL A   1      35.770  22.386  25.846  1.00  0.00    -0.356 N 
ATOM      4  C   UNL A   1      34.409  22.385  25.960  1.00  0.00     0.224 C 
ATOM      5  O   UNL A   1      33.945  22.001  27.029  1.00  0.00    -0.275 OA
ATOM      6  H   UNL A   1      36.212  21.996  26.635  1.00  0.00     0.163 HD
BRANCH   4   7
ATOM      7  C   UNL A   1      33.437  22.802  24.915  1.00  0.00     0.098 C 
ATOM      8  C   UNL A   1      33.472  23.943  23.942  1.00  0.00     0.098 C 
ATOM      9  C   UNL A   1      32.484  23.972  25.127  1.00  0.00    -0.011 C 
ATOM     10  C   UNL A   1      32.740  24.963  26.242  1.00  0.00     0.013 C 
ATOM     11  C   UNL A   1      31.014  23.681  24.920  1.00  0.00     0.013 C 
BRANCH   8  12
ATOM     12  C   UNL A   1      33.071  23.721  22.527  1.00  0.00     0.228 C 
ATOM     13  N   UNL A   1      32.776  24.777  21.692  1.00  0.00    -0.326 N 
ATOM     14  H   UNL A   1      32.683  24.530  20.744  1.00  0.00     0.169 HD
ATOM     15  O   UNL A   1      33.044  22.579  22.077  1.00  0.00    -0.274 OA
BRANCH  13  16
ATOM     16  C   UNL A   1      32.585  26.144  21.955  1.00  0.00     0.042 A 
ATOM     17  C   UNL A   1      32.123  28.561  23.269  1.00  0.00     0.060 A 
ATOM     18  C   UNL A   1      33.398  28.254  22.807  1.00  0.00     0.030 A 
ATOM     19  C   UNL A   1      31.056  27.835  22.742  1.00  0.00     0.066 A 
ATOM     20  C   UNL A   1      33.611  27.066  22.108  1.00  0.00     0.028 A 
ATOM     21  C   UNL A   1      31.281  26.591  22.144  1.00  0.00     0.048 A 
ATOM     22  Cl  UNL A   1      29.499  28.556  22.528  1.00  0.00    -0.082 Cl
BRANCH  17  23
ATOM     23  N   UNL A   1      32.023  29.610  24.191  1.00  0.00    -0.325 N 
ATOM     24  C   UNL A   1      32.113  29.635  25.553  1.00  0.00     0.226 C 
ATOM     25  O   UNL A   1      31.941  30.742  26.085  1.00  0.00    -0.274 OA
ATOM     26  H   UNL A   1      31.859  30.491  23.783  1.00  0.00     0.169 HD
BRANCH  24  27
ATOM     27  C   UNL A   1      32.541  28.457  26.446  1.00  0.00     0.072 C 
ATOM     28  C   UNL A   1      33.981  28.456  26.923  1.00  0.00     0.018 C 
ATOM     29  C   UNL A   1      31.567  28.139  27.577  1.00  0.00     0.018 C 
ENDBRANCH  24  27
ENDBRANCH  17  23
ENDBRANCH  13  16
ENDBRANCH   8  12
ENDBRANCH   4   7
ENDBRANCH   2   3
ENDBRANCH   1   2
BRANCH   1  30
ATOM     30  C   UNL A   1      38.395  20.958  25.397  1.00  0.00     0.023 C 
BRANCH  30  31
ATOM     31  C   UNL A   1      39.362  20.606  26.517  1.00  0.00     0.116 C 
BRANCH  31  32
ATOM     32  N   UNL A   1      40.280  19.530  26.159  1.00  0.00    -0.352 N 
ATOM     33  C   UNL A   1      41.636  19.597  25.944  1.00  0.00     0.251 C 
ATOM     34  H   UNL A   1      39.875  18.639  26.058  1.00  0.00     0.163 HD
ATOM     35  O   UNL A   1      42.243  18.625  25.508  1.00  0.00    -0.269 OA
BRANCH  33  36
ATOM     36  C   UNL A   1      42.338  20.868  26.215  1.00  0.00     0.039 A 
ATOM     37  C   UNL A   1      42.619  21.730  25.154  1.00  0.00     0.014 A 
ATOM     38  C   UNL A   1      42.654  21.229  27.527  1.00  0.00     0.014 A 
ATOM     39  C   UNL A   1      43.154  22.991  25.421  1.00  0.00     0.010 A 
ATOM     40  C   UNL A   1      43.094  22.519  27.796  1.00  0.00     0.010 A 
ATOM     41  C   UNL A   1      43.356  23.412  26.746  1.00  0.00    -0.014 A 
BRANCH  41  42
ATOM     42  C   UNL A   1      43.845  24.778  27.059  1.00  0.00     0.031 A 
ATOM     43  C   UNL A   1      42.893  25.810  27.604  1.00  0.00     0.074 A 
ATOM     44  C   UNL A   1      45.123  25.112  26.784  1.00  0.00     0.049 A 
ATOM     45  N   UNL A   1      43.109  27.069  27.875  1.00  0.00    -0.248 NA
ATOM     46  C   UNL A   1      41.506  25.376  27.852  1.00  0.00     0.031 C 
ATOM     47  C   UNL A   1      46.123  24.223  26.185  1.00  0.00     0.029 A 
ATOM     48  N   UNL A   1      45.795  26.297  26.952  1.00  0.00    -0.354 N 
ATOM     49  C   UNL A   1      41.890  27.581  28.304  1.00  0.00     0.074 A 
ATOM     50  C   UNL A   1      40.922  26.513  28.205  1.00  0.00     0.031 C 
ATOM     51  C   UNL A   1      47.281  24.890  26.048  1.00  0.00     0.029 A 
ATOM     52  C   UNL A   1      47.100  26.260  26.512  1.00  0.00     0.049 A 
ATOM     53  H   UNL A   1      45.384  27.097  27.350  1.00  0.00     0.167 HD
ATOM     54  C   UNL A   1      41.607  28.817  28.777  1.00  0.00     0.034 A 
ATOM     55  C   UNL A   1      48.038  27.228  26.480  1.00  0.00     0.034 A 
ATOM     56  C   UNL A   1      42.578  29.868  28.909  1.00  0.00     0.049 A 
ATOM     57  C   UNL A   1      47.693  28.591  27.020  1.00  0.00     0.074 A 
ATOM     58  C   UNL A   1      42.404  31.140  29.424  1.00  0.00     0.029 A 
ATOM     59  N   UNL A   1      43.907  29.769  28.525  1.00  0.00    -0.354 N 
ATOM     60  N   UNL A   1      46.569  29.012  27.548  1.00  0.00    -0.248 NA
ATOM     61  C   UNL A   1      48.758  29.604  26.994  1.00  0.00     0.031 C 
ATOM     62  C   UNL A   1      43.624  31.817  29.335  1.00  0.00     0.029 A 
ATOM     63  C   UNL A   1      44.565  30.956  28.794  1.00  0.00     0.049 A 
ATOM     64  H   UNL A   1      44.319  28.973  28.121  1.00  0.00     0.167 HD
ATOM     65  C   UNL A   1      46.808  30.318  27.959  1.00  0.00     0.074 A 
ATOM     66  C   UNL A   1      48.190  30.611  27.640  1.00  0.00     0.031 C 
ATOM     67  C   UNL A   1      45.958  31.205  28.533  1.00  0.00     0.034 A 
BRANCH  54  68
ATOM     68  C   UNL A   1      40.205  29.079  29.261  1.00  0.00     0.023 A 
ATOM     69  C   UNL A   1      39.197  29.379  28.320  1.00  0.00     0.012 A 
ATOM     70  C   UNL A   1      39.865  28.959  30.622  1.00  0.00     0.148 A 
ATOM     71  C   UNL A   1      37.880  29.581  28.729  1.00  0.00     0.002 A 
ATOM     72  C   UNL A   1      38.542  29.115  31.016  1.00  0.00     0.091 A 
ATOM     73  F   UNL A   1      40.840  28.691  31.502  1.00  0.00    -0.205 F 
ATOM     74  C   UNL A   1      37.552  29.438  30.073  1.00  0.00     0.022 A 
BRANCH  72  75
ATOM     75  S   UNL A   1      37.994  28.876  32.710  1.00  0.00     0.127 S 
ATOM     76  O   UNL A   1      36.608  29.337  32.639  1.00  0.00    -0.237 OA
ATOM     77  O   UNL A   1      38.148  27.431  32.878  1.00  0.00    -0.237 OA
ATOM     78  O   UNL A   1      38.874  29.687  33.538  1.00  0.00    -0.744 OA
ENDBRANCH  72  75
ENDBRANCH  54  68
BRANCH  55  79
ATOM     79  C   UNL A   1      49.409  26.944  25.967  1.00  0.00     0.023 A 
ATOM     80  C   UNL A   1      50.373  26.389  26.834  1.00  0.00     0.012 A 
ATOM     81  C   UNL A   1      49.776  27.245  24.641  1.00  0.00     0.148 A 
ATOM     82  C   UNL A   1      51.687  26.194  26.408  1.00  0.00     0.002 A 
ATOM     83  C   UNL A   1      51.072  26.991  24.206  1.00  0.00     0.091 A 
ATOM     84  F   UNL A   1      48.852  27.782  23.832  1.00  0.00    -0.205 F 
ATOM     85  C   UNL A   1      52.035  26.489  25.094  1.00  0.00     0.022 A 
BRANCH  83  86
ATOM     86  S   UNL A   1      51.568  27.220  22.495  1.00  0.00     0.127 S 
ATOM     87  O   UNL A   1      52.794  26.429  22.431  1.00  0.00    -0.237 OA
ATOM     88  O   UNL A   1      50.430  26.655  21.769  1.00  0.00    -0.237 OA
ATOM     89  O   UNL A   1      51.727  28.658  22.327  1.00  0.00    -0.744 OA
ENDBRANCH  83  86
ENDBRANCH  55  79
BRANCH  67  90
ATOM     90  C   UNL A   1      46.508  32.553  28.916  1.00  0.00     0.023 A 
ATOM     91  C   UNL A   1      47.107  32.740  30.177  1.00  0.00     0.012 A 
ATOM     92  C   UNL A   1      46.491  33.618  27.993  1.00  0.00     0.148 A 
ATOM     93  C   UNL A   1      47.645  33.976  30.530  1.00  0.00     0.002 A 
ATOM     94  C   UNL A   1      47.077  34.831  28.331  1.00  0.00     0.091 A 
ATOM     95  F   UNL A   1      45.903  33.424  26.805  1.00  0.00    -0.205 F 
ATOM     96  C   UNL A   1      47.640  35.017  29.604  1.00  0.00     0.022 A 
BRANCH  94  97
ATOM     97  S   UNL A   1      47.210  36.194  27.170  1.00  0.00     0.127 S 
ATOM     98  O   UNL A   1      47.983  37.167  27.939  1.00  0.00    -0.237 OA
ATOM     99  O   UNL A   1      47.934  35.582  26.055  1.00  0.00    -0.237 OA
ATOM    100  O   UNL A   1      45.843  36.592  26.858  1.00  0.00    -0.744 OA
ENDBRANCH  94  97
ENDBRANCH  67  90
ENDBRANCH  41  42
ENDBRANCH  33  36
ENDBRANCH  31  32
ENDBRANCH  30  31
ENDBRANCH   1  30
TORSDOF 18
ENDMDL
MODEL 2
REMARK VINA RESULT:     -11.3      1.775      7.782
REMARK SMILES CC(C)C(=O)Nc1ccc(NC(=O)[C@@H]2[C@@H](C(=O)NCCCCNC(=O)c3ccc(-c4c5nc(c(-c6cccc(S(=O)(=O)[O-])c6F)c6ccc([nH]6)c(-c6cccc(S(=O)(=O)[O-])c6F)c6nc(c(-c7cccc(S(=O)(=O)[O-])c7F)c7ccc4[nH]7)C=C6)C=C5)cc3)C2(C)C)cc1Cl
REMARK SMILES IDX 20 1 19 2 18 3 16 4 17 5 15 7 14 8 89 9 90 10 91 11 12 12
REMARK SMILES IDX 11 13 13 15 10 16 7 17 8 18 93 19 9 20 92 21 94 22 6 23 4 24
REMARK SMILES IDX 5 25 2 27 1 28 3 29 21 30 22 31 23 32 24 33 25 35 26 36
REMARK SMILES IDX 27 37 88 38 28 39 87 40 29 41 30 42 31 43 81 44 32 45 86 46
REMARK SMILES IDX 80 47 82 48 33 49 85 50 79 51 78 52 34 54 66 55 46 56 65 57
REMARK SMILES IDX 47 58 50 59 64 60 83 61 48 62 49 63 63 65 84 66 51 67 35 68
REMARK SMILES IDX 36 69 44 70 37 71 39 72 45 73 38 74 40 75 41 76 42 77 43 78
REMARK SMILES IDX 67 79 68 80 76 81 69 82 71 83 77 84 70 85 72 86 73 87 74 88
REMARK SMILES IDX 75 89 52 90 53 91 61 92 54 93 56 94 62 95 55 96 57 97 58 98
REMARK SMILES IDX 59 99 60 100
REMARK H PARENT 18 6 11 14 6 26 23 34 82 53 50 64
REMARK Flexibility Score: inf
ROOT
ATOM      1  C   UNL A   1      35.292  21.151  24.721  1.00  0.00     0.023 C 
ENDROOT
BRANCH   1   2
ATOM      2  C   UNL A   1      34.012  20.378  25.037  1.00  0.00     0.116 C 
BRANCH   2   3
ATOM      3  N   UNL A   1      33.136  21.120  25.917  1.00  0.00    -0.356 N 
ATOM      4  C   UNL A   1      32.323  22.211  25.785  1.00  0.00     0.224 C 
ATOM      5  O   UNL A   1      31.784  22.624  26.807  1.00  0.00    -0.275 OA
ATOM      6  H   UNL A   1      33.122  20.752  26.831  1.00  0.00     0.163 HD
BRANCH   4   7
ATOM      7  C   UNL A   1      32.030  22.943  24.526  1.00  0.00     0.098 C 
ATOM      8  C   UNL A   1      32.779  24.042  23.832  1.00  0.00     0.098 C 
ATOM      9  C   UNL A   1      31.439  24.348  24.533  1.00  0.00    -0.011 C 
ATOM     10  C   UNL A   1      31.471  25.175  25.799  1.00  0.00     0.013 C 
ATOM     11  C   UNL A   1      30.170  24.542  23.733  1.00  0.00     0.013 C 
BRANCH   8  12
ATOM     12  C   UNL A   1      32.958  23.998  22.356  1.00  0.00     0.228 C 
ATOM     13  N   UNL A   1      33.056  25.154  21.612  1.00  0.00    -0.326 N 
ATOM     14  H   UNL A   1      33.333  25.013  20.678  1.00  0.00     0.169 HD
ATOM     15  O   UNL A   1      33.063  22.914  21.790  1.00  0.00    -0.274 OA
BRANCH  13  16
ATOM     16  C   UNL A   1      32.833  26.499  21.951  1.00  0.00     0.042 A 
ATOM     17  C   UNL A   1      32.204  28.815  23.375  1.00  0.00     0.060 A 
ATOM     18  C   UNL A   1      33.528  28.531  23.059  1.00  0.00     0.030 A 
ATOM     19  C   UNL A   1      31.215  28.141  22.660  1.00  0.00     0.066 A 
ATOM     20  C   UNL A   1      33.830  27.397  22.305  1.00  0.00     0.028 A 
ATOM     21  C   UNL A   1      31.515  26.943  22.003  1.00  0.00     0.048 A 
ATOM     22  Cl  UNL A   1      29.698  28.891  22.302  1.00  0.00    -0.082 Cl
BRANCH  17  23
ATOM     23  N   UNL A   1      31.985  29.792  24.353  1.00  0.00    -0.325 N 
ATOM     24  C   UNL A   1      31.931  29.719  25.715  1.00  0.00     0.226 C 
ATOM     25  O   UNL A   1      31.680  30.781  26.303  1.00  0.00    -0.274 OA
ATOM     26  H   UNL A   1      31.845  30.698  23.993  1.00  0.00     0.169 HD
BRANCH  24  27
ATOM     27  C   UNL A   1      32.290  28.485  26.562  1.00  0.00     0.072 C 
ATOM     28  C   UNL A   1      33.765  28.254  26.832  1.00  0.00     0.018 C 
ATOM     29  C   UNL A   1      31.448  28.324  27.825  1.00  0.00     0.018 C 
ENDBRANCH  24  27
ENDBRANCH  17  23
ENDBRANCH  13  16
ENDBRANCH   8  12
ENDBRANCH   4   7
ENDBRANCH   2   3
ENDBRANCH   1   2
BRANCH   1  30
ATOM     30  C   UNL A   1      35.631  22.255  25.715  1.00  0.00     0.023 C 
BRANCH  30  31
ATOM     31  C   UNL A   1      37.082  22.711  25.684  1.00  0.00     0.116 C 
BRANCH  31  32
ATOM     32  N   UNL A   1      38.025  21.623  25.917  1.00  0.00    -0.352 N 
ATOM     33  C   UNL A   1      39.321  21.696  26.370  1.00  0.00     0.251 C 
ATOM     34  H   UNL A   1      37.690  20.718  25.726  1.00  0.00     0.163 HD
ATOM     35  O   UNL A   1      40.032  20.697  26.377  1.00  0.00    -0.269 OA
BRANCH  33  36
ATOM     36  C   UNL A   1      39.849  23.002  26.813  1.00  0.00     0.039 A 
ATOM     37  C   UNL A   1      40.826  23.039  27.809  1.00  0.00     0.014 A 
ATOM     38  C   UNL A   1      39.422  24.179  26.193  1.00  0.00     0.014 A 
ATOM     39  C   UNL A   1      41.429  24.255  28.131  1.00  0.00     0.010 A 
ATOM     40  C   UNL A   1      40.092  25.370  26.447  1.00  0.00     0.010 A 
ATOM     41  C   UNL A   1      41.097  25.423  27.424  1.00  0.00    -0.014 A 
BRANCH  41  42
ATOM     42  C   UNL A   1      41.783  26.712  27.691  1.00  0.00     0.031 A 
ATOM     43  C   UNL A   1      43.190  26.929  27.200  1.00  0.00     0.074 A 
ATOM     44  C   UNL A   1      41.171  27.656  28.435  1.00  0.00     0.049 A 
ATOM     45  N   UNL A   1      43.980  27.953  27.388  1.00  0.00    -0.248 NA
ATOM     46  C   UNL A   1      43.802  25.841  26.416  1.00  0.00     0.031 C 
ATOM     47  C   UNL A   1      39.837  27.533  29.032  1.00  0.00     0.029 A 
ATOM     48  N   UNL A   1      41.599  28.896  28.839  1.00  0.00    -0.354 N 
ATOM     49  C   UNL A   1      45.180  27.627  26.768  1.00  0.00     0.074 A 
ATOM     50  C   UNL A   1      45.038  26.287  26.244  1.00  0.00     0.031 C 
ATOM     51  C   UNL A   1      39.553  28.657  29.712  1.00  0.00     0.029 A 
ATOM     52  C   UNL A   1      40.694  29.563  29.634  1.00  0.00     0.049 A 
ATOM     53  H   UNL A   1      42.471  29.274  28.582  1.00  0.00     0.167 HD
ATOM     54  C   UNL A   1      46.289  28.386  26.610  1.00  0.00     0.034 A 
ATOM     55  C   UNL A   1      40.781  30.765  30.237  1.00  0.00     0.034 A 
ATOM     56  C   UNL A   1      46.417  29.731  27.101  1.00  0.00     0.049 A 
ATOM     57  C   UNL A   1      42.026  31.588  30.037  1.00  0.00     0.074 A 
ATOM     58  C   UNL A   1      47.480  30.604  26.950  1.00  0.00     0.029 A 
ATOM     59  N   UNL A   1      45.450  30.400  27.834  1.00  0.00    -0.354 N 
ATOM     60  N   UNL A   1      43.095  31.314  29.331  1.00  0.00    -0.248 NA
ATOM     61  C   UNL A   1      42.061  32.906  30.689  1.00  0.00     0.031 C 
ATOM     62  C   UNL A   1      47.162  31.795  27.609  1.00  0.00     0.029 A 
ATOM     63  C   UNL A   1      45.890  31.675  28.142  1.00  0.00     0.049 A 
ATOM     64  H   UNL A   1      44.580  30.023  28.098  1.00  0.00     0.167 HD
ATOM     65  C   UNL A   1      43.905  32.440  29.413  1.00  0.00     0.074 A 
ATOM     66  C   UNL A   1      43.193  33.410  30.219  1.00  0.00     0.031 C 
ATOM     67  C   UNL A   1      45.137  32.650  28.886  1.00  0.00     0.034 A 
BRANCH  54  68
ATOM     68  C   UNL A   1      47.428  27.809  25.811  1.00  0.00     0.023 A 
ATOM     69  C   UNL A   1      48.386  27.002  26.461  1.00  0.00     0.012 A 
ATOM     70  C   UNL A   1      47.514  27.997  24.418  1.00  0.00     0.148 A 
ATOM     71  C   UNL A   1      49.425  26.414  25.742  1.00  0.00     0.002 A 
ATOM     72  C   UNL A   1      48.526  27.370  23.702  1.00  0.00     0.091 A 
ATOM     73  F   UNL A   1      46.604  28.782  23.823  1.00  0.00    -0.205 F 
ATOM     74  C   UNL A   1      49.488  26.589  24.363  1.00  0.00     0.022 A 
BRANCH  72  75
ATOM     75  S   UNL A   1      48.656  27.464  21.913  1.00  0.00     0.127 S 
ATOM     76  O   UNL A   1      47.353  28.021  21.552  1.00  0.00    -0.237 OA
ATOM     77  O   UNL A   1      49.781  28.382  21.737  1.00  0.00    -0.237 OA
ATOM     78  O   UNL A   1      48.896  26.104  21.453  1.00  0.00    -0.744 OA
ENDBRANCH  72  75
ENDBRANCH  54  68
BRANCH  55  79
ATOM     79  C   UNL A   1      39.646  31.295  31.047  1.00  0.00     0.023 A 
ATOM     80  C   UNL A   1      38.571  31.935  30.399  1.00  0.00     0.012 A 
ATOM     81  C   UNL A   1      39.638  31.200  32.452  1.00  0.00     0.148 A 
ATOM     82  C   UNL A   1      37.539  32.518  31.135  1.00  0.00     0.002 A 
ATOM     83  C   UNL A   1      38.576  31.730  33.177  1.00  0.00     0.091 A 
ATOM     84  F   UNL A   1      40.673  30.598  33.056  1.00  0.00    -0.205 F 
ATOM     85  C   UNL A   1      37.538  32.410  32.522  1.00  0.00     0.022 A 
BRANCH  83  86
ATOM     86  S   UNL A   1      38.432  31.522  34.954  1.00  0.00     0.127 S 
ATOM     87  O   UNL A   1      39.594  32.262  35.438  1.00  0.00    -0.237 OA
ATOM     88  O   UNL A   1      37.139  32.151  35.231  1.00  0.00    -0.237 OA
ATOM     89  O   UNL A   1      38.453  30.083  35.179  1.00  0.00    -0.744 OA
ENDBRANCH  83  86
ENDBRANCH  55  79
BRANCH  67  90
ATOM     90  C   UNL A   1      45.769  34.000  29.103  1.00  0.00     0.023 A 
ATOM     91  C   UNL A   1      46.526  34.247  30.265  1.00  0.00     0.012 A 
ATOM     92  C   UNL A   1      45.666  35.002  28.118  1.00  0.00     0.148 A 
ATOM     93  C   UNL A   1      47.139  35.483  30.462  1.00  0.00     0.002 A 
ATOM     94  C   UNL A   1      46.324  36.212  28.296  1.00  0.00     0.091 A 
ATOM     95  F   UNL A   1      44.928  34.753  27.027  1.00  0.00    -0.205 F 
ATOM     96  C   UNL A   1      47.048  36.460  29.474  1.00  0.00     0.022 A 
BRANCH  94  97
ATOM     97  S   UNL A   1      46.348  37.491  27.035  1.00  0.00     0.127 S 
ATOM     98  O   UNL A   1      44.946  37.900  26.999  1.00  0.00    -0.237 OA
ATOM     99  O   UNL A   1      47.258  38.480  27.615  1.00  0.00    -0.237 OA
ATOM    100  O   UNL A   1      46.842  36.853  25.822  1.00  0.00    -0.744 OA
ENDBRANCH  94  97
ENDBRANCH  67  90
ENDBRANCH  41  42
ENDBRANCH  33  36
ENDBRANCH  31  32
ENDBRANCH  30  31
ENDBRANCH   1  30
TORSDOF 18
ENDMDL
MODEL 3
REMARK VINA RESULT:     -11.0      3.268      8.077
REMARK SMILES CC(C)C(=O)Nc1ccc(NC(=O)[C@@H]2[C@@H](C(=O)NCCCCNC(=O)c3ccc(-c4c5nc(c(-c6cccc(S(=O)(=O)[O-])c6F)c6ccc([nH]6)c(-c6cccc(S(=O)(=O)[O-])c6F)c6nc(c(-c7cccc(S(=O)(=O)[O-])c7F)c7ccc4[nH]7)C=C6)C=C5)cc3)C2(C)C)cc1Cl
REMARK SMILES IDX 20 1 19 2 18 3 16 4 17 5 15 7 14 8 89 9 90 10 91 11 12 12
REMARK SMILES IDX 11 13 13 15 10 16 7 17 8 18 93 19 9 20 92 21 94 22 6 23 4 24
REMARK SMILES IDX 5 25 2 27 1 28 3 29 21 30 22 31 23 32 24 33 25 35 26 36
REMARK SMILES IDX 27 37 88 38 28 39 87 40 29 41 30 42 31 43 81 44 32 45 86 46
REMARK SMILES IDX 80 47 82 48 33 49 85 50 79 51 78 52 34 54 66 55 46 56 65 57
REMARK SMILES IDX 47 58 50 59 64 60 83 61 48 62 49 63 63 65 84 66 51 67 35 68
REMARK SMILES IDX 36 69 44 70 37 71 39 72 45 73 38 74 40 75 41 76 42 77 43 78
REMARK SMILES IDX 67 79 68 80 76 81 69 82 71 83 77 84 70 85 72 86 73 87 74 88
REMARK SMILES IDX 75 89 52 90 53 91 61 92 54 93 56 94 62 95 55 96 57 97 58 98
REMARK SMILES IDX 59 99 60 100
REMARK H PARENT 18 6 11 14 6 26 23 34 82 53 50 64
REMARK Flexibility Score: inf
ROOT
ATOM      1  C   UNL A   1      36.051  22.058  24.503  1.00  0.00     0.023 C 
ENDROOT
BRANCH   1   2
ATOM      2  C   UNL A   1      35.079  20.902  24.739  1.00  0.00     0.116 C 
BRANCH   2   3
ATOM      3  N   UNL A   1      33.969  21.294  25.580  1.00  0.00    -0.356 N 
ATOM      4  C   UNL A   1      32.888  22.118  25.439  1.00  0.00     0.224 C 
ATOM      5  O   UNL A   1      32.184  22.279  26.431  1.00  0.00    -0.275 OA
ATOM      6  H   UNL A   1      34.000  20.866  26.466  1.00  0.00     0.163 HD
BRANCH   4   7
ATOM      7  C   UNL A   1      32.482  22.835  24.202  1.00  0.00     0.098 C 
ATOM      8  C   UNL A   1      32.946  24.141  23.629  1.00  0.00     0.098 C 
ATOM      9  C   UNL A   1      31.534  24.028  24.240  1.00  0.00    -0.011 C 
ATOM     10  C   UNL A   1      31.267  24.739  25.548  1.00  0.00     0.013 C 
ATOM     11  C   UNL A   1      30.310  23.935  23.357  1.00  0.00     0.013 C 
BRANCH   8  12
ATOM     12  C   UNL A   1      33.217  24.254  22.170  1.00  0.00     0.228 C 
ATOM     13  N   UNL A   1      33.282  25.482  21.547  1.00  0.00    -0.326 N 
ATOM     14  H   UNL A   1      33.624  25.450  20.625  1.00  0.00     0.169 HD
ATOM     15  O   UNL A   1      33.430  23.239  21.513  1.00  0.00    -0.274 OA
BRANCH  13  16
ATOM     16  C   UNL A   1      32.947  26.770  21.995  1.00  0.00     0.042 A 
ATOM     17  C   UNL A   1      32.257  28.922  23.632  1.00  0.00     0.060 A 
ATOM     18  C   UNL A   1      33.544  28.828  23.114  1.00  0.00     0.030 A 
ATOM     19  C   UNL A   1      31.263  28.155  23.027  1.00  0.00     0.066 A 
ATOM     20  C   UNL A   1      33.868  27.776  22.257  1.00  0.00     0.028 A 
ATOM     21  C   UNL A   1      31.607  27.035  22.262  1.00  0.00     0.048 A 
ATOM     22  Cl  UNL A   1      29.629  28.714  22.935  1.00  0.00    -0.082 Cl
BRANCH  17  23
ATOM     23  N   UNL A   1      32.068  29.820  24.689  1.00  0.00    -0.325 N 
ATOM     24  C   UNL A   1      32.610  29.879  25.941  1.00  0.00     0.226 C 
ATOM     25  O   UNL A   1      32.200  30.799  26.664  1.00  0.00    -0.274 OA
ATOM     26  H   UNL A   1      31.427  30.542  24.494  1.00  0.00     0.169 HD
BRANCH  24  27
ATOM     27  C   UNL A   1      33.763  29.003  26.461  1.00  0.00     0.072 C 
ATOM     28  C   UNL A   1      34.542  29.541  27.647  1.00  0.00     0.018 C 
ATOM     29  C   UNL A   1      33.404  27.530  26.637  1.00  0.00     0.018 C 
ENDBRANCH  24  27
ENDBRANCH  17  23
ENDBRANCH  13  16
ENDBRANCH   8  12
ENDBRANCH   4   7
ENDBRANCH   2   3
ENDBRANCH   1   2
BRANCH   1  30
ATOM     30  C   UNL A   1      36.378  22.879  25.743  1.00  0.00     0.023 C 
BRANCH  30  31
ATOM     31  C   UNL A   1      37.841  23.276  25.873  1.00  0.00     0.116 C 
BRANCH  31  32
ATOM     32  N   UNL A   1      38.662  22.229  26.471  1.00  0.00    -0.352 N 
ATOM     33  C   UNL A   1      39.873  22.352  27.109  1.00  0.00     0.251 C 
ATOM     34  H   UNL A   1      38.302  21.316  26.410  1.00  0.00     0.163 HD
ATOM     35  O   UNL A   1      40.507  21.353  27.433  1.00  0.00    -0.269 OA
BRANCH  33  36
ATOM     36  C   UNL A   1      40.410  23.704  27.366  1.00  0.00     0.039 A 
ATOM     37  C   UNL A   1      40.118  24.734  26.470  1.00  0.00     0.014 A 
ATOM     38  C   UNL A   1      41.143  23.959  28.527  1.00  0.00     0.014 A 
ATOM     39  C   UNL A   1      40.502  26.039  26.780  1.00  0.00     0.010 A 
ATOM     40  C   UNL A   1      41.437  25.271  28.878  1.00  0.00     0.010 A 
ATOM     41  C   UNL A   1      41.127  26.324  28.006  1.00  0.00    -0.014 A 
BRANCH  41  42
ATOM     42  C   UNL A   1      41.470  27.715  28.395  1.00  0.00     0.031 A 
ATOM     43  C   UNL A   1      42.908  28.166  28.377  1.00  0.00     0.074 A 
ATOM     44  C   UNL A   1      40.503  28.547  28.833  1.00  0.00     0.049 A 
ATOM     45  N   UNL A   1      43.416  29.312  28.744  1.00  0.00    -0.248 NA
ATOM     46  C   UNL A   1      43.910  27.190  27.912  1.00  0.00     0.031 C 
ATOM     47  C   UNL A   1      39.085  28.204  28.967  1.00  0.00     0.029 A 
ATOM     48  N   UNL A   1      40.570  29.847  29.269  1.00  0.00    -0.354 N 
ATOM     49  C   UNL A   1      44.790  29.191  28.574  1.00  0.00     0.074 A 
ATOM     50  C   UNL A   1      45.045  27.841  28.124  1.00  0.00     0.031 C 
ATOM     51  C   UNL A   1      38.415  29.269  29.439  1.00  0.00     0.029 A 
ATOM     52  C   UNL A   1      39.358  30.357  29.677  1.00  0.00     0.049 A 
ATOM     53  H   UNL A   1      41.405  30.367  29.287  1.00  0.00     0.167 HD
ATOM     54  C   UNL A   1      45.753  30.128  28.737  1.00  0.00     0.034 A 
ATOM     55  C   UNL A   1      39.046  31.562  30.193  1.00  0.00     0.034 A 
ATOM     56  C   UNL A   1      45.494  31.480  29.149  1.00  0.00     0.049 A 
ATOM     57  C   UNL A   1      40.140  32.586  30.356  1.00  0.00     0.074 A 
ATOM     58  C   UNL A   1      46.394  32.521  29.296  1.00  0.00     0.029 A 
ATOM     59  N   UNL A   1      44.245  31.981  29.480  1.00  0.00    -0.354 N 
ATOM     60  N   UNL A   1      41.413  32.492  30.059  1.00  0.00    -0.248 NA
ATOM     61  C   UNL A   1      39.745  33.897  30.893  1.00  0.00     0.031 C 
ATOM     62  C   UNL A   1      45.690  33.647  29.733  1.00  0.00     0.029 A 
ATOM     63  C   UNL A   1      44.348  33.316  29.828  1.00  0.00     0.049 A 
ATOM     64  H   UNL A   1      43.408  31.462  29.469  1.00  0.00     0.167 HD
ATOM     65  C   UNL A   1      41.959  33.742  30.325  1.00  0.00     0.074 A 
ATOM     66  C   UNL A   1      40.874  34.583  30.786  1.00  0.00     0.031 C 
ATOM     67  C   UNL A   1      43.246  34.155  30.216  1.00  0.00     0.034 A 
BRANCH  54  68
ATOM     68  C   UNL A   1      47.169  29.747  28.394  1.00  0.00     0.023 A 
ATOM     69  C   UNL A   1      47.634  29.937  27.076  1.00  0.00     0.012 A 
ATOM     70  C   UNL A   1      48.059  29.277  29.380  1.00  0.00     0.148 A 
ATOM     71  C   UNL A   1      48.952  29.639  26.736  1.00  0.00     0.002 A 
ATOM     72  C   UNL A   1      49.384  29.026  29.044  1.00  0.00     0.091 A 
ATOM     73  F   UNL A   1      47.593  29.087  30.622  1.00  0.00    -0.205 F 
ATOM     74  C   UNL A   1      49.828  29.195  27.722  1.00  0.00     0.022 A 
BRANCH  72  75
ATOM     75  S   UNL A   1      50.617  28.527  30.251  1.00  0.00     0.127 S 
ATOM     76  O   UNL A   1      50.630  29.678  31.153  1.00  0.00    -0.237 OA
ATOM     77  O   UNL A   1      50.017  27.317  30.815  1.00  0.00    -0.237 OA
ATOM     78  O   UNL A   1      51.848  28.310  29.506  1.00  0.00    -0.744 OA
ENDBRANCH  72  75
ENDBRANCH  54  68
BRANCH  55  79
ATOM     79  C   UNL A   1      37.637  31.899  30.550  1.00  0.00     0.023 A 
ATOM     80  C   UNL A   1      37.112  31.464  31.783  1.00  0.00     0.012 A 
ATOM     81  C   UNL A   1      36.807  32.617  29.668  1.00  0.00     0.148 A 
ATOM     82  C   UNL A   1      35.773  31.688  32.107  1.00  0.00     0.002 A 
ATOM     83  C   UNL A   1      35.490  32.889  30.023  1.00  0.00     0.091 A 
ATOM     84  F   UNL A   1      37.317  33.014  28.494  1.00  0.00    -0.205 F 
ATOM     85  C   UNL A   1      34.965  32.405  31.231  1.00  0.00     0.022 A 
BRANCH  83  86
ATOM     86  S   UNL A   1      34.419  33.916  29.012  1.00  0.00     0.127 S 
ATOM     87  O   UNL A   1      34.065  33.003  27.929  1.00  0.00    -0.237 OA
ATOM     88  O   UNL A   1      33.330  34.226  29.940  1.00  0.00    -0.237 OA
ATOM     89  O   UNL A   1      35.228  35.068  28.638  1.00  0.00    -0.744 OA
ENDBRANCH  83  86
ENDBRANCH  55  79
BRANCH  67  90
ATOM     90  C   UNL A   1      43.546  35.596  30.537  1.00  0.00     0.023 A 
ATOM     91  C   UNL A   1      43.997  35.954  31.822  1.00  0.00     0.012 A 
ATOM     92  C   UNL A   1      43.446  36.584  29.537  1.00  0.00     0.148 A 
ATOM     93  C   UNL A   1      44.305  37.280  32.120  1.00  0.00     0.002 A 
ATOM     94  C   UNL A   1      43.807  37.893  29.826  1.00  0.00     0.091 A 
ATOM     95  F   UNL A   1      43.001  36.224  28.325  1.00  0.00    -0.205 F 
ATOM     96  C   UNL A   1      44.221  38.246  31.120  1.00  0.00     0.022 A 
BRANCH  94  97
ATOM     97  S   UNL A   1      43.828  39.185  28.578  1.00  0.00     0.127 S 
ATOM     98  O   UNL A   1      44.308  40.333  29.346  1.00  0.00    -0.237 OA
ATOM     99  O   UNL A   1      44.786  38.659  27.605  1.00  0.00    -0.237 OA
ATOM    100  O   UNL A   1      42.461  39.293  28.086  1.00  0.00    -0.744 OA
ENDBRANCH  94  97
ENDBRANCH  67  90
ENDBRANCH  41  42
ENDBRANCH  33  36
ENDBRANCH  31  32
ENDBRANCH  30  31
ENDBRANCH   1  30
TORSDOF 18
ENDMDL
