MODEL 1
REMARK VINA RESULT:     -11.2      0.000      0.000
REMARK SMILES O=C(/C=C\c1ccc([N+](=O)[O-])cc1)NCCCCNC(=O)c1ccc(-c2c3nc(c(-c4cccc(S(=O)(=O)[O-])c4F)c4ccc([nH]4)c(-c4cccc(S(=O)(=O)[O-])c4F)c4nc(c(-c5cccc(S(=O)(=O)[O-])c5F)c5ccc2[nH]5)C=C4)C=C3)cc1
REMARK SMILES IDX 17 1 16 2 15 3 14 4 1 5 2 6 3 8 4 9 5 10 6 11 13 12 7 13
REMARK SMILES IDX 12 14 8 15 9 16 10 17 11 18 18 19 19 20 20 21 21 23 22 24
REMARK SMILES IDX 23 25 84 26 24 27 83 28 25 29 26 30 27 31 77 32 28 33 82 34
REMARK SMILES IDX 76 35 78 36 29 37 81 38 75 39 74 40 30 42 62 43 42 44 61 45
REMARK SMILES IDX 43 46 46 47 60 48 79 49 44 50 45 51 59 53 80 54 47 55 31 56
REMARK SMILES IDX 32 57 40 58 33 59 35 60 41 61 34 62 36 63 37 64 38 65 39 66
REMARK SMILES IDX 63 67 64 68 72 69 65 70 67 71 73 72 66 73 68 74 69 75 70 76
REMARK SMILES IDX 71 77 48 78 49 79 57 80 50 81 52 82 58 83 51 84 53 85 54 86
REMARK SMILES IDX 55 87 56 88
REMARK H PARENT 14 7 19 22 78 41 46 52
REMARK Flexibility Score: inf
ROOT
ATOM      1  C   UNL A   1      38.234  19.834  24.911  1.00  0.00     0.023 C 
ENDROOT
BRANCH   1   2
ATOM      2  C   UNL A   1      37.188  20.907  24.599  1.00  0.00     0.023 C 
BRANCH   2   3
ATOM      3  C   UNL A   1      36.797  21.808  25.772  1.00  0.00     0.116 C 
BRANCH   3   4
ATOM      4  N   UNL A   1      35.363  21.926  25.963  1.00  0.00    -0.353 N 
ATOM      5  O   UNL A   1      34.994  23.358  24.211  1.00  0.00    -0.270 OA
ATOM      6  C   UNL A   1      34.572  22.696  25.155  1.00  0.00     0.243 C 
ATOM      7  H   UNL A   1      34.943  21.431  26.703  1.00  0.00     0.163 HD
BRANCH   6   8
ATOM      8  C   UNL A   1      33.101  22.633  25.384  1.00  0.00     0.072 C 
ATOM      9  C   UNL A   1      32.218  21.624  25.292  1.00  0.00     0.014 C 
BRANCH   9  10
ATOM     10  C   UNL A   1      32.484  20.233  24.934  1.00  0.00    -0.025 A 
ATOM     11  C   UNL A   1      32.407  19.843  23.591  1.00  0.00     0.015 A 
ATOM     12  C   UNL A   1      32.823  19.291  25.913  1.00  0.00     0.015 A 
ATOM     13  C   UNL A   1      32.738  18.539  23.216  1.00  0.00     0.086 A 
ATOM     14  C   UNL A   1      33.144  17.980  25.548  1.00  0.00     0.086 A 
ATOM     15  C   UNL A   1      33.130  17.620  24.197  1.00  0.00     0.269 A 
BRANCH  15  16
ATOM     16  N   UNL A   1      33.634  16.303  23.792  1.00  0.00     0.062 N 
ATOM     17  O   UNL A   1      33.403  15.351  24.547  1.00  0.00    -0.258 OA
ATOM     18  O   UNL A   1      34.159  16.221  22.673  1.00  0.00    -0.258 OA
ENDBRANCH  15  16
ENDBRANCH   9  10
ENDBRANCH   6   8
ENDBRANCH   3   4
ENDBRANCH   2   3
ENDBRANCH   1   2
BRANCH   1  19
ATOM     19  C   UNL A   1      39.300  20.204  25.939  1.00  0.00     0.116 C 
BRANCH  19  20
ATOM     20  N   UNL A   1      40.370  19.224  26.012  1.00  0.00    -0.352 N 
ATOM     21  C   UNL A   1      41.726  19.409  26.150  1.00  0.00     0.251 C 
ATOM     22  H   UNL A   1      40.079  18.285  25.954  1.00  0.00     0.163 HD
ATOM     23  O   UNL A   1      42.475  18.443  26.013  1.00  0.00    -0.269 OA
BRANCH  21  24
ATOM     24  C   UNL A   1      42.303  20.748  26.442  1.00  0.00     0.039 A 
ATOM     25  C   UNL A   1      42.650  21.577  25.370  1.00  0.00     0.014 A 
ATOM     26  C   UNL A   1      42.553  21.179  27.747  1.00  0.00     0.014 A 
ATOM     27  C   UNL A   1      43.186  22.851  25.606  1.00  0.00     0.010 A 
ATOM     28  C   UNL A   1      43.023  22.476  27.980  1.00  0.00     0.010 A 
ATOM     29  C   UNL A   1      43.346  23.333  26.916  1.00  0.00    -0.014 A 
BRANCH  29  30
ATOM     30  C   UNL A   1      43.828  24.723  27.178  1.00  0.00     0.031 A 
ATOM     31  C   UNL A   1      42.902  25.777  27.735  1.00  0.00     0.074 A 
ATOM     32  C   UNL A   1      45.091  25.072  26.853  1.00  0.00     0.049 A 
ATOM     33  N   UNL A   1      43.143  27.041  27.991  1.00  0.00    -0.248 NA
ATOM     34  C   UNL A   1      41.519  25.368  28.024  1.00  0.00     0.031 C 
ATOM     35  C   UNL A   1      46.076  24.191  26.223  1.00  0.00     0.029 A 
ATOM     36  N   UNL A   1      45.757  26.269  26.984  1.00  0.00    -0.354 N 
ATOM     37  C   UNL A   1      41.939  27.582  28.425  1.00  0.00     0.074 A 
ATOM     38  C   UNL A   1      40.959  26.518  28.372  1.00  0.00     0.031 C 
ATOM     39  C   UNL A   1      47.218  24.870  26.033  1.00  0.00     0.029 A 
ATOM     40  C   UNL A   1      47.042  26.245  26.491  1.00  0.00     0.049 A 
ATOM     41  H   UNL A   1      45.351  27.069  27.392  1.00  0.00     0.167 HD
ATOM     42  C   UNL A   1      41.671  28.839  28.860  1.00  0.00     0.034 A 
ATOM     43  C   UNL A   1      47.973  27.217  26.404  1.00  0.00     0.034 A 
ATOM     44  C   UNL A   1      42.648  29.891  28.963  1.00  0.00     0.049 A 
ATOM     45  C   UNL A   1      47.666  28.592  26.937  1.00  0.00     0.074 A 
ATOM     46  C   UNL A   1      42.485  31.168  29.477  1.00  0.00     0.029 A 
ATOM     47  N   UNL A   1      43.964  29.799  28.540  1.00  0.00    -0.354 N 
ATOM     48  N   UNL A   1      46.567  29.035  27.495  1.00  0.00    -0.248 NA
ATOM     49  C   UNL A   1      48.743  29.591  26.861  1.00  0.00     0.031 C 
ATOM     50  C   UNL A   1      43.697  31.853  29.342  1.00  0.00     0.029 A 
ATOM     51  C   UNL A   1      44.623  30.995  28.773  1.00  0.00     0.049 A 
ATOM     52  H   UNL A   1      44.370  28.999  28.132  1.00  0.00     0.167 HD
ATOM     53  C   UNL A   1      46.831  30.350  27.867  1.00  0.00     0.074 A 
ATOM     54  C   UNL A   1      48.202  30.624  27.492  1.00  0.00     0.031 C 
ATOM     55  C   UNL A   1      46.004  31.251  28.451  1.00  0.00     0.034 A 
BRANCH  42  56
ATOM     56  C   UNL A   1      40.265  29.135  29.321  1.00  0.00     0.023 A 
ATOM     57  C   UNL A   1      39.298  29.543  28.379  1.00  0.00     0.012 A 
ATOM     58  C   UNL A   1      39.883  28.953  30.666  1.00  0.00     0.148 A 
ATOM     59  C   UNL A   1      37.986  29.805  28.772  1.00  0.00     0.002 A 
ATOM     60  C   UNL A   1      38.562  29.171  31.042  1.00  0.00     0.091 A 
ATOM     61  F   UNL A   1      40.817  28.578  31.552  1.00  0.00    -0.205 F 
ATOM     62  C   UNL A   1      37.616  29.609  30.100  1.00  0.00     0.022 A 
BRANCH  60  63
ATOM     63  S   UNL A   1      37.964  28.869  32.709  1.00  0.00     0.127 S 
ATOM     64  O   UNL A   1      36.593  29.370  32.626  1.00  0.00    -0.237 OA
ATOM     65  O   UNL A   1      38.076  27.415  32.819  1.00  0.00    -0.237 OA
ATOM     66  O   UNL A   1      38.850  29.615  33.594  1.00  0.00    -0.744 OA
ENDBRANCH  60  63
ENDBRANCH  42  56
BRANCH  43  67
ATOM     67  C   UNL A   1      49.317  26.909  25.833  1.00  0.00     0.023 A 
ATOM     68  C   UNL A   1      50.268  26.238  26.627  1.00  0.00     0.012 A 
ATOM     69  C   UNL A   1      49.649  27.257  24.510  1.00  0.00     0.148 A 
ATOM     70  C   UNL A   1      51.538  25.952  26.125  1.00  0.00     0.002 A 
ATOM     71  C   UNL A   1      50.895  26.916  23.997  1.00  0.00     0.091 A 
ATOM     72  F   UNL A   1      48.735  27.907  23.775  1.00  0.00    -0.205 F 
ATOM     73  C   UNL A   1      51.848  26.281  24.809  1.00  0.00     0.022 A 
BRANCH  71  74
ATOM     74  S   UNL A   1      51.336  27.185  22.276  1.00  0.00     0.127 S 
ATOM     75  O   UNL A   1      52.578  26.426  22.163  1.00  0.00    -0.237 OA
ATOM     76  O   UNL A   1      50.191  26.601  21.577  1.00  0.00    -0.237 OA
ATOM     77  O   UNL A   1      51.462  28.628  22.120  1.00  0.00    -0.744 OA
ENDBRANCH  71  74
ENDBRANCH  43  67
BRANCH  55  78
ATOM     78  C   UNL A   1      46.557  32.618  28.767  1.00  0.00     0.023 A 
ATOM     79  C   UNL A   1      47.197  32.849  30.002  1.00  0.00     0.012 A 
ATOM     80  C   UNL A   1      46.511  33.652  27.811  1.00  0.00     0.148 A 
ATOM     81  C   UNL A   1      47.752  34.096  30.292  1.00  0.00     0.002 A 
ATOM     82  C   UNL A   1      47.109  34.876  28.088  1.00  0.00     0.091 A 
ATOM     83  F   UNL A   1      45.884  33.421  26.649  1.00  0.00    -0.205 F 
ATOM     84  C   UNL A   1      47.719  35.104  29.332  1.00  0.00     0.022 A 
BRANCH  82  85
ATOM     85  S   UNL A   1      47.200  36.203  26.879  1.00  0.00     0.127 S 
ATOM     86  O   UNL A   1      47.959  37.218  27.606  1.00  0.00    -0.237 OA
ATOM     87  O   UNL A   1      47.927  35.570  25.777  1.00  0.00    -0.237 OA
ATOM     88  O   UNL A   1      45.821  36.558  26.567  1.00  0.00    -0.744 OA
ENDBRANCH  82  85
ENDBRANCH  55  78
ENDBRANCH  29  30
ENDBRANCH  21  24
ENDBRANCH  19  20
ENDBRANCH   1  19
TORSDOF 16
ENDMDL
MODEL 2
REMARK VINA RESULT:     -11.0      6.067      9.013
REMARK SMILES O=C(/C=C\c1ccc([N+](=O)[O-])cc1)NCCCCNC(=O)c1ccc(-c2c3nc(c(-c4cccc(S(=O)(=O)[O-])c4F)c4ccc([nH]4)c(-c4cccc(S(=O)(=O)[O-])c4F)c4nc(c(-c5cccc(S(=O)(=O)[O-])c5F)c5ccc2[nH]5)C=C4)C=C3)cc1
REMARK SMILES IDX 17 1 16 2 15 3 14 4 1 5 2 6 3 8 4 9 5 10 6 11 13 12 7 13
REMARK SMILES IDX 12 14 8 15 9 16 10 17 11 18 18 19 19 20 20 21 21 23 22 24
REMARK SMILES IDX 23 25 84 26 24 27 83 28 25 29 26 30 27 31 77 32 28 33 82 34
REMARK SMILES IDX 76 35 78 36 29 37 81 38 75 39 74 40 30 42 62 43 42 44 61 45
REMARK SMILES IDX 43 46 46 47 60 48 79 49 44 50 45 51 59 53 80 54 47 55 31 56
REMARK SMILES IDX 32 57 40 58 33 59 35 60 41 61 34 62 36 63 37 64 38 65 39 66
REMARK SMILES IDX 63 67 64 68 72 69 65 70 67 71 73 72 66 73 68 74 69 75 70 76
REMARK SMILES IDX 71 77 48 78 49 79 57 80 50 81 52 82 58 83 51 84 53 85 54 86
REMARK SMILES IDX 55 87 56 88
REMARK H PARENT 14 7 19 22 78 41 46 52
REMARK Flexibility Score: inf
ROOT
ATOM      1  C   UNL A   1      31.820  28.386  25.244  1.00  0.00     0.023 C 
ENDROOT
BRANCH   1   2
ATOM      2  C   UNL A   1      30.703  28.654  24.232  1.00  0.00     0.023 C 
BRANCH   2   3
ATOM      3  C   UNL A   1      31.163  28.922  22.797  1.00  0.00     0.116 C 
BRANCH   3   4
ATOM      4  N   UNL A   1      31.482  27.718  22.053  1.00  0.00    -0.353 N 
ATOM      5  O   UNL A   1      33.758  27.883  22.273  1.00  0.00    -0.270 OA
ATOM      6  C   UNL A   1      32.768  27.292  21.855  1.00  0.00     0.243 C 
ATOM      7  H   UNL A   1      30.745  27.185  21.677  1.00  0.00     0.163 HD
BRANCH   6   8
ATOM      8  C   UNL A   1      32.951  25.976  21.180  1.00  0.00     0.072 C 
ATOM      9  C   UNL A   1      32.788  24.714  21.610  1.00  0.00     0.014 C 
BRANCH   9  10
ATOM     10  C   UNL A   1      32.348  24.267  22.930  1.00  0.00    -0.025 A 
ATOM     11  C   UNL A   1      33.273  23.671  23.796  1.00  0.00     0.015 A 
ATOM     12  C   UNL A   1      31.021  24.439  23.340  1.00  0.00     0.015 A 
ATOM     13  C   UNL A   1      32.894  23.312  25.092  1.00  0.00     0.086 A 
ATOM     14  C   UNL A   1      30.630  24.072  24.631  1.00  0.00     0.086 A 
ATOM     15  C   UNL A   1      31.578  23.539  25.511  1.00  0.00     0.269 A 
BRANCH  15  16
ATOM     16  N   UNL A   1      31.220  23.318  26.916  1.00  0.00     0.062 N 
ATOM     17  O   UNL A   1      32.125  22.970  27.684  1.00  0.00    -0.258 OA
ATOM     18  O   UNL A   1      30.061  23.599  27.253  1.00  0.00    -0.258 OA
ENDBRANCH  15  16
ENDBRANCH   9  10
ENDBRANCH   6   8
ENDBRANCH   3   4
ENDBRANCH   2   3
ENDBRANCH   1   2
BRANCH   1  19
ATOM     19  C   UNL A   1      32.974  29.383  25.259  1.00  0.00     0.116 C 
BRANCH  19  20
ATOM     20  N   UNL A   1      32.595  30.670  25.815  1.00  0.00    -0.352 N 
ATOM     21  C   UNL A   1      33.124  31.360  26.882  1.00  0.00     0.251 C 
ATOM     22  H   UNL A   1      31.844  31.115  25.360  1.00  0.00     0.163 HD
ATOM     23  O   UNL A   1      32.536  32.358  27.295  1.00  0.00    -0.269 OA
BRANCH  21  24
ATOM     24  C   UNL A   1      34.376  30.918  27.549  1.00  0.00     0.039 A 
ATOM     25  C   UNL A   1      35.384  31.862  27.777  1.00  0.00     0.014 A 
ATOM     26  C   UNL A   1      34.595  29.586  27.908  1.00  0.00     0.014 A 
ATOM     27  C   UNL A   1      36.575  31.485  28.414  1.00  0.00     0.010 A 
ATOM     28  C   UNL A   1      35.755  29.228  28.605  1.00  0.00     0.010 A 
ATOM     29  C   UNL A   1      36.762  30.170  28.870  1.00  0.00    -0.014 A 
BRANCH  29  30
ATOM     30  C   UNL A   1      37.986  29.779  29.634  1.00  0.00     0.031 A 
ATOM     31  C   UNL A   1      38.235  30.299  31.029  1.00  0.00     0.074 A 
ATOM     32  C   UNL A   1      38.926  29.004  29.051  1.00  0.00     0.049 A 
ATOM     33  N   UNL A   1      39.259  30.091  31.821  1.00  0.00    -0.248 NA
ATOM     34  C   UNL A   1      37.212  31.185  31.605  1.00  0.00     0.031 C 
ATOM     35  C   UNL A   1      38.872  28.499  27.678  1.00  0.00     0.029 A 
ATOM     36  N   UNL A   1      40.122  28.524  29.531  1.00  0.00    -0.354 N 
ATOM     37  C   UNL A   1      39.025  30.850  32.961  1.00  0.00     0.074 A 
ATOM     38  C   UNL A   1      37.775  31.549  32.748  1.00  0.00     0.031 C 
ATOM     39  C   UNL A   1      39.975  27.774  27.431  1.00  0.00     0.029 A 
ATOM     40  C   UNL A   1      40.835  27.790  28.610  1.00  0.00     0.049 A 
ATOM     41  H   UNL A   1      40.439  28.690  30.450  1.00  0.00     0.167 HD
ATOM     42  C   UNL A   1      39.760  30.940  34.097  1.00  0.00     0.034 A 
ATOM     43  C   UNL A   1      42.047  27.205  28.694  1.00  0.00     0.034 A 
ATOM     44  C   UNL A   1      40.979  30.214  34.339  1.00  0.00     0.049 A 
ATOM     45  C   UNL A   1      42.823  27.280  29.983  1.00  0.00     0.074 A 
ATOM     46  C   UNL A   1      41.742  30.175  35.495  1.00  0.00     0.029 A 
ATOM     47  N   UNL A   1      41.621  29.407  33.413  1.00  0.00    -0.354 N 
ATOM     48  N   UNL A   1      42.502  27.872  31.107  1.00  0.00    -0.248 NA
ATOM     49  C   UNL A   1      44.113  26.574  30.027  1.00  0.00     0.031 C 
ATOM     50  C   UNL A   1      42.856  29.364  35.259  1.00  0.00     0.029 A 
ATOM     51  C   UNL A   1      42.773  28.872  33.966  1.00  0.00     0.049 A 
ATOM     52  H   UNL A   1      41.304  29.239  32.496  1.00  0.00     0.167 HD
ATOM     53  C   UNL A   1      43.530  27.581  31.999  1.00  0.00     0.074 A 
ATOM     54  C   UNL A   1      44.473  26.741  31.292  1.00  0.00     0.031 C 
ATOM     55  C   UNL A   1      43.683  27.990  33.282  1.00  0.00     0.034 A 
BRANCH  42  56
ATOM     56  C   UNL A   1      39.233  31.819  35.205  1.00  0.00     0.023 A 
ATOM     57  C   UNL A   1      38.261  31.310  36.091  1.00  0.00     0.012 A 
ATOM     58  C   UNL A   1      39.737  33.120  35.409  1.00  0.00     0.148 A 
ATOM     59  C   UNL A   1      37.769  32.092  37.136  1.00  0.00     0.002 A 
ATOM     60  C   UNL A   1      39.276  33.877  36.481  1.00  0.00     0.091 A 
ATOM     61  F   UNL A   1      40.650  33.594  34.549  1.00  0.00    -0.205 F 
ATOM     62  C   UNL A   1      38.284  33.370  37.336  1.00  0.00     0.022 A 
BRANCH  60  63
ATOM     63  S   UNL A   1      39.932  35.502  36.875  1.00  0.00     0.127 S 
ATOM     64  O   UNL A   1      39.181  35.838  38.084  1.00  0.00    -0.237 OA
ATOM     65  O   UNL A   1      41.349  35.219  37.097  1.00  0.00    -0.237 OA
ATOM     66  O   UNL A   1      39.655  36.340  35.714  1.00  0.00    -0.744 OA
ENDBRANCH  60  63
ENDBRANCH  42  56
BRANCH  43  67
ATOM     67  C   UNL A   1      42.585  26.440  27.531  1.00  0.00     0.023 A 
ATOM     68  C   UNL A   1      43.469  27.073  26.636  1.00  0.00     0.012 A 
ATOM     69  C   UNL A   1      42.243  25.090  27.320  1.00  0.00     0.148 A 
ATOM     70  C   UNL A   1      43.974  26.387  25.531  1.00  0.00     0.002 A 
ATOM     71  C   UNL A   1      42.795  24.395  26.251  1.00  0.00     0.091 A 
ATOM     72  F   UNL A   1      41.389  24.510  28.176  1.00  0.00    -0.205 F 
ATOM     73  C   UNL A   1      43.646  25.047  25.344  1.00  0.00     0.022 A 
BRANCH  71  74
ATOM     74  S   UNL A   1      42.532  22.635  26.005  1.00  0.00     0.127 S 
ATOM     75  O   UNL A   1      43.065  22.437  24.661  1.00  0.00    -0.237 OA
ATOM     76  O   UNL A   1      43.339  22.057  27.079  1.00  0.00    -0.237 OA
ATOM     77  O   UNL A   1      41.098  22.425  26.152  1.00  0.00    -0.744 OA
ENDBRANCH  71  74
ENDBRANCH  43  67
BRANCH  55  78
ATOM     78  C   UNL A   1      44.896  27.508  34.037  1.00  0.00     0.023 A 
ATOM     79  C   UNL A   1      46.065  28.296  34.069  1.00  0.00     0.012 A 
ATOM     80  C   UNL A   1      44.854  26.310  34.778  1.00  0.00     0.148 A 
ATOM     81  C   UNL A   1      47.181  27.884  34.798  1.00  0.00     0.002 A 
ATOM     82  C   UNL A   1      45.952  25.930  35.542  1.00  0.00     0.091 A 
ATOM     83  F   UNL A   1      43.742  25.563  34.724  1.00  0.00    -0.205 F 
ATOM     84  C   UNL A   1      47.120  26.709  35.543  1.00  0.00     0.022 A 
BRANCH  82  85
ATOM     85  S   UNL A   1      45.933  24.484  36.609  1.00  0.00     0.127 S 
ATOM     86  O   UNL A   1      45.880  23.396  35.635  1.00  0.00    -0.237 OA
ATOM     87  O   UNL A   1      47.207  24.606  37.319  1.00  0.00    -0.237 OA
ATOM     88  O   UNL A   1      44.755  24.624  37.455  1.00  0.00    -0.744 OA
ENDBRANCH  82  85
ENDBRANCH  55  78
ENDBRANCH  29  30
ENDBRANCH  21  24
ENDBRANCH  19  20
ENDBRANCH   1  19
TORSDOF 16
ENDMDL
MODEL 3
REMARK VINA RESULT:     -11.0      5.528      8.756
REMARK SMILES O=C(/C=C\c1ccc([N+](=O)[O-])cc1)NCCCCNC(=O)c1ccc(-c2c3nc(c(-c4cccc(S(=O)(=O)[O-])c4F)c4ccc([nH]4)c(-c4cccc(S(=O)(=O)[O-])c4F)c4nc(c(-c5cccc(S(=O)(=O)[O-])c5F)c5ccc2[nH]5)C=C4)C=C3)cc1
REMARK SMILES IDX 17 1 16 2 15 3 14 4 1 5 2 6 3 8 4 9 5 10 6 11 13 12 7 13
REMARK SMILES IDX 12 14 8 15 9 16 10 17 11 18 18 19 19 20 20 21 21 23 22 24
REMARK SMILES IDX 23 25 84 26 24 27 83 28 25 29 26 30 27 31 77 32 28 33 82 34
REMARK SMILES IDX 76 35 78 36 29 37 81 38 75 39 74 40 30 42 62 43 42 44 61 45
REMARK SMILES IDX 43 46 46 47 60 48 79 49 44 50 45 51 59 53 80 54 47 55 31 56
REMARK SMILES IDX 32 57 40 58 33 59 35 60 41 61 34 62 36 63 37 64 38 65 39 66
REMARK SMILES IDX 63 67 64 68 72 69 65 70 67 71 73 72 66 73 68 74 69 75 70 76
REMARK SMILES IDX 71 77 48 78 49 79 57 80 50 81 52 82 58 83 51 84 53 85 54 86
REMARK SMILES IDX 55 87 56 88
REMARK H PARENT 14 7 19 22 78 41 46 52
REMARK Flexibility Score: inf
ROOT
ATOM      1  C   UNL A   1      33.130  28.166  27.138  1.00  0.00     0.023 C 
ENDROOT
BRANCH   1   2
ATOM      2  C   UNL A   1      31.729  27.705  26.728  1.00  0.00     0.023 C 
BRANCH   2   3
ATOM      3  C   UNL A   1      31.607  26.232  26.334  1.00  0.00     0.116 C 
BRANCH   3   4
ATOM      4  N   UNL A   1      32.672  25.773  25.461  1.00  0.00    -0.353 N 
ATOM      5  O   UNL A   1      31.373  25.529  23.588  1.00  0.00    -0.270 OA
ATOM      6  C   UNL A   1      32.464  25.461  24.145  1.00  0.00     0.243 C 
ATOM      7  H   UNL A   1      33.580  25.685  25.829  1.00  0.00     0.163 HD
BRANCH   6   8
ATOM      8  C   UNL A   1      33.664  25.120  23.330  1.00  0.00     0.072 C 
ATOM      9  C   UNL A   1      34.309  23.961  23.118  1.00  0.00     0.014 C 
BRANCH   9  10
ATOM     10  C   UNL A   1      33.977  22.642  23.651  1.00  0.00    -0.025 A 
ATOM     11  C   UNL A   1      32.808  22.002  23.220  1.00  0.00     0.015 A 
ATOM     12  C   UNL A   1      34.815  22.008  24.576  1.00  0.00     0.015 A 
ATOM     13  C   UNL A   1      32.513  20.707  23.653  1.00  0.00     0.086 A 
ATOM     14  C   UNL A   1      34.522  20.716  25.024  1.00  0.00     0.086 A 
ATOM     15  C   UNL A   1      33.388  20.060  24.534  1.00  0.00     0.269 A 
BRANCH  15  16
ATOM     16  N   UNL A   1      33.170  18.647  24.861  1.00  0.00     0.062 N 
ATOM     17  O   UNL A   1      34.106  17.866  24.652  1.00  0.00    -0.258 OA
ATOM     18  O   UNL A   1      32.103  18.356  25.420  1.00  0.00    -0.258 OA
ENDBRANCH  15  16
ENDBRANCH   9  10
ENDBRANCH   6   8
ENDBRANCH   3   4
ENDBRANCH   2   3
ENDBRANCH   1   2
BRANCH   1  19
ATOM     19  C   UNL A   1      33.815  29.163  26.209  1.00  0.00     0.116 C 
BRANCH  19  20
ATOM     20  N   UNL A   1      33.789  30.520  26.728  1.00  0.00    -0.352 N 
ATOM     21  C   UNL A   1      34.595  31.119  27.669  1.00  0.00     0.251 C 
ATOM     22  H   UNL A   1      33.087  31.098  26.349  1.00  0.00     0.163 HD
ATOM     23  O   UNL A   1      34.289  32.232  28.093  1.00  0.00    -0.269 OA
BRANCH  21  24
ATOM     24  C   UNL A   1      35.813  30.445  28.191  1.00  0.00     0.039 A 
ATOM     25  C   UNL A   1      36.997  30.531  27.449  1.00  0.00     0.014 A 
ATOM     26  C   UNL A   1      35.798  29.693  29.367  1.00  0.00     0.014 A 
ATOM     27  C   UNL A   1      38.168  29.918  27.914  1.00  0.00     0.010 A 
ATOM     28  C   UNL A   1      36.984  29.141  29.864  1.00  0.00     0.010 A 
ATOM     29  C   UNL A   1      38.188  29.245  29.147  1.00  0.00    -0.014 A 
BRANCH  29  30
ATOM     30  C   UNL A   1      39.453  28.669  29.698  1.00  0.00     0.031 A 
ATOM     31  C   UNL A   1      40.114  29.263  30.918  1.00  0.00     0.074 A 
ATOM     32  C   UNL A   1      40.059  27.644  29.064  1.00  0.00     0.049 A 
ATOM     33  N   UNL A   1      41.230  28.913  31.509  1.00  0.00    -0.248 NA
ATOM     34  C   UNL A   1      39.448  30.414  31.546  1.00  0.00     0.031 C 
ATOM     35  C   UNL A   1      39.592  27.022  27.823  1.00  0.00     0.029 A 
ATOM     36  N   UNL A   1      41.215  26.958  29.360  1.00  0.00    -0.354 N 
ATOM     37  C   UNL A   1      41.421  29.821  32.544  1.00  0.00     0.074 A 
ATOM     38  C   UNL A   1      40.320  30.759  32.483  1.00  0.00     0.031 C 
ATOM     39  C   UNL A   1      40.442  26.044  27.473  1.00  0.00     0.029 A 
ATOM     40  C   UNL A   1      41.536  25.988  28.438  1.00  0.00     0.049 A 
ATOM     41  H   UNL A   1      41.761  27.144  30.159  1.00  0.00     0.167 HD
ATOM     42  C   UNL A   1      42.401  29.861  33.481  1.00  0.00     0.034 A 
ATOM     43  C   UNL A   1      42.594  25.155  28.364  1.00  0.00     0.034 A 
ATOM     44  C   UNL A   1      43.473  28.907  33.580  1.00  0.00     0.049 A 
ATOM     45  C   UNL A   1      43.644  25.187  29.442  1.00  0.00     0.074 A 
ATOM     46  C   UNL A   1      44.458  28.818  34.550  1.00  0.00     0.029 A 
ATOM     47  N   UNL A   1      43.711  27.882  32.678  1.00  0.00    -0.354 N 
ATOM     48  N   UNL A   1      43.715  25.952  30.504  1.00  0.00    -0.248 NA
ATOM     49  C   UNL A   1      44.743  24.215  29.332  1.00  0.00     0.031 C 
ATOM     50  C   UNL A   1      45.304  27.754  34.220  1.00  0.00     0.029 A 
ATOM     51  C   UNL A   1      44.829  27.160  33.063  1.00  0.00     0.049 A 
ATOM     52  H   UNL A   1      43.165  27.695  31.880  1.00  0.00     0.167 HD
ATOM     53  C   UNL A   1      44.842  25.531  31.204  1.00  0.00     0.074 A 
ATOM     54  C   UNL A   1      45.410  24.429  30.457  1.00  0.00     0.031 C 
ATOM     55  C   UNL A   1      45.364  26.028  32.351  1.00  0.00     0.034 A 
BRANCH  42  56
ATOM     56  C   UNL A   1      42.327  30.949  34.525  1.00  0.00     0.023 A 
ATOM     57  C   UNL A   1      41.682  30.691  35.751  1.00  0.00     0.012 A 
ATOM     58  C   UNL A   1      42.945  32.199  34.321  1.00  0.00     0.148 A 
ATOM     59  C   UNL A   1      41.615  31.670  36.742  1.00  0.00     0.002 A 
ATOM     60  C   UNL A   1      42.916  33.155  35.331  1.00  0.00     0.091 A 
ATOM     61  F   UNL A   1      43.543  32.434  33.144  1.00  0.00    -0.205 F 
ATOM     62  C   UNL A   1      42.240  32.896  36.536  1.00  0.00     0.022 A 
BRANCH  60  63
ATOM     63  S   UNL A   1      43.759  34.736  35.199  1.00  0.00     0.127 S 
ATOM     64  O   UNL A   1      43.442  35.348  36.488  1.00  0.00    -0.237 OA
ATOM     65  O   UNL A   1      45.156  34.329  35.044  1.00  0.00    -0.237 OA
ATOM     66  O   UNL A   1      43.188  35.400  34.034  1.00  0.00    -0.744 OA
ENDBRANCH  60  63
ENDBRANCH  42  56
BRANCH  43  67
ATOM     67  C   UNL A   1      42.686  24.169  27.247  1.00  0.00     0.023 A 
ATOM     68  C   UNL A   1      43.409  24.505  26.085  1.00  0.00     0.012 A 
ATOM     69  C   UNL A   1      42.083  22.900  27.337  1.00  0.00     0.148 A 
ATOM     70  C   UNL A   1      43.498  23.610  25.019  1.00  0.00     0.002 A 
ATOM     71  C   UNL A   1      42.225  21.990  26.296  1.00  0.00     0.091 A 
ATOM     72  F   UNL A   1      41.389  22.604  28.445  1.00  0.00    -0.205 F 
ATOM     73  C   UNL A   1      42.916  22.350  25.128  1.00  0.00     0.022 A 
BRANCH  71  74
ATOM     74  S   UNL A   1      41.620  20.302  26.401  1.00  0.00     0.127 S 
ATOM     75  O   UNL A   1      42.331  19.660  25.300  1.00  0.00    -0.237 OA
ATOM     76  O   UNL A   1      42.066  19.905  27.737  1.00  0.00    -0.237 OA
ATOM     77  O   UNL A   1      40.173  20.390  26.253  1.00  0.00    -0.744 OA
ENDBRANCH  71  74
ENDBRANCH  43  67
BRANCH  55  78
ATOM     78  C   UNL A   1      46.598  25.365  32.911  1.00  0.00     0.023 A 
ATOM     79  C   UNL A   1      47.876  25.845  32.558  1.00  0.00     0.012 A 
ATOM     80  C   UNL A   1      46.491  24.315  33.845  1.00  0.00     0.148 A 
ATOM     81  C   UNL A   1      49.026  25.270  33.100  1.00  0.00     0.002 A 
ATOM     82  C   UNL A   1      47.638  23.780  34.418  1.00  0.00     0.091 A 
ATOM     83  F   UNL A   1      45.269  23.859  34.157  1.00  0.00    -0.205 F 
ATOM     84  C   UNL A   1      48.907  24.247  34.038  1.00  0.00     0.022 A 
BRANCH  82  85
ATOM     85  S   UNL A   1      47.582  22.527  35.705  1.00  0.00     0.127 S 
ATOM     86  O   UNL A   1      47.043  21.378  34.980  1.00  0.00    -0.237 OA
ATOM     87  O   UNL A   1      48.991  22.404  36.082  1.00  0.00    -0.237 OA
ATOM     88  O   UNL A   1      46.722  23.064  36.752  1.00  0.00    -0.744 OA
ENDBRANCH  82  85
ENDBRANCH  55  78
ENDBRANCH  29  30
ENDBRANCH  21  24
ENDBRANCH  19  20
ENDBRANCH   1  19
TORSDOF 16
ENDMDL
