MODEL 1
REMARK VINA RESULT:     -11.0      0.000      0.000
REMARK SMILES O=C(NCCCCNC(=O)c1ccc(-n2cc(CSc3nc4ccccc4c(=O)n3-c3ccc(Br)cc3)nn2)cc1)c1ccc(-c2c3nc(c(-c4cccc(S(=O)(=O)[O-])c4F)c4ccc([nH]4)c(-c4cccc(S(=O)(=O)[O-])c4F)c4nc(c(-c5cccc(S(=O)(=O)[O-])c5F)c5ccc2[nH]5)C=C4)C=C3)cc1
REMARK SMILES IDX 6 1 5 2 4 3 3 4 1 5 2 6 42 8 43 9 104 10 44 11 103 12 45 13
REMARK SMILES IDX 46 14 47 15 97 16 48 17 102 18 96 19 98 20 49 21 101 22
REMARK SMILES IDX 95 23 94 24 50 26 82 27 62 28 81 29 63 30 66 31 80 32 99 33
REMARK SMILES IDX 64 34 65 35 79 37 100 38 67 39 51 40 52 41 60 42 53 43 55 44
REMARK SMILES IDX 61 45 54 46 56 47 57 48 58 49 59 50 83 51 84 52 92 53 85 54
REMARK SMILES IDX 87 55 93 56 86 57 88 58 89 59 90 60 91 61 68 62 69 63 77 64
REMARK SMILES IDX 70 65 72 66 78 67 71 68 73 69 74 70 75 71 76 72 7 73 8 74
REMARK SMILES IDX 9 75 10 77 11 78 12 79 41 80 13 81 40 82 14 83 15 84 16 85
REMARK SMILES IDX 39 86 17 87 38 88 18 89 19 90 20 91 21 92 30 93 22 94 28 95
REMARK SMILES IDX 23 96 27 97 29 98 24 99 26 100 25 101 31 102 32 103 37 104
REMARK SMILES IDX 33 105 36 106 34 107 35 108
REMARK H PARENT 3 7 98 25 66 36 8 76
REMARK Flexibility Score: inf
ROOT
ATOM      1  C   UNL A   1      36.227  32.274  33.264  1.00  0.00     0.023 C 
ENDROOT
BRANCH   1   2
ATOM      2  C   UNL A   1      35.078  32.450  32.269  1.00  0.00     0.023 C 
BRANCH   2   3
ATOM      3  C   UNL A   1      35.208  33.632  31.311  1.00  0.00     0.116 C 
BRANCH   3   4
ATOM      4  N   UNL A   1      34.923  33.335  29.923  1.00  0.00    -0.352 N 
ATOM      5  O   UNL A   1      34.840  32.398  27.927  1.00  0.00    -0.269 OA
ATOM      6  C   UNL A   1      35.451  32.477  28.997  1.00  0.00     0.251 C 
ATOM      7  H   UNL A   1      34.180  33.872  29.564  1.00  0.00     0.163 HD
BRANCH   6   8
ATOM      8  C   UNL A   1      36.712  31.707  29.168  1.00  0.00     0.039 A 
ATOM      9  C   UNL A   1      37.949  32.249  29.520  1.00  0.00     0.014 A 
ATOM     10  C   UNL A   1      36.623  30.318  28.955  1.00  0.00     0.014 A 
ATOM     11  C   UNL A   1      39.083  31.445  29.574  1.00  0.00     0.010 A 
ATOM     12  C   UNL A   1      37.750  29.505  29.028  1.00  0.00     0.010 A 
ATOM     13  C   UNL A   1      38.986  30.076  29.313  1.00  0.00    -0.014 A 
BRANCH  13  14
ATOM     14  C   UNL A   1      40.183  29.259  29.490  1.00  0.00     0.031 A 
ATOM     15  C   UNL A   1      40.540  28.945  30.904  1.00  0.00     0.074 A 
ATOM     16  C   UNL A   1      40.853  28.683  28.473  1.00  0.00     0.049 A 
ATOM     17  N   UNL A   1      41.620  29.258  31.546  1.00  0.00    -0.248 NA
ATOM     18  C   UNL A   1      39.528  28.268  31.727  1.00  0.00     0.031 C 
ATOM     19  C   UNL A   1      40.448  28.611  27.069  1.00  0.00     0.029 A 
ATOM     20  N   UNL A   1      41.976  27.905  28.519  1.00  0.00    -0.354 N 
ATOM     21  C   UNL A   1      41.510  28.646  32.795  1.00  0.00     0.074 A 
ATOM     22  C   UNL A   1      40.152  28.180  32.902  1.00  0.00     0.031 C 
ATOM     23  C   UNL A   1      41.161  27.638  26.457  1.00  0.00     0.029 A 
ATOM     24  C   UNL A   1      42.147  27.117  27.387  1.00  0.00     0.049 A 
ATOM     25  H   UNL A   1      42.602  27.904  29.279  1.00  0.00     0.167 HD
ATOM     26  C   UNL A   1      42.596  28.383  33.574  1.00  0.00     0.034 A 
ATOM     27  C   UNL A   1      42.977  26.055  27.259  1.00  0.00     0.034 A 
ATOM     28  C   UNL A   1      43.762  29.098  33.133  1.00  0.00     0.049 A 
ATOM     29  C   UNL A   1      44.004  26.145  28.319  1.00  0.00     0.074 A 
ATOM     30  C   UNL A   1      44.110  30.424  32.973  1.00  0.00     0.029 A 
ATOM     31  N   UNL A   1      44.723  28.374  32.474  1.00  0.00    -0.354 N 
ATOM     32  N   UNL A   1      44.942  27.049  28.351  1.00  0.00    -0.248 NA
ATOM     33  C   UNL A   1      43.782  25.429  29.565  1.00  0.00     0.031 C 
ATOM     34  C   UNL A   1      44.982  30.442  31.848  1.00  0.00     0.029 A 
ATOM     35  C   UNL A   1      45.134  29.125  31.409  1.00  0.00     0.049 A 
ATOM     36  H   UNL A   1      45.054  27.480  32.722  1.00  0.00     0.167 HD
ATOM     37  C   UNL A   1      45.110  27.324  29.702  1.00  0.00     0.074 A 
ATOM     38  C   UNL A   1      44.475  26.210  30.396  1.00  0.00     0.031 C 
ATOM     39  C   UNL A   1      45.488  28.567  30.123  1.00  0.00     0.034 A 
BRANCH  26  40
ATOM     40  C   UNL A   1      42.725  27.229  34.543  1.00  0.00     0.023 A 
ATOM     41  C   UNL A   1      42.497  27.501  35.912  1.00  0.00     0.012 A 
ATOM     42  C   UNL A   1      43.330  25.991  34.229  1.00  0.00     0.148 A 
ATOM     43  C   UNL A   1      42.904  26.618  36.918  1.00  0.00     0.002 A 
ATOM     44  C   UNL A   1      43.657  25.080  35.228  1.00  0.00     0.091 A 
ATOM     45  F   UNL A   1      43.719  25.736  32.976  1.00  0.00    -0.205 F 
ATOM     46  C   UNL A   1      43.479  25.403  36.576  1.00  0.00     0.022 A 
BRANCH  44  47
ATOM     47  S   UNL A   1      44.348  23.468  34.840  1.00  0.00     0.127 S 
ATOM     48  O   UNL A   1      44.540  22.902  36.171  1.00  0.00    -0.237 OA
ATOM     49  O   UNL A   1      43.271  22.861  34.056  1.00  0.00    -0.237 OA
ATOM     50  O   UNL A   1      45.558  23.743  34.073  1.00  0.00    -0.744 OA
ENDBRANCH  44  47
ENDBRANCH  26  40
BRANCH  27  51
ATOM     51  C   UNL A   1      42.829  24.837  26.429  1.00  0.00     0.023 A 
ATOM     52  C   UNL A   1      43.812  24.520  25.472  1.00  0.00     0.012 A 
ATOM     53  C   UNL A   1      41.871  23.849  26.754  1.00  0.00     0.148 A 
ATOM     54  C   UNL A   1      43.860  23.253  24.880  1.00  0.00     0.002 A 
ATOM     55  C   UNL A   1      41.916  22.596  26.153  1.00  0.00     0.091 A 
ATOM     56  F   UNL A   1      40.980  24.107  27.720  1.00  0.00    -0.205 F 
ATOM     57  C   UNL A   1      42.917  22.289  25.224  1.00  0.00     0.022 A 
BRANCH  55  58
ATOM     58  S   UNL A   1      40.738  21.299  26.564  1.00  0.00     0.127 S 
ATOM     59  O   UNL A   1      41.358  20.122  25.955  1.00  0.00    -0.237 OA
ATOM     60  O   UNL A   1      40.764  21.320  28.024  1.00  0.00    -0.237 OA
ATOM     61  O   UNL A   1      39.480  21.698  25.946  1.00  0.00    -0.744 OA
ENDBRANCH  55  58
ENDBRANCH  27  51
BRANCH  39  62
ATOM     62  C   UNL A   1      46.024  29.538  29.105  1.00  0.00     0.023 A 
ATOM     63  C   UNL A   1      47.364  29.504  28.670  1.00  0.00     0.012 A 
ATOM     64  C   UNL A   1      45.114  30.379  28.441  1.00  0.00     0.148 A 
ATOM     65  C   UNL A   1      47.795  30.312  27.616  1.00  0.00     0.002 A 
ATOM     66  C   UNL A   1      45.534  31.142  27.358  1.00  0.00     0.091 A 
ATOM     67  F   UNL A   1      43.839  30.396  28.861  1.00  0.00    -0.205 F 
ATOM     68  C   UNL A   1      46.876  31.119  26.950  1.00  0.00     0.022 A 
BRANCH  66  69
ATOM     69  S   UNL A   1      44.367  32.087  26.375  1.00  0.00     0.127 S 
ATOM     70  O   UNL A   1      45.213  32.567  25.279  1.00  0.00    -0.237 OA
ATOM     71  O   UNL A   1      43.388  31.067  25.984  1.00  0.00    -0.237 OA
ATOM     72  O   UNL A   1      43.836  33.109  27.256  1.00  0.00    -0.744 OA
ENDBRANCH  66  69
ENDBRANCH  39  62
ENDBRANCH  13  14
ENDBRANCH   6   8
ENDBRANCH   3   4
ENDBRANCH   2   3
ENDBRANCH   1   2
BRANCH   1  73
ATOM     73  C   UNL A   1      37.173  31.107  32.991  1.00  0.00     0.116 C 
BRANCH  73  74
ATOM     74  N   UNL A   1      37.645  30.467  34.208  1.00  0.00    -0.352 N 
ATOM     75  C   UNL A   1      38.725  30.777  34.994  1.00  0.00     0.251 C 
ATOM     76  H   UNL A   1      37.110  29.699  34.513  1.00  0.00     0.163 HD
ATOM     77  O   UNL A   1      39.027  30.061  35.944  1.00  0.00    -0.269 OA
BRANCH  75  78
ATOM     78  C   UNL A   1      39.538  31.976  34.705  1.00  0.00     0.039 A 
ATOM     79  C   UNL A   1      40.698  31.832  33.938  1.00  0.00     0.016 A 
ATOM     80  C   UNL A   1      39.200  33.219  35.247  1.00  0.00     0.016 A 
ATOM     81  C   UNL A   1      41.513  32.940  33.689  1.00  0.00     0.029 A 
ATOM     82  C   UNL A   1      40.014  34.328  35.003  1.00  0.00     0.029 A 
ATOM     83  C   UNL A   1      41.186  34.187  34.239  1.00  0.00     0.066 A 
BRANCH  83  84
ATOM     84  N   UNL A   1      42.084  35.273  34.086  1.00  0.00    -0.220 N 
ATOM     85  C   UNL A   1      42.832  35.598  32.982  1.00  0.00     0.141 A 
ATOM     86  N   UNL A   1      42.282  36.215  35.041  1.00  0.00    -0.062 NA
ATOM     87  C   UNL A   1      43.358  36.843  33.252  1.00  0.00     0.093 A 
ATOM     88  N   UNL A   1      43.052  37.176  34.538  1.00  0.00    -0.134 NA
BRANCH  87  89
ATOM     89  C   UNL A   1      44.249  37.665  32.409  1.00  0.00     0.138 C 
BRANCH  89  90
ATOM     90  S   UNL A   1      45.083  36.973  30.974  1.00  0.00    -0.081 SA
BRANCH  90  91
ATOM     91  C   UNL A   1      44.352  37.531  29.488  1.00  0.00     0.176 A 
ATOM     92  N   UNL A   1      43.520  38.509  29.700  1.00  0.00    -0.223 NA
ATOM     93  N   UNL A   1      44.626  37.056  28.209  1.00  0.00    -0.255 N 
ATOM     94  C   UNL A   1      42.814  39.036  28.615  1.00  0.00     0.079 A 
ATOM     95  C   UNL A   1      43.533  37.114  27.330  1.00  0.00     0.266 A 
ATOM     96  C   UNL A   1      42.174  40.273  28.710  1.00  0.00     0.029 A 
ATOM     97  C   UNL A   1      42.676  38.302  27.449  1.00  0.00     0.066 A 
ATOM     98  O   UNL A   1      43.233  36.274  26.483  1.00  0.00    -0.268 OA
ATOM     99  C   UNL A   1      41.364  40.732  27.663  1.00  0.00     0.002 A 
ATOM    100  C   UNL A   1      41.834  38.722  26.414  1.00  0.00     0.016 A 
ATOM    101  C   UNL A   1      41.170  39.942  26.529  1.00  0.00     0.001 A 
BRANCH  93 102
ATOM    102  C   UNL A   1      45.880  36.507  27.714  1.00  0.00     0.051 A 
ATOM    103  C   UNL A   1      46.803  37.334  27.036  1.00  0.00     0.028 A 
ATOM    104  C   UNL A   1      46.300  35.183  27.908  1.00  0.00     0.028 A 
ATOM    105  C   UNL A   1      47.956  36.835  26.418  1.00  0.00     0.018 A 
ATOM    106  C   UNL A   1      47.425  34.657  27.251  1.00  0.00     0.018 A 
ATOM    107  C   UNL A   1      48.229  35.481  26.478  1.00  0.00     0.018 A 
ATOM    108  Br  UNL A   1      49.681  34.763  25.514  1.00  0.00    -0.051 Br
ENDBRANCH  93 102
ENDBRANCH  90  91
ENDBRANCH  89  90
ENDBRANCH  87  89
ENDBRANCH  83  84
ENDBRANCH  75  78
ENDBRANCH  73  74
ENDBRANCH   1  73
TORSDOF 19
ENDMDL
MODEL 2
REMARK VINA RESULT:     -10.8      2.308      3.337
REMARK SMILES O=C(NCCCCNC(=O)c1ccc(-n2cc(CSc3nc4ccccc4c(=O)n3-c3ccc(Br)cc3)nn2)cc1)c1ccc(-c2c3nc(c(-c4cccc(S(=O)(=O)[O-])c4F)c4ccc([nH]4)c(-c4cccc(S(=O)(=O)[O-])c4F)c4nc(c(-c5cccc(S(=O)(=O)[O-])c5F)c5ccc2[nH]5)C=C4)C=C3)cc1
REMARK SMILES IDX 6 1 5 2 4 3 3 4 1 5 2 6 42 8 43 9 104 10 44 11 103 12 45 13
REMARK SMILES IDX 46 14 47 15 97 16 48 17 102 18 96 19 98 20 49 21 101 22
REMARK SMILES IDX 95 23 94 24 50 26 82 27 62 28 81 29 63 30 66 31 80 32 99 33
REMARK SMILES IDX 64 34 65 35 79 37 100 38 67 39 51 40 52 41 60 42 53 43 55 44
REMARK SMILES IDX 61 45 54 46 56 47 57 48 58 49 59 50 83 51 84 52 92 53 85 54
REMARK SMILES IDX 87 55 93 56 86 57 88 58 89 59 90 60 91 61 68 62 69 63 77 64
REMARK SMILES IDX 70 65 72 66 78 67 71 68 73 69 74 70 75 71 76 72 7 73 8 74
REMARK SMILES IDX 9 75 10 77 11 78 12 79 41 80 13 81 40 82 14 83 15 84 16 85
REMARK SMILES IDX 39 86 17 87 38 88 18 89 19 90 20 91 21 92 30 93 22 94 28 95
REMARK SMILES IDX 23 96 27 97 29 98 24 99 26 100 25 101 31 102 32 103 37 104
REMARK SMILES IDX 33 105 36 106 34 107 35 108
REMARK H PARENT 3 7 98 25 66 36 8 76
REMARK Flexibility Score: inf
ROOT
ATOM      1  C   UNL A   1      36.982  33.477  32.507  1.00  0.00     0.023 C 
ENDROOT
BRANCH   1   2
ATOM      2  C   UNL A   1      35.488  33.726  32.289  1.00  0.00     0.023 C 
BRANCH   2   3
ATOM      3  C   UNL A   1      34.679  32.521  31.815  1.00  0.00     0.116 C 
BRANCH   3   4
ATOM      4  N   UNL A   1      34.430  32.468  30.389  1.00  0.00    -0.352 N 
ATOM      5  O   UNL A   1      34.409  31.895  28.259  1.00  0.00    -0.269 OA
ATOM      6  C   UNL A   1      34.994  31.794  29.340  1.00  0.00     0.251 C 
ATOM      7  H   UNL A   1      33.686  33.050  30.112  1.00  0.00     0.163 HD
BRANCH   6   8
ATOM      8  C   UNL A   1      36.265  31.023  29.406  1.00  0.00     0.039 A 
ATOM      9  C   UNL A   1      36.365  29.640  29.550  1.00  0.00     0.014 A 
ATOM     10  C   UNL A   1      37.451  31.778  29.310  1.00  0.00     0.014 A 
ATOM     11  C   UNL A   1      37.610  29.031  29.681  1.00  0.00     0.010 A 
ATOM     12  C   UNL A   1      38.699  31.172  29.420  1.00  0.00     0.010 A 
ATOM     13  C   UNL A   1      38.776  29.799  29.632  1.00  0.00    -0.014 A 
BRANCH  13  14
ATOM     14  C   UNL A   1      40.057  29.101  29.664  1.00  0.00     0.031 A 
ATOM     15  C   UNL A   1      40.632  28.881  31.023  1.00  0.00     0.074 A 
ATOM     16  C   UNL A   1      40.634  28.544  28.582  1.00  0.00     0.049 A 
ATOM     17  N   UNL A   1      41.755  29.317  31.498  1.00  0.00    -0.248 NA
ATOM     18  C   UNL A   1      39.810  28.152  31.999  1.00  0.00     0.031 C 
ATOM     19  C   UNL A   1      40.050  28.376  27.251  1.00  0.00     0.029 A 
ATOM     20  N   UNL A   1      41.821  27.872  28.493  1.00  0.00    -0.354 N 
ATOM     21  C   UNL A   1      41.875  28.752  32.768  1.00  0.00     0.074 A 
ATOM     22  C   UNL A   1      40.594  28.172  33.078  1.00  0.00     0.031 C 
ATOM     23  C   UNL A   1      40.760  27.445  26.574  1.00  0.00     0.029 A 
ATOM     24  C   UNL A   1      41.909  27.054  27.373  1.00  0.00     0.049 A 
ATOM     25  H   UNL A   1      42.542  27.960  29.158  1.00  0.00     0.167 HD
ATOM     26  C   UNL A   1      43.077  28.621  33.395  1.00  0.00     0.034 A 
ATOM     27  C   UNL A   1      42.811  26.066  27.162  1.00  0.00     0.034 A 
ATOM     28  C   UNL A   1      44.100  29.418  32.774  1.00  0.00     0.049 A 
ATOM     29  C   UNL A   1      43.960  26.293  28.065  1.00  0.00     0.074 A 
ATOM     30  C   UNL A   1      44.295  30.761  32.527  1.00  0.00     0.029 A 
ATOM     31  N   UNL A   1      45.025  28.754  32.009  1.00  0.00    -0.354 N 
ATOM     32  N   UNL A   1      44.804  27.278  27.939  1.00  0.00    -0.248 NA
ATOM     33  C   UNL A   1      43.978  25.614  29.351  1.00  0.00     0.031 C 
ATOM     34  C   UNL A   1      45.000  30.808  31.290  1.00  0.00     0.029 A 
ATOM     35  C   UNL A   1      45.214  29.493  30.875  1.00  0.00     0.049 A 
ATOM     36  H   UNL A   1      45.470  27.905  32.235  1.00  0.00     0.167 HD
ATOM     37  C   UNL A   1      45.128  27.625  29.243  1.00  0.00     0.074 A 
ATOM     38  C   UNL A   1      44.701  26.489  30.053  1.00  0.00     0.031 C 
ATOM     39  C   UNL A   1      45.440  28.914  29.570  1.00  0.00     0.034 A 
BRANCH  26  40
ATOM     40  C   UNL A   1      43.446  27.526  34.371  1.00  0.00     0.023 A 
ATOM     41  C   UNL A   1      43.879  27.921  35.658  1.00  0.00     0.012 A 
ATOM     42  C   UNL A   1      43.665  26.178  34.008  1.00  0.00     0.148 A 
ATOM     43  C   UNL A   1      44.550  27.041  36.513  1.00  0.00     0.002 A 
ATOM     44  C   UNL A   1      44.258  25.285  34.895  1.00  0.00     0.091 A 
ATOM     45  F   UNL A   1      43.427  25.776  32.756  1.00  0.00    -0.205 F 
ATOM     46  C   UNL A   1      44.734  25.719  36.134  1.00  0.00     0.022 A 
BRANCH  44  47
ATOM     47  S   UNL A   1      44.467  23.550  34.480  1.00  0.00     0.127 S 
ATOM     48  O   UNL A   1      45.260  23.072  35.608  1.00  0.00    -0.237 OA
ATOM     49  O   UNL A   1      43.082  23.079  34.452  1.00  0.00    -0.237 OA
ATOM     50  O   UNL A   1      45.124  23.542  33.179  1.00  0.00    -0.744 OA
ENDBRANCH  44  47
ENDBRANCH  26  40
BRANCH  27  51
ATOM     51  C   UNL A   1      42.666  24.805  26.399  1.00  0.00     0.023 A 
ATOM     52  C   UNL A   1      43.641  24.450  25.446  1.00  0.00     0.012 A 
ATOM     53  C   UNL A   1      41.725  23.825  26.787  1.00  0.00     0.148 A 
ATOM     54  C   UNL A   1      43.696  23.154  24.919  1.00  0.00     0.002 A 
ATOM     55  C   UNL A   1      41.777  22.542  26.252  1.00  0.00     0.091 A 
ATOM     56  F   UNL A   1      40.844  24.122  27.752  1.00  0.00    -0.205 F 
ATOM     57  C   UNL A   1      42.769  22.199  25.327  1.00  0.00     0.022 A 
BRANCH  55  58
ATOM     58  S   UNL A   1      40.621  21.256  26.746  1.00  0.00     0.127 S 
ATOM     59  O   UNL A   1      40.816  21.211  28.196  1.00  0.00    -0.237 OA
ATOM     60  O   UNL A   1      39.343  21.817  26.316  1.00  0.00    -0.237 OA
ATOM     61  O   UNL A   1      41.050  20.050  26.050  1.00  0.00    -0.744 OA
ENDBRANCH  55  58
ENDBRANCH  27  51
BRANCH  39  62
ATOM     62  C   UNL A   1      45.738  29.884  28.458  1.00  0.00     0.023 A 
ATOM     63  C   UNL A   1      44.721  30.606  27.802  1.00  0.00     0.012 A 
ATOM     64  C   UNL A   1      47.081  30.209  28.196  1.00  0.00     0.148 A 
ATOM     65  C   UNL A   1      45.034  31.610  26.883  1.00  0.00     0.002 A 
ATOM     66  C   UNL A   1      47.388  31.244  27.322  1.00  0.00     0.091 A 
ATOM     67  F   UNL A   1      48.039  29.517  28.833  1.00  0.00    -0.205 F 
ATOM     68  C   UNL A   1      46.368  31.939  26.655  1.00  0.00     0.022 A 
BRANCH  66  69
ATOM     69  S   UNL A   1      49.079  31.806  27.101  1.00  0.00     0.127 S 
ATOM     70  O   UNL A   1      49.471  32.135  28.474  1.00  0.00    -0.237 OA
ATOM     71  O   UNL A   1      49.736  30.615  26.552  1.00  0.00    -0.237 OA
ATOM     72  O   UNL A   1      49.013  32.923  26.179  1.00  0.00    -0.744 OA
ENDBRANCH  66  69
ENDBRANCH  39  62
ENDBRANCH  13  14
ENDBRANCH   6   8
ENDBRANCH   3   4
ENDBRANCH   2   3
ENDBRANCH   1   2
BRANCH   1  73
ATOM     73  C   UNL A   1      37.341  32.208  33.277  1.00  0.00     0.116 C 
BRANCH  73  74
ATOM     74  N   UNL A   1      38.052  32.482  34.514  1.00  0.00    -0.352 N 
ATOM     75  C   UNL A   1      39.347  32.892  34.705  1.00  0.00     0.251 C 
ATOM     76  H   UNL A   1      37.527  32.355  35.337  1.00  0.00     0.163 HD
ATOM     77  O   UNL A   1      39.808  32.985  35.838  1.00  0.00    -0.269 OA
BRANCH  75  78
ATOM     78  C   UNL A   1      40.201  33.227  33.547  1.00  0.00     0.039 A 
ATOM     79  C   UNL A   1      40.659  34.541  33.408  1.00  0.00     0.016 A 
ATOM     80  C   UNL A   1      40.486  32.274  32.567  1.00  0.00     0.016 A 
ATOM     81  C   UNL A   1      41.428  34.899  32.298  1.00  0.00     0.029 A 
ATOM     82  C   UNL A   1      41.253  32.629  31.454  1.00  0.00     0.029 A 
ATOM     83  C   UNL A   1      41.709  33.951  31.305  1.00  0.00     0.066 A 
BRANCH  83  84
ATOM     84  N   UNL A   1      42.381  34.354  30.124  1.00  0.00    -0.220 N 
ATOM     85  C   UNL A   1      41.962  35.266  29.187  1.00  0.00     0.141 A 
ATOM     86  N   UNL A   1      43.617  33.912  29.783  1.00  0.00    -0.062 NA
ATOM     87  C   UNL A   1      43.050  35.469  28.365  1.00  0.00     0.093 A 
ATOM     88  N   UNL A   1      44.032  34.590  28.717  1.00  0.00    -0.134 NA
BRANCH  87  89
ATOM     89  C   UNL A   1      43.155  36.347  27.183  1.00  0.00     0.138 C 
BRANCH  89  90
ATOM     90  S   UNL A   1      44.267  37.760  27.162  1.00  0.00    -0.081 SA
BRANCH  90  91
ATOM     91  C   UNL A   1      43.733  39.000  28.272  1.00  0.00     0.176 A 
ATOM     92  N   UNL A   1      44.197  38.802  29.472  1.00  0.00    -0.223 NA
ATOM     93  N   UNL A   1      42.950  40.106  27.955  1.00  0.00    -0.255 N 
ATOM     94  C   UNL A   1      43.821  39.683  30.490  1.00  0.00     0.079 A 
ATOM     95  C   UNL A   1      42.116  40.536  28.998  1.00  0.00     0.266 A 
ATOM     96  C   UNL A   1      44.525  39.728  31.694  1.00  0.00     0.029 A 
ATOM     97  C   UNL A   1      42.692  40.472  30.348  1.00  0.00     0.066 A 
ATOM     98  O   UNL A   1      40.965  40.954  28.885  1.00  0.00    -0.268 OA
ATOM     99  C   UNL A   1      44.064  40.519  32.753  1.00  0.00     0.002 A 
ATOM    100  C   UNL A   1      42.189  41.231  31.411  1.00  0.00     0.016 A 
ATOM    101  C   UNL A   1      42.879  41.246  32.622  1.00  0.00     0.001 A 
BRANCH  93 102
ATOM    102  C   UNL A   1      42.897  40.822  26.688  1.00  0.00     0.051 A 
ATOM    103  C   UNL A   1      43.917  41.735  26.342  1.00  0.00     0.028 A 
ATOM    104  C   UNL A   1      41.907  40.639  25.712  1.00  0.00     0.028 A 
ATOM    105  C   UNL A   1      43.848  42.554  25.207  1.00  0.00     0.018 A 
ATOM    106  C   UNL A   1      41.796  41.487  24.597  1.00  0.00     0.018 A 
ATOM    107  C   UNL A   1      42.751  42.466  24.370  1.00  0.00     0.018 A 
ATOM    108  Br  UNL A   1      42.556  43.672  22.934  1.00  0.00    -0.051 Br
ENDBRANCH  93 102
ENDBRANCH  90  91
ENDBRANCH  89  90
ENDBRANCH  87  89
ENDBRANCH  83  84
ENDBRANCH  75  78
ENDBRANCH  73  74
ENDBRANCH   1  73
TORSDOF 19
ENDMDL
MODEL 3
REMARK VINA RESULT:     -10.8      2.827      4.132
REMARK SMILES O=C(NCCCCNC(=O)c1ccc(-n2cc(CSc3nc4ccccc4c(=O)n3-c3ccc(Br)cc3)nn2)cc1)c1ccc(-c2c3nc(c(-c4cccc(S(=O)(=O)[O-])c4F)c4ccc([nH]4)c(-c4cccc(S(=O)(=O)[O-])c4F)c4nc(c(-c5cccc(S(=O)(=O)[O-])c5F)c5ccc2[nH]5)C=C4)C=C3)cc1
REMARK SMILES IDX 6 1 5 2 4 3 3 4 1 5 2 6 42 8 43 9 104 10 44 11 103 12 45 13
REMARK SMILES IDX 46 14 47 15 97 16 48 17 102 18 96 19 98 20 49 21 101 22
REMARK SMILES IDX 95 23 94 24 50 26 82 27 62 28 81 29 63 30 66 31 80 32 99 33
REMARK SMILES IDX 64 34 65 35 79 37 100 38 67 39 51 40 52 41 60 42 53 43 55 44
REMARK SMILES IDX 61 45 54 46 56 47 57 48 58 49 59 50 83 51 84 52 92 53 85 54
REMARK SMILES IDX 87 55 93 56 86 57 88 58 89 59 90 60 91 61 68 62 69 63 77 64
REMARK SMILES IDX 70 65 72 66 78 67 71 68 73 69 74 70 75 71 76 72 7 73 8 74
REMARK SMILES IDX 9 75 10 77 11 78 12 79 41 80 13 81 40 82 14 83 15 84 16 85
REMARK SMILES IDX 39 86 17 87 38 88 18 89 19 90 20 91 21 92 30 93 22 94 28 95
REMARK SMILES IDX 23 96 27 97 29 98 24 99 26 100 25 101 31 102 32 103 37 104
REMARK SMILES IDX 33 105 36 106 34 107 35 108
REMARK H PARENT 3 7 98 25 66 36 8 76
REMARK Flexibility Score: inf
ROOT
ATOM      1  C   UNL A   1      34.560  33.913  32.606  1.00  0.00     0.023 C 
ENDROOT
BRANCH   1   2
ATOM      2  C   UNL A   1      34.726  34.435  31.176  1.00  0.00     0.023 C 
BRANCH   2   3
ATOM      3  C   UNL A   1      35.779  33.722  30.330  1.00  0.00     0.116 C 
BRANCH   3   4
ATOM      4  N   UNL A   1      35.264  33.004  29.183  1.00  0.00    -0.352 N 
ATOM      5  O   UNL A   1      34.800  31.454  27.683  1.00  0.00    -0.269 OA
ATOM      6  C   UNL A   1      35.570  31.815  28.578  1.00  0.00     0.251 C 
ATOM      7  H   UNL A   1      34.525  33.479  28.738  1.00  0.00     0.163 HD
BRANCH   6   8
ATOM      8  C   UNL A   1      36.770  30.990  28.877  1.00  0.00     0.039 A 
ATOM      9  C   UNL A   1      36.779  29.605  29.042  1.00  0.00     0.014 A 
ATOM     10  C   UNL A   1      37.987  31.689  28.997  1.00  0.00     0.014 A 
ATOM     11  C   UNL A   1      37.950  28.943  29.400  1.00  0.00     0.010 A 
ATOM     12  C   UNL A   1      39.165  31.030  29.336  1.00  0.00     0.010 A 
ATOM     13  C   UNL A   1      39.139  29.658  29.562  1.00  0.00    -0.014 A 
BRANCH  13  14
ATOM     14  C   UNL A   1      40.359  28.903  29.831  1.00  0.00     0.031 A 
ATOM     15  C   UNL A   1      40.718  28.758  31.272  1.00  0.00     0.074 A 
ATOM     16  C   UNL A   1      41.053  28.240  28.886  1.00  0.00     0.049 A 
ATOM     17  N   UNL A   1      41.783  29.174  31.877  1.00  0.00    -0.248 NA
ATOM     18  C   UNL A   1      39.722  28.144  32.161  1.00  0.00     0.031 C 
ATOM     19  C   UNL A   1      40.658  28.002  27.496  1.00  0.00     0.029 A 
ATOM     20  N   UNL A   1      42.199  27.508  29.019  1.00  0.00    -0.354 N 
ATOM     21  C   UNL A   1      41.685  28.699  33.187  1.00  0.00     0.074 A 
ATOM     22  C   UNL A   1      40.342  28.206  33.341  1.00  0.00     0.031 C 
ATOM     23  C   UNL A   1      41.404  26.990  26.997  1.00  0.00     0.029 A 
ATOM     24  C   UNL A   1      42.401  26.606  27.981  1.00  0.00     0.049 A 
ATOM     25  H   UNL A   1      42.820  27.610  29.775  1.00  0.00     0.167 HD
ATOM     26  C   UNL A   1      42.775  28.558  33.992  1.00  0.00     0.034 A 
ATOM     27  C   UNL A   1      43.264  25.562  27.972  1.00  0.00     0.034 A 
ATOM     28  C   UNL A   1      43.921  29.257  33.478  1.00  0.00     0.049 A 
ATOM     29  C   UNL A   1      44.282  25.801  29.019  1.00  0.00     0.074 A 
ATOM     30  C   UNL A   1      44.227  30.567  33.174  1.00  0.00     0.029 A 
ATOM     31  N   UNL A   1      44.907  28.495  32.905  1.00  0.00    -0.354 N 
ATOM     32  N   UNL A   1      45.191  26.732  28.954  1.00  0.00    -0.248 NA
ATOM     33  C   UNL A   1      44.074  25.220  30.335  1.00  0.00     0.031 C 
ATOM     34  C   UNL A   1      45.105  30.488  32.055  1.00  0.00     0.029 A 
ATOM     35  C   UNL A   1      45.301  29.137  31.765  1.00  0.00     0.049 A 
ATOM     36  H   UNL A   1      45.264  27.644  33.250  1.00  0.00     0.167 HD
ATOM     37  C   UNL A   1      45.343  27.159  30.266  1.00  0.00     0.074 A 
ATOM     38  C   UNL A   1      44.738  26.108  31.077  1.00  0.00     0.031 C 
ATOM     39  C   UNL A   1      45.679  28.452  30.549  1.00  0.00     0.034 A 
BRANCH  26  40
ATOM     40  C   UNL A   1      42.934  27.522  35.082  1.00  0.00     0.023 A 
ATOM     41  C   UNL A   1      41.916  26.548  35.208  1.00  0.00     0.012 A 
ATOM     42  C   UNL A   1      43.854  27.626  36.150  1.00  0.00     0.148 A 
ATOM     43  C   UNL A   1      41.783  25.763  36.358  1.00  0.00     0.002 A 
ATOM     44  C   UNL A   1      43.767  26.786  37.255  1.00  0.00     0.091 A 
ATOM     45  F   UNL A   1      44.741  28.626  36.172  1.00  0.00    -0.205 F 
ATOM     46  C   UNL A   1      42.714  25.878  37.381  1.00  0.00     0.022 A 
BRANCH  44  47
ATOM     47  S   UNL A   1      44.979  26.849  38.580  1.00  0.00     0.127 S 
ATOM     48  O   UNL A   1      46.229  26.701  37.842  1.00  0.00    -0.237 OA
ATOM     49  O   UNL A   1      44.743  28.181  39.140  1.00  0.00    -0.237 OA
ATOM     50  O   UNL A   1      44.623  25.756  39.477  1.00  0.00    -0.744 OA
ENDBRANCH  44  47
ENDBRANCH  26  40
BRANCH  27  51
ATOM     51  C   UNL A   1      43.158  24.257  27.281  1.00  0.00     0.023 A 
ATOM     52  C   UNL A   1      41.922  23.582  27.252  1.00  0.00     0.012 A 
ATOM     53  C   UNL A   1      44.188  23.801  26.427  1.00  0.00     0.148 A 
ATOM     54  C   UNL A   1      41.708  22.507  26.380  1.00  0.00     0.002 A 
ATOM     55  C   UNL A   1      43.974  22.726  25.571  1.00  0.00     0.091 A 
ATOM     56  F   UNL A   1      45.340  24.483  26.384  1.00  0.00    -0.205 F 
ATOM     57  C   UNL A   1      42.731  22.084  25.536  1.00  0.00     0.022 A 
BRANCH  55  58
ATOM     58  S   UNL A   1      45.246  22.137  24.444  1.00  0.00     0.127 S 
ATOM     59  O   UNL A   1      46.223  21.555  25.365  1.00  0.00    -0.237 OA
ATOM     60  O   UNL A   1      44.509  21.168  23.638  1.00  0.00    -0.237 OA
ATOM     61  O   UNL A   1      45.724  23.318  23.736  1.00  0.00    -0.744 OA
ENDBRANCH  55  58
ENDBRANCH  27  51
BRANCH  39  62
ATOM     62  C   UNL A   1      46.190  29.322  29.431  1.00  0.00     0.023 A 
ATOM     63  C   UNL A   1      47.516  29.234  28.960  1.00  0.00     0.012 A 
ATOM     64  C   UNL A   1      45.267  30.110  28.722  1.00  0.00     0.148 A 
ATOM     65  C   UNL A   1      47.920  29.939  27.825  1.00  0.00     0.002 A 
ATOM     66  C   UNL A   1      45.659  30.767  27.563  1.00  0.00     0.091 A 
ATOM     67  F   UNL A   1      44.007  30.179  29.178  1.00  0.00    -0.205 F 
ATOM     68  C   UNL A   1      46.988  30.693  27.117  1.00  0.00     0.022 A 
BRANCH  66  69
ATOM     69  S   UNL A   1      44.469  31.633  26.535  1.00  0.00     0.127 S 
ATOM     70  O   UNL A   1      43.438  30.610  26.338  1.00  0.00    -0.237 OA
ATOM     71  O   UNL A   1      44.062  32.747  27.396  1.00  0.00    -0.237 OA
ATOM     72  O   UNL A   1      45.190  32.039  25.343  1.00  0.00    -0.744 OA
ENDBRANCH  66  69
ENDBRANCH  39  62
ENDBRANCH  13  14
ENDBRANCH   6   8
ENDBRANCH   3   4
ENDBRANCH   2   3
ENDBRANCH   1   2
BRANCH   1  73
ATOM     73  C   UNL A   1      35.757  33.163  33.185  1.00  0.00     0.116 C 
BRANCH  73  74
ATOM     74  N   UNL A   1      35.745  31.746  32.859  1.00  0.00    -0.352 N 
ATOM     75  C   UNL A   1      36.776  30.842  32.860  1.00  0.00     0.251 C 
ATOM     76  H   UNL A   1      34.868  31.382  32.601  1.00  0.00     0.163 HD
ATOM     77  O   UNL A   1      36.596  29.695  32.463  1.00  0.00    -0.269 OA
BRANCH  75  78
ATOM     78  C   UNL A   1      38.116  31.240  33.338  1.00  0.00     0.039 A 
ATOM     79  C   UNL A   1      38.440  31.027  34.681  1.00  0.00     0.016 A 
ATOM     80  C   UNL A   1      39.019  31.883  32.488  1.00  0.00     0.016 A 
ATOM     81  C   UNL A   1      39.681  31.437  35.174  1.00  0.00     0.029 A 
ATOM     82  C   UNL A   1      40.260  32.296  32.978  1.00  0.00     0.029 A 
ATOM     83  C   UNL A   1      40.588  32.093  34.330  1.00  0.00     0.066 A 
BRANCH  83  84
ATOM     84  N   UNL A   1      41.790  32.616  34.868  1.00  0.00    -0.220 N 
ATOM     85  C   UNL A   1      42.564  33.635  34.368  1.00  0.00     0.141 A 
ATOM     86  N   UNL A   1      42.326  32.194  36.040  1.00  0.00    -0.062 NA
ATOM     87  C   UNL A   1      43.485  33.910  35.355  1.00  0.00     0.093 A 
ATOM     88  N   UNL A   1      43.354  32.981  36.345  1.00  0.00    -0.134 NA
BRANCH  87  89
ATOM     89  C   UNL A   1      44.568  34.914  35.345  1.00  0.00     0.138 C 
BRANCH  89  90
ATOM     90  S   UNL A   1      45.120  35.682  33.815  1.00  0.00    -0.081 SA
BRANCH  90  91
ATOM     91  C   UNL A   1      45.924  34.525  32.782  1.00  0.00     0.176 A 
ATOM     92  N   UNL A   1      46.881  33.905  33.408  1.00  0.00    -0.223 NA
ATOM     93  N   UNL A   1      45.591  34.231  31.463  1.00  0.00    -0.255 N 
ATOM     94  C   UNL A   1      47.655  32.979  32.703  1.00  0.00     0.079 A 
ATOM     95  C   UNL A   1      46.683  33.855  30.666  1.00  0.00     0.266 A 
ATOM     96  C   UNL A   1      48.458  32.057  33.376  1.00  0.00     0.029 A 
ATOM     97  C   UNL A   1      47.694  33.012  31.319  1.00  0.00     0.066 A 
ATOM     98  O   UNL A   1      46.867  34.163  29.490  1.00  0.00    -0.268 OA
ATOM     99  C   UNL A   1      49.325  31.221  32.661  1.00  0.00     0.002 A 
ATOM    100  C   UNL A   1      48.588  32.219  30.591  1.00  0.00     0.016 A 
ATOM    101  C   UNL A   1      49.412  31.324  31.271  1.00  0.00     0.001 A 
BRANCH  93 102
ATOM    102  C   UNL A   1      44.274  34.291  30.845  1.00  0.00     0.051 A 
ATOM    103  C   UNL A   1      43.810  35.496  30.271  1.00  0.00     0.028 A 
ATOM    104  C   UNL A   1      43.407  33.197  30.712  1.00  0.00     0.028 A 
ATOM    105  C   UNL A   1      42.504  35.652  29.790  1.00  0.00     0.018 A 
ATOM    106  C   UNL A   1      42.078  33.351  30.281  1.00  0.00     0.018 A 
ATOM    107  C   UNL A   1      41.622  34.588  29.855  1.00  0.00     0.018 A 
ATOM    108  Br  UNL A   1      39.816  34.824  29.370  1.00  0.00    -0.051 Br
ENDBRANCH  93 102
ENDBRANCH  90  91
ENDBRANCH  89  90
ENDBRANCH  87  89
ENDBRANCH  83  84
ENDBRANCH  75  78
ENDBRANCH  73  74
ENDBRANCH   1  73
TORSDOF 19
ENDMDL
