MODEL 1
REMARK VINA RESULT:     -11.4      0.000      0.000
REMARK SMILES Cc1ccc(S(=O)(=O)N[C@@H](C)C(=O)Oc2csc(C(=O)NCCCCNC(=O)c3ccc(-c4c5nc(c(-c6cccc(S(=O)(=O)[O-])c6F)c6ccc([nH]6)c(-c6cccc(S(=O)(=O)[O-])c6F)c6nc(c(-c7cccc(S(=O)(=O)[O-])c7F)c7ccc4[nH]7)C=C6)C=C5)cc3)c2C)cc1
REMARK SMILES IDX 22 1 21 2 19 3 20 4 18 6 15 7 16 8 92 9 17 10 93 11 14 12
REMARK SMILES IDX 12 13 13 14 10 15 11 16 9 17 6 19 7 20 8 21 5 22 1 23 2 24
REMARK SMILES IDX 3 25 95 26 4 27 94 28 23 29 24 30 25 31 26 32 27 33 28 35
REMARK SMILES IDX 29 36 30 37 91 38 31 39 90 40 32 41 33 42 34 43 84 44 35 45
REMARK SMILES IDX 89 46 83 47 85 48 36 49 88 50 82 51 81 52 37 54 69 55 49 56
REMARK SMILES IDX 68 57 50 58 53 59 67 60 86 61 51 62 52 63 66 65 87 66 54 67
REMARK SMILES IDX 38 68 39 69 47 70 40 71 42 72 48 73 41 74 43 75 44 76 45 77
REMARK SMILES IDX 46 78 70 79 71 80 79 81 72 82 74 83 80 84 73 85 75 86 76 87
REMARK SMILES IDX 77 88 78 89 55 90 56 91 64 92 57 93 59 94 65 95 58 96 60 97
REMARK SMILES IDX 61 98 62 99 63 100
REMARK H PARENT 21 5 9 18 26 34 85 53 53 64
REMARK Flexibility Score: inf
ROOT
ATOM      1  C   UNL A   1      34.700  33.058  27.800  1.00  0.00     0.116 C 
ENDROOT
BRANCH   1   2
ATOM      2  N   UNL A   1      35.401  31.796  27.877  1.00  0.00    -0.351 N 
ATOM      3  C   UNL A   1      35.108  30.482  27.612  1.00  0.00     0.261 C 
ATOM      4  O   UNL A   1      36.067  29.742  27.879  1.00  0.00    -0.268 OA
ATOM      5  H   UNL A   1      36.324  31.908  28.202  1.00  0.00     0.163 HD
BRANCH   3   6
ATOM      6  C   UNL A   1      33.844  29.947  27.069  1.00  0.00     0.099 A 
ATOM      7  C   UNL A   1      31.947  28.825  26.233  1.00  0.00     0.145 A 
ATOM      8  C   UNL A   1      31.456  30.098  26.268  1.00  0.00     0.113 A 
ATOM      9  C   UNL A   1      33.342  28.727  26.604  1.00  0.00     0.015 A 
ATOM     10  S   UNL A   1      32.603  31.178  26.890  1.00  0.00    -0.134 S 
ATOM     11  C   UNL A   1      34.037  27.426  26.429  1.00  0.00     0.050 C 
BRANCH   7  12
ATOM     12  O   UNL A   1      31.195  27.800  25.756  1.00  0.00    -0.424 OA
BRANCH  12  13
ATOM     13  C   UNL A   1      31.020  27.756  24.397  1.00  0.00     0.329 C 
ATOM     14  O   UNL A   1      31.376  28.622  23.604  1.00  0.00    -0.250 OA
BRANCH  13  15
ATOM     15  C   UNL A   1      30.400  26.432  23.953  1.00  0.00     0.177 C 
ATOM     16  C   UNL A   1      28.881  26.485  23.876  1.00  0.00     0.038 C 
BRANCH  15  17
ATOM     17  N   UNL A   1      30.895  25.391  24.857  1.00  0.00    -0.197 NA
ATOM     18  H   UNL A   1      31.697  25.801  25.334  1.00  0.00     0.142 HD
BRANCH  17  19
ATOM     19  S   UNL A   1      31.388  23.882  24.373  1.00  0.00     0.241 S 
ATOM     20  O   UNL A   1      31.271  23.840  22.917  1.00  0.00    -0.207 OA
ATOM     21  O   UNL A   1      30.681  22.956  25.200  1.00  0.00    -0.207 OA
BRANCH  19  22
ATOM     22  C   UNL A   1      33.111  23.743  24.760  1.00  0.00     0.082 A 
ATOM     23  C   UNL A   1      37.352  23.725  25.475  1.00  0.00     0.044 C 
ATOM     24  C   UNL A   1      35.871  23.718  25.236  1.00  0.00    -0.051 A 
ATOM     25  C   UNL A   1      35.381  23.729  23.924  1.00  0.00     0.005 A 
ATOM     26  C   UNL A   1      34.966  23.682  26.304  1.00  0.00     0.005 A 
ATOM     27  C   UNL A   1      34.008  23.755  23.686  1.00  0.00     0.022 A 
ATOM     28  C   UNL A   1      33.586  23.678  26.072  1.00  0.00     0.022 A 
ENDBRANCH  19  22
ENDBRANCH  17  19
ENDBRANCH  15  17
ENDBRANCH  13  15
ENDBRANCH  12  13
ENDBRANCH   7  12
ENDBRANCH   3   6
ENDBRANCH   1   2
BRANCH   1  29
ATOM     29  C   UNL A   1      34.171  33.494  29.174  1.00  0.00     0.023 C 
BRANCH  29  30
ATOM     30  C   UNL A   1      33.793  34.967  29.355  1.00  0.00     0.023 C 
BRANCH  30  31
ATOM     31  C   UNL A   1      33.025  35.313  30.625  1.00  0.00     0.116 C 
BRANCH  31  32
ATOM     32  N   UNL A   1      33.821  36.126  31.546  1.00  0.00    -0.352 N 
ATOM     33  C   UNL A   1      34.633  35.752  32.599  1.00  0.00     0.251 C 
ATOM     34  H   UNL A   1      33.770  37.097  31.389  1.00  0.00     0.163 HD
ATOM     35  O   UNL A   1      34.801  36.553  33.513  1.00  0.00    -0.269 OA
BRANCH  33  36
ATOM     36  C   UNL A   1      35.341  34.457  32.570  1.00  0.00     0.039 A 
ATOM     37  C   UNL A   1      35.137  33.454  33.527  1.00  0.00     0.014 A 
ATOM     38  C   UNL A   1      36.362  34.317  31.644  1.00  0.00     0.014 A 
ATOM     39  C   UNL A   1      36.041  32.389  33.602  1.00  0.00     0.010 A 
ATOM     40  C   UNL A   1      37.045  33.152  31.526  1.00  0.00     0.010 A 
ATOM     41  C   UNL A   1      37.028  32.304  32.628  1.00  0.00    -0.014 A 
BRANCH  41  42
ATOM     42  C   UNL A   1      38.265  31.547  32.695  1.00  0.00     0.031 A 
ATOM     43  C   UNL A   1      38.374  30.247  32.033  1.00  0.00     0.074 A 
ATOM     44  C   UNL A   1      39.345  32.315  32.989  1.00  0.00     0.049 A 
ATOM     45  N   UNL A   1      39.423  29.507  32.084  1.00  0.00    -0.248 NA
ATOM     46  C   UNL A   1      37.287  29.670  31.248  1.00  0.00     0.031 C 
ATOM     47  C   UNL A   1      40.720  32.151  32.539  1.00  0.00     0.029 A 
ATOM     48  N   UNL A   1      39.417  33.511  33.717  1.00  0.00    -0.354 N 
ATOM     49  C   UNL A   1      39.300  28.587  31.067  1.00  0.00     0.074 A 
ATOM     50  C   UNL A   1      37.896  28.592  30.744  1.00  0.00     0.031 C 
ATOM     51  C   UNL A   1      41.503  32.993  33.241  1.00  0.00     0.029 A 
ATOM     52  C   UNL A   1      40.680  33.539  34.306  1.00  0.00     0.049 A 
ATOM     53  H   UNL A   1      38.714  34.194  33.799  1.00  0.00     0.167 HD
ATOM     54  C   UNL A   1      40.442  28.111  30.492  1.00  0.00     0.034 A 
ATOM     55  C   UNL A   1      40.858  33.292  35.643  1.00  0.00     0.034 A 
ATOM     56  C   UNL A   1      41.627  28.553  31.267  1.00  0.00     0.049 A 
ATOM     57  C   UNL A   1      41.643  32.005  35.892  1.00  0.00     0.074 A 
ATOM     58  C   UNL A   1      42.623  29.489  31.040  1.00  0.00     0.029 A 
ATOM     59  N   UNL A   1      41.717  28.224  32.622  1.00  0.00    -0.354 N 
ATOM     60  N   UNL A   1      41.989  31.164  34.954  1.00  0.00    -0.248 NA
ATOM     61  C   UNL A   1      42.109  31.564  37.202  1.00  0.00     0.031 C 
ATOM     62  C   UNL A   1      43.218  29.814  32.298  1.00  0.00     0.029 A 
ATOM     63  C   UNL A   1      42.621  29.046  33.285  1.00  0.00     0.049 A 
ATOM     64  H   UNL A   1      41.205  27.501  33.052  1.00  0.00     0.167 HD
ATOM     65  C   UNL A   1      42.561  30.044  35.489  1.00  0.00     0.074 A 
ATOM     66  C   UNL A   1      42.702  30.394  36.896  1.00  0.00     0.031 C 
ATOM     67  C   UNL A   1      42.807  28.920  34.738  1.00  0.00     0.034 A 
BRANCH  54  68
ATOM     68  C   UNL A   1      40.544  27.474  29.103  1.00  0.00     0.023 A 
ATOM     69  C   UNL A   1      39.725  26.350  28.850  1.00  0.00     0.012 A 
ATOM     70  C   UNL A   1      41.425  27.827  28.046  1.00  0.00     0.148 A 
ATOM     71  C   UNL A   1      39.796  25.610  27.658  1.00  0.00     0.002 A 
ATOM     72  C   UNL A   1      41.481  27.109  26.846  1.00  0.00     0.091 A 
ATOM     73  F   UNL A   1      42.267  28.847  28.178  1.00  0.00    -0.205 F 
ATOM     74  C   UNL A   1      40.674  25.990  26.654  1.00  0.00     0.022 A 
BRANCH  72  75
ATOM     75  S   UNL A   1      42.589  27.561  25.492  1.00  0.00     0.127 S 
ATOM     76  O   UNL A   1      41.984  28.800  25.001  1.00  0.00    -0.237 OA
ATOM     77  O   UNL A   1      43.866  27.740  26.183  1.00  0.00    -0.237 OA
ATOM     78  O   UNL A   1      42.563  26.456  24.542  1.00  0.00    -0.744 OA
ENDBRANCH  72  75
ENDBRANCH  54  68
BRANCH  55  79
ATOM     79  C   UNL A   1      39.729  33.820  36.481  1.00  0.00     0.023 A 
ATOM     80  C   UNL A   1      38.688  32.904  36.779  1.00  0.00     0.012 A 
ATOM     81  C   UNL A   1      39.893  34.944  37.313  1.00  0.00     0.148 A 
ATOM     82  C   UNL A   1      37.969  32.997  37.973  1.00  0.00     0.002 A 
ATOM     83  C   UNL A   1      39.163  35.033  38.502  1.00  0.00     0.091 A 
ATOM     84  F   UNL A   1      40.800  35.868  36.973  1.00  0.00    -0.205 F 
ATOM     85  C   UNL A   1      38.243  34.034  38.858  1.00  0.00     0.022 A 
BRANCH  83  86
ATOM     86  S   UNL A   1      39.455  36.360  39.683  1.00  0.00     0.127 S 
ATOM     87  O   UNL A   1      39.010  37.527  38.926  1.00  0.00    -0.237 OA
ATOM     88  O   UNL A   1      38.592  35.997  40.805  1.00  0.00    -0.237 OA
ATOM     89  O   UNL A   1      40.879  36.287  39.982  1.00  0.00    -0.744 OA
ENDBRANCH  83  86
ENDBRANCH  55  79
BRANCH  67  90
ATOM     90  C   UNL A   1      43.227  27.568  35.303  1.00  0.00     0.023 A 
ATOM     91  C   UNL A   1      42.382  26.784  36.110  1.00  0.00     0.012 A 
ATOM     92  C   UNL A   1      44.461  26.973  34.926  1.00  0.00     0.148 A 
ATOM     93  C   UNL A   1      42.761  25.522  36.583  1.00  0.00     0.002 A 
ATOM     94  C   UNL A   1      44.772  25.664  35.286  1.00  0.00     0.091 A 
ATOM     95  F   UNL A   1      45.366  27.679  34.233  1.00  0.00    -0.205 F 
ATOM     96  C   UNL A   1      43.945  24.950  36.150  1.00  0.00     0.022 A 
BRANCH  94  97
ATOM     97  S   UNL A   1      46.147  24.794  34.518  1.00  0.00     0.127 S 
ATOM     98  O   UNL A   1      46.203  25.419  33.199  1.00  0.00    -0.237 OA
ATOM     99  O   UNL A   1      47.264  25.134  35.401  1.00  0.00    -0.237 OA
ATOM    100  O   UNL A   1      45.772  23.386  34.550  1.00  0.00    -0.744 OA
ENDBRANCH  94  97
ENDBRANCH  67  90
ENDBRANCH  41  42
ENDBRANCH  33  36
ENDBRANCH  31  32
ENDBRANCH  30  31
ENDBRANCH  29  30
ENDBRANCH   1  29
TORSDOF 20
ENDMDL
MODEL 2
REMARK VINA RESULT:     -10.9      5.186     10.796
REMARK SMILES Cc1ccc(S(=O)(=O)N[C@@H](C)C(=O)Oc2csc(C(=O)NCCCCNC(=O)c3ccc(-c4c5nc(c(-c6cccc(S(=O)(=O)[O-])c6F)c6ccc([nH]6)c(-c6cccc(S(=O)(=O)[O-])c6F)c6nc(c(-c7cccc(S(=O)(=O)[O-])c7F)c7ccc4[nH]7)C=C6)C=C5)cc3)c2C)cc1
REMARK SMILES IDX 22 1 21 2 19 3 20 4 18 6 15 7 16 8 92 9 17 10 93 11 14 12
REMARK SMILES IDX 12 13 13 14 10 15 11 16 9 17 6 19 7 20 8 21 5 22 1 23 2 24
REMARK SMILES IDX 3 25 95 26 4 27 94 28 23 29 24 30 25 31 26 32 27 33 28 35
REMARK SMILES IDX 29 36 30 37 91 38 31 39 90 40 32 41 33 42 34 43 84 44 35 45
REMARK SMILES IDX 89 46 83 47 85 48 36 49 88 50 82 51 81 52 37 54 69 55 49 56
REMARK SMILES IDX 68 57 50 58 53 59 67 60 86 61 51 62 52 63 66 65 87 66 54 67
REMARK SMILES IDX 38 68 39 69 47 70 40 71 42 72 48 73 41 74 43 75 44 76 45 77
REMARK SMILES IDX 46 78 70 79 71 80 79 81 72 82 74 83 80 84 73 85 75 86 76 87
REMARK SMILES IDX 77 88 78 89 55 90 56 91 64 92 57 93 59 94 65 95 58 96 60 97
REMARK SMILES IDX 61 98 62 99 63 100
REMARK H PARENT 21 5 9 18 26 34 85 53 53 64
REMARK Flexibility Score: inf
ROOT
ATOM      1  C   UNL A   1      38.215  21.912  26.020  1.00  0.00     0.116 C 
ENDROOT
BRANCH   1   2
ATOM      2  N   UNL A   1      37.161  21.076  25.492  1.00  0.00    -0.351 N 
ATOM      3  C   UNL A   1      35.792  21.130  25.425  1.00  0.00     0.261 C 
ATOM      4  O   UNL A   1      35.324  20.117  24.883  1.00  0.00    -0.268 OA
ATOM      5  H   UNL A   1      37.517  20.258  25.073  1.00  0.00     0.163 HD
BRANCH   3   6
ATOM      6  C   UNL A   1      34.924  22.223  25.905  1.00  0.00     0.099 A 
ATOM      7  C   UNL A   1      33.705  24.149  26.507  1.00  0.00     0.145 A 
ATOM      8  C   UNL A   1      32.933  23.199  27.110  1.00  0.00     0.113 A 
ATOM      9  C   UNL A   1      34.900  23.622  25.885  1.00  0.00     0.015 A 
ATOM     10  S   UNL A   1      33.536  21.645  26.815  1.00  0.00    -0.134 S 
ATOM     11  C   UNL A   1      35.910  24.576  25.357  1.00  0.00     0.050 C 
BRANCH   7  12
ATOM     12  O   UNL A   1      33.407  25.469  26.626  1.00  0.00    -0.424 OA
BRANCH  12  13
ATOM     13  C   UNL A   1      32.484  25.964  25.742  1.00  0.00     0.329 C 
ATOM     14  O   UNL A   1      31.281  25.720  25.756  1.00  0.00    -0.250 OA
BRANCH  13  15
ATOM     15  C   UNL A   1      33.116  26.955  24.766  1.00  0.00     0.177 C 
ATOM     16  C   UNL A   1      33.488  28.277  25.421  1.00  0.00     0.038 C 
BRANCH  15  17
ATOM     17  N   UNL A   1      32.194  27.111  23.639  1.00  0.00    -0.197 NA
ATOM     18  H   UNL A   1      31.279  26.833  23.993  1.00  0.00     0.142 HD
BRANCH  17  19
ATOM     19  S   UNL A   1      32.357  26.342  22.177  1.00  0.00     0.241 S 
ATOM     20  O   UNL A   1      33.714  26.604  21.704  1.00  0.00    -0.207 OA
ATOM     21  O   UNL A   1      31.217  26.725  21.406  1.00  0.00    -0.207 OA
BRANCH  19  22
ATOM     22  C   UNL A   1      32.239  24.600  22.484  1.00  0.00     0.082 A 
ATOM     23  C   UNL A   1      32.286  20.407  23.439  1.00  0.00     0.044 C 
ATOM     24  C   UNL A   1      32.256  21.868  23.097  1.00  0.00    -0.051 A 
ATOM     25  C   UNL A   1      33.381  22.469  22.520  1.00  0.00     0.005 A 
ATOM     26  C   UNL A   1      31.110  22.641  23.328  1.00  0.00     0.005 A 
ATOM     27  C   UNL A   1      33.380  23.831  22.226  1.00  0.00     0.022 A 
ATOM     28  C   UNL A   1      31.091  24.003  23.008  1.00  0.00     0.022 A 
ENDBRANCH  19  22
ENDBRANCH  17  19
ENDBRANCH  15  17
ENDBRANCH  13  15
ENDBRANCH  12  13
ENDBRANCH   7  12
ENDBRANCH   3   6
ENDBRANCH   1   2
BRANCH   1  29
ATOM     29  C   UNL A   1      39.600  21.430  25.565  1.00  0.00     0.023 C 
BRANCH  29  30
ATOM     30  C   UNL A   1      40.187  20.198  26.260  1.00  0.00     0.023 C 
BRANCH  30  31
ATOM     31  C   UNL A   1      41.316  20.458  27.251  1.00  0.00     0.116 C 
BRANCH  31  32
ATOM     32  N   UNL A   1      42.633  20.396  26.614  1.00  0.00    -0.352 N 
ATOM     33  C   UNL A   1      43.283  21.311  25.808  1.00  0.00     0.251 C 
ATOM     34  H   UNL A   1      43.136  19.568  26.788  1.00  0.00     0.163 HD
ATOM     35  O   UNL A   1      44.110  20.890  25.007  1.00  0.00    -0.269 OA
BRANCH  33  36
ATOM     36  C   UNL A   1      43.043  22.757  25.980  1.00  0.00     0.039 A 
ATOM     37  C   UNL A   1      43.552  23.725  25.104  1.00  0.00     0.014 A 
ATOM     38  C   UNL A   1      42.424  23.159  27.153  1.00  0.00     0.014 A 
ATOM     39  C   UNL A   1      43.530  25.071  25.486  1.00  0.00     0.010 A 
ATOM     40  C   UNL A   1      42.137  24.464  27.381  1.00  0.00     0.010 A 
ATOM     41  C   UNL A   1      42.875  25.401  26.667  1.00  0.00    -0.014 A 
BRANCH  41  42
ATOM     42  C   UNL A   1      43.030  26.615  27.446  1.00  0.00     0.031 A 
ATOM     43  C   UNL A   1      41.974  27.628  27.454  1.00  0.00     0.074 A 
ATOM     44  C   UNL A   1      43.942  26.496  28.445  1.00  0.00     0.049 A 
ATOM     45  N   UNL A   1      42.061  28.742  28.088  1.00  0.00    -0.248 NA
ATOM     46  C   UNL A   1      40.717  27.461  26.733  1.00  0.00     0.031 C 
ATOM     47  C   UNL A   1      43.938  27.133  29.753  1.00  0.00     0.029 A 
ATOM     48  N   UNL A   1      45.071  25.668  28.527  1.00  0.00    -0.354 N 
ATOM     49  C   UNL A   1      40.780  29.239  28.178  1.00  0.00     0.074 A 
ATOM     50  C   UNL A   1      40.049  28.540  27.152  1.00  0.00     0.031 C 
ATOM     51  C   UNL A   1      45.132  26.919  30.338  1.00  0.00     0.029 A 
ATOM     52  C   UNL A   1      45.996  26.341  29.323  1.00  0.00     0.049 A 
ATOM     53  H   UNL A   1      45.187  24.787  28.104  1.00  0.00     0.167 HD
ATOM     54  C   UNL A   1      40.467  30.014  29.256  1.00  0.00     0.034 A 
ATOM     55  C   UNL A   1      47.098  26.955  28.786  1.00  0.00     0.034 A 
ATOM     56  C   UNL A   1      41.693  30.340  30.025  1.00  0.00     0.049 A 
ATOM     57  C   UNL A   1      47.047  28.474  28.946  1.00  0.00     0.074 A 
ATOM     58  C   UNL A   1      42.201  29.913  31.242  1.00  0.00     0.029 A 
ATOM     59  N   UNL A   1      42.749  30.990  29.381  1.00  0.00    -0.354 N 
ATOM     60  N   UNL A   1      46.018  29.128  29.415  1.00  0.00    -0.248 NA
ATOM     61  C   UNL A   1      48.142  29.376  28.604  1.00  0.00     0.031 C 
ATOM     62  C   UNL A   1      43.601  30.196  31.260  1.00  0.00     0.029 A 
ATOM     63  C   UNL A   1      43.942  30.836  30.079  1.00  0.00     0.049 A 
ATOM     64  H   UNL A   1      42.660  31.494  28.540  1.00  0.00     0.167 HD
ATOM     65  C   UNL A   1      46.210  30.477  29.315  1.00  0.00     0.074 A 
ATOM     66  C   UNL A   1      47.601  30.575  28.892  1.00  0.00     0.031 C 
ATOM     67  C   UNL A   1      45.194  31.377  29.530  1.00  0.00     0.034 A 
BRANCH  54  68
ATOM     68  C   UNL A   1      39.055  30.276  29.789  1.00  0.00     0.023 A 
ATOM     69  C   UNL A   1      38.282  29.146  30.142  1.00  0.00     0.012 A 
ATOM     70  C   UNL A   1      38.386  31.523  29.905  1.00  0.00     0.148 A 
ATOM     71  C   UNL A   1      36.940  29.239  30.544  1.00  0.00     0.002 A 
ATOM     72  C   UNL A   1      37.057  31.624  30.331  1.00  0.00     0.091 A 
ATOM     73  F   UNL A   1      38.999  32.654  29.572  1.00  0.00    -0.205 F 
ATOM     74  C   UNL A   1      36.325  30.479  30.640  1.00  0.00     0.022 A 
BRANCH  72  75
ATOM     75  S   UNL A   1      36.204  33.209  30.494  1.00  0.00     0.127 S 
ATOM     76  O   UNL A   1      37.055  33.918  31.450  1.00  0.00    -0.237 OA
ATOM     77  O   UNL A   1      36.256  33.731  29.128  1.00  0.00    -0.237 OA
ATOM     78  O   UNL A   1      34.861  32.914  30.980  1.00  0.00    -0.744 OA
ENDBRANCH  72  75
ENDBRANCH  54  68
BRANCH  55  79
ATOM     79  C   UNL A   1      47.660  26.203  27.613  1.00  0.00     0.023 A 
ATOM     80  C   UNL A   1      46.829  26.116  26.467  1.00  0.00     0.012 A 
ATOM     81  C   UNL A   1      49.047  26.022  27.451  1.00  0.00     0.148 A 
ATOM     82  C   UNL A   1      47.378  26.052  25.184  1.00  0.00     0.002 A 
ATOM     83  C   UNL A   1      49.588  25.951  26.164  1.00  0.00     0.091 A 
ATOM     84  F   UNL A   1      49.823  25.993  28.542  1.00  0.00    -0.205 F 
ATOM     85  C   UNL A   1      48.760  26.020  25.032  1.00  0.00     0.022 A 
BRANCH  83  86
ATOM     86  S   UNL A   1      51.367  25.889  25.897  1.00  0.00     0.127 S 
ATOM     87  O   UNL A   1      51.455  26.149  24.463  1.00  0.00    -0.237 OA
ATOM     88  O   UNL A   1      51.864  26.972  26.743  1.00  0.00    -0.237 OA
ATOM     89  O   UNL A   1      51.765  24.560  26.339  1.00  0.00    -0.744 OA
ENDBRANCH  83  86
ENDBRANCH  55  79
BRANCH  67  90
ATOM     90  C   UNL A   1      45.269  32.867  29.221  1.00  0.00     0.023 A 
ATOM     91  C   UNL A   1      45.441  33.844  30.220  1.00  0.00     0.012 A 
ATOM     92  C   UNL A   1      45.299  33.333  27.880  1.00  0.00     0.148 A 
ATOM     93  C   UNL A   1      45.557  35.207  29.921  1.00  0.00     0.002 A 
ATOM     94  C   UNL A   1      45.553  34.670  27.584  1.00  0.00     0.091 A 
ATOM     95  F   UNL A   1      45.056  32.488  26.867  1.00  0.00    -0.205 F 
ATOM     96  C   UNL A   1      45.639  35.618  28.601  1.00  0.00     0.022 A 
BRANCH  94  97
ATOM     97  S   UNL A   1      45.949  35.190  25.907  1.00  0.00     0.127 S 
ATOM     98  O   UNL A   1      46.259  36.605  26.093  1.00  0.00    -0.237 OA
ATOM     99  O   UNL A   1      47.104  34.350  25.584  1.00  0.00    -0.237 OA
ATOM    100  O   UNL A   1      44.757  34.888  25.125  1.00  0.00    -0.744 OA
ENDBRANCH  94  97
ENDBRANCH  67  90
ENDBRANCH  41  42
ENDBRANCH  33  36
ENDBRANCH  31  32
ENDBRANCH  30  31
ENDBRANCH  29  30
ENDBRANCH   1  29
TORSDOF 20
ENDMDL
MODEL 3
REMARK VINA RESULT:     -10.9      5.395     11.162
REMARK SMILES Cc1ccc(S(=O)(=O)N[C@@H](C)C(=O)Oc2csc(C(=O)NCCCCNC(=O)c3ccc(-c4c5nc(c(-c6cccc(S(=O)(=O)[O-])c6F)c6ccc([nH]6)c(-c6cccc(S(=O)(=O)[O-])c6F)c6nc(c(-c7cccc(S(=O)(=O)[O-])c7F)c7ccc4[nH]7)C=C6)C=C5)cc3)c2C)cc1
REMARK SMILES IDX 22 1 21 2 19 3 20 4 18 6 15 7 16 8 92 9 17 10 93 11 14 12
REMARK SMILES IDX 12 13 13 14 10 15 11 16 9 17 6 19 7 20 8 21 5 22 1 23 2 24
REMARK SMILES IDX 3 25 95 26 4 27 94 28 23 29 24 30 25 31 26 32 27 33 28 35
REMARK SMILES IDX 29 36 30 37 91 38 31 39 90 40 32 41 33 42 34 43 84 44 35 45
REMARK SMILES IDX 89 46 83 47 85 48 36 49 88 50 82 51 81 52 37 54 69 55 49 56
REMARK SMILES IDX 68 57 50 58 53 59 67 60 86 61 51 62 52 63 66 65 87 66 54 67
REMARK SMILES IDX 38 68 39 69 47 70 40 71 42 72 48 73 41 74 43 75 44 76 45 77
REMARK SMILES IDX 46 78 70 79 71 80 79 81 72 82 74 83 80 84 73 85 75 86 76 87
REMARK SMILES IDX 77 88 78 89 55 90 56 91 64 92 57 93 59 94 65 95 58 96 60 97
REMARK SMILES IDX 61 98 62 99 63 100
REMARK H PARENT 21 5 9 18 26 34 85 53 53 64
REMARK Flexibility Score: inf
ROOT
ATOM      1  C   UNL A   1      38.514  23.443  27.038  1.00  0.00     0.116 C 
ENDROOT
BRANCH   1   2
ATOM      2  N   UNL A   1      38.149  23.478  25.640  1.00  0.00    -0.351 N 
ATOM      3  C   UNL A   1      37.002  23.296  24.911  1.00  0.00     0.261 C 
ATOM      4  O   UNL A   1      37.217  23.402  23.693  1.00  0.00    -0.268 OA
ATOM      5  H   UNL A   1      38.921  23.685  25.065  1.00  0.00     0.163 HD
BRANCH   3   6
ATOM      6  C   UNL A   1      35.651  23.019  25.437  1.00  0.00     0.099 A 
ATOM      7  C   UNL A   1      33.423  22.851  26.189  1.00  0.00     0.145 A 
ATOM      8  C   UNL A   1      33.836  21.571  26.424  1.00  0.00     0.113 A 
ATOM      9  C   UNL A   1      34.472  23.723  25.706  1.00  0.00     0.015 A 
ATOM     10  S   UNL A   1      35.439  21.345  25.928  1.00  0.00    -0.134 S 
ATOM     11  C   UNL A   1      34.193  25.177  25.589  1.00  0.00     0.050 C 
BRANCH   7  12
ATOM     12  O   UNL A   1      32.170  23.252  26.524  1.00  0.00    -0.424 OA
BRANCH  12  13
ATOM     13  C   UNL A   1      31.146  22.731  25.775  1.00  0.00     0.329 C 
ATOM     14  O   UNL A   1      30.552  21.683  26.010  1.00  0.00    -0.250 OA
BRANCH  13  15
ATOM     15  C   UNL A   1      30.749  23.670  24.636  1.00  0.00     0.177 C 
ATOM     16  C   UNL A   1      31.441  23.333  23.323  1.00  0.00     0.038 C 
BRANCH  15  17
ATOM     17  N   UNL A   1      31.004  25.040  25.087  1.00  0.00    -0.197 NA
ATOM     18  H   UNL A   1      30.628  25.091  26.034  1.00  0.00     0.142 HD
BRANCH  17  19
ATOM     19  S   UNL A   1      30.455  26.402  24.315  1.00  0.00     0.241 S 
ATOM     20  O   UNL A   1      29.003  26.432  24.483  1.00  0.00    -0.207 OA
ATOM     21  O   UNL A   1      31.050  26.383  23.017  1.00  0.00    -0.207 OA
BRANCH  19  22
ATOM     22  C   UNL A   1      31.108  27.799  25.187  1.00  0.00     0.082 A 
ATOM     23  C   UNL A   1      32.996  30.960  27.410  1.00  0.00     0.044 C 
ATOM     24  C   UNL A   1      32.324  29.868  26.630  1.00  0.00    -0.051 A 
ATOM     25  C   UNL A   1      32.065  28.637  27.245  1.00  0.00     0.005 A 
ATOM     26  C   UNL A   1      31.935  30.064  25.299  1.00  0.00     0.005 A 
ATOM     27  C   UNL A   1      31.471  27.602  26.524  1.00  0.00     0.022 A 
ATOM     28  C   UNL A   1      31.312  29.039  24.579  1.00  0.00     0.022 A 
ENDBRANCH  19  22
ENDBRANCH  17  19
ENDBRANCH  15  17
ENDBRANCH  13  15
ENDBRANCH  12  13
ENDBRANCH   7  12
ENDBRANCH   3   6
ENDBRANCH   1   2
BRANCH   1  29
ATOM     29  C   UNL A   1      40.029  23.600  27.231  1.00  0.00     0.023 C 
BRANCH  29  30
ATOM     30  C   UNL A   1      40.891  22.338  27.148  1.00  0.00     0.023 C 
BRANCH  30  31
ATOM     31  C   UNL A   1      41.296  21.889  25.749  1.00  0.00     0.116 C 
BRANCH  31  32
ATOM     32  N   UNL A   1      42.481  21.030  25.767  1.00  0.00    -0.352 N 
ATOM     33  C   UNL A   1      43.823  21.353  25.833  1.00  0.00     0.251 C 
ATOM     34  H   UNL A   1      42.291  20.065  25.726  1.00  0.00     0.163 HD
ATOM     35  O   UNL A   1      44.632  20.567  25.353  1.00  0.00    -0.269 OA
BRANCH  33  36
ATOM     36  C   UNL A   1      44.260  22.572  26.542  1.00  0.00     0.039 A 
ATOM     37  C   UNL A   1      44.286  22.674  27.940  1.00  0.00     0.014 A 
ATOM     38  C   UNL A   1      44.492  23.701  25.774  1.00  0.00     0.014 A 
ATOM     39  C   UNL A   1      44.429  23.935  28.530  1.00  0.00     0.010 A 
ATOM     40  C   UNL A   1      44.925  24.855  26.337  1.00  0.00     0.010 A 
ATOM     41  C   UNL A   1      44.679  25.018  27.696  1.00  0.00    -0.014 A 
BRANCH  41  42
ATOM     42  C   UNL A   1      44.496  26.424  28.006  1.00  0.00     0.031 A 
ATOM     43  C   UNL A   1      43.156  27.012  28.010  1.00  0.00     0.074 A 
ATOM     44  C   UNL A   1      45.535  26.958  28.697  1.00  0.00     0.049 A 
ATOM     45  N   UNL A   1      42.925  28.256  28.236  1.00  0.00    -0.248 NA
ATOM     46  C   UNL A   1      41.952  26.229  27.753  1.00  0.00     0.031 C 
ATOM     47  C   UNL A   1      45.506  28.007  29.705  1.00  0.00     0.029 A 
ATOM     48  N   UNL A   1      46.888  26.587  28.700  1.00  0.00    -0.354 N 
ATOM     49  C   UNL A   1      41.584  28.354  28.531  1.00  0.00     0.074 A 
ATOM     50  C   UNL A   1      41.009  27.143  28.005  1.00  0.00     0.031 C 
ATOM     51  C   UNL A   1      46.773  28.384  29.968  1.00  0.00     0.029 A 
ATOM     52  C   UNL A   1      47.613  27.747  28.969  1.00  0.00     0.049 A 
ATOM     53  H   UNL A   1      47.252  25.688  28.541  1.00  0.00     0.167 HD
ATOM     54  C   UNL A   1      41.184  29.349  29.375  1.00  0.00     0.034 A 
ATOM     55  C   UNL A   1      48.307  28.407  27.988  1.00  0.00     0.034 A 
ATOM     56  C   UNL A   1      42.309  30.280  29.637  1.00  0.00     0.049 A 
ATOM     57  C   UNL A   1      47.724  29.790  27.701  1.00  0.00     0.074 A 
ATOM     58  C   UNL A   1      43.127  30.506  30.732  1.00  0.00     0.029 A 
ATOM     59  N   UNL A   1      42.930  30.919  28.561  1.00  0.00    -0.354 N 
ATOM     60  N   UNL A   1      46.616  30.242  28.225  1.00  0.00    -0.248 NA
ATOM     61  C   UNL A   1      48.336  30.775  26.815  1.00  0.00     0.031 C 
ATOM     62  C   UNL A   1      44.307  31.170  30.272  1.00  0.00     0.029 A 
ATOM     63  C   UNL A   1      44.190  31.391  28.909  1.00  0.00     0.049 A 
ATOM     64  H   UNL A   1      42.526  31.023  27.669  1.00  0.00     0.167 HD
ATOM     65  C   UNL A   1      46.276  31.449  27.681  1.00  0.00     0.074 A 
ATOM     66  C   UNL A   1      47.443  31.782  26.876  1.00  0.00     0.031 C 
ATOM     67  C   UNL A   1      45.048  32.027  27.897  1.00  0.00     0.034 A 
BRANCH  54  68
ATOM     68  C   UNL A   1      39.882  29.368  30.180  1.00  0.00     0.023 A 
ATOM     69  C   UNL A   1      39.571  28.208  30.927  1.00  0.00     0.012 A 
ATOM     70  C   UNL A   1      38.894  30.388  30.213  1.00  0.00     0.148 A 
ATOM     71  C   UNL A   1      38.362  28.054  31.624  1.00  0.00     0.002 A 
ATOM     72  C   UNL A   1      37.699  30.250  30.928  1.00  0.00     0.091 A 
ATOM     73  F   UNL A   1      39.058  31.513  29.525  1.00  0.00    -0.205 F 
ATOM     74  C   UNL A   1      37.424  29.077  31.626  1.00  0.00     0.022 A 
BRANCH  72  75
ATOM     75  S   UNL A   1      36.444  31.550  30.986  1.00  0.00     0.127 S 
ATOM     76  O   UNL A   1      35.596  31.108  32.093  1.00  0.00    -0.237 OA
ATOM     77  O   UNL A   1      37.243  32.741  31.269  1.00  0.00    -0.237 OA
ATOM     78  O   UNL A   1      35.786  31.555  29.684  1.00  0.00    -0.744 OA
ENDBRANCH  72  75
ENDBRANCH  54  68
BRANCH  55  79
ATOM     79  C   UNL A   1      48.911  27.470  26.981  1.00  0.00     0.023 A 
ATOM     80  C   UNL A   1      48.224  27.350  25.746  1.00  0.00     0.012 A 
ATOM     81  C   UNL A   1      50.274  27.118  27.028  1.00  0.00     0.148 A 
ATOM     82  C   UNL A   1      48.916  27.081  24.562  1.00  0.00     0.002 A 
ATOM     83  C   UNL A   1      50.956  26.842  25.840  1.00  0.00     0.091 A 
ATOM     84  F   UNL A   1      50.898  27.123  28.213  1.00  0.00    -0.205 F 
ATOM     85  C   UNL A   1      50.291  26.877  24.604  1.00  0.00     0.022 A 
BRANCH  83  86
ATOM     86  S   UNL A   1      52.733  26.551  25.826  1.00  0.00     0.127 S 
ATOM     87  O   UNL A   1      53.236  27.793  26.405  1.00  0.00    -0.237 OA
ATOM     88  O   UNL A   1      52.880  25.376  26.682  1.00  0.00    -0.237 OA
ATOM     89  O   UNL A   1      53.060  26.310  24.427  1.00  0.00    -0.744 OA
ENDBRANCH  83  86
ENDBRANCH  55  79
BRANCH  67  90
ATOM     90  C   UNL A   1      44.514  33.245  27.155  1.00  0.00     0.023 A 
ATOM     91  C   UNL A   1      44.220  33.230  25.778  1.00  0.00     0.012 A 
ATOM     92  C   UNL A   1      44.162  34.430  27.855  1.00  0.00     0.148 A 
ATOM     93  C   UNL A   1      43.684  34.340  25.116  1.00  0.00     0.002 A 
ATOM     94  C   UNL A   1      43.503  35.479  27.219  1.00  0.00     0.091 A 
ATOM     95  F   UNL A   1      44.486  34.569  29.149  1.00  0.00    -0.205 F 
ATOM     96  C   UNL A   1      43.301  35.457  25.840  1.00  0.00     0.022 A 
BRANCH  94  97
ATOM     97  S   UNL A   1      42.742  36.806  28.165  1.00  0.00     0.127 S 
ATOM     98  O   UNL A   1      42.039  37.555  27.126  1.00  0.00    -0.237 OA
ATOM     99  O   UNL A   1      41.870  36.074  29.084  1.00  0.00    -0.237 OA
ATOM    100  O   UNL A   1      43.850  37.492  28.816  1.00  0.00    -0.744 OA
ENDBRANCH  94  97
ENDBRANCH  67  90
ENDBRANCH  41  42
ENDBRANCH  33  36
ENDBRANCH  31  32
ENDBRANCH  30  31
ENDBRANCH  29  30
ENDBRANCH   1  29
TORSDOF 20
ENDMDL
