MODEL 1
REMARK VINA RESULT:     -12.4      0.000      0.000
REMARK SMILES CC(C)CN(C)c1cc2c(cc1Cl)C=C(C(=O)NCCCCNC(=O)c1ccc(-c3c4nc(c(-c5cccc(S(=O)(=O)[O-])c5F)c5ccc([nH]5)c(-c5cccc(S(=O)(=O)[O-])c5F)c5nc(c(-c6cccc(S(=O)(=O)[O-])c6F)c6ccc3[nH]6)C=C5)C=C4)cc1)[C@H](C(F)(F)F)O2
REMARK SMILES IDX 20 1 19 2 18 3 16 4 17 5 15 7 7 8 8 9 12 10 9 11 11 12 13 13
REMARK SMILES IDX 10 14 94 15 14 16 89 17 5 18 6 19 4 20 2 21 1 22 3 23 90 24
REMARK SMILES IDX 91 25 92 26 93 27 21 28 22 29 23 30 24 31 25 33 26 34 27 35
REMARK SMILES IDX 88 36 28 37 87 38 29 39 30 40 31 41 81 42 32 43 86 44 80 45
REMARK SMILES IDX 82 46 33 47 85 48 79 49 78 50 34 52 66 53 46 54 65 55 47 56
REMARK SMILES IDX 50 57 64 58 83 59 48 60 49 61 63 63 84 64 51 65 35 66 36 67
REMARK SMILES IDX 44 68 37 69 39 70 45 71 38 72 40 73 41 74 42 75 43 76 67 77
REMARK SMILES IDX 68 78 76 79 69 80 71 81 77 82 70 83 72 84 73 85 74 86 75 87
REMARK SMILES IDX 52 88 53 89 61 90 54 91 56 92 62 93 55 94 57 95 58 96 59 97
REMARK SMILES IDX 60 98
REMARK H PARENT 18 6 23 32 82 51 50 62
REMARK Flexibility Score: inf
ROOT
ATOM      1  C   UNL A   1      31.742  29.929  26.689  1.00  0.00     0.023 C 
ENDROOT
BRANCH   1   2
ATOM      2  C   UNL A   1      33.090  29.595  26.054  1.00  0.00     0.116 C 
BRANCH   2   3
ATOM      3  N   UNL A   1      33.021  29.710  24.611  1.00  0.00    -0.352 N 
ATOM      4  C   UNL A   1      32.869  28.829  23.595  1.00  0.00     0.251 C 
ATOM      5  O   UNL A   1      32.806  29.300  22.458  1.00  0.00    -0.270 OA
ATOM      6  H   UNL A   1      33.103  30.640  24.299  1.00  0.00     0.163 HD
BRANCH   4   7
ATOM      7  C   UNL A   1      32.749  27.357  23.789  1.00  0.00     0.067 C 
ATOM      8  C   UNL A   1      33.783  22.644  25.329  1.00  0.00     0.059 A 
ATOM      9  C   UNL A   1      32.643  23.305  24.841  1.00  0.00     0.074 A 
ATOM     10  C   UNL A   1      34.990  23.374  25.361  1.00  0.00     0.065 A 
ATOM     11  C   UNL A   1      32.690  24.642  24.441  1.00  0.00     0.130 A 
ATOM     12  C   UNL A   1      35.024  24.728  25.007  1.00  0.00     0.034 A 
ATOM     13  Cl  UNL A   1      36.496  22.640  25.796  1.00  0.00    -0.082 Cl
ATOM     14  C   UNL A   1      33.869  25.367  24.556  1.00  0.00     0.019 A 
ATOM     15  O   UNL A   1      31.535  25.155  23.936  1.00  0.00    -0.475 OA
ATOM     16  C   UNL A   1      33.882  26.778  24.223  1.00  0.00     0.025 C 
ATOM     17  C   UNL A   1      31.467  26.578  23.630  1.00  0.00     0.314 C 
BRANCH   8  18
ATOM     18  N   UNL A   1      33.696  21.311  25.760  1.00  0.00    -0.373 N 
ATOM     19  C   UNL A   1      33.748  21.132  27.210  1.00  0.00     0.143 C 
BRANCH  18  20
ATOM     20  C   UNL A   1      34.430  20.313  24.954  1.00  0.00     0.119 C 
BRANCH  20  21
ATOM     21  C   UNL A   1      33.646  18.994  24.790  1.00  0.00     0.002 C 
ATOM     22  C   UNL A   1      32.478  19.146  23.812  1.00  0.00     0.009 C 
ATOM     23  C   UNL A   1      34.564  17.870  24.302  1.00  0.00     0.009 C 
ENDBRANCH  20  21
ENDBRANCH  18  20
ENDBRANCH   8  18
BRANCH  17  24
ATOM     24  C   UNL A   1      30.246  27.147  24.378  1.00  0.00     0.429 C 
ATOM     25  F   UNL A   1      29.125  26.415  24.219  1.00  0.00    -0.167 F 
ATOM     26  F   UNL A   1      30.508  27.197  25.711  1.00  0.00    -0.167 F 
ATOM     27  F   UNL A   1      29.947  28.410  23.994  1.00  0.00    -0.167 F 
ENDBRANCH  17  24
ENDBRANCH   4   7
ENDBRANCH   2   3
ENDBRANCH   1   2
BRANCH   1  28
ATOM     28  C   UNL A   1      31.310  31.384  26.531  1.00  0.00     0.023 C 
BRANCH  28  29
ATOM     29  C   UNL A   1      32.452  32.384  26.428  1.00  0.00     0.116 C 
BRANCH  29  30
ATOM     30  N   UNL A   1      32.300  33.544  27.296  1.00  0.00    -0.352 N 
ATOM     31  C   UNL A   1      33.167  33.981  28.273  1.00  0.00     0.251 C 
ATOM     32  H   UNL A   1      31.482  34.079  27.170  1.00  0.00     0.163 HD
ATOM     33  O   UNL A   1      32.898  34.950  28.972  1.00  0.00    -0.269 OA
BRANCH  31  34
ATOM     34  C   UNL A   1      34.403  33.204  28.482  1.00  0.00     0.039 A 
ATOM     35  C   UNL A   1      34.313  31.848  28.803  1.00  0.00     0.014 A 
ATOM     36  C   UNL A   1      35.621  33.881  28.546  1.00  0.00     0.014 A 
ATOM     37  C   UNL A   1      35.409  31.216  29.371  1.00  0.00     0.010 A 
ATOM     38  C   UNL A   1      36.743  33.216  29.042  1.00  0.00     0.010 A 
ATOM     39  C   UNL A   1      36.627  31.900  29.519  1.00  0.00    -0.014 A 
BRANCH  39  40
ATOM     40  C   UNL A   1      37.764  31.240  30.209  1.00  0.00     0.031 A 
ATOM     41  C   UNL A   1      38.051  31.521  31.660  1.00  0.00     0.074 A 
ATOM     42  C   UNL A   1      38.519  30.355  29.530  1.00  0.00     0.049 A 
ATOM     43  N   UNL A   1      39.046  31.097  32.396  1.00  0.00    -0.248 NA
ATOM     44  C   UNL A   1      37.104  32.388  32.381  1.00  0.00     0.031 C 
ATOM     45  C   UNL A   1      38.334  29.997  28.123  1.00  0.00     0.029 A 
ATOM     46  N   UNL A   1      39.588  29.599  29.931  1.00  0.00    -0.354 N 
ATOM     47  C   UNL A   1      38.875  31.683  33.645  1.00  0.00     0.074 A 
ATOM     48  C   UNL A   1      37.674  32.486  33.575  1.00  0.00     0.031 C 
ATOM     49  C   UNL A   1      39.239  29.068  27.784  1.00  0.00     0.029 A 
ATOM     50  C   UNL A   1      40.106  28.814  28.929  1.00  0.00     0.049 A 
ATOM     51  H   UNL A   1      39.949  29.615  30.847  1.00  0.00     0.167 HD
ATOM     52  C   UNL A   1      39.642  31.550  34.752  1.00  0.00     0.034 A 
ATOM     53  C   UNL A   1      41.180  28.001  28.920  1.00  0.00     0.034 A 
ATOM     54  C   UNL A   1      40.801  30.702  34.838  1.00  0.00     0.049 A 
ATOM     55  C   UNL A   1      42.003  27.861  30.164  1.00  0.00     0.074 A 
ATOM     56  C   UNL A   1      41.636  30.496  35.924  1.00  0.00     0.029 A 
ATOM     57  N   UNL A   1      41.279  29.908  33.809  1.00  0.00    -0.354 N 
ATOM     58  N   UNL A   1      41.813  28.409  31.339  1.00  0.00    -0.248 NA
ATOM     59  C   UNL A   1      43.183  26.990  30.086  1.00  0.00     0.031 C 
ATOM     60  C   UNL A   1      42.612  29.566  35.552  1.00  0.00     0.029 A 
ATOM     61  C   UNL A   1      42.388  29.200  34.234  1.00  0.00     0.049 A 
ATOM     62  H   UNL A   1      40.886  29.856  32.907  1.00  0.00     0.167 HD
ATOM     63  C   UNL A   1      42.854  27.958  32.139  1.00  0.00     0.074 A 
ATOM     64  C   UNL A   1      43.650  27.060  31.326  1.00  0.00     0.031 C 
ATOM     65  C   UNL A   1      43.144  28.285  33.422  1.00  0.00     0.034 A 
BRANCH  52  66
ATOM     66  C   UNL A   1      39.230  32.295  35.991  1.00  0.00     0.023 A 
ATOM     67  C   UNL A   1      39.653  33.629  36.159  1.00  0.00     0.012 A 
ATOM     68  C   UNL A   1      38.352  31.720  36.930  1.00  0.00     0.148 A 
ATOM     69  C   UNL A   1      39.213  34.378  37.249  1.00  0.00     0.002 A 
ATOM     70  C   UNL A   1      37.899  32.481  38.002  1.00  0.00     0.091 A 
ATOM     71  F   UNL A   1      37.976  30.445  36.753  1.00  0.00    -0.205 F 
ATOM     72  C   UNL A   1      38.329  33.808  38.163  1.00  0.00     0.022 A 
BRANCH  70  73
ATOM     73  S   UNL A   1      36.725  31.861  39.213  1.00  0.00     0.127 S 
ATOM     74  O   UNL A   1      36.688  30.437  38.883  1.00  0.00    -0.237 OA
ATOM     75  O   UNL A   1      37.393  32.178  40.475  1.00  0.00    -0.237 OA
ATOM     76  O   UNL A   1      35.483  32.582  38.979  1.00  0.00    -0.744 OA
ENDBRANCH  70  73
ENDBRANCH  52  66
BRANCH  53  77
ATOM     77  C   UNL A   1      41.506  27.254  27.677  1.00  0.00     0.023 A 
ATOM     78  C   UNL A   1      42.095  27.937  26.598  1.00  0.00     0.012 A 
ATOM     79  C   UNL A   1      41.328  25.859  27.603  1.00  0.00     0.148 A 
ATOM     80  C   UNL A   1      42.504  27.239  25.461  1.00  0.00     0.002 A 
ATOM     81  C   UNL A   1      41.784  25.164  26.491  1.00  0.00     0.091 A 
ATOM     82  F   UNL A   1      40.751  25.237  28.641  1.00  0.00    -0.205 F 
ATOM     83  C   UNL A   1      42.363  25.854  25.414  1.00  0.00     0.022 A 
BRANCH  81  84
ATOM     84  S   UNL A   1      41.770  23.371  26.406  1.00  0.00     0.127 S 
ATOM     85  O   UNL A   1      42.507  23.125  25.170  1.00  0.00    -0.237 OA
ATOM     86  O   UNL A   1      42.481  23.005  27.632  1.00  0.00    -0.237 OA
ATOM     87  O   UNL A   1      40.365  22.989  26.392  1.00  0.00    -0.744 OA
ENDBRANCH  81  84
ENDBRANCH  53  77
BRANCH  65  88
ATOM     88  C   UNL A   1      44.385  27.688  34.022  1.00  0.00     0.023 A 
ATOM     89  C   UNL A   1      45.593  28.407  33.942  1.00  0.00     0.012 A 
ATOM     90  C   UNL A   1      44.343  26.470  34.722  1.00  0.00     0.148 A 
ATOM     91  C   UNL A   1      46.749  27.914  34.542  1.00  0.00     0.002 A 
ATOM     92  C   UNL A   1      45.494  25.998  35.343  1.00  0.00     0.091 A 
ATOM     93  F   UNL A   1      43.186  25.793  34.764  1.00  0.00    -0.205 F 
ATOM     94  C   UNL A   1      46.697  26.716  35.251  1.00  0.00     0.022 A 
BRANCH  92  95
ATOM     95  S   UNL A   1      45.500  24.496  36.329  1.00  0.00     0.127 S 
ATOM     96  O   UNL A   1      45.367  23.464  35.302  1.00  0.00    -0.237 OA
ATOM     97  O   UNL A   1      46.812  24.548  36.975  1.00  0.00    -0.237 OA
ATOM     98  O   UNL A   1      44.374  24.619  37.246  1.00  0.00    -0.744 OA
ENDBRANCH  92  95
ENDBRANCH  65  88
ENDBRANCH  39  40
ENDBRANCH  31  34
ENDBRANCH  29  30
ENDBRANCH  28  29
ENDBRANCH   1  28
TORSDOF 18
ENDMDL
MODEL 2
REMARK VINA RESULT:     -11.6      1.721      2.120
REMARK SMILES CC(C)CN(C)c1cc2c(cc1Cl)C=C(C(=O)NCCCCNC(=O)c1ccc(-c3c4nc(c(-c5cccc(S(=O)(=O)[O-])c5F)c5ccc([nH]5)c(-c5cccc(S(=O)(=O)[O-])c5F)c5nc(c(-c6cccc(S(=O)(=O)[O-])c6F)c6ccc3[nH]6)C=C5)C=C4)cc1)[C@H](C(F)(F)F)O2
REMARK SMILES IDX 20 1 19 2 18 3 16 4 17 5 15 7 7 8 8 9 12 10 9 11 11 12 13 13
REMARK SMILES IDX 10 14 94 15 14 16 89 17 5 18 6 19 4 20 2 21 1 22 3 23 90 24
REMARK SMILES IDX 91 25 92 26 93 27 21 28 22 29 23 30 24 31 25 33 26 34 27 35
REMARK SMILES IDX 88 36 28 37 87 38 29 39 30 40 31 41 81 42 32 43 86 44 80 45
REMARK SMILES IDX 82 46 33 47 85 48 79 49 78 50 34 52 66 53 46 54 65 55 47 56
REMARK SMILES IDX 50 57 64 58 83 59 48 60 49 61 63 63 84 64 51 65 35 66 36 67
REMARK SMILES IDX 44 68 37 69 39 70 45 71 38 72 40 73 41 74 42 75 43 76 67 77
REMARK SMILES IDX 68 78 76 79 69 80 71 81 77 82 70 83 72 84 73 85 74 86 75 87
REMARK SMILES IDX 52 88 53 89 61 90 54 91 56 92 62 93 55 94 57 95 58 96 59 97
REMARK SMILES IDX 60 98
REMARK H PARENT 18 6 23 32 82 51 50 62
REMARK Flexibility Score: inf
ROOT
ATOM      1  C   UNL A   1      32.358  29.526  27.253  1.00  0.00     0.023 C 
ENDROOT
BRANCH   1   2
ATOM      2  C   UNL A   1      33.364  28.694  26.460  1.00  0.00     0.116 C 
BRANCH   2   3
ATOM      3  N   UNL A   1      33.489  29.193  25.106  1.00  0.00    -0.352 N 
ATOM      4  C   UNL A   1      33.345  28.647  23.876  1.00  0.00     0.251 C 
ATOM      5  O   UNL A   1      33.487  29.403  22.913  1.00  0.00    -0.270 OA
ATOM      6  H   UNL A   1      33.735  30.146  25.072  1.00  0.00     0.163 HD
BRANCH   4   7
ATOM      7  C   UNL A   1      33.002  27.216  23.643  1.00  0.00     0.067 C 
ATOM      8  C   UNL A   1      33.234  22.160  23.827  1.00  0.00     0.059 A 
ATOM      9  C   UNL A   1      32.240  23.100  23.505  1.00  0.00     0.074 A 
ATOM     10  C   UNL A   1      34.526  22.653  24.105  1.00  0.00     0.065 A 
ATOM     11  C   UNL A   1      32.508  24.471  23.501  1.00  0.00     0.130 A 
ATOM     12  C   UNL A   1      34.780  24.029  24.148  1.00  0.00     0.034 A 
ATOM     13  Cl  UNL A   1      35.874  21.600  24.368  1.00  0.00    -0.082 Cl
ATOM     14  C   UNL A   1      33.765  24.941  23.856  1.00  0.00     0.019 A 
ATOM     15  O   UNL A   1      31.480  25.278  23.122  1.00  0.00    -0.475 OA
ATOM     16  C   UNL A   1      34.004  26.370  23.935  1.00  0.00     0.025 C 
ATOM     17  C   UNL A   1      31.639  26.723  23.227  1.00  0.00     0.314 C 
BRANCH   8  18
ATOM     18  N   UNL A   1      32.925  20.791  23.861  1.00  0.00    -0.373 N 
ATOM     19  C   UNL A   1      32.123  20.316  22.736  1.00  0.00     0.143 C 
BRANCH  18  20
ATOM     20  C   UNL A   1      32.587  20.230  25.186  1.00  0.00     0.119 C 
BRANCH  20  21
ATOM     21  C   UNL A   1      33.192  18.828  25.407  1.00  0.00     0.002 C 
ATOM     22  C   UNL A   1      32.208  17.718  25.027  1.00  0.00     0.009 C 
ATOM     23  C   UNL A   1      34.479  18.654  24.595  1.00  0.00     0.009 C 
ENDBRANCH  20  21
ENDBRANCH  18  20
ENDBRANCH   8  18
BRANCH  17  24
ATOM     24  C   UNL A   1      30.457  27.251  24.062  1.00  0.00     0.429 C 
ATOM     25  F   UNL A   1      30.198  28.560  23.865  1.00  0.00    -0.167 F 
ATOM     26  F   UNL A   1      29.328  26.566  23.741  1.00  0.00    -0.167 F 
ATOM     27  F   UNL A   1      30.647  27.085  25.391  1.00  0.00    -0.167 F 
ENDBRANCH  17  24
ENDBRANCH   4   7
ENDBRANCH   2   3
ENDBRANCH   1   2
BRANCH   1  28
ATOM     28  C   UNL A   1      32.211  30.968  26.775  1.00  0.00     0.023 C 
BRANCH  28  29
ATOM     29  C   UNL A   1      33.194  31.951  27.393  1.00  0.00     0.116 C 
BRANCH  29  30
ATOM     30  N   UNL A   1      32.656  33.295  27.564  1.00  0.00    -0.352 N 
ATOM     31  C   UNL A   1      33.098  34.272  28.428  1.00  0.00     0.251 C 
ATOM     32  H   UNL A   1      31.887  33.532  26.995  1.00  0.00     0.163 HD
ATOM     33  O   UNL A   1      32.524  35.351  28.510  1.00  0.00    -0.269 OA
BRANCH  31  34
ATOM     34  C   UNL A   1      34.251  33.948  29.288  1.00  0.00     0.039 A 
ATOM     35  C   UNL A   1      35.542  34.216  28.831  1.00  0.00     0.014 A 
ATOM     36  C   UNL A   1      34.035  33.205  30.450  1.00  0.00     0.014 A 
ATOM     37  C   UNL A   1      36.616  33.580  29.435  1.00  0.00     0.010 A 
ATOM     38  C   UNL A   1      35.128  32.633  31.102  1.00  0.00     0.010 A 
ATOM     39  C   UNL A   1      36.418  32.763  30.561  1.00  0.00    -0.014 A 
BRANCH  39  40
ATOM     40  C   UNL A   1      37.563  32.018  31.142  1.00  0.00     0.031 A 
ATOM     41  C   UNL A   1      37.990  32.253  32.567  1.00  0.00     0.074 A 
ATOM     42  C   UNL A   1      38.199  31.100  30.389  1.00  0.00     0.049 A 
ATOM     43  N   UNL A   1      39.014  31.753  33.209  1.00  0.00    -0.248 NA
ATOM     44  C   UNL A   1      37.166  33.165  33.378  1.00  0.00     0.031 C 
ATOM     45  C   UNL A   1      37.872  30.781  28.999  1.00  0.00     0.029 A 
ATOM     46  N   UNL A   1      39.246  30.269  30.687  1.00  0.00    -0.354 N 
ATOM     47  C   UNL A   1      38.989  32.325  34.475  1.00  0.00     0.074 A 
ATOM     48  C   UNL A   1      37.841  33.204  34.519  1.00  0.00     0.031 C 
ATOM     49  C   UNL A   1      38.682  29.802  28.571  1.00  0.00     0.029 A 
ATOM     50  C   UNL A   1      39.625  29.472  29.634  1.00  0.00     0.049 A 
ATOM     51  H   UNL A   1      39.683  30.245  31.569  1.00  0.00     0.167 HD
ATOM     52  C   UNL A   1      39.837  32.123  35.511  1.00  0.00     0.034 A 
ATOM     53  C   UNL A   1      40.639  28.592  29.522  1.00  0.00     0.034 A 
ATOM     54  C   UNL A   1      40.941  31.201  35.486  1.00  0.00     0.049 A 
ATOM     55  C   UNL A   1      41.554  28.376  30.689  1.00  0.00     0.074 A 
ATOM     56  C   UNL A   1      41.849  30.922  36.493  1.00  0.00     0.029 A 
ATOM     57  N   UNL A   1      41.276  30.398  34.409  1.00  0.00    -0.354 N 
ATOM     58  N   UNL A   1      41.500  28.914  31.883  1.00  0.00    -0.248 NA
ATOM     59  C   UNL A   1      42.663  27.434  30.498  1.00  0.00     0.031 C 
ATOM     60  C   UNL A   1      42.728  29.938  36.026  1.00  0.00     0.029 A 
ATOM     61  C   UNL A   1      42.369  29.612  34.728  1.00  0.00     0.049 A 
ATOM     62  H   UNL A   1      40.806  30.387  33.544  1.00  0.00     0.167 HD
ATOM     63  C   UNL A   1      42.574  28.382  32.584  1.00  0.00     0.074 A 
ATOM     64  C   UNL A   1      43.237  27.451  31.694  1.00  0.00     0.031 C 
ATOM     65  C   UNL A   1      42.992  28.666  33.842  1.00  0.00     0.034 A 
BRANCH  52  66
ATOM     66  C   UNL A   1      39.580  32.869  36.790  1.00  0.00     0.023 A 
ATOM     67  C   UNL A   1      38.702  32.314  37.742  1.00  0.00     0.012 A 
ATOM     68  C   UNL A   1      40.276  34.056  37.094  1.00  0.00     0.148 A 
ATOM     69  C   UNL A   1      38.514  32.933  38.977  1.00  0.00     0.002 A 
ATOM     70  C   UNL A   1      40.101  34.654  38.337  1.00  0.00     0.091 A 
ATOM     71  F   UNL A   1      41.095  34.569  36.165  1.00  0.00    -0.205 F 
ATOM     72  C   UNL A   1      39.220  34.096  39.278  1.00  0.00     0.022 A 
BRANCH  70  73
ATOM     73  S   UNL A   1      40.994  36.129  38.844  1.00  0.00     0.127 S 
ATOM     74  O   UNL A   1      40.435  37.135  37.942  1.00  0.00    -0.237 OA
ATOM     75  O   UNL A   1      40.585  36.268  40.242  1.00  0.00    -0.237 OA
ATOM     76  O   UNL A   1      42.406  35.836  38.645  1.00  0.00    -0.744 OA
ENDBRANCH  70  73
ENDBRANCH  52  66
BRANCH  53  77
ATOM     77  C   UNL A   1      40.809  27.849  28.246  1.00  0.00     0.023 A 
ATOM     78  C   UNL A   1      41.490  28.462  27.179  1.00  0.00     0.012 A 
ATOM     79  C   UNL A   1      40.389  26.511  28.125  1.00  0.00     0.148 A 
ATOM     80  C   UNL A   1      41.752  27.749  26.008  1.00  0.00     0.002 A 
ATOM     81  C   UNL A   1      40.698  25.791  26.979  1.00  0.00     0.091 A 
ATOM     82  F   UNL A   1      39.730  25.958  29.154  1.00  0.00    -0.205 F 
ATOM     83  C   UNL A   1      41.370  26.412  25.914  1.00  0.00     0.022 A 
BRANCH  81  84
ATOM     84  S   UNL A   1      40.370  24.033  26.831  1.00  0.00     0.127 S 
ATOM     85  O   UNL A   1      39.028  24.028  26.254  1.00  0.00    -0.237 OA
ATOM     86  O   UNL A   1      41.433  23.603  25.921  1.00  0.00    -0.237 OA
ATOM     87  O   UNL A   1      40.482  23.496  28.179  1.00  0.00    -0.744 OA
ENDBRANCH  81  84
ENDBRANCH  53  77
BRANCH  65  88
ATOM     88  C   UNL A   1      44.238  27.979  34.325  1.00  0.00     0.023 A 
ATOM     89  C   UNL A   1      45.486  28.583  34.079  1.00  0.00     0.012 A 
ATOM     90  C   UNL A   1      44.172  26.794  35.078  1.00  0.00     0.148 A 
ATOM     91  C   UNL A   1      46.657  28.009  34.568  1.00  0.00     0.002 A 
ATOM     92  C   UNL A   1      45.342  26.241  35.587  1.00  0.00     0.091 A 
ATOM     93  F   UNL A   1      42.974  26.227  35.279  1.00  0.00    -0.205 F 
ATOM     94  C   UNL A   1      46.584  26.845  35.329  1.00  0.00     0.022 A 
BRANCH  92  95
ATOM     95  S   UNL A   1      45.332  24.779  36.630  1.00  0.00     0.127 S 
ATOM     96  O   UNL A   1      46.725  24.721  37.074  1.00  0.00    -0.237 OA
ATOM     97  O   UNL A   1      44.374  25.143  37.675  1.00  0.00    -0.237 OA
ATOM     98  O   UNL A   1      44.898  23.683  35.773  1.00  0.00    -0.744 OA
ENDBRANCH  92  95
ENDBRANCH  65  88
ENDBRANCH  39  40
ENDBRANCH  31  34
ENDBRANCH  29  30
ENDBRANCH  28  29
ENDBRANCH   1  28
TORSDOF 18
ENDMDL
MODEL 3
REMARK VINA RESULT:     -11.4      1.928      7.623
REMARK SMILES CC(C)CN(C)c1cc2c(cc1Cl)C=C(C(=O)NCCCCNC(=O)c1ccc(-c3c4nc(c(-c5cccc(S(=O)(=O)[O-])c5F)c5ccc([nH]5)c(-c5cccc(S(=O)(=O)[O-])c5F)c5nc(c(-c6cccc(S(=O)(=O)[O-])c6F)c6ccc3[nH]6)C=C5)C=C4)cc1)[C@H](C(F)(F)F)O2
REMARK SMILES IDX 20 1 19 2 18 3 16 4 17 5 15 7 7 8 8 9 12 10 9 11 11 12 13 13
REMARK SMILES IDX 10 14 94 15 14 16 89 17 5 18 6 19 4 20 2 21 1 22 3 23 90 24
REMARK SMILES IDX 91 25 92 26 93 27 21 28 22 29 23 30 24 31 25 33 26 34 27 35
REMARK SMILES IDX 88 36 28 37 87 38 29 39 30 40 31 41 81 42 32 43 86 44 80 45
REMARK SMILES IDX 82 46 33 47 85 48 79 49 78 50 34 52 66 53 46 54 65 55 47 56
REMARK SMILES IDX 50 57 64 58 83 59 48 60 49 61 63 63 84 64 51 65 35 66 36 67
REMARK SMILES IDX 44 68 37 69 39 70 45 71 38 72 40 73 41 74 42 75 43 76 67 77
REMARK SMILES IDX 68 78 76 79 69 80 71 81 77 82 70 83 72 84 73 85 74 86 75 87
REMARK SMILES IDX 52 88 53 89 61 90 54 91 56 92 62 93 55 94 57 95 58 96 59 97
REMARK SMILES IDX 60 98
REMARK H PARENT 18 6 23 32 82 51 50 62
REMARK Flexibility Score: inf
ROOT
ATOM      1  C   UNL A   1      31.391  28.920  26.230  1.00  0.00     0.023 C 
ENDROOT
BRANCH   1   2
ATOM      2  C   UNL A   1      31.343  28.043  24.980  1.00  0.00     0.116 C 
BRANCH   2   3
ATOM      3  N   UNL A   1      32.312  28.490  24.001  1.00  0.00    -0.352 N 
ATOM      4  C   UNL A   1      33.268  27.880  23.263  1.00  0.00     0.251 C 
ATOM      5  O   UNL A   1      33.894  28.587  22.471  1.00  0.00    -0.270 OA
ATOM      6  H   UNL A   1      32.263  29.460  23.832  1.00  0.00     0.163 HD
BRANCH   4   7
ATOM      7  C   UNL A   1      33.569  26.423  23.344  1.00  0.00     0.067 C 
ATOM      8  C   UNL A   1      33.946  21.721  25.189  1.00  0.00     0.059 A 
ATOM      9  C   UNL A   1      33.961  22.292  23.904  1.00  0.00     0.074 A 
ATOM     10  C   UNL A   1      33.890  22.604  26.288  1.00  0.00     0.065 A 
ATOM     11  C   UNL A   1      33.882  23.673  23.719  1.00  0.00     0.130 A 
ATOM     12  C   UNL A   1      33.761  23.985  26.099  1.00  0.00     0.034 A 
ATOM     13  Cl  UNL A   1      34.015  22.046  27.921  1.00  0.00    -0.082 Cl
ATOM     14  C   UNL A   1      33.746  24.521  24.811  1.00  0.00     0.019 A 
ATOM     15  O   UNL A   1      33.960  24.108  22.432  1.00  0.00    -0.475 OA
ATOM     16  C   UNL A   1      33.575  25.945  24.600  1.00  0.00     0.025 C 
ATOM     17  C   UNL A   1      33.745  25.521  22.148  1.00  0.00     0.314 C 
BRANCH   8  18
ATOM     18  N   UNL A   1      33.987  20.326  25.342  1.00  0.00    -0.373 N 
ATOM     19  C   UNL A   1      35.267  19.710  25.001  1.00  0.00     0.143 C 
BRANCH  18  20
ATOM     20  C   UNL A   1      32.776  19.587  24.927  1.00  0.00     0.119 C 
BRANCH  20  21
ATOM     21  C   UNL A   1      33.099  18.172  24.402  1.00  0.00     0.002 C 
ATOM     22  C   UNL A   1      32.536  17.084  25.320  1.00  0.00     0.009 C 
ATOM     23  C   UNL A   1      32.543  17.972  22.990  1.00  0.00     0.009 C 
ENDBRANCH  20  21
ENDBRANCH  18  20
ENDBRANCH   8  18
BRANCH  17  24
ATOM     24  C   UNL A   1      32.637  25.608  21.081  1.00  0.00     0.429 C 
ATOM     25  F   UNL A   1      31.406  25.807  21.593  1.00  0.00    -0.167 F 
ATOM     26  F   UNL A   1      32.894  26.642  20.238  1.00  0.00    -0.167 F 
ATOM     27  F   UNL A   1      32.567  24.493  20.317  1.00  0.00    -0.167 F 
ENDBRANCH  17  24
ENDBRANCH   4   7
ENDBRANCH   2   3
ENDBRANCH   1   2
BRANCH   1  28
ATOM     28  C   UNL A   1      31.810  30.366  25.974  1.00  0.00     0.023 C 
BRANCH  28  29
ATOM     29  C   UNL A   1      33.078  30.803  26.692  1.00  0.00     0.116 C 
BRANCH  29  30
ATOM     30  N   UNL A   1      32.974  32.110  27.327  1.00  0.00    -0.352 N 
ATOM     31  C   UNL A   1      33.925  32.749  28.093  1.00  0.00     0.251 C 
ATOM     32  H   UNL A   1      32.127  32.594  27.194  1.00  0.00     0.163 HD
ATOM     33  O   UNL A   1      33.695  33.833  28.614  1.00  0.00    -0.269 OA
BRANCH  31  34
ATOM     34  C   UNL A   1      35.207  32.051  28.306  1.00  0.00     0.039 A 
ATOM     35  C   UNL A   1      35.200  30.725  28.742  1.00  0.00     0.014 A 
ATOM     36  C   UNL A   1      36.391  32.789  28.256  1.00  0.00     0.014 A 
ATOM     37  C   UNL A   1      36.351  30.196  29.307  1.00  0.00     0.010 A 
ATOM     38  C   UNL A   1      37.565  32.222  28.751  1.00  0.00     0.010 A 
ATOM     39  C   UNL A   1      37.538  30.947  29.340  1.00  0.00    -0.014 A 
BRANCH  39  40
ATOM     40  C   UNL A   1      38.736  30.402  30.027  1.00  0.00     0.031 A 
ATOM     41  C   UNL A   1      39.612  29.381  29.351  1.00  0.00     0.074 A 
ATOM     42  C   UNL A   1      39.052  30.857  31.254  1.00  0.00     0.049 A 
ATOM     43  N   UNL A   1      40.646  28.740  29.833  1.00  0.00    -0.248 NA
ATOM     44  C   UNL A   1      39.290  29.031  27.957  1.00  0.00     0.031 C 
ATOM     45  C   UNL A   1      38.284  31.850  32.007  1.00  0.00     0.029 A 
ATOM     46  N   UNL A   1      40.101  30.548  32.080  1.00  0.00    -0.354 N 
ATOM     47  C   UNL A   1      41.065  27.879  28.826  1.00  0.00     0.074 A 
ATOM     48  C   UNL A   1      40.182  28.083  27.699  1.00  0.00     0.031 C 
ATOM     49  C   UNL A   1      38.901  32.091  33.173  1.00  0.00     0.029 A 
ATOM     50  C   UNL A   1      40.070  31.225  33.275  1.00  0.00     0.049 A 
ATOM     51  H   UNL A   1      40.807  29.906  31.840  1.00  0.00     0.167 HD
ATOM     52  C   UNL A   1      42.102  27.008  28.836  1.00  0.00     0.034 A 
ATOM     53  C   UNL A   1      40.875  31.139  34.352  1.00  0.00     0.034 A 
ATOM     54  C   UNL A   1      43.017  26.851  29.935  1.00  0.00     0.049 A 
ATOM     55  C   UNL A   1      42.025  30.177  34.331  1.00  0.00     0.074 A 
ATOM     56  C   UNL A   1      44.105  26.000  30.032  1.00  0.00     0.029 A 
ATOM     57  N   UNL A   1      42.964  27.570  31.117  1.00  0.00    -0.354 N 
ATOM     58  N   UNL A   1      42.415  29.386  33.362  1.00  0.00    -0.248 NA
ATOM     59  C   UNL A   1      42.847  30.099  35.545  1.00  0.00     0.031 C 
ATOM     60  C   UNL A   1      44.717  26.215  31.272  1.00  0.00     0.029 A 
ATOM     61  C   UNL A   1      44.006  27.194  31.946  1.00  0.00     0.049 A 
ATOM     62  H   UNL A   1      42.286  28.250  31.336  1.00  0.00     0.167 HD
ATOM     63  C   UNL A   1      43.522  28.707  33.851  1.00  0.00     0.074 A 
ATOM     64  C   UNL A   1      43.765  29.209  35.189  1.00  0.00     0.031 C 
ATOM     65  C   UNL A   1      44.252  27.731  33.258  1.00  0.00     0.034 A 
BRANCH  52  66
ATOM     66  C   UNL A   1      42.348  26.187  27.602  1.00  0.00     0.023 A 
ATOM     67  C   UNL A   1      43.084  26.751  26.541  1.00  0.00     0.012 A 
ATOM     68  C   UNL A   1      41.944  24.840  27.529  1.00  0.00     0.148 A 
ATOM     69  C   UNL A   1      43.410  25.987  25.421  1.00  0.00     0.002 A 
ATOM     70  C   UNL A   1      42.294  24.078  26.420  1.00  0.00     0.091 A 
ATOM     71  F   UNL A   1      41.234  24.332  28.547  1.00  0.00    -0.205 F 
ATOM     72  C   UNL A   1      43.024  24.650  25.366  1.00  0.00     0.022 A 
BRANCH  70  73
ATOM     73  S   UNL A   1      41.886  22.334  26.266  1.00  0.00     0.127 S 
ATOM     74  O   UNL A   1      42.550  21.988  25.009  1.00  0.00    -0.237 OA
ATOM     75  O   UNL A   1      42.509  21.768  27.462  1.00  0.00    -0.237 OA
ATOM     76  O   UNL A   1      40.433  22.260  26.238  1.00  0.00    -0.744 OA
ENDBRANCH  70  73
ENDBRANCH  52  66
BRANCH  53  77
ATOM     77  C   UNL A   1      40.608  32.013  35.523  1.00  0.00     0.023 A 
ATOM     78  C   UNL A   1      41.423  33.139  35.742  1.00  0.00     0.012 A 
ATOM     79  C   UNL A   1      39.494  31.791  36.354  1.00  0.00     0.148 A 
ATOM     80  C   UNL A   1      41.131  34.031  36.774  1.00  0.00     0.002 A 
ATOM     81  C   UNL A   1      39.178  32.710  37.346  1.00  0.00     0.091 A 
ATOM     82  F   UNL A   1      38.743  30.702  36.130  1.00  0.00    -0.205 F 
ATOM     83  C   UNL A   1      40.002  33.825  37.564  1.00  0.00     0.022 A 
BRANCH  81  84
ATOM     84  S   UNL A   1      37.671  32.598  38.315  1.00  0.00     0.127 S 
ATOM     85  O   UNL A   1      36.651  32.899  37.315  1.00  0.00    -0.237 OA
ATOM     86  O   UNL A   1      37.703  31.204  38.762  1.00  0.00    -0.237 OA
ATOM     87  O   UNL A   1      37.818  33.574  39.385  1.00  0.00    -0.744 OA
ENDBRANCH  81  84
ENDBRANCH  53  77
BRANCH  65  88
ATOM     88  C   UNL A   1      45.369  27.123  34.057  1.00  0.00     0.023 A 
ATOM     89  C   UNL A   1      45.095  26.006  34.869  1.00  0.00     0.012 A 
ATOM     90  C   UNL A   1      46.687  27.601  33.949  1.00  0.00     0.148 A 
ATOM     91  C   UNL A   1      46.118  25.377  35.574  1.00  0.00     0.002 A 
ATOM     92  C   UNL A   1      47.708  26.952  34.633  1.00  0.00     0.091 A 
ATOM     93  F   UNL A   1      46.918  28.680  33.188  1.00  0.00    -0.205 F 
ATOM     94  C   UNL A   1      47.425  25.843  35.449  1.00  0.00     0.022 A 
BRANCH  92  95
ATOM     95  S   UNL A   1      49.428  27.447  34.478  1.00  0.00     0.127 S 
ATOM     96  O   UNL A   1      49.405  28.790  35.054  1.00  0.00    -0.237 OA
ATOM     97  O   UNL A   1      50.119  26.446  35.292  1.00  0.00    -0.237 OA
ATOM     98  O   UNL A   1      49.733  27.377  33.054  1.00  0.00    -0.744 OA
ENDBRANCH  92  95
ENDBRANCH  65  88
ENDBRANCH  39  40
ENDBRANCH  31  34
ENDBRANCH  29  30
ENDBRANCH  28  29
ENDBRANCH   1  28
TORSDOF 18
ENDMDL
