MODEL 1
REMARK VINA RESULT:     -12.2      0.000      0.000
REMARK SMILES O=C(NCCCCNC(=O)c1ccc(-c2ccncc2)cn1)c1ccc(-c2c3nc(c(-c4cccc(S(=O)(=O)[O-])c4F)c4ccc([nH]4)c(-c4cccc(S(=O)(=O)[O-])c4F)c4nc(c(-c5cccc(S(=O)(=O)[O-])c5F)c5ccc2[nH]5)C=C4)C=C3)cc1
REMARK SMILES IDX 4 1 3 2 1 3 2 4 23 6 24 7 85 8 25 9 84 10 26 11 27 12 28 13
REMARK SMILES IDX 78 14 29 15 83 16 77 17 79 18 30 19 82 20 76 21 75 22 31 24
REMARK SMILES IDX 63 25 43 26 62 27 44 28 47 29 61 30 80 31 45 32 46 33 60 35
REMARK SMILES IDX 81 36 48 37 32 38 33 39 41 40 34 41 36 42 42 43 35 44 37 45
REMARK SMILES IDX 38 46 39 47 40 48 64 49 65 50 73 51 66 52 68 53 74 54 67 55
REMARK SMILES IDX 69 56 70 57 71 58 72 59 49 60 50 61 58 62 51 63 53 64 59 65
REMARK SMILES IDX 52 66 54 67 55 68 56 69 57 70 5 71 6 72 7 73 8 74 9 75 10 77
REMARK SMILES IDX 11 78 12 79 22 80 13 81 21 82 14 83 15 84 16 85 20 86 17 87
REMARK SMILES IDX 19 88 18 89
REMARK H PARENT 3 5 79 23 47 34 8 76
REMARK Flexibility Score: inf
ROOT
ATOM      1  C   UNL A   1      32.650  29.537  25.894  1.00  0.00     0.116 C 
ENDROOT
BRANCH   1   2
ATOM      2  N   UNL A   1      32.356  30.917  26.242  1.00  0.00    -0.352 N 
ATOM      3  O   UNL A   1      32.508  32.851  27.380  1.00  0.00    -0.269 OA
ATOM      4  C   UNL A   1      33.008  31.762  27.107  1.00  0.00     0.251 C 
ATOM      5  H   UNL A   1      31.573  31.306  25.789  1.00  0.00     0.163 HD
BRANCH   4   6
ATOM      6  C   UNL A   1      34.285  31.350  27.731  1.00  0.00     0.039 A 
ATOM      7  C   UNL A   1      34.484  30.035  28.162  1.00  0.00     0.014 A 
ATOM      8  C   UNL A   1      35.301  32.297  27.881  1.00  0.00     0.014 A 
ATOM      9  C   UNL A   1      35.635  29.705  28.872  1.00  0.00     0.010 A 
ATOM     10  C   UNL A   1      36.487  31.944  28.528  1.00  0.00     0.010 A 
ATOM     11  C   UNL A   1      36.650  30.656  29.063  1.00  0.00    -0.014 A 
BRANCH  11  12
ATOM     12  C   UNL A   1      37.894  30.289  29.786  1.00  0.00     0.031 A 
ATOM     13  C   UNL A   1      38.886  29.336  29.178  1.00  0.00     0.074 A 
ATOM     14  C   UNL A   1      38.108  30.792  31.017  1.00  0.00     0.049 A 
ATOM     15  N   UNL A   1      39.992  28.861  29.691  1.00  0.00    -0.248 NA
ATOM     16  C   UNL A   1      38.594  28.842  27.823  1.00  0.00     0.031 C 
ATOM     17  C   UNL A   1      37.200  31.698  31.724  1.00  0.00     0.029 A 
ATOM     18  N   UNL A   1      39.139  30.595  31.900  1.00  0.00    -0.354 N 
ATOM     19  C   UNL A   1      40.506  27.981  28.746  1.00  0.00     0.074 A 
ATOM     20  C   UNL A   1      39.586  27.984  27.628  1.00  0.00     0.031 C 
ATOM     21  C   UNL A   1      37.711  31.974  32.932  1.00  0.00     0.029 A 
ATOM     22  C   UNL A   1      38.955  31.231  33.104  1.00  0.00     0.049 A 
ATOM     23  H   UNL A   1      39.933  30.051  31.692  1.00  0.00     0.167 HD
ATOM     24  C   UNL A   1      41.645  27.250  28.799  1.00  0.00     0.034 A 
ATOM     25  C   UNL A   1      39.688  31.203  34.233  1.00  0.00     0.034 A 
ATOM     26  C   UNL A   1      42.573  27.280  29.897  1.00  0.00     0.049 A 
ATOM     27  C   UNL A   1      40.958  30.401  34.260  1.00  0.00     0.074 A 
ATOM     28  C   UNL A   1      43.789  26.629  30.015  1.00  0.00     0.029 A 
ATOM     29  N   UNL A   1      42.389  27.995  31.071  1.00  0.00    -0.354 N 
ATOM     30  N   UNL A   1      41.491  29.674  33.308  1.00  0.00    -0.248 NA
ATOM     31  C   UNL A   1      41.744  30.437  35.501  1.00  0.00     0.031 C 
ATOM     32  C   UNL A   1      44.330  26.936  31.268  1.00  0.00     0.029 A 
ATOM     33  C   UNL A   1      43.462  27.795  31.923  1.00  0.00     0.049 A 
ATOM     34  H   UNL A   1      41.609  28.562  31.270  1.00  0.00     0.167 HD
ATOM     35  C   UNL A   1      42.689  29.193  33.820  1.00  0.00     0.074 A 
ATOM     36  C   UNL A   1      42.810  29.723  35.164  1.00  0.00     0.031 C 
ATOM     37  C   UNL A   1      43.599  28.376  33.235  1.00  0.00     0.034 A 
BRANCH  24  38
ATOM     38  C   UNL A   1      41.972  26.376  27.616  1.00  0.00     0.023 A 
ATOM     39  C   UNL A   1      42.592  26.942  26.483  1.00  0.00     0.012 A 
ATOM     40  C   UNL A   1      41.718  24.991  27.642  1.00  0.00     0.148 A 
ATOM     41  C   UNL A   1      42.922  26.150  25.383  1.00  0.00     0.002 A 
ATOM     42  C   UNL A   1      42.086  24.202  26.558  1.00  0.00     0.091 A 
ATOM     43  F   UNL A   1      41.107  24.472  28.717  1.00  0.00    -0.205 F 
ATOM     44  C   UNL A   1      42.679  24.780  25.424  1.00  0.00     0.022 A 
BRANCH  42  45
ATOM     45  S   UNL A   1      41.878  22.416  26.558  1.00  0.00     0.127 S 
ATOM     46  O   UNL A   1      42.475  22.049  27.840  1.00  0.00    -0.237 OA
ATOM     47  O   UNL A   1      40.422  22.271  26.501  1.00  0.00    -0.237 OA
ATOM     48  O   UNL A   1      42.576  21.939  25.373  1.00  0.00    -0.744 OA
ENDBRANCH  42  45
ENDBRANCH  24  38
BRANCH  25  49
ATOM     49  C   UNL A   1      39.247  32.005  35.407  1.00  0.00     0.023 A 
ATOM     50  C   UNL A   1      39.430  33.400  35.399  1.00  0.00     0.012 A 
ATOM     51  C   UNL A   1      38.575  31.404  36.490  1.00  0.00     0.148 A 
ATOM     52  C   UNL A   1      38.964  34.182  36.457  1.00  0.00     0.002 A 
ATOM     53  C   UNL A   1      38.063  32.194  37.511  1.00  0.00     0.091 A 
ATOM     54  F   UNL A   1      38.421  30.071  36.479  1.00  0.00    -0.205 F 
ATOM     55  C   UNL A   1      38.269  33.582  37.503  1.00  0.00     0.022 A 
BRANCH  53  56
ATOM     56  S   UNL A   1      37.032  31.527  38.822  1.00  0.00     0.127 S 
ATOM     57  O   UNL A   1      37.876  31.727  39.996  1.00  0.00    -0.237 OA
ATOM     58  O   UNL A   1      35.856  32.396  38.752  1.00  0.00    -0.237 OA
ATOM     59  O   UNL A   1      36.776  30.141  38.456  1.00  0.00    -0.744 OA
ENDBRANCH  53  56
ENDBRANCH  25  49
BRANCH  37  60
ATOM     60  C   UNL A   1      44.834  28.028  34.021  1.00  0.00     0.023 A 
ATOM     61  C   UNL A   1      45.969  28.858  33.944  1.00  0.00     0.012 A 
ATOM     62  C   UNL A   1      44.836  26.931  34.904  1.00  0.00     0.148 A 
ATOM     63  C   UNL A   1      47.096  28.589  34.721  1.00  0.00     0.002 A 
ATOM     64  C   UNL A   1      45.945  26.695  35.707  1.00  0.00     0.091 A 
ATOM     65  F   UNL A   1      43.753  26.141  34.945  1.00  0.00    -0.205 F 
ATOM     66  C   UNL A   1      47.079  27.517  35.611  1.00  0.00     0.022 A 
BRANCH  64  67
ATOM     67  S   UNL A   1      45.976  25.394  36.947  1.00  0.00     0.127 S 
ATOM     68  O   UNL A   1      45.916  24.191  36.118  1.00  0.00    -0.237 OA
ATOM     69  O   UNL A   1      47.263  25.620  37.604  1.00  0.00    -0.237 OA
ATOM     70  O   UNL A   1      44.817  25.625  37.799  1.00  0.00    -0.744 OA
ENDBRANCH  64  67
ENDBRANCH  37  60
ENDBRANCH  11  12
ENDBRANCH   4   6
ENDBRANCH   1   2
BRANCH   1  71
ATOM     71  C   UNL A   1      31.692  28.547  26.547  1.00  0.00     0.023 C 
BRANCH  71  72
ATOM     72  C   UNL A   1      32.109  27.079  26.471  1.00  0.00     0.023 C 
BRANCH  72  73
ATOM     73  C   UNL A   1      30.976  26.087  26.226  1.00  0.00     0.116 C 
BRANCH  73  74
ATOM     74  N   UNL A   1      31.162  25.299  25.019  1.00  0.00    -0.351 N 
ATOM     75  C   UNL A   1      30.843  25.635  23.720  1.00  0.00     0.269 C 
ATOM     76  H   UNL A   1      31.569  24.412  25.145  1.00  0.00     0.163 HD
ATOM     77  O   UNL A   1      31.034  24.834  22.810  1.00  0.00    -0.268 OA
BRANCH  75  78
ATOM     78  C   UNL A   1      30.288  26.986  23.439  1.00  0.00     0.128 A 
ATOM     79  C   UNL A   1      28.916  27.190  23.498  1.00  0.00     0.035 A 
ATOM     80  N   UNL A   1      31.177  27.939  23.075  1.00  0.00    -0.250 NA
ATOM     81  C   UNL A   1      28.420  28.433  23.111  1.00  0.00     0.013 A 
ATOM     82  C   UNL A   1      30.661  29.141  22.729  1.00  0.00     0.120 A 
ATOM     83  C   UNL A   1      29.297  29.447  22.700  1.00  0.00     0.000 A 
BRANCH  83  84
ATOM     84  C   UNL A   1      28.804  30.752  22.237  1.00  0.00    -0.014 A 
ATOM     85  C   UNL A   1      28.351  30.933  20.925  1.00  0.00     0.029 A 
ATOM     86  C   UNL A   1      28.793  31.864  23.088  1.00  0.00     0.029 A 
ATOM     87  C   UNL A   1      27.918  32.190  20.530  1.00  0.00     0.111 A 
ATOM     88  C   UNL A   1      28.343  33.081  22.601  1.00  0.00     0.111 A 
ATOM     89  N   UNL A   1      27.903  33.269  21.341  1.00  0.00    -0.265 NA
ENDBRANCH  83  84
ENDBRANCH  75  78
ENDBRANCH  73  74
ENDBRANCH  72  73
ENDBRANCH  71  72
ENDBRANCH   1  71
TORSDOF 15
ENDMDL
MODEL 2
REMARK VINA RESULT:     -12.2      1.440      7.834
REMARK SMILES O=C(NCCCCNC(=O)c1ccc(-c2ccncc2)cn1)c1ccc(-c2c3nc(c(-c4cccc(S(=O)(=O)[O-])c4F)c4ccc([nH]4)c(-c4cccc(S(=O)(=O)[O-])c4F)c4nc(c(-c5cccc(S(=O)(=O)[O-])c5F)c5ccc2[nH]5)C=C4)C=C3)cc1
REMARK SMILES IDX 4 1 3 2 1 3 2 4 23 6 24 7 85 8 25 9 84 10 26 11 27 12 28 13
REMARK SMILES IDX 78 14 29 15 83 16 77 17 79 18 30 19 82 20 76 21 75 22 31 24
REMARK SMILES IDX 63 25 43 26 62 27 44 28 47 29 61 30 80 31 45 32 46 33 60 35
REMARK SMILES IDX 81 36 48 37 32 38 33 39 41 40 34 41 36 42 42 43 35 44 37 45
REMARK SMILES IDX 38 46 39 47 40 48 64 49 65 50 73 51 66 52 68 53 74 54 67 55
REMARK SMILES IDX 69 56 70 57 71 58 72 59 49 60 50 61 58 62 51 63 53 64 59 65
REMARK SMILES IDX 52 66 54 67 55 68 56 69 57 70 5 71 6 72 7 73 8 74 9 75 10 77
REMARK SMILES IDX 11 78 12 79 22 80 13 81 21 82 14 83 15 84 16 85 20 86 17 87
REMARK SMILES IDX 19 88 18 89
REMARK H PARENT 3 5 79 23 47 34 8 76
REMARK Flexibility Score: inf
ROOT
ATOM      1  C   UNL A   1      32.707  29.544  25.814  1.00  0.00     0.116 C 
ENDROOT
BRANCH   1   2
ATOM      2  N   UNL A   1      32.469  30.928  26.187  1.00  0.00    -0.352 N 
ATOM      3  O   UNL A   1      32.688  32.828  27.371  1.00  0.00    -0.269 OA
ATOM      4  C   UNL A   1      33.144  31.724  27.082  1.00  0.00     0.251 C 
ATOM      5  H   UNL A   1      31.713  31.362  25.730  1.00  0.00     0.163 HD
BRANCH   4   6
ATOM      6  C   UNL A   1      34.389  31.240  27.717  1.00  0.00     0.039 A 
ATOM      7  C   UNL A   1      34.549  29.894  28.056  1.00  0.00     0.014 A 
ATOM      8  C   UNL A   1      35.415  32.153  27.973  1.00  0.00     0.014 A 
ATOM      9  C   UNL A   1      35.668  29.488  28.779  1.00  0.00     0.010 A 
ATOM     10  C   UNL A   1      36.571  31.729  28.634  1.00  0.00     0.010 A 
ATOM     11  C   UNL A   1      36.692  30.402  29.076  1.00  0.00    -0.014 A 
BRANCH  11  12
ATOM     12  C   UNL A   1      37.902  29.957  29.812  1.00  0.00     0.031 A 
ATOM     13  C   UNL A   1      38.190  30.464  31.199  1.00  0.00     0.074 A 
ATOM     14  C   UNL A   1      38.765  29.119  29.207  1.00  0.00     0.049 A 
ATOM     15  N   UNL A   1      39.225  30.227  31.963  1.00  0.00    -0.248 NA
ATOM     16  C   UNL A   1      37.193  31.361  31.803  1.00  0.00     0.031 C 
ATOM     17  C   UNL A   1      38.610  28.589  27.850  1.00  0.00     0.029 A 
ATOM     18  N   UNL A   1      39.953  28.587  29.640  1.00  0.00    -0.354 N 
ATOM     19  C   UNL A   1      39.030  30.977  33.116  1.00  0.00     0.074 A 
ATOM     20  C   UNL A   1      37.777  31.682  32.950  1.00  0.00     0.031 C 
ATOM     21  C   UNL A   1      39.663  27.812  27.561  1.00  0.00     0.029 A 
ATOM     22  C   UNL A   1      40.589  27.826  28.689  1.00  0.00     0.049 A 
ATOM     23  H   UNL A   1      40.314  28.736  30.544  1.00  0.00     0.167 HD
ATOM     24  C   UNL A   1      39.814  31.060  34.217  1.00  0.00     0.034 A 
ATOM     25  C   UNL A   1      41.794  27.226  28.707  1.00  0.00     0.034 A 
ATOM     26  C   UNL A   1      41.040  30.327  34.392  1.00  0.00     0.049 A 
ATOM     27  C   UNL A   1      42.636  27.315  29.947  1.00  0.00     0.074 A 
ATOM     28  C   UNL A   1      41.870  30.290  35.499  1.00  0.00     0.029 A 
ATOM     29  N   UNL A   1      41.617  29.507  33.434  1.00  0.00    -0.354 N 
ATOM     30  N   UNL A   1      42.375  27.928  31.076  1.00  0.00    -0.248 NA
ATOM     31  C   UNL A   1      43.924  26.607  29.932  1.00  0.00     0.031 C 
ATOM     32  C   UNL A   1      42.958  29.461  35.202  1.00  0.00     0.029 A 
ATOM     33  C   UNL A   1      42.795  28.966  33.919  1.00  0.00     0.049 A 
ATOM     34  H   UNL A   1      41.243  29.335  32.539  1.00  0.00     0.167 HD
ATOM     35  C   UNL A   1      43.446  27.654  31.916  1.00  0.00     0.074 A 
ATOM     36  C   UNL A   1      44.355  26.807  31.170  1.00  0.00     0.031 C 
ATOM     37  C   UNL A   1      43.662  28.077  33.187  1.00  0.00     0.034 A 
BRANCH  24  38
ATOM     38  C   UNL A   1      39.353  31.951  35.341  1.00  0.00     0.023 A 
ATOM     39  C   UNL A   1      38.456  31.447  36.306  1.00  0.00     0.012 A 
ATOM     40  C   UNL A   1      39.843  33.264  35.476  1.00  0.00     0.148 A 
ATOM     41  C   UNL A   1      38.030  32.247  37.366  1.00  0.00     0.002 A 
ATOM     42  C   UNL A   1      39.445  34.042  36.558  1.00  0.00     0.091 A 
ATOM     43  F   UNL A   1      40.677  33.737  34.538  1.00  0.00    -0.205 F 
ATOM     44  C   UNL A   1      38.531  33.539  37.498  1.00  0.00     0.022 A 
BRANCH  42  45
ATOM     45  S   UNL A   1      40.098  35.691  36.845  1.00  0.00     0.127 S 
ATOM     46  O   UNL A   1      39.614  36.410  35.669  1.00  0.00    -0.237 OA
ATOM     47  O   UNL A   1      39.449  36.072  38.101  1.00  0.00    -0.237 OA
ATOM     48  O   UNL A   1      41.543  35.531  36.941  1.00  0.00    -0.744 OA
ENDBRANCH  42  45
ENDBRANCH  24  38
BRANCH  25  49
ATOM     49  C   UNL A   1      42.238  26.451  27.516  1.00  0.00     0.023 A 
ATOM     50  C   UNL A   1      43.042  27.076  26.544  1.00  0.00     0.012 A 
ATOM     51  C   UNL A   1      41.940  25.080  27.386  1.00  0.00     0.148 A 
ATOM     52  C   UNL A   1      43.528  26.353  25.455  1.00  0.00     0.002 A 
ATOM     53  C   UNL A   1      42.474  24.353  26.330  1.00  0.00     0.091 A 
ATOM     54  F   UNL A   1      41.165  24.509  28.319  1.00  0.00    -0.205 F 
ATOM     55  C   UNL A   1      43.257  24.991  25.355  1.00  0.00     0.022 A 
BRANCH  53  56
ATOM     56  S   UNL A   1      42.299  22.570  26.200  1.00  0.00     0.127 S 
ATOM     57  O   UNL A   1      42.957  22.297  24.926  1.00  0.00    -0.237 OA
ATOM     58  O   UNL A   1      43.026  22.108  27.383  1.00  0.00    -0.237 OA
ATOM     59  O   UNL A   1      40.866  22.311  26.238  1.00  0.00    -0.744 OA
ENDBRANCH  53  56
ENDBRANCH  25  49
BRANCH  37  60
ATOM     60  C   UNL A   1      44.913  27.604  33.878  1.00  0.00     0.023 A 
ATOM     61  C   UNL A   1      46.080  28.390  33.829  1.00  0.00     0.012 A 
ATOM     62  C   UNL A   1      44.902  26.427  34.652  1.00  0.00     0.148 A 
ATOM     63  C   UNL A   1      47.224  28.001  34.523  1.00  0.00     0.002 A 
ATOM     64  C   UNL A   1      46.031  26.069  35.377  1.00  0.00     0.091 A 
ATOM     65  F   UNL A   1      43.786  25.682  34.668  1.00  0.00    -0.205 F 
ATOM     66  C   UNL A   1      47.196  26.849  35.307  1.00  0.00     0.022 A 
BRANCH  64  67
ATOM     67  S   UNL A   1      46.055  24.653  36.484  1.00  0.00     0.127 S 
ATOM     68  O   UNL A   1      47.442  24.662  36.948  1.00  0.00    -0.237 OA
ATOM     69  O   UNL A   1      45.071  25.033  37.497  1.00  0.00    -0.237 OA
ATOM     70  O   UNL A   1      45.674  23.505  35.674  1.00  0.00    -0.744 OA
ENDBRANCH  64  67
ENDBRANCH  37  60
ENDBRANCH  11  12
ENDBRANCH   4   6
ENDBRANCH   1   2
BRANCH   1  71
ATOM     71  C   UNL A   1      31.585  28.612  26.257  1.00  0.00     0.023 C 
BRANCH  71  72
ATOM     72  C   UNL A   1      31.943  27.127  26.304  1.00  0.00     0.023 C 
BRANCH  72  73
ATOM     73  C   UNL A   1      30.761  26.165  26.229  1.00  0.00     0.116 C 
BRANCH  73  74
ATOM     74  N   UNL A   1      30.886  25.195  25.154  1.00  0.00    -0.351 N 
ATOM     75  C   UNL A   1      30.596  25.359  23.816  1.00  0.00     0.269 C 
ATOM     76  H   UNL A   1      31.221  24.307  25.415  1.00  0.00     0.163 HD
ATOM     77  O   UNL A   1      30.725  24.420  23.036  1.00  0.00    -0.268 OA
BRANCH  75  78
ATOM     78  C   UNL A   1      30.151  26.692  23.331  1.00  0.00     0.128 A 
ATOM     79  C   UNL A   1      31.066  27.544  22.728  1.00  0.00     0.035 A 
ATOM     80  N   UNL A   1      28.859  27.021  23.571  1.00  0.00    -0.250 NA
ATOM     81  C   UNL A   1      30.646  28.830  22.397  1.00  0.00     0.013 A 
ATOM     82  C   UNL A   1      28.481  28.270  23.214  1.00  0.00     0.120 A 
ATOM     83  C   UNL A   1      29.325  29.230  22.648  1.00  0.00     0.000 A 
BRANCH  83  84
ATOM     84  C   UNL A   1      28.864  30.595  22.358  1.00  0.00    -0.014 A 
ATOM     85  C   UNL A   1      28.362  30.939  21.098  1.00  0.00     0.029 A 
ATOM     86  C   UNL A   1      28.934  31.603  23.327  1.00  0.00     0.029 A 
ATOM     87  C   UNL A   1      27.961  32.247  20.867  1.00  0.00     0.111 A 
ATOM     88  C   UNL A   1      28.511  32.882  23.002  1.00  0.00     0.111 A 
ATOM     89  N   UNL A   1      28.024  33.226  21.793  1.00  0.00    -0.265 NA
ENDBRANCH  83  84
ENDBRANCH  75  78
ENDBRANCH  73  74
ENDBRANCH  72  73
ENDBRANCH  71  72
ENDBRANCH   1  71
TORSDOF 15
ENDMDL
MODEL 3
REMARK VINA RESULT:     -12.1      2.266      7.987
REMARK SMILES O=C(NCCCCNC(=O)c1ccc(-c2ccncc2)cn1)c1ccc(-c2c3nc(c(-c4cccc(S(=O)(=O)[O-])c4F)c4ccc([nH]4)c(-c4cccc(S(=O)(=O)[O-])c4F)c4nc(c(-c5cccc(S(=O)(=O)[O-])c5F)c5ccc2[nH]5)C=C4)C=C3)cc1
REMARK SMILES IDX 4 1 3 2 1 3 2 4 23 6 24 7 85 8 25 9 84 10 26 11 27 12 28 13
REMARK SMILES IDX 78 14 29 15 83 16 77 17 79 18 30 19 82 20 76 21 75 22 31 24
REMARK SMILES IDX 63 25 43 26 62 27 44 28 47 29 61 30 80 31 45 32 46 33 60 35
REMARK SMILES IDX 81 36 48 37 32 38 33 39 41 40 34 41 36 42 42 43 35 44 37 45
REMARK SMILES IDX 38 46 39 47 40 48 64 49 65 50 73 51 66 52 68 53 74 54 67 55
REMARK SMILES IDX 69 56 70 57 71 58 72 59 49 60 50 61 58 62 51 63 53 64 59 65
REMARK SMILES IDX 52 66 54 67 55 68 56 69 57 70 5 71 6 72 7 73 8 74 9 75 10 77
REMARK SMILES IDX 11 78 12 79 22 80 13 81 21 82 14 83 15 84 16 85 20 86 17 87
REMARK SMILES IDX 19 88 18 89
REMARK H PARENT 3 5 79 23 47 34 8 76
REMARK Flexibility Score: inf
ROOT
ATOM      1  C   UNL A   1      34.003  28.893  26.246  1.00  0.00     0.116 C 
ENDROOT
BRANCH   1   2
ATOM      2  N   UNL A   1      33.875  30.227  26.808  1.00  0.00    -0.352 N 
ATOM      3  O   UNL A   1      34.306  31.951  28.187  1.00  0.00    -0.269 OA
ATOM      4  C   UNL A   1      34.674  30.876  27.720  1.00  0.00     0.251 C 
ATOM      5  H   UNL A   1      33.102  30.745  26.488  1.00  0.00     0.163 HD
BRANCH   4   6
ATOM      6  C   UNL A   1      35.948  30.267  28.160  1.00  0.00     0.039 A 
ATOM      7  C   UNL A   1      36.039  29.585  29.377  1.00  0.00     0.014 A 
ATOM      8  C   UNL A   1      37.071  30.379  27.335  1.00  0.00     0.014 A 
ATOM      9  C   UNL A   1      37.278  29.144  29.835  1.00  0.00     0.010 A 
ATOM     10  C   UNL A   1      38.299  29.870  27.764  1.00  0.00     0.010 A 
ATOM     11  C   UNL A   1      38.422  29.282  29.033  1.00  0.00    -0.014 A 
BRANCH  11  12
ATOM     12  C   UNL A   1      39.734  28.775  29.508  1.00  0.00     0.031 A 
ATOM     13  C   UNL A   1      40.473  29.471  30.618  1.00  0.00     0.074 A 
ATOM     14  C   UNL A   1      40.278  27.702  28.904  1.00  0.00     0.049 A 
ATOM     15  N   UNL A   1      41.652  29.201  31.117  1.00  0.00    -0.248 NA
ATOM     16  C   UNL A   1      39.808  30.626  31.242  1.00  0.00     0.031 C 
ATOM     17  C   UNL A   1      39.672  26.966  27.792  1.00  0.00     0.029 A 
ATOM     18  N   UNL A   1      41.471  27.058  29.120  1.00  0.00    -0.354 N 
ATOM     19  C   UNL A   1      41.892  30.174  32.080  1.00  0.00     0.074 A 
ATOM     20  C   UNL A   1      40.736  31.046  32.092  1.00  0.00     0.031 C 
ATOM     21  C   UNL A   1      40.496  25.976  27.421  1.00  0.00     0.029 A 
ATOM     22  C   UNL A   1      41.707  26.035  28.234  1.00  0.00     0.049 A 
ATOM     23  H   UNL A   1      42.096  27.306  29.840  1.00  0.00     0.167 HD
ATOM     24  C   UNL A   1      42.969  30.320  32.889  1.00  0.00     0.034 A 
ATOM     25  C   UNL A   1      42.786  25.246  28.071  1.00  0.00     0.034 A 
ATOM     26  C   UNL A   1      44.098  29.428  32.898  1.00  0.00     0.049 A 
ATOM     27  C   UNL A   1      43.959  25.414  28.994  1.00  0.00     0.074 A 
ATOM     28  C   UNL A   1      45.206  29.450  33.727  1.00  0.00     0.029 A 
ATOM     29  N   UNL A   1      44.268  28.356  32.034  1.00  0.00    -0.354 N 
ATOM     30  N   UNL A   1      44.113  26.261  29.982  1.00  0.00    -0.248 NA
ATOM     31  C   UNL A   1      45.094  24.499  28.803  1.00  0.00     0.031 C 
ATOM     32  C   UNL A   1      46.055  28.404  33.351  1.00  0.00     0.029 A 
ATOM     33  C   UNL A   1      45.466  27.716  32.303  1.00  0.00     0.049 A 
ATOM     34  H   UNL A   1      43.632  28.091  31.332  1.00  0.00     0.167 HD
ATOM     35  C   UNL A   1      45.344  25.963  30.552  1.00  0.00     0.074 A 
ATOM     36  C   UNL A   1      45.889  24.846  29.806  1.00  0.00     0.031 C 
ATOM     37  C   UNL A   1      45.971  26.569  31.591  1.00  0.00     0.034 A 
BRANCH  24  38
ATOM     38  C   UNL A   1      42.964  31.470  33.862  1.00  0.00     0.023 A 
ATOM     39  C   UNL A   1      43.477  32.721  33.462  1.00  0.00     0.012 A 
ATOM     40  C   UNL A   1      42.407  31.333  35.148  1.00  0.00     0.148 A 
ATOM     41  C   UNL A   1      43.466  33.806  34.338  1.00  0.00     0.002 A 
ATOM     42  C   UNL A   1      42.363  32.430  36.001  1.00  0.00     0.091 A 
ATOM     43  F   UNL A   1      41.944  30.131  35.521  1.00  0.00    -0.205 F 
ATOM     44  C   UNL A   1      42.901  33.664  35.603  1.00  0.00     0.022 A 
BRANCH  42  45
ATOM     45  S   UNL A   1      41.586  32.355  37.620  1.00  0.00     0.127 S 
ATOM     46  O   UNL A   1      40.219  31.972  37.274  1.00  0.00    -0.237 OA
ATOM     47  O   UNL A   1      42.359  31.308  38.291  1.00  0.00    -0.237 OA
ATOM     48  O   UNL A   1      41.746  33.683  38.196  1.00  0.00    -0.744 OA
ENDBRANCH  42  45
ENDBRANCH  24  38
BRANCH  25  49
ATOM     49  C   UNL A   1      42.768  24.198  27.014  1.00  0.00     0.023 A 
ATOM     50  C   UNL A   1      43.469  24.416  25.813  1.00  0.00     0.012 A 
ATOM     51  C   UNL A   1      42.132  22.959  27.226  1.00  0.00     0.148 A 
ATOM     52  C   UNL A   1      43.526  23.423  24.835  1.00  0.00     0.002 A 
ATOM     53  C   UNL A   1      42.240  21.954  26.273  1.00  0.00     0.091 A 
ATOM     54  F   UNL A   1      41.462  22.779  28.373  1.00  0.00    -0.205 F 
ATOM     55  C   UNL A   1      42.925  22.189  25.071  1.00  0.00     0.022 A 
BRANCH  53  56
ATOM     56  S   UNL A   1      41.624  20.290  26.552  1.00  0.00     0.127 S 
ATOM     57  O   UNL A   1      40.180  20.502  26.548  1.00  0.00    -0.237 OA
ATOM     58  O   UNL A   1      42.147  19.576  25.387  1.00  0.00    -0.237 OA
ATOM     59  O   UNL A   1      42.196  19.865  27.823  1.00  0.00    -0.744 OA
ENDBRANCH  53  56
ENDBRANCH  25  49
BRANCH  37  60
ATOM     60  C   UNL A   1      47.305  26.019  32.020  1.00  0.00     0.023 A 
ATOM     61  C   UNL A   1      48.479  26.447  31.370  1.00  0.00     0.012 A 
ATOM     62  C   UNL A   1      47.400  25.151  33.125  1.00  0.00     0.148 A 
ATOM     63  C   UNL A   1      49.728  26.002  31.802  1.00  0.00     0.002 A 
ATOM     64  C   UNL A   1      48.650  24.747  33.577  1.00  0.00     0.091 A 
ATOM     65  F   UNL A   1      46.269  24.740  33.714  1.00  0.00    -0.205 F 
ATOM     66  C   UNL A   1      49.814  25.164  32.912  1.00  0.00     0.022 A 
BRANCH  64  67
ATOM     67  S   UNL A   1      48.862  23.744  35.053  1.00  0.00     0.127 S 
ATOM     68  O   UNL A   1      48.252  22.480  34.643  1.00  0.00    -0.237 OA
ATOM     69  O   UNL A   1      50.317  23.703  35.196  1.00  0.00    -0.237 OA
ATOM     70  O   UNL A   1      48.171  24.454  36.122  1.00  0.00    -0.744 OA
ENDBRANCH  64  67
ENDBRANCH  37  60
ENDBRANCH  11  12
ENDBRANCH   4   6
ENDBRANCH   1   2
BRANCH   1  71
ATOM     71  C   UNL A   1      32.831  27.986  26.605  1.00  0.00     0.023 C 
BRANCH  71  72
ATOM     72  C   UNL A   1      32.935  26.547  26.102  1.00  0.00     0.023 C 
BRANCH  72  73
ATOM     73  C   UNL A   1      31.625  25.764  26.082  1.00  0.00     0.116 C 
BRANCH  73  74
ATOM     74  N   UNL A   1      31.484  24.924  24.904  1.00  0.00    -0.351 N 
ATOM     75  C   UNL A   1      30.896  25.236  23.696  1.00  0.00     0.269 C 
ATOM     76  H   UNL A   1      31.856  24.017  24.978  1.00  0.00     0.163 HD
ATOM     77  O   UNL A   1      30.828  24.394  22.807  1.00  0.00    -0.268 OA
BRANCH  75  78
ATOM     78  C   UNL A   1      30.372  26.611  23.482  1.00  0.00     0.128 A 
ATOM     79  C   UNL A   1      29.025  26.873  23.695  1.00  0.00     0.035 A 
ATOM     80  N   UNL A   1      31.255  27.530  23.024  1.00  0.00    -0.250 NA
ATOM     81  C   UNL A   1      28.542  28.138  23.368  1.00  0.00     0.013 A 
ATOM     82  C   UNL A   1      30.754  28.754  22.741  1.00  0.00     0.120 A 
ATOM     83  C   UNL A   1      29.410  29.118  22.865  1.00  0.00     0.000 A 
BRANCH  83  84
ATOM     84  C   UNL A   1      28.925  30.445  22.463  1.00  0.00    -0.014 A 
ATOM     85  C   UNL A   1      28.496  30.696  21.155  1.00  0.00     0.029 A 
ATOM     86  C   UNL A   1      28.898  31.511  23.371  1.00  0.00     0.029 A 
ATOM     87  C   UNL A   1      28.068  31.973  20.819  1.00  0.00     0.111 A 
ATOM     88  C   UNL A   1      28.456  32.752  22.942  1.00  0.00     0.111 A 
ATOM     89  N   UNL A   1      28.038  33.006  21.686  1.00  0.00    -0.265 NA
ENDBRANCH  83  84
ENDBRANCH  75  78
ENDBRANCH  73  74
ENDBRANCH  72  73
ENDBRANCH  71  72
ENDBRANCH   1  71
TORSDOF 15
ENDMDL
