MODEL 1
REMARK VINA RESULT:     -11.9      0.000      0.000
REMARK SMILES CCC(CC)([NH2+]CC(=O)Nc1ccc(C)cc1)C(=O)NCCCCNC(=O)c1ccc(-c2c3nc(c(-c4cccc(S(=O)(=O)[O-])c4F)c4ccc([nH]4)c(-c4cccc(S(=O)(=O)[O-])c4F)c4nc(c(-c5cccc(S(=O)(=O)[O-])c5F)c5ccc2[nH]5)C=C4)C=C3)cc1
REMARK SMILES IDX 22 1 21 2 20 3 18 4 19 5 3 7 2 8 1 9 4 10 5 11 6 12 7 15
REMARK SMILES IDX 8 16 9 17 10 18 11 20 12 21 17 22 13 23 16 24 14 25 15 26
REMARK SMILES IDX 23 27 24 28 25 29 26 30 27 32 28 33 29 34 90 35 30 36 89 37
REMARK SMILES IDX 31 38 32 39 33 40 83 41 34 42 88 43 82 44 84 45 35 46 87 47
REMARK SMILES IDX 81 48 80 49 36 51 68 52 48 53 67 54 49 55 52 56 66 57 85 58
REMARK SMILES IDX 50 59 51 60 65 62 86 63 53 64 37 65 38 66 46 67 39 68 41 69
REMARK SMILES IDX 47 70 40 71 42 72 43 73 44 74 45 75 69 76 70 77 78 78 71 79
REMARK SMILES IDX 73 80 79 81 72 82 74 83 75 84 76 85 77 86 54 87 55 88 63 89
REMARK SMILES IDX 56 90 58 91 64 92 57 93 59 94 60 95 61 96 62 97
REMARK H PARENT 20 6 6 13 6 14 10 19 25 31 84 50 52 61
REMARK Flexibility Score: inf
ROOT
ATOM      1  C   UNL A   1      32.676  27.637  26.601  1.00  0.00     0.023 C 
ENDROOT
BRANCH   1   2
ATOM      2  C   UNL A   1      31.282  26.984  26.663  1.00  0.00     0.116 C 
BRANCH   2   3
ATOM      3  N   UNL A   1      31.257  25.510  26.776  1.00  0.00    -0.351 N 
ATOM      4  C   UNL A   1      31.939  24.388  26.375  1.00  0.00     0.281 C 
ATOM      5  O   UNL A   1      31.876  23.528  27.277  1.00  0.00    -0.268 OA
ATOM      6  H   UNL A   1      30.487  25.240  27.326  1.00  0.00     0.163 HD
BRANCH   4   7
ATOM      7  C   UNL A   1      32.570  23.948  24.891  1.00  0.00     0.175 C 
BRANCH   7   8
ATOM      8  C   UNL A   1      33.752  25.025  24.756  1.00  0.00     0.076 C 
ATOM      9  C   UNL A   1      33.639  25.979  23.527  1.00  0.00     0.011 C 
ENDBRANCH   7   8
BRANCH   7  10
ATOM     10  C   UNL A   1      31.970  23.983  23.422  1.00  0.00     0.076 C 
ATOM     11  C   UNL A   1      30.459  24.283  23.275  1.00  0.00     0.011 C 
ENDBRANCH   7  10
BRANCH   7  12
ATOM     12  N   UNL A   1      33.040  22.575  25.068  1.00  0.00    -0.326 N 
ATOM     13  H   UNL A   1      32.845  22.070  24.202  1.00  0.00     0.347 HD
ATOM     14  H   UNL A   1      32.544  22.232  25.890  1.00  0.00     0.347 HD
BRANCH  12  15
ATOM     15  C   UNL A   1      34.478  22.383  25.380  1.00  0.00     0.363 C 
BRANCH  15  16
ATOM     16  C   UNL A   1      35.459  21.371  24.687  1.00  0.00     0.279 C 
ATOM     17  O   UNL A   1      36.414  21.871  24.065  1.00  0.00    -0.268 OA
ATOM     18  N   UNL A   1      35.541  20.006  24.906  1.00  0.00    -0.321 N 
ATOM     19  H   UNL A   1      36.473  19.730  25.061  1.00  0.00     0.170 HD
BRANCH  18  20
ATOM     20  C   UNL A   1      34.660  18.887  24.971  1.00  0.00     0.041 A 
ATOM     21  C   UNL A   1      33.318  18.918  25.319  1.00  0.00     0.026 A 
ATOM     22  C   UNL A   1      35.127  17.650  24.526  1.00  0.00     0.026 A 
ATOM     23  C   UNL A   1      32.542  17.763  25.491  1.00  0.00     0.005 A 
ATOM     24  C   UNL A   1      34.351  16.477  24.642  1.00  0.00     0.005 A 
ATOM     25  C   UNL A   1      33.077  16.518  25.208  1.00  0.00    -0.051 A 
ATOM     26  C   UNL A   1      32.256  15.288  25.449  1.00  0.00     0.044 C 
ENDBRANCH  18  20
ENDBRANCH  15  16
ENDBRANCH  12  15
ENDBRANCH   7  12
ENDBRANCH   4   7
ENDBRANCH   2   3
ENDBRANCH   1   2
BRANCH   1  27
ATOM     27  C   UNL A   1      32.899  28.803  27.576  1.00  0.00     0.023 C 
BRANCH  27  28
ATOM     28  C   UNL A   1      33.385  30.108  26.928  1.00  0.00     0.116 C 
BRANCH  28  29
ATOM     29  N   UNL A   1      33.788  31.144  27.884  1.00  0.00    -0.352 N 
ATOM     30  C   UNL A   1      34.869  31.179  28.760  1.00  0.00     0.251 C 
ATOM     31  H   UNL A   1      33.206  31.937  27.909  1.00  0.00     0.163 HD
ATOM     32  O   UNL A   1      34.992  32.118  29.542  1.00  0.00    -0.269 OA
BRANCH  30  33
ATOM     33  C   UNL A   1      35.909  30.124  28.676  1.00  0.00     0.039 A 
ATOM     34  C   UNL A   1      36.288  29.456  29.846  1.00  0.00     0.014 A 
ATOM     35  C   UNL A   1      36.679  30.004  27.528  1.00  0.00     0.014 A 
ATOM     36  C   UNL A   1      37.578  28.939  29.952  1.00  0.00     0.010 A 
ATOM     37  C   UNL A   1      37.992  29.611  27.661  1.00  0.00     0.010 A 
ATOM     38  C   UNL A   1      38.455  29.135  28.893  1.00  0.00    -0.014 A 
BRANCH  38  39
ATOM     39  C   UNL A   1      39.867  28.808  28.930  1.00  0.00     0.031 A 
ATOM     40  C   UNL A   1      40.273  27.424  28.623  1.00  0.00     0.074 A 
ATOM     41  C   UNL A   1      40.804  29.765  29.108  1.00  0.00     0.049 A 
ATOM     42  N   UNL A   1      41.358  26.883  29.060  1.00  0.00    -0.248 NA
ATOM     43  C   UNL A   1      39.446  26.528  27.822  1.00  0.00     0.031 C 
ATOM     44  C   UNL A   1      42.215  29.652  28.760  1.00  0.00     0.029 A 
ATOM     45  N   UNL A   1      40.707  30.991  29.780  1.00  0.00    -0.354 N 
ATOM     46  C   UNL A   1      41.492  25.674  28.417  1.00  0.00     0.074 A 
ATOM     47  C   UNL A   1      40.248  25.467  27.712  1.00  0.00     0.031 C 
ATOM     48  C   UNL A   1      42.899  30.607  29.404  1.00  0.00     0.029 A 
ATOM     49  C   UNL A   1      41.979  31.281  30.303  1.00  0.00     0.049 A 
ATOM     50  H   UNL A   1      39.898  31.546  29.867  1.00  0.00     0.167 HD
ATOM     51  C   UNL A   1      42.696  25.040  28.408  1.00  0.00     0.034 A 
ATOM     52  C   UNL A   1      42.251  31.584  31.603  1.00  0.00     0.034 A 
ATOM     53  C   UNL A   1      43.720  25.837  29.089  1.00  0.00     0.049 A 
ATOM     54  C   UNL A   1      43.162  30.566  32.263  1.00  0.00     0.074 A 
ATOM     55  C   UNL A   1      44.634  26.765  28.618  1.00  0.00     0.029 A 
ATOM     56  N   UNL A   1      43.685  25.987  30.470  1.00  0.00    -0.354 N 
ATOM     57  N   UNL A   1      43.625  29.501  31.669  1.00  0.00    -0.248 NA
ATOM     58  C   UNL A   1      43.588  30.642  33.658  1.00  0.00     0.031 C 
ATOM     59  C   UNL A   1      45.104  27.521  29.721  1.00  0.00     0.029 A 
ATOM     60  C   UNL A   1      44.500  27.037  30.868  1.00  0.00     0.049 A 
ATOM     61  H   UNL A   1      43.156  25.425  31.082  1.00  0.00     0.167 HD
ATOM     62  C   UNL A   1      44.244  28.686  32.584  1.00  0.00     0.074 A 
ATOM     63  C   UNL A   1      44.275  29.492  33.793  1.00  0.00     0.031 C 
ATOM     64  C   UNL A   1      44.614  27.403  32.279  1.00  0.00     0.034 A 
BRANCH  51  65
ATOM     65  C   UNL A   1      43.000  23.909  27.449  1.00  0.00     0.023 A 
ATOM     66  C   UNL A   1      43.764  24.206  26.301  1.00  0.00     0.012 A 
ATOM     67  C   UNL A   1      42.520  22.585  27.563  1.00  0.00     0.148 A 
ATOM     68  C   UNL A   1      43.940  23.285  25.264  1.00  0.00     0.002 A 
ATOM     69  C   UNL A   1      42.623  21.692  26.492  1.00  0.00     0.091 A 
ATOM     70  F   UNL A   1      42.004  22.169  28.728  1.00  0.00    -0.205 F 
ATOM     71  C   UNL A   1      43.331  22.042  25.339  1.00  0.00     0.022 A 
BRANCH  69  72
ATOM     72  S   UNL A   1      41.738  20.124  26.465  1.00  0.00     0.127 S 
ATOM     73  O   UNL A   1      40.341  20.553  26.356  1.00  0.00    -0.237 OA
ATOM     74  O   UNL A   1      42.268  19.478  25.268  1.00  0.00    -0.237 OA
ATOM     75  O   UNL A   1      42.053  19.476  27.734  1.00  0.00    -0.744 OA
ENDBRANCH  69  72
ENDBRANCH  51  65
BRANCH  52  76
ATOM     76  C   UNL A   1      41.203  32.384  32.287  1.00  0.00     0.023 A 
ATOM     77  C   UNL A   1      41.009  33.709  31.834  1.00  0.00     0.012 A 
ATOM     78  C   UNL A   1      40.177  31.742  32.997  1.00  0.00     0.148 A 
ATOM     79  C   UNL A   1      39.779  34.349  31.997  1.00  0.00     0.002 A 
ATOM     80  C   UNL A   1      38.932  32.355  33.076  1.00  0.00     0.091 A 
ATOM     81  F   UNL A   1      40.386  30.487  33.413  1.00  0.00    -0.205 F 
ATOM     82  C   UNL A   1      38.729  33.656  32.584  1.00  0.00     0.022 A 
BRANCH  80  83
ATOM     83  S   UNL A   1      37.441  31.433  33.455  1.00  0.00     0.127 S 
ATOM     84  O   UNL A   1      37.873  30.051  33.250  1.00  0.00    -0.237 OA
ATOM     85  O   UNL A   1      37.252  31.817  34.853  1.00  0.00    -0.237 OA
ATOM     86  O   UNL A   1      36.432  31.918  32.531  1.00  0.00    -0.744 OA
ENDBRANCH  80  83
ENDBRANCH  52  76
BRANCH  64  87
ATOM     87  C   UNL A   1      45.121  26.361  33.265  1.00  0.00     0.023 A 
ATOM     88  C   UNL A   1      46.385  25.753  33.145  1.00  0.00     0.012 A 
ATOM     89  C   UNL A   1      44.384  26.055  34.441  1.00  0.00     0.148 A 
ATOM     90  C   UNL A   1      46.868  24.848  34.099  1.00  0.00     0.002 A 
ATOM     91  C   UNL A   1      44.920  25.249  35.442  1.00  0.00     0.091 A 
ATOM     92  F   UNL A   1      43.136  26.523  34.590  1.00  0.00    -0.205 F 
ATOM     93  C   UNL A   1      46.148  24.615  35.261  1.00  0.00     0.022 A 
BRANCH  91  94
ATOM     94  S   UNL A   1      44.130  25.132  37.056  1.00  0.00     0.127 S 
ATOM     95  O   UNL A   1      42.835  24.544  36.719  1.00  0.00    -0.237 OA
ATOM     96  O   UNL A   1      45.033  24.238  37.784  1.00  0.00    -0.237 OA
ATOM     97  O   UNL A   1      44.109  26.497  37.562  1.00  0.00    -0.744 OA
ENDBRANCH  91  94
ENDBRANCH  64  87
ENDBRANCH  38  39
ENDBRANCH  30  33
ENDBRANCH  28  29
ENDBRANCH  27  28
ENDBRANCH   1  27
TORSDOF 20
ENDMDL
MODEL 2
REMARK VINA RESULT:     -11.8      4.161      9.939
REMARK SMILES CCC(CC)([NH2+]CC(=O)Nc1ccc(C)cc1)C(=O)NCCCCNC(=O)c1ccc(-c2c3nc(c(-c4cccc(S(=O)(=O)[O-])c4F)c4ccc([nH]4)c(-c4cccc(S(=O)(=O)[O-])c4F)c4nc(c(-c5cccc(S(=O)(=O)[O-])c5F)c5ccc2[nH]5)C=C4)C=C3)cc1
REMARK SMILES IDX 22 1 21 2 20 3 18 4 19 5 3 7 2 8 1 9 4 10 5 11 6 12 7 15
REMARK SMILES IDX 8 16 9 17 10 18 11 20 12 21 17 22 13 23 16 24 14 25 15 26
REMARK SMILES IDX 23 27 24 28 25 29 26 30 27 32 28 33 29 34 90 35 30 36 89 37
REMARK SMILES IDX 31 38 32 39 33 40 83 41 34 42 88 43 82 44 84 45 35 46 87 47
REMARK SMILES IDX 81 48 80 49 36 51 68 52 48 53 67 54 49 55 52 56 66 57 85 58
REMARK SMILES IDX 50 59 51 60 65 62 86 63 53 64 37 65 38 66 46 67 39 68 41 69
REMARK SMILES IDX 47 70 40 71 42 72 43 73 44 74 45 75 69 76 70 77 78 78 71 79
REMARK SMILES IDX 73 80 79 81 72 82 74 83 75 84 76 85 77 86 54 87 55 88 63 89
REMARK SMILES IDX 56 90 58 91 64 92 57 93 59 94 60 95 61 96 62 97
REMARK H PARENT 20 6 6 13 6 14 10 19 25 31 84 50 52 61
REMARK Flexibility Score: inf
ROOT
ATOM      1  C   UNL A   1      37.213  21.649  24.268  1.00  0.00     0.023 C 
ENDROOT
BRANCH   1   2
ATOM      2  C   UNL A   1      36.798  23.025  23.713  1.00  0.00     0.116 C 
BRANCH   2   3
ATOM      3  N   UNL A   1      35.393  23.152  23.270  1.00  0.00    -0.351 N 
ATOM      4  C   UNL A   1      34.118  23.284  23.759  1.00  0.00     0.281 C 
ATOM      5  O   UNL A   1      33.452  23.996  22.979  1.00  0.00    -0.268 OA
ATOM      6  H   UNL A   1      35.361  23.137  22.286  1.00  0.00     0.163 HD
BRANCH   4   7
ATOM      7  C   UNL A   1      33.322  22.498  25.001  1.00  0.00     0.175 C 
BRANCH   7   8
ATOM      8  C   UNL A   1      33.788  23.394  26.247  1.00  0.00     0.076 C 
ATOM      9  C   UNL A   1      34.422  22.600  27.432  1.00  0.00     0.011 C 
ENDBRANCH   7   8
BRANCH   7  10
ATOM     10  C   UNL A   1      33.474  21.040  25.613  1.00  0.00     0.076 C 
ATOM     11  C   UNL A   1      33.546  19.855  24.622  1.00  0.00     0.011 C 
ENDBRANCH   7  10
BRANCH   7  12
ATOM     12  N   UNL A   1      31.900  22.621  24.683  1.00  0.00    -0.326 N 
ATOM     13  H   UNL A   1      31.697  21.965  23.927  1.00  0.00     0.347 HD
ATOM     14  H   UNL A   1      31.768  23.605  24.450  1.00  0.00     0.347 HD
BRANCH  12  15
ATOM     15  C   UNL A   1      30.933  22.353  25.777  1.00  0.00     0.363 C 
BRANCH  15  16
ATOM     16  C   UNL A   1      30.263  23.420  26.714  1.00  0.00     0.279 C 
ATOM     17  O   UNL A   1      29.601  22.973  27.669  1.00  0.00    -0.268 OA
ATOM     18  N   UNL A   1      30.537  24.776  26.764  1.00  0.00    -0.321 N 
ATOM     19  H   UNL A   1      30.684  25.071  27.692  1.00  0.00     0.170 HD
BRANCH  18  20
ATOM     20  C   UNL A   1      30.668  25.867  25.855  1.00  0.00     0.041 A 
ATOM     21  C   UNL A   1      31.447  27.000  26.039  1.00  0.00     0.026 A 
ATOM     22  C   UNL A   1      30.072  25.757  24.598  1.00  0.00     0.026 A 
ATOM     23  C   UNL A   1      31.427  28.096  25.165  1.00  0.00     0.005 A 
ATOM     24  C   UNL A   1      30.077  26.825  23.677  1.00  0.00     0.005 A 
ATOM     25  C   UNL A   1      30.688  28.038  23.995  1.00  0.00    -0.051 A 
ATOM     26  C   UNL A   1      30.630  29.237  23.097  1.00  0.00     0.044 C 
ENDBRANCH  18  20
ENDBRANCH  15  16
ENDBRANCH  12  15
ENDBRANCH   7  12
ENDBRANCH   4   7
ENDBRANCH   2   3
ENDBRANCH   1   2
BRANCH   1  27
ATOM     27  C   UNL A   1      37.941  21.678  25.620  1.00  0.00     0.023 C 
BRANCH  27  28
ATOM     28  C   UNL A   1      38.481  23.054  26.038  1.00  0.00     0.116 C 
BRANCH  28  29
ATOM     29  N   UNL A   1      39.821  23.023  26.630  1.00  0.00    -0.352 N 
ATOM     30  C   UNL A   1      40.564  24.044  27.216  1.00  0.00     0.251 C 
ATOM     31  H   UNL A   1      40.264  22.144  26.613  1.00  0.00     0.163 HD
ATOM     32  O   UNL A   1      41.713  23.827  27.592  1.00  0.00    -0.269 OA
BRANCH  30  33
ATOM     33  C   UNL A   1      39.924  25.361  27.459  1.00  0.00     0.039 A 
ATOM     34  C   UNL A   1      40.275  26.443  26.643  1.00  0.00     0.014 A 
ATOM     35  C   UNL A   1      39.219  25.579  28.634  1.00  0.00     0.014 A 
ATOM     36  C   UNL A   1      40.199  27.737  27.152  1.00  0.00     0.010 A 
ATOM     37  C   UNL A   1      39.254  26.836  29.193  1.00  0.00     0.010 A 
ATOM     38  C   UNL A   1      39.801  27.904  28.473  1.00  0.00    -0.014 A 
BRANCH  38  39
ATOM     39  C   UNL A   1      39.841  29.165  29.186  1.00  0.00     0.031 A 
ATOM     40  C   UNL A   1      38.796  30.165  28.896  1.00  0.00     0.074 A 
ATOM     41  C   UNL A   1      40.725  29.380  30.185  1.00  0.00     0.049 A 
ATOM     42  N   UNL A   1      38.953  31.433  29.061  1.00  0.00    -0.248 NA
ATOM     43  C   UNL A   1      37.494  29.797  28.350  1.00  0.00     0.031 C 
ATOM     44  C   UNL A   1      40.606  30.393  31.225  1.00  0.00     0.029 A 
ATOM     45  N   UNL A   1      41.994  28.821  30.384  1.00  0.00    -0.354 N 
ATOM     46  C   UNL A   1      37.722  32.019  28.879  1.00  0.00     0.074 A 
ATOM     47  C   UNL A   1      36.863  30.973  28.372  1.00  0.00     0.031 C 
ATOM     48  C   UNL A   1      41.804  30.569  31.799  1.00  0.00     0.029 A 
ATOM     49  C   UNL A   1      42.771  29.782  31.055  1.00  0.00     0.049 A 
ATOM     50  H   UNL A   1      42.287  27.923  30.107  1.00  0.00     0.167 HD
ATOM     51  C   UNL A   1      37.500  33.286  29.324  1.00  0.00     0.034 A 
ATOM     52  C   UNL A   1      43.992  30.234  30.655  1.00  0.00     0.034 A 
ATOM     53  C   UNL A   1      38.678  33.820  30.012  1.00  0.00     0.049 A 
ATOM     54  C   UNL A   1      43.991  31.718  30.335  1.00  0.00     0.074 A 
ATOM     55  C   UNL A   1      39.047  33.823  31.347  1.00  0.00     0.029 A 
ATOM     56  N   UNL A   1      39.817  34.155  29.289  1.00  0.00    -0.354 N 
ATOM     57  N   UNL A   1      42.938  32.484  30.410  1.00  0.00    -0.248 NA
ATOM     58  C   UNL A   1      45.164  32.446  29.861  1.00  0.00     0.031 C 
ATOM     59  C   UNL A   1      40.435  34.101  31.421  1.00  0.00     0.029 A 
ATOM     60  C   UNL A   1      40.908  34.295  30.135  1.00  0.00     0.049 A 
ATOM     61  H   UNL A   1      39.845  34.277  28.313  1.00  0.00     0.167 HD
ATOM     62  C   UNL A   1      43.214  33.713  29.866  1.00  0.00     0.074 A 
ATOM     63  C   UNL A   1      44.647  33.666  29.625  1.00  0.00     0.031 C 
ATOM     64  C   UNL A   1      42.229  34.628  29.604  1.00  0.00     0.034 A 
BRANCH  51  65
ATOM     65  C   UNL A   1      36.104  33.852  29.469  1.00  0.00     0.023 A 
ATOM     66  C   UNL A   1      35.443  34.283  28.299  1.00  0.00     0.012 A 
ATOM     67  C   UNL A   1      35.425  34.060  30.690  1.00  0.00     0.148 A 
ATOM     68  C   UNL A   1      34.238  34.990  28.341  1.00  0.00     0.002 A 
ATOM     69  C   UNL A   1      34.265  34.839  30.741  1.00  0.00     0.091 A 
ATOM     70  F   UNL A   1      35.875  33.464  31.804  1.00  0.00    -0.205 F 
ATOM     71  C   UNL A   1      33.671  35.308  29.566  1.00  0.00     0.022 A 
BRANCH  69  72
ATOM     72  S   UNL A   1      33.562  35.409  32.298  1.00  0.00     0.127 S 
ATOM     73  O   UNL A   1      34.737  35.934  33.001  1.00  0.00    -0.237 OA
ATOM     74  O   UNL A   1      32.610  36.427  31.865  1.00  0.00    -0.237 OA
ATOM     75  O   UNL A   1      32.989  34.222  32.924  1.00  0.00    -0.744 OA
ENDBRANCH  69  72
ENDBRANCH  51  65
BRANCH  52  76
ATOM     76  C   UNL A   1      44.855  29.208  30.016  1.00  0.00     0.023 A 
ATOM     77  C   UNL A   1      45.297  28.142  30.832  1.00  0.00     0.012 A 
ATOM     78  C   UNL A   1      44.850  29.051  28.622  1.00  0.00     0.148 A 
ATOM     79  C   UNL A   1      45.632  26.906  30.277  1.00  0.00     0.002 A 
ATOM     80  C   UNL A   1      45.103  27.793  28.088  1.00  0.00     0.091 A 
ATOM     81  F   UNL A   1      44.426  30.076  27.871  1.00  0.00    -0.205 F 
ATOM     82  C   UNL A   1      45.497  26.721  28.908  1.00  0.00     0.022 A 
BRANCH  80  83
ATOM     83  S   UNL A   1      44.598  27.347  26.425  1.00  0.00     0.127 S 
ATOM     84  O   UNL A   1      45.742  26.568  25.955  1.00  0.00    -0.237 OA
ATOM     85  O   UNL A   1      43.401  26.564  26.724  1.00  0.00    -0.237 OA
ATOM     86  O   UNL A   1      44.369  28.604  25.734  1.00  0.00    -0.744 OA
ENDBRANCH  80  83
ENDBRANCH  52  76
BRANCH  64  87
ATOM     87  C   UNL A   1      42.398  35.927  28.829  1.00  0.00     0.023 A 
ATOM     88  C   UNL A   1      41.766  36.162  27.594  1.00  0.00     0.012 A 
ATOM     89  C   UNL A   1      43.102  37.024  29.396  1.00  0.00     0.148 A 
ATOM     90  C   UNL A   1      41.874  37.389  26.925  1.00  0.00     0.002 A 
ATOM     91  C   UNL A   1      43.106  38.276  28.785  1.00  0.00     0.091 A 
ATOM     92  F   UNL A   1      43.803  36.858  30.527  1.00  0.00    -0.205 F 
ATOM     93  C   UNL A   1      42.521  38.454  27.532  1.00  0.00     0.022 A 
BRANCH  91  94
ATOM     94  S   UNL A   1      43.713  39.728  29.658  1.00  0.00     0.127 S 
ATOM     95  O   UNL A   1      43.901  40.683  28.568  1.00  0.00    -0.237 OA
ATOM     96  O   UNL A   1      42.599  40.043  30.557  1.00  0.00    -0.237 OA
ATOM     97  O   UNL A   1      44.918  39.278  30.340  1.00  0.00    -0.744 OA
ENDBRANCH  91  94
ENDBRANCH  64  87
ENDBRANCH  38  39
ENDBRANCH  30  33
ENDBRANCH  28  29
ENDBRANCH  27  28
ENDBRANCH   1  27
TORSDOF 20
ENDMDL
MODEL 3
REMARK VINA RESULT:     -11.8      4.073      9.542
REMARK SMILES CCC(CC)([NH2+]CC(=O)Nc1ccc(C)cc1)C(=O)NCCCCNC(=O)c1ccc(-c2c3nc(c(-c4cccc(S(=O)(=O)[O-])c4F)c4ccc([nH]4)c(-c4cccc(S(=O)(=O)[O-])c4F)c4nc(c(-c5cccc(S(=O)(=O)[O-])c5F)c5ccc2[nH]5)C=C4)C=C3)cc1
REMARK SMILES IDX 22 1 21 2 20 3 18 4 19 5 3 7 2 8 1 9 4 10 5 11 6 12 7 15
REMARK SMILES IDX 8 16 9 17 10 18 11 20 12 21 17 22 13 23 16 24 14 25 15 26
REMARK SMILES IDX 23 27 24 28 25 29 26 30 27 32 28 33 29 34 90 35 30 36 89 37
REMARK SMILES IDX 31 38 32 39 33 40 83 41 34 42 88 43 82 44 84 45 35 46 87 47
REMARK SMILES IDX 81 48 80 49 36 51 68 52 48 53 67 54 49 55 52 56 66 57 85 58
REMARK SMILES IDX 50 59 51 60 65 62 86 63 53 64 37 65 38 66 46 67 39 68 41 69
REMARK SMILES IDX 47 70 40 71 42 72 43 73 44 74 45 75 69 76 70 77 78 78 71 79
REMARK SMILES IDX 73 80 79 81 72 82 74 83 75 84 76 85 77 86 54 87 55 88 63 89
REMARK SMILES IDX 56 90 58 91 64 92 57 93 59 94 60 95 61 96 62 97
REMARK H PARENT 20 6 6 13 6 14 10 19 25 31 84 50 52 61
REMARK Flexibility Score: inf
ROOT
ATOM      1  C   UNL A   1      36.750  20.336  25.076  1.00  0.00     0.023 C 
ENDROOT
BRANCH   1   2
ATOM      2  C   UNL A   1      35.253  20.687  24.987  1.00  0.00     0.116 C 
BRANCH   2   3
ATOM      3  N   UNL A   1      34.866  21.623  23.909  1.00  0.00    -0.351 N 
ATOM      4  C   UNL A   1      34.522  22.934  23.694  1.00  0.00     0.281 C 
ATOM      5  O   UNL A   1      34.950  23.290  22.577  1.00  0.00    -0.268 OA
ATOM      6  H   UNL A   1      34.847  21.140  23.051  1.00  0.00     0.163 HD
BRANCH   4   7
ATOM      7  C   UNL A   1      33.490  23.957  24.521  1.00  0.00     0.175 C 
BRANCH   7   8
ATOM      8  C   UNL A   1      33.201  25.048  23.380  1.00  0.00     0.076 C 
ATOM      9  C   UNL A   1      31.829  24.896  22.654  1.00  0.00     0.011 C 
ENDBRANCH   7   8
BRANCH   7  10
ATOM     10  C   UNL A   1      33.703  24.898  25.782  1.00  0.00     0.076 C 
ATOM     11  C   UNL A   1      34.185  26.344  25.520  1.00  0.00     0.011 C 
ENDBRANCH   7  10
BRANCH   7  12
ATOM     12  N   UNL A   1      32.330  23.135  24.862  1.00  0.00    -0.326 N 
ATOM     13  H   UNL A   1      32.589  22.160  24.709  1.00  0.00     0.347 HD
ATOM     14  H   UNL A   1      31.579  23.483  24.266  1.00  0.00     0.347 HD
BRANCH  12  15
ATOM     15  C   UNL A   1      31.803  23.245  26.245  1.00  0.00     0.363 C 
BRANCH  15  16
ATOM     16  C   UNL A   1      30.417  23.848  26.673  1.00  0.00     0.279 C 
ATOM     17  O   UNL A   1      29.723  23.144  27.429  1.00  0.00    -0.268 OA
ATOM     18  N   UNL A   1      29.999  25.160  26.531  1.00  0.00    -0.321 N 
ATOM     19  H   UNL A   1      29.624  25.503  27.374  1.00  0.00     0.170 HD
BRANCH  18  20
ATOM     20  C   UNL A   1      29.955  26.156  25.511  1.00  0.00     0.041 A 
ATOM     21  C   UNL A   1      28.989  26.278  24.524  1.00  0.00     0.026 A 
ATOM     22  C   UNL A   1      30.885  27.195  25.560  1.00  0.00     0.026 A 
ATOM     23  C   UNL A   1      29.078  27.201  23.473  1.00  0.00     0.005 A 
ATOM     24  C   UNL A   1      30.968  28.167  24.541  1.00  0.00     0.005 A 
ATOM     25  C   UNL A   1      30.110  28.123  23.442  1.00  0.00    -0.051 A 
ATOM     26  C   UNL A   1      30.225  29.066  22.284  1.00  0.00     0.044 C 
ENDBRANCH  18  20
ENDBRANCH  15  16
ENDBRANCH  12  15
ENDBRANCH   7  12
ENDBRANCH   4   7
ENDBRANCH   2   3
ENDBRANCH   1   2
BRANCH   1  27
ATOM     27  C   UNL A   1      37.713  21.444  24.622  1.00  0.00     0.023 C 
BRANCH  27  28
ATOM     28  C   UNL A   1      38.236  22.351  25.745  1.00  0.00     0.116 C 
BRANCH  28  29
ATOM     29  N   UNL A   1      39.681  22.258  25.974  1.00  0.00    -0.352 N 
ATOM     30  C   UNL A   1      40.581  23.225  26.411  1.00  0.00     0.251 C 
ATOM     31  H   UNL A   1      40.075  21.374  25.793  1.00  0.00     0.163 HD
ATOM     32  O   UNL A   1      41.780  22.963  26.470  1.00  0.00    -0.269 OA
BRANCH  30  33
ATOM     33  C   UNL A   1      40.069  24.533  26.887  1.00  0.00     0.039 A 
ATOM     34  C   UNL A   1      40.461  25.696  26.214  1.00  0.00     0.014 A 
ATOM     35  C   UNL A   1      39.453  24.624  28.127  1.00  0.00     0.014 A 
ATOM     36  C   UNL A   1      40.523  26.902  26.910  1.00  0.00     0.010 A 
ATOM     37  C   UNL A   1      39.626  25.777  28.859  1.00  0.00     0.010 A 
ATOM     38  C   UNL A   1      40.217  26.897  28.265  1.00  0.00    -0.014 A 
BRANCH  38  39
ATOM     39  C   UNL A   1      40.404  28.031  29.149  1.00  0.00     0.031 A 
ATOM     40  C   UNL A   1      39.386  29.099  29.140  1.00  0.00     0.074 A 
ATOM     41  C   UNL A   1      41.405  28.058  30.055  1.00  0.00     0.049 A 
ATOM     42  N   UNL A   1      39.627  30.320  29.473  1.00  0.00    -0.248 NA
ATOM     43  C   UNL A   1      38.014  28.864  28.706  1.00  0.00     0.031 C 
ATOM     44  C   UNL A   1      41.459  28.902  31.242  1.00  0.00     0.029 A 
ATOM     45  N   UNL A   1      42.658  27.432  30.014  1.00  0.00    -0.354 N 
ATOM     46  C   UNL A   1      38.415  30.969  29.530  1.00  0.00     0.074 A 
ATOM     47  C   UNL A   1      37.451  30.044  28.979  1.00  0.00     0.031 C 
ATOM     48  C   UNL A   1      42.721  28.946  31.687  1.00  0.00     0.029 A 
ATOM     49  C   UNL A   1      43.556  28.251  30.724  1.00  0.00     0.049 A 
ATOM     50  H   UNL A   1      42.871  26.579  29.572  1.00  0.00     0.167 HD
ATOM     51  C   UNL A   1      38.311  32.158  30.183  1.00  0.00     0.034 A 
ATOM     52  C   UNL A   1      44.745  28.717  30.252  1.00  0.00     0.034 A 
ATOM     53  C   UNL A   1      39.587  32.539  30.796  1.00  0.00     0.049 A 
ATOM     54  C   UNL A   1      44.784  30.232  30.160  1.00  0.00     0.074 A 
ATOM     55  C   UNL A   1      40.104  32.323  32.063  1.00  0.00     0.029 A 
ATOM     56  N   UNL A   1      40.652  32.943  30.001  1.00  0.00    -0.354 N 
ATOM     57  N   UNL A   1      43.788  31.012  30.475  1.00  0.00    -0.248 NA
ATOM     58  C   UNL A   1      45.933  30.985  29.663  1.00  0.00     0.031 C 
ATOM     59  C   UNL A   1      41.504  32.538  32.011  1.00  0.00     0.029 A 
ATOM     60  C   UNL A   1      41.838  32.913  30.721  1.00  0.00     0.049 A 
ATOM     61  H   UNL A   1      40.575  33.214  29.057  1.00  0.00     0.167 HD
ATOM     62  C   UNL A   1      44.065  32.301  30.092  1.00  0.00     0.074 A 
ATOM     63  C   UNL A   1      45.456  32.243  29.676  1.00  0.00     0.031 C 
ATOM     64  C   UNL A   1      43.105  33.279  30.091  1.00  0.00     0.034 A 
BRANCH  51  65
ATOM     65  C   UNL A   1      36.972  32.743  30.578  1.00  0.00     0.023 A 
ATOM     66  C   UNL A   1      36.431  32.366  31.825  1.00  0.00     0.012 A 
ATOM     67  C   UNL A   1      36.172  33.581  29.770  1.00  0.00     0.148 A 
ATOM     68  C   UNL A   1      35.126  32.696  32.201  1.00  0.00     0.002 A 
ATOM     69  C   UNL A   1      34.840  33.840  30.106  1.00  0.00     0.091 A 
ATOM     70  F   UNL A   1      36.713  34.171  28.694  1.00  0.00    -0.205 F 
ATOM     71  C   UNL A   1      34.313  33.394  31.321  1.00  0.00     0.022 A 
BRANCH  69  72
ATOM     72  S   UNL A   1      33.694  34.612  28.951  1.00  0.00     0.127 S 
ATOM     73  O   UNL A   1      33.453  33.539  27.982  1.00  0.00    -0.237 OA
ATOM     74  O   UNL A   1      32.550  34.930  29.800  1.00  0.00    -0.237 OA
ATOM     75  O   UNL A   1      34.413  35.753  28.393  1.00  0.00    -0.744 OA
ENDBRANCH  69  72
ENDBRANCH  51  65
BRANCH  52  76
ATOM     76  C   UNL A   1      45.475  27.774  29.367  1.00  0.00     0.023 A 
ATOM     77  C   UNL A   1      45.792  26.505  29.904  1.00  0.00     0.012 A 
ATOM     78  C   UNL A   1      45.443  27.944  27.975  1.00  0.00     0.148 A 
ATOM     79  C   UNL A   1      45.974  25.401  29.070  1.00  0.00     0.002 A 
ATOM     80  C   UNL A   1      45.539  26.821  27.160  1.00  0.00     0.091 A 
ATOM     81  F   UNL A   1      45.139  29.156  27.492  1.00  0.00    -0.205 F 
ATOM     82  C   UNL A   1      45.808  25.552  27.701  1.00  0.00     0.022 A 
BRANCH  80  83
ATOM     83  S   UNL A   1      44.975  26.831  25.457  1.00  0.00     0.127 S 
ATOM     84  O   UNL A   1      43.542  26.582  25.607  1.00  0.00    -0.237 OA
ATOM     85  O   UNL A   1      45.325  28.200  25.082  1.00  0.00    -0.237 OA
ATOM     86  O   UNL A   1      45.727  25.785  24.787  1.00  0.00    -0.744 OA
ENDBRANCH  80  83
ENDBRANCH  52  76
BRANCH  64  87
ATOM     87  C   UNL A   1      43.253  34.675  29.505  1.00  0.00     0.023 A 
ATOM     88  C   UNL A   1      42.624  35.067  28.308  1.00  0.00     0.012 A 
ATOM     89  C   UNL A   1      43.931  35.697  30.224  1.00  0.00     0.148 A 
ATOM     90  C   UNL A   1      42.711  36.376  27.816  1.00  0.00     0.002 A 
ATOM     91  C   UNL A   1      43.912  37.021  29.792  1.00  0.00     0.091 A 
ATOM     92  F   UNL A   1      44.628  35.389  31.327  1.00  0.00    -0.205 F 
ATOM     93  C   UNL A   1      43.332  37.360  28.571  1.00  0.00     0.022 A 
BRANCH  91  94
ATOM     94  S   UNL A   1      44.485  38.350  30.863  1.00  0.00     0.127 S 
ATOM     95  O   UNL A   1      43.757  38.079  32.100  1.00  0.00    -0.237 OA
ATOM     96  O   UNL A   1      45.925  38.096  30.937  1.00  0.00    -0.237 OA
ATOM     97  O   UNL A   1      44.132  39.575  30.160  1.00  0.00    -0.744 OA
ENDBRANCH  91  94
ENDBRANCH  64  87
ENDBRANCH  38  39
ENDBRANCH  30  33
ENDBRANCH  28  29
ENDBRANCH  27  28
ENDBRANCH   1  27
TORSDOF 20
ENDMDL
