MODEL 1
REMARK VINA RESULT:     -12.1      0.000      0.000
REMARK SMILES CC(C)CSc1cc2c(cc1Cl)C=C(C(=O)NCCCCNC(=O)c1ccc(-c3c4nc(c(-c5cccc(S(=O)(=O)[O-])c5F)c5ccc([nH]5)c(-c5cccc(S(=O)(=O)[O-])c5F)c5nc(c(-c6cccc(S(=O)(=O)[O-])c6F)c6ccc3[nH]6)C=C5)C=C4)cc1)[C@H](C(F)(F)F)O2
REMARK SMILES IDX 19 1 18 2 17 3 15 4 16 5 14 7 6 8 7 9 11 10 8 11 10 12 12 13
REMARK SMILES IDX 9 14 93 15 13 16 88 17 5 18 4 19 2 20 1 21 3 22 89 23 90 24
REMARK SMILES IDX 91 25 92 26 20 27 21 28 22 29 23 30 24 32 25 33 26 34 87 35
REMARK SMILES IDX 27 36 86 37 28 38 29 39 30 40 80 41 31 42 85 43 79 44 81 45
REMARK SMILES IDX 32 46 84 47 78 48 77 49 33 51 65 52 45 53 64 54 46 55 49 56
REMARK SMILES IDX 63 57 82 58 47 59 48 60 62 62 83 63 50 64 34 65 35 66 43 67
REMARK SMILES IDX 36 68 38 69 44 70 37 71 39 72 40 73 41 74 42 75 66 76 67 77
REMARK SMILES IDX 75 78 68 79 70 80 76 81 69 82 71 83 72 84 73 85 74 86 51 87
REMARK SMILES IDX 52 88 60 89 53 90 55 91 61 92 54 93 56 94 57 95 58 96 59 97
REMARK H PARENT 17 6 22 31 81 50 49 61
REMARK Flexibility Score: inf
ROOT
ATOM      1  C   UNL A   1      31.404  29.478  26.107  1.00  0.00     0.023 C 
ENDROOT
BRANCH   1   2
ATOM      2  C   UNL A   1      31.275  28.895  24.701  1.00  0.00     0.116 C 
BRANCH   2   3
ATOM      3  N   UNL A   1      32.433  29.200  23.882  1.00  0.00    -0.352 N 
ATOM      4  C   UNL A   1      33.403  28.499  23.251  1.00  0.00     0.251 C 
ATOM      5  O   UNL A   1      34.174  29.169  22.556  1.00  0.00    -0.270 OA
ATOM      6  H   UNL A   1      32.543  30.171  23.753  1.00  0.00     0.163 HD
BRANCH   4   7
ATOM      7  C   UNL A   1      33.602  27.023  23.342  1.00  0.00     0.067 C 
ATOM      8  C   UNL A   1      34.063  22.309  25.054  1.00  0.00     0.030 A 
ATOM      9  C   UNL A   1      34.190  22.908  23.795  1.00  0.00     0.063 A 
ATOM     10  C   UNL A   1      33.959  23.148  26.184  1.00  0.00     0.055 A 
ATOM     11  C   UNL A   1      34.089  24.290  23.658  1.00  0.00     0.129 A 
ATOM     12  C   UNL A   1      33.924  24.542  26.043  1.00  0.00     0.033 A 
ATOM     13  Cl  UNL A   1      33.841  22.527  27.798  1.00  0.00    -0.083 Cl
ATOM     14  C   UNL A   1      33.965  25.116  24.772  1.00  0.00     0.019 A 
ATOM     15  O   UNL A   1      34.110  24.790  22.384  1.00  0.00    -0.475 OA
ATOM     16  C   UNL A   1      33.883  26.557  24.576  1.00  0.00     0.025 C 
ATOM     17  C   UNL A   1      33.389  26.049  22.215  1.00  0.00     0.314 C 
BRANCH   8  18
ATOM     18  S   UNL A   1      34.025  20.520  25.199  1.00  0.00    -0.124 SA
BRANCH  18  19
ATOM     19  C   UNL A   1      32.666  20.019  24.068  1.00  0.00     0.078 C 
BRANCH  19  20
ATOM     20  C   UNL A   1      32.549  18.512  23.774  1.00  0.00    -0.007 C 
ATOM     21  C   UNL A   1      32.342  18.181  22.296  1.00  0.00     0.008 C 
ATOM     22  C   UNL A   1      33.828  17.812  24.254  1.00  0.00     0.008 C 
ENDBRANCH  19  20
ENDBRANCH  18  19
ENDBRANCH   8  18
BRANCH  17  23
ATOM     23  C   UNL A   1      31.904  25.783  21.906  1.00  0.00     0.429 C 
ATOM     24  F   UNL A   1      31.497  24.554  22.299  1.00  0.00    -0.167 F 
ATOM     25  F   UNL A   1      31.080  26.674  22.500  1.00  0.00    -0.167 F 
ATOM     26  F   UNL A   1      31.683  25.867  20.570  1.00  0.00    -0.167 F 
ENDBRANCH  17  23
ENDBRANCH   4   7
ENDBRANCH   2   3
ENDBRANCH   1   2
BRANCH   1  27
ATOM     27  C   UNL A   1      32.183  28.600  27.090  1.00  0.00     0.023 C 
BRANCH  27  28
ATOM     28  C   UNL A   1      33.616  29.046  27.358  1.00  0.00     0.116 C 
BRANCH  28  29
ATOM     29  N   UNL A   1      33.737  30.440  27.762  1.00  0.00    -0.352 N 
ATOM     30  C   UNL A   1      34.829  31.054  28.336  1.00  0.00     0.251 C 
ATOM     31  H   UNL A   1      32.948  31.008  27.609  1.00  0.00     0.163 HD
ATOM     32  O   UNL A   1      34.774  32.227  28.688  1.00  0.00    -0.269 OA
BRANCH  30  33
ATOM     33  C   UNL A   1      36.041  30.243  28.567  1.00  0.00     0.039 A 
ATOM     34  C   UNL A   1      36.168  29.503  29.744  1.00  0.00     0.014 A 
ATOM     35  C   UNL A   1      37.103  30.341  27.666  1.00  0.00     0.014 A 
ATOM     36  C   UNL A   1      37.415  29.009  30.104  1.00  0.00     0.010 A 
ATOM     37  C   UNL A   1      38.336  29.774  27.997  1.00  0.00     0.010 A 
ATOM     38  C   UNL A   1      38.518  29.159  29.245  1.00  0.00    -0.014 A 
BRANCH  38  39
ATOM     39  C   UNL A   1      39.853  28.687  29.691  1.00  0.00     0.031 A 
ATOM     40  C   UNL A   1      40.546  27.551  28.986  1.00  0.00     0.074 A 
ATOM     41  C   UNL A   1      40.469  29.330  30.701  1.00  0.00     0.049 A 
ATOM     42  N   UNL A   1      41.725  27.037  29.226  1.00  0.00    -0.248 NA
ATOM     43  C   UNL A   1      39.831  26.906  27.872  1.00  0.00     0.031 C 
ATOM     44  C   UNL A   1      39.893  30.438  31.465  1.00  0.00     0.029 A 
ATOM     45  N   UNL A   1      41.718  29.165  31.241  1.00  0.00    -0.354 N 
ATOM     46  C   UNL A   1      41.873  25.984  28.332  1.00  0.00     0.074 A 
ATOM     47  C   UNL A   1      40.667  25.932  27.535  1.00  0.00     0.031 C 
ATOM     48  C   UNL A   1      40.807  30.891  32.336  1.00  0.00     0.029 A 
ATOM     49  C   UNL A   1      42.012  30.074  32.229  1.00  0.00     0.049 A 
ATOM     50  H   UNL A   1      42.344  28.462  30.950  1.00  0.00     0.167 HD
ATOM     51  C   UNL A   1      42.926  25.148  28.176  1.00  0.00     0.034 A 
ATOM     52  C   UNL A   1      43.127  30.238  32.967  1.00  0.00     0.034 A 
ATOM     53  C   UNL A   1      44.154  25.243  28.918  1.00  0.00     0.049 A 
ATOM     54  C   UNL A   1      44.292  29.321  32.749  1.00  0.00     0.074 A 
ATOM     55  C   UNL A   1      45.290  24.461  28.799  1.00  0.00     0.029 A 
ATOM     56  N   UNL A   1      44.413  26.182  29.902  1.00  0.00    -0.354 N 
ATOM     57  N   UNL A   1      44.431  28.368  31.860  1.00  0.00    -0.248 NA
ATOM     58  C   UNL A   1      45.457  29.501  33.626  1.00  0.00     0.031 C 
ATOM     59  C   UNL A   1      46.242  24.934  29.708  1.00  0.00     0.029 A 
ATOM     60  C   UNL A   1      45.693  26.004  30.397  1.00  0.00     0.049 A 
ATOM     61  H   UNL A   1      43.780  26.873  30.205  1.00  0.00     0.167 HD
ATOM     62  C   UNL A   1      45.694  27.833  32.070  1.00  0.00     0.074 A 
ATOM     63  C   UNL A   1      46.295  28.588  33.152  1.00  0.00     0.031 C 
ATOM     64  C   UNL A   1      46.290  26.792  31.442  1.00  0.00     0.034 A 
BRANCH  51  65
ATOM     65  C   UNL A   1      42.833  24.082  27.120  1.00  0.00     0.023 A 
ATOM     66  C   UNL A   1      43.433  24.307  25.866  1.00  0.00     0.012 A 
ATOM     67  C   UNL A   1      42.247  22.833  27.398  1.00  0.00     0.148 A 
ATOM     68  C   UNL A   1      43.448  23.303  24.899  1.00  0.00     0.002 A 
ATOM     69  C   UNL A   1      42.286  21.829  26.438  1.00  0.00     0.091 A 
ATOM     70  F   UNL A   1      41.667  22.652  28.594  1.00  0.00    -0.205 F 
ATOM     71  C   UNL A   1      42.884  22.061  25.189  1.00  0.00     0.022 A 
BRANCH  69  72
ATOM     72  S   UNL A   1      41.631  20.180  26.728  1.00  0.00     0.127 S 
ATOM     73  O   UNL A   1      41.807  19.561  25.414  1.00  0.00    -0.237 OA
ATOM     74  O   UNL A   1      42.526  19.671  27.767  1.00  0.00    -0.237 OA
ATOM     75  O   UNL A   1      40.249  20.364  27.148  1.00  0.00    -0.744 OA
ENDBRANCH  69  72
ENDBRANCH  51  65
BRANCH  52  76
ATOM     76  C   UNL A   1      43.192  31.364  33.935  1.00  0.00     0.023 A 
ATOM     77  C   UNL A   1      43.698  32.606  33.507  1.00  0.00     0.012 A 
ATOM     78  C   UNL A   1      42.660  31.243  35.233  1.00  0.00     0.148 A 
ATOM     79  C   UNL A   1      43.671  33.711  34.357  1.00  0.00     0.002 A 
ATOM     80  C   UNL A   1      42.592  32.360  36.056  1.00  0.00     0.091 A 
ATOM     81  F   UNL A   1      42.198  30.046  35.620  1.00  0.00    -0.205 F 
ATOM     82  C   UNL A   1      43.105  33.592  35.624  1.00  0.00     0.022 A 
BRANCH  80  83
ATOM     83  S   UNL A   1      41.757  32.332  37.647  1.00  0.00     0.127 S 
ATOM     84  O   UNL A   1      42.572  31.379  38.395  1.00  0.00    -0.237 OA
ATOM     85  O   UNL A   1      41.882  33.724  38.078  1.00  0.00    -0.237 OA
ATOM     86  O   UNL A   1      40.390  31.912  37.365  1.00  0.00    -0.744 OA
ENDBRANCH  80  83
ENDBRANCH  52  76
BRANCH  64  87
ATOM     87  C   UNL A   1      47.657  26.385  31.910  1.00  0.00     0.023 A 
ATOM     88  C   UNL A   1      48.783  27.037  31.372  1.00  0.00     0.012 A 
ATOM     89  C   UNL A   1      47.823  25.449  32.949  1.00  0.00     0.148 A 
ATOM     90  C   UNL A   1      50.059  26.759  31.857  1.00  0.00     0.002 A 
ATOM     91  C   UNL A   1      49.096  25.196  33.445  1.00  0.00     0.091 A 
ATOM     92  F   UNL A   1      46.734  24.833  33.433  1.00  0.00    -0.205 F 
ATOM     93  C   UNL A   1      50.214  25.848  32.899  1.00  0.00     0.022 A 
BRANCH  91  94
ATOM     94  S   UNL A   1      49.389  24.089  34.830  1.00  0.00     0.127 S 
ATOM     95  O   UNL A   1      48.578  24.706  35.879  1.00  0.00    -0.237 OA
ATOM     96  O   UNL A   1      48.870  22.817  34.327  1.00  0.00    -0.237 OA
ATOM     97  O   UNL A   1      50.826  24.107  35.061  1.00  0.00    -0.744 OA
ENDBRANCH  91  94
ENDBRANCH  64  87
ENDBRANCH  38  39
ENDBRANCH  30  33
ENDBRANCH  28  29
ENDBRANCH  27  28
ENDBRANCH   1  27
TORSDOF 18
ENDMDL
MODEL 2
REMARK VINA RESULT:     -12.0      5.344      8.788
REMARK SMILES CC(C)CSc1cc2c(cc1Cl)C=C(C(=O)NCCCCNC(=O)c1ccc(-c3c4nc(c(-c5cccc(S(=O)(=O)[O-])c5F)c5ccc([nH]5)c(-c5cccc(S(=O)(=O)[O-])c5F)c5nc(c(-c6cccc(S(=O)(=O)[O-])c6F)c6ccc3[nH]6)C=C5)C=C4)cc1)[C@H](C(F)(F)F)O2
REMARK SMILES IDX 19 1 18 2 17 3 15 4 16 5 14 7 6 8 7 9 11 10 8 11 10 12 12 13
REMARK SMILES IDX 9 14 93 15 13 16 88 17 5 18 4 19 2 20 1 21 3 22 89 23 90 24
REMARK SMILES IDX 91 25 92 26 20 27 21 28 22 29 23 30 24 32 25 33 26 34 87 35
REMARK SMILES IDX 27 36 86 37 28 38 29 39 30 40 80 41 31 42 85 43 79 44 81 45
REMARK SMILES IDX 32 46 84 47 78 48 77 49 33 51 65 52 45 53 64 54 46 55 49 56
REMARK SMILES IDX 63 57 82 58 47 59 48 60 62 62 83 63 50 64 34 65 35 66 43 67
REMARK SMILES IDX 36 68 38 69 44 70 37 71 39 72 40 73 41 74 42 75 66 76 67 77
REMARK SMILES IDX 75 78 68 79 70 80 76 81 69 82 71 83 72 84 73 85 74 86 51 87
REMARK SMILES IDX 52 88 60 89 53 90 55 91 61 92 54 93 56 94 57 95 58 96 59 97
REMARK H PARENT 17 6 22 31 81 50 49 61
REMARK Flexibility Score: inf
ROOT
ATOM      1  C   UNL A   1      37.224  22.107  24.856  1.00  0.00     0.023 C 
ENDROOT
BRANCH   1   2
ATOM      2  C   UNL A   1      35.705  22.003  24.718  1.00  0.00     0.116 C 
BRANCH   2   3
ATOM      3  N   UNL A   1      35.073  21.639  25.972  1.00  0.00    -0.352 N 
ATOM      4  C   UNL A   1      34.077  22.125  26.748  1.00  0.00     0.251 C 
ATOM      5  O   UNL A   1      33.780  21.431  27.725  1.00  0.00    -0.270 OA
ATOM      6  H   UNL A   1      35.474  20.827  26.361  1.00  0.00     0.163 HD
BRANCH   4   7
ATOM      7  C   UNL A   1      33.345  23.404  26.514  1.00  0.00     0.067 C 
ATOM      8  C   UNL A   1      31.981  27.951  24.828  1.00  0.00     0.030 A 
ATOM      9  C   UNL A   1      31.459  27.063  25.777  1.00  0.00     0.063 A 
ATOM     10  C   UNL A   1      33.262  27.685  24.302  1.00  0.00     0.055 A 
ATOM     11  C   UNL A   1      32.136  25.889  26.092  1.00  0.00     0.129 A 
ATOM     12  C   UNL A   1      33.967  26.532  24.675  1.00  0.00     0.033 A 
ATOM     13  Cl  UNL A   1      34.034  28.731  23.154  1.00  0.00    -0.083 Cl
ATOM     14  C   UNL A   1      33.392  25.617  25.556  1.00  0.00     0.019 A 
ATOM     15  O   UNL A   1      31.508  25.019  26.943  1.00  0.00    -0.475 OA
ATOM     16  C   UNL A   1      34.068  24.383  25.933  1.00  0.00     0.025 C 
ATOM     17  C   UNL A   1      31.874  23.618  26.757  1.00  0.00     0.314 C 
BRANCH   8  18
ATOM     18  S   UNL A   1      31.020  29.374  24.304  1.00  0.00    -0.124 SA
BRANCH  18  19
ATOM     19  C   UNL A   1      29.848  28.680  23.071  1.00  0.00     0.078 C 
BRANCH  19  20
ATOM     20  C   UNL A   1      28.633  29.559  22.720  1.00  0.00    -0.007 C 
ATOM     21  C   UNL A   1      27.285  28.911  23.034  1.00  0.00     0.008 C 
ATOM     22  C   UNL A   1      28.732  30.877  23.501  1.00  0.00     0.008 C 
ENDBRANCH  19  20
ENDBRANCH  18  19
ENDBRANCH   8  18
BRANCH  17  23
ATOM     23  C   UNL A   1      30.975  22.962  25.692  1.00  0.00     0.429 C 
ATOM     24  F   UNL A   1      30.331  23.866  24.919  1.00  0.00    -0.167 F 
ATOM     25  F   UNL A   1      31.662  22.154  24.856  1.00  0.00    -0.167 F 
ATOM     26  F   UNL A   1      30.025  22.199  26.290  1.00  0.00    -0.167 F 
ENDBRANCH  17  23
ENDBRANCH   4   7
ENDBRANCH   2   3
ENDBRANCH   1   2
BRANCH   1  27
ATOM     27  C   UNL A   1      37.942  20.763  25.004  1.00  0.00     0.023 C 
BRANCH  27  28
ATOM     28  C   UNL A   1      39.073  20.744  26.024  1.00  0.00     0.116 C 
BRANCH  28  29
ATOM     29  N   UNL A   1      39.913  19.556  25.957  1.00  0.00    -0.352 N 
ATOM     30  C   UNL A   1      41.280  19.486  26.115  1.00  0.00     0.251 C 
ATOM     31  H   UNL A   1      39.450  18.705  25.778  1.00  0.00     0.163 HD
ATOM     32  O   UNL A   1      41.873  18.423  25.969  1.00  0.00    -0.269 OA
BRANCH  30  33
ATOM     33  C   UNL A   1      42.012  20.735  26.403  1.00  0.00     0.039 A 
ATOM     34  C   UNL A   1      42.341  21.060  27.720  1.00  0.00     0.014 A 
ATOM     35  C   UNL A   1      42.243  21.640  25.365  1.00  0.00     0.014 A 
ATOM     36  C   UNL A   1      42.733  22.358  28.021  1.00  0.00     0.010 A 
ATOM     37  C   UNL A   1      42.714  22.920  25.664  1.00  0.00     0.010 A 
ATOM     38  C   UNL A   1      42.902  23.308  26.999  1.00  0.00    -0.014 A 
BRANCH  38  39
ATOM     39  C   UNL A   1      43.249  24.705  27.361  1.00  0.00     0.031 A 
ATOM     40  C   UNL A   1      44.608  25.271  27.039  1.00  0.00     0.074 A 
ATOM     41  C   UNL A   1      42.310  25.487  27.926  1.00  0.00     0.049 A 
ATOM     42  N   UNL A   1      45.063  26.479  27.256  1.00  0.00    -0.248 NA
ATOM     43  C   UNL A   1      45.582  24.374  26.396  1.00  0.00     0.031 C 
ATOM     44  C   UNL A   1      40.962  25.047  28.292  1.00  0.00     0.029 A 
ATOM     45  N   UNL A   1      42.333  26.814  28.269  1.00  0.00    -0.354 N 
ATOM     46  C   UNL A   1      46.384  26.474  26.824  1.00  0.00     0.074 A 
ATOM     47  C   UNL A   1      46.660  25.145  26.323  1.00  0.00     0.031 C 
ATOM     48  C   UNL A   1      40.269  26.098  28.754  1.00  0.00     0.029 A 
ATOM     49  C   UNL A   1      41.138  27.271  28.767  1.00  0.00     0.049 A 
ATOM     50  H   UNL A   1      43.130  27.384  28.169  1.00  0.00     0.167 HD
ATOM     51  C   UNL A   1      47.278  27.490  26.825  1.00  0.00     0.034 A 
ATOM     52  C   UNL A   1      40.774  28.499  29.186  1.00  0.00     0.034 A 
ATOM     53  C   UNL A   1      46.983  28.830  27.255  1.00  0.00     0.049 A 
ATOM     54  C   UNL A   1      41.774  29.615  29.143  1.00  0.00     0.074 A 
ATOM     55  C   UNL A   1      47.819  29.933  27.256  1.00  0.00     0.029 A 
ATOM     56  N   UNL A   1      45.759  29.253  27.744  1.00  0.00    -0.354 N 
ATOM     57  N   UNL A   1      42.999  29.600  28.679  1.00  0.00    -0.248 NA
ATOM     58  C   UNL A   1      41.344  30.916  29.674  1.00  0.00     0.031 C 
ATOM     59  C   UNL A   1      47.095  31.028  27.739  1.00  0.00     0.029 A 
ATOM     60  C   UNL A   1      45.812  30.602  28.046  1.00  0.00     0.049 A 
ATOM     61  H   UNL A   1      44.967  28.678  27.861  1.00  0.00     0.167 HD
ATOM     62  C   UNL A   1      43.489  30.886  28.862  1.00  0.00     0.074 A 
ATOM     63  C   UNL A   1      42.419  31.664  29.453  1.00  0.00     0.031 C 
ATOM     64  C   UNL A   1      44.725  31.369  28.591  1.00  0.00     0.034 A 
BRANCH  51  65
ATOM     65  C   UNL A   1      48.657  27.219  26.292  1.00  0.00     0.023 A 
ATOM     66  C   UNL A   1      49.612  26.621  27.137  1.00  0.00     0.012 A 
ATOM     67  C   UNL A   1      48.974  27.459  24.941  1.00  0.00     0.148 A 
ATOM     68  C   UNL A   1      50.868  26.269  26.646  1.00  0.00     0.002 A 
ATOM     69  C   UNL A   1      50.220  27.084  24.453  1.00  0.00     0.091 A 
ATOM     70  F   UNL A   1      48.052  28.045  24.164  1.00  0.00    -0.205 F 
ATOM     71  C   UNL A   1      51.168  26.490  25.303  1.00  0.00     0.022 A 
BRANCH  69  72
ATOM     72  S   UNL A   1      50.690  27.282  22.730  1.00  0.00     0.127 S 
ATOM     73  O   UNL A   1      50.640  28.736  22.578  1.00  0.00    -0.237 OA
ATOM     74  O   UNL A   1      52.038  26.712  22.710  1.00  0.00    -0.237 OA
ATOM     75  O   UNL A   1      49.703  26.541  21.956  1.00  0.00    -0.744 OA
ENDBRANCH  69  72
ENDBRANCH  51  65
BRANCH  52  76
ATOM     76  C   UNL A   1      39.370  28.726  29.622  1.00  0.00     0.023 A 
ATOM     77  C   UNL A   1      38.982  28.323  30.914  1.00  0.00     0.012 A 
ATOM     78  C   UNL A   1      38.459  29.429  28.812  1.00  0.00     0.148 A 
ATOM     79  C   UNL A   1      37.706  28.620  31.392  1.00  0.00     0.002 A 
ATOM     80  C   UNL A   1      37.207  29.763  29.313  1.00  0.00     0.091 A 
ATOM     81  F   UNL A   1      38.850  29.788  27.581  1.00  0.00    -0.205 F 
ATOM     82  C   UNL A   1      36.825  29.352  30.600  1.00  0.00     0.022 A 
BRANCH  80  83
ATOM     83  S   UNL A   1      36.064  30.820  28.417  1.00  0.00     0.127 S 
ATOM     84  O   UNL A   1      36.903  31.974  28.109  1.00  0.00    -0.237 OA
ATOM     85  O   UNL A   1      35.717  29.983  27.268  1.00  0.00    -0.237 OA
ATOM     86  O   UNL A   1      34.957  31.067  29.333  1.00  0.00    -0.744 OA
ENDBRANCH  80  83
ENDBRANCH  52  76
BRANCH  64  87
ATOM     87  C   UNL A   1      45.006  32.802  28.942  1.00  0.00     0.023 A 
ATOM     88  C   UNL A   1      45.520  33.102  30.219  1.00  0.00     0.012 A 
ATOM     89  C   UNL A   1      44.872  33.826  27.986  1.00  0.00     0.148 A 
ATOM     90  C   UNL A   1      45.891  34.405  30.542  1.00  0.00     0.002 A 
ATOM     91  C   UNL A   1      45.267  35.119  28.307  1.00  0.00     0.091 A 
ATOM     92  F   UNL A   1      44.366  33.513  26.782  1.00  0.00    -0.205 F 
ATOM     93  C   UNL A   1      45.774  35.409  29.584  1.00  0.00     0.022 A 
BRANCH  91  94
ATOM     94  S   UNL A   1      45.218  36.466  27.119  1.00  0.00     0.127 S 
ATOM     95  O   UNL A   1      43.790  36.537  26.810  1.00  0.00    -0.237 OA
ATOM     96  O   UNL A   1      45.729  37.590  27.903  1.00  0.00    -0.237 OA
ATOM     97  O   UNL A   1      46.076  36.060  26.015  1.00  0.00    -0.744 OA
ENDBRANCH  91  94
ENDBRANCH  64  87
ENDBRANCH  38  39
ENDBRANCH  30  33
ENDBRANCH  28  29
ENDBRANCH  27  28
ENDBRANCH   1  27
TORSDOF 18
ENDMDL
MODEL 3
REMARK VINA RESULT:     -11.9      2.834      8.061
REMARK SMILES CC(C)CSc1cc2c(cc1Cl)C=C(C(=O)NCCCCNC(=O)c1ccc(-c3c4nc(c(-c5cccc(S(=O)(=O)[O-])c5F)c5ccc([nH]5)c(-c5cccc(S(=O)(=O)[O-])c5F)c5nc(c(-c6cccc(S(=O)(=O)[O-])c6F)c6ccc3[nH]6)C=C5)C=C4)cc1)[C@H](C(F)(F)F)O2
REMARK SMILES IDX 19 1 18 2 17 3 15 4 16 5 14 7 6 8 7 9 11 10 8 11 10 12 12 13
REMARK SMILES IDX 9 14 93 15 13 16 88 17 5 18 4 19 2 20 1 21 3 22 89 23 90 24
REMARK SMILES IDX 91 25 92 26 20 27 21 28 22 29 23 30 24 32 25 33 26 34 87 35
REMARK SMILES IDX 27 36 86 37 28 38 29 39 30 40 80 41 31 42 85 43 79 44 81 45
REMARK SMILES IDX 32 46 84 47 78 48 77 49 33 51 65 52 45 53 64 54 46 55 49 56
REMARK SMILES IDX 63 57 82 58 47 59 48 60 62 62 83 63 50 64 34 65 35 66 43 67
REMARK SMILES IDX 36 68 38 69 44 70 37 71 39 72 40 73 41 74 42 75 66 76 67 77
REMARK SMILES IDX 75 78 68 79 70 80 76 81 69 82 71 83 72 84 73 85 74 86 51 87
REMARK SMILES IDX 52 88 60 89 53 90 55 91 61 92 54 93 56 94 57 95 58 96 59 97
REMARK H PARENT 17 6 22 31 81 50 49 61
REMARK Flexibility Score: inf
ROOT
ATOM      1  C   UNL A   1      31.708  30.021  25.373  1.00  0.00     0.023 C 
ENDROOT
BRANCH   1   2
ATOM      2  C   UNL A   1      32.415  28.926  24.575  1.00  0.00     0.116 C 
BRANCH   2   3
ATOM      3  N   UNL A   1      31.716  28.623  23.340  1.00  0.00    -0.352 N 
ATOM      4  C   UNL A   1      31.312  27.509  22.687  1.00  0.00     0.251 C 
ATOM      5  O   UNL A   1      30.637  27.705  21.671  1.00  0.00    -0.270 OA
ATOM      6  H   UNL A   1      31.473  29.441  22.847  1.00  0.00     0.163 HD
BRANCH   4   7
ATOM      7  C   UNL A   1      31.624  26.107  23.094  1.00  0.00     0.067 C 
ATOM      8  C   UNL A   1      34.030  21.842  24.273  1.00  0.00     0.030 A 
ATOM      9  C   UNL A   1      32.683  22.205  24.161  1.00  0.00     0.063 A 
ATOM     10  C   UNL A   1      35.005  22.747  23.803  1.00  0.00     0.055 A 
ATOM     11  C   UNL A   1      32.329  23.475  23.714  1.00  0.00     0.129 A 
ATOM     12  C   UNL A   1      34.636  24.000  23.293  1.00  0.00     0.033 A 
ATOM     13  Cl  UNL A   1      36.702  22.395  23.847  1.00  0.00    -0.083 Cl
ATOM     14  C   UNL A   1      33.293  24.376  23.270  1.00  0.00     0.019 A 
ATOM     15  O   UNL A   1      30.998  23.793  23.740  1.00  0.00    -0.475 OA
ATOM     16  C   UNL A   1      32.869  25.686  22.793  1.00  0.00     0.025 C 
ATOM     17  C   UNL A   1      30.717  25.217  23.902  1.00  0.00     0.314 C 
BRANCH   8  18
ATOM     18  S   UNL A   1      34.480  20.268  25.009  1.00  0.00    -0.124 SA
BRANCH  18  19
ATOM     19  C   UNL A   1      32.954  19.258  24.846  1.00  0.00     0.078 C 
BRANCH  19  20
ATOM     20  C   UNL A   1      33.126  17.867  24.206  1.00  0.00    -0.007 C 
ATOM     21  C   UNL A   1      32.636  17.783  22.761  1.00  0.00     0.008 C 
ATOM     22  C   UNL A   1      34.612  17.487  24.239  1.00  0.00     0.008 C 
ENDBRANCH  19  20
ENDBRANCH  18  19
ENDBRANCH   8  18
BRANCH  17  23
ATOM     23  C   UNL A   1      30.663  25.590  25.395  1.00  0.00     0.429 C 
ATOM     24  F   UNL A   1      30.120  24.616  26.160  1.00  0.00    -0.167 F 
ATOM     25  F   UNL A   1      31.883  25.856  25.911  1.00  0.00    -0.167 F 
ATOM     26  F   UNL A   1      29.907  26.703  25.571  1.00  0.00    -0.167 F 
ENDBRANCH  17  23
ENDBRANCH   4   7
ENDBRANCH   2   3
ENDBRANCH   1   2
BRANCH   1  27
ATOM     27  C   UNL A   1      32.083  30.068  26.856  1.00  0.00     0.023 C 
BRANCH  27  28
ATOM     28  C   UNL A   1      33.177  31.068  27.214  1.00  0.00     0.116 C 
BRANCH  28  29
ATOM     29  N   UNL A   1      32.718  32.449  27.284  1.00  0.00    -0.352 N 
ATOM     30  C   UNL A   1      33.282  33.483  27.999  1.00  0.00     0.251 C 
ATOM     31  H   UNL A   1      31.913  32.667  26.761  1.00  0.00     0.163 HD
ATOM     32  O   UNL A   1      32.753  34.589  28.021  1.00  0.00    -0.269 OA
BRANCH  30  33
ATOM     33  C   UNL A   1      34.501  33.204  28.783  1.00  0.00     0.039 A 
ATOM     34  C   UNL A   1      35.756  33.323  28.184  1.00  0.00     0.014 A 
ATOM     35  C   UNL A   1      34.373  32.690  30.075  1.00  0.00     0.014 A 
ATOM     36  C   UNL A   1      36.862  32.762  28.808  1.00  0.00     0.010 A 
ATOM     37  C   UNL A   1      35.503  32.198  30.733  1.00  0.00     0.010 A 
ATOM     38  C   UNL A   1      36.744  32.173  30.078  1.00  0.00    -0.014 A 
BRANCH  38  39
ATOM     39  C   UNL A   1      37.928  31.516  30.686  1.00  0.00     0.031 A 
ATOM     40  C   UNL A   1      38.311  31.784  32.118  1.00  0.00     0.074 A 
ATOM     41  C   UNL A   1      38.626  30.625  29.957  1.00  0.00     0.049 A 
ATOM     42  N   UNL A   1      39.294  31.270  32.812  1.00  0.00    -0.248 NA
ATOM     43  C   UNL A   1      37.492  32.749  32.870  1.00  0.00     0.031 C 
ATOM     44  C   UNL A   1      38.356  30.290  28.558  1.00  0.00     0.029 A 
ATOM     45  N   UNL A   1      39.685  29.822  30.294  1.00  0.00    -0.354 N 
ATOM     46  C   UNL A   1      39.243  31.881  34.059  1.00  0.00     0.074 A 
ATOM     47  C   UNL A   1      38.127  32.800  34.034  1.00  0.00     0.031 C 
ATOM     48  C   UNL A   1      39.187  29.311  28.172  1.00  0.00     0.029 A 
ATOM     49  C   UNL A   1      40.082  28.986  29.279  1.00  0.00     0.049 A 
ATOM     50  H   UNL A   1      40.119  29.842  31.178  1.00  0.00     0.167 HD
ATOM     51  C   UNL A   1      40.042  31.678  35.133  1.00  0.00     0.034 A 
ATOM     52  C   UNL A   1      41.056  28.056  29.238  1.00  0.00     0.034 A 
ATOM     53  C   UNL A   1      41.106  30.713  35.182  1.00  0.00     0.049 A 
ATOM     54  C   UNL A   1      41.903  27.827  30.454  1.00  0.00     0.074 A 
ATOM     55  C   UNL A   1      41.943  30.414  36.243  1.00  0.00     0.029 A 
ATOM     56  N   UNL A   1      41.470  29.882  34.137  1.00  0.00    -0.354 N 
ATOM     57  N   UNL A   1      41.801  28.377  31.639  1.00  0.00    -0.248 NA
ATOM     58  C   UNL A   1      42.993  26.850  30.333  1.00  0.00     0.031 C 
ATOM     59  C   UNL A   1      42.810  29.394  35.840  1.00  0.00     0.029 A 
ATOM     60  C   UNL A   1      42.516  29.065  34.526  1.00  0.00     0.049 A 
ATOM     61  H   UNL A   1      41.047  29.874  33.247  1.00  0.00     0.167 HD
ATOM     62  C   UNL A   1      42.813  27.815  32.406  1.00  0.00     0.074 A 
ATOM     63  C   UNL A   1      43.499  26.859  31.561  1.00  0.00     0.031 C 
ATOM     64  C   UNL A   1      43.158  28.089  33.687  1.00  0.00     0.034 A 
BRANCH  51  65
ATOM     65  C   UNL A   1      39.767  32.475  36.378  1.00  0.00     0.023 A 
ATOM     66  C   UNL A   1      40.461  33.683  36.584  1.00  0.00     0.012 A 
ATOM     67  C   UNL A   1      38.761  32.085  37.283  1.00  0.00     0.148 A 
ATOM     68  C   UNL A   1      40.161  34.492  37.679  1.00  0.00     0.002 A 
ATOM     69  C   UNL A   1      38.452  32.908  38.359  1.00  0.00     0.091 A 
ATOM     70  F   UNL A   1      38.129  30.922  37.072  1.00  0.00    -0.205 F 
ATOM     71  C   UNL A   1      39.151  34.111  38.559  1.00  0.00     0.022 A 
BRANCH  69  72
ATOM     72  S   UNL A   1      37.137  32.533  39.524  1.00  0.00     0.127 S 
ATOM     73  O   UNL A   1      37.321  33.586  40.523  1.00  0.00    -0.237 OA
ATOM     74  O   UNL A   1      35.939  32.682  38.696  1.00  0.00    -0.237 OA
ATOM     75  O   UNL A   1      37.390  31.178  39.994  1.00  0.00    -0.744 OA
ENDBRANCH  69  72
ENDBRANCH  51  65
BRANCH  52  76
ATOM     76  C   UNL A   1      41.224  27.239  28.007  1.00  0.00     0.023 A 
ATOM     77  C   UNL A   1      41.931  27.782  26.917  1.00  0.00     0.012 A 
ATOM     78  C   UNL A   1      40.785  25.903  27.952  1.00  0.00     0.148 A 
ATOM     79  C   UNL A   1      42.200  27.005  25.792  1.00  0.00     0.002 A 
ATOM     80  C   UNL A   1      41.099  25.120  26.848  1.00  0.00     0.091 A 
ATOM     81  F   UNL A   1      40.101  25.416  28.996  1.00  0.00    -0.205 F 
ATOM     82  C   UNL A   1      41.798  25.671  25.763  1.00  0.00     0.022 A 
BRANCH  80  83
ATOM     83  S   UNL A   1      40.742  23.361  26.785  1.00  0.00     0.127 S 
ATOM     84  O   UNL A   1      41.652  22.910  25.735  1.00  0.00    -0.237 OA
ATOM     85  O   UNL A   1      41.099  22.932  28.138  1.00  0.00    -0.237 OA
ATOM     86  O   UNL A   1      39.321  23.259  26.479  1.00  0.00    -0.744 OA
ENDBRANCH  80  83
ENDBRANCH  52  76
BRANCH  64  87
ATOM     87  C   UNL A   1      44.341  27.364  34.261  1.00  0.00     0.023 A 
ATOM     88  C   UNL A   1      45.591  28.013  34.284  1.00  0.00     0.012 A 
ATOM     89  C   UNL A   1      44.198  26.104  34.870  1.00  0.00     0.148 A 
ATOM     90  C   UNL A   1      46.686  27.414  34.902  1.00  0.00     0.002 A 
ATOM     91  C   UNL A   1      45.287  25.523  35.507  1.00  0.00     0.091 A 
ATOM     92  F   UNL A   1      42.999  25.503  34.820  1.00  0.00    -0.205 F 
ATOM     93  C   UNL A   1      46.532  26.176  35.522  1.00  0.00     0.022 A 
BRANCH  91  94
ATOM     94  S   UNL A   1      45.171  23.963  36.390  1.00  0.00     0.127 S 
ATOM     95  O   UNL A   1      46.521  23.426  36.222  1.00  0.00    -0.237 OA
ATOM     96  O   UNL A   1      44.852  24.398  37.750  1.00  0.00    -0.237 OA
ATOM     97  O   UNL A   1      44.113  23.208  35.733  1.00  0.00    -0.744 OA
ENDBRANCH  91  94
ENDBRANCH  64  87
ENDBRANCH  38  39
ENDBRANCH  30  33
ENDBRANCH  28  29
ENDBRANCH  27  28
ENDBRANCH   1  27
TORSDOF 18
ENDMDL
