MODEL 1
REMARK VINA RESULT:     -13.0      0.000      0.000
REMARK SMILES Cc1cc2c(cc1S(=O)(=O)N(C)CC(=O)NCCCCNC(=O)c1ccc(-c3c4nc(c(-c5cccc(S(=O)(=O)[O-])c5F)c5ccc([nH]5)c(-c5cccc(S(=O)(=O)[O-])c5F)c5nc(c(-c6cccc(S(=O)(=O)[O-])c6F)c6ccc3[nH]6)C=C5)C=C4)cc1)OCC(=O)N2
REMARK SMILES IDX 18 1 17 2 16 3 14 4 15 5 13 7 11 8 12 9 8 10 9 11 10 12 7 13
REMARK SMILES IDX 1 14 2 15 3 16 4 17 6 18 5 19 91 20 87 21 89 22 88 24 90 25
REMARK SMILES IDX 19 26 20 27 21 28 22 29 23 31 24 32 25 33 86 34 26 35 85 36
REMARK SMILES IDX 27 37 28 38 29 39 79 40 30 41 84 42 78 43 80 44 31 45 83 46
REMARK SMILES IDX 77 47 76 48 32 50 64 51 44 52 63 53 45 54 48 55 62 56 81 57
REMARK SMILES IDX 46 58 47 59 61 61 82 62 49 63 33 64 34 65 42 66 35 67 37 68
REMARK SMILES IDX 43 69 36 70 38 71 39 72 40 73 41 74 65 75 66 76 74 77 67 78
REMARK SMILES IDX 69 79 75 80 68 81 70 82 71 83 72 84 73 85 50 86 51 87 59 88
REMARK SMILES IDX 52 89 54 90 60 91 53 92 55 93 56 94 57 95 58 96
REMARK H PARENT 16 6 91 23 21 30 80 49 48 60
REMARK Flexibility Score: inf
ROOT
ATOM      1  C   UNL A   1      34.352  20.543  25.257  1.00  0.00     0.023 C 
ENDROOT
BRANCH   1   2
ATOM      2  C   UNL A   1      32.856  20.822  25.429  1.00  0.00     0.116 C 
BRANCH   2   3
ATOM      3  N   UNL A   1      32.581  21.760  26.504  1.00  0.00    -0.355 N 
ATOM      4  C   UNL A   1      31.912  22.957  26.504  1.00  0.00     0.235 C 
ATOM      5  O   UNL A   1      31.627  23.440  27.602  1.00  0.00    -0.274 OA
ATOM      6  H   UNL A   1      32.935  21.491  27.382  1.00  0.00     0.163 HD
BRANCH   4   7
ATOM      7  C   UNL A   1      31.482  23.643  25.205  1.00  0.00     0.202 C 
BRANCH   7   8
ATOM      8  N   UNL A   1      31.341  25.145  25.199  1.00  0.00    -0.192 NA
ATOM      9  C   UNL A   1      29.995  25.571  25.580  1.00  0.00     0.125 C 
BRANCH   8  10
ATOM     10  S   UNL A   1      31.923  25.854  23.750  1.00  0.00     0.243 S 
ATOM     11  O   UNL A   1      31.222  25.197  22.665  1.00  0.00    -0.207 OA
ATOM     12  O   UNL A   1      33.364  25.892  23.811  1.00  0.00    -0.207 OA
BRANCH  10  13
ATOM     13  C   UNL A   1      31.336  27.552  23.757  1.00  0.00     0.089 A 
ATOM     14  C   UNL A   1      32.678  28.304  25.834  1.00  0.00     0.046 C 
ATOM     15  C   UNL A   1      31.670  28.508  24.736  1.00  0.00    -0.029 A 
ATOM     16  C   UNL A   1      30.982  29.740  24.718  1.00  0.00     0.035 A 
ATOM     17  C   UNL A   1      30.061  30.041  23.709  1.00  0.00     0.084 A 
ATOM     18  C   UNL A   1      30.416  27.873  22.741  1.00  0.00     0.070 A 
ATOM     19  C   UNL A   1      29.794  29.116  22.706  1.00  0.00     0.144 A 
ATOM     20  N   UNL A   1      29.441  31.287  23.694  1.00  0.00    -0.320 N 
ATOM     21  O   UNL A   1      28.959  29.341  21.652  1.00  0.00    -0.482 OA
ATOM     22  C   UNL A   1      28.559  31.642  22.713  1.00  0.00     0.262 C 
ATOM     23  H   UNL A   1      29.643  31.930  24.412  1.00  0.00     0.170 HD
ATOM     24  C   UNL A   1      28.214  30.546  21.705  1.00  0.00     0.329 C 
ATOM     25  O   UNL A   1      28.065  32.767  22.680  1.00  0.00    -0.271 OA
ENDBRANCH  10  13
ENDBRANCH   8  10
ENDBRANCH   7   8
ENDBRANCH   4   7
ENDBRANCH   2   3
ENDBRANCH   1   2
BRANCH   1  26
ATOM     26  C   UNL A   1      35.161  21.639  24.600  1.00  0.00     0.023 C 
BRANCH  26  27
ATOM     27  C   UNL A   1      36.420  22.001  25.352  1.00  0.00     0.116 C 
BRANCH  27  28
ATOM     28  N   UNL A   1      37.463  20.977  25.284  1.00  0.00    -0.352 N 
ATOM     29  C   UNL A   1      38.750  21.033  25.777  1.00  0.00     0.251 C 
ATOM     30  H   UNL A   1      37.213  20.142  24.827  1.00  0.00     0.163 HD
ATOM     31  O   UNL A   1      39.540  20.120  25.572  1.00  0.00    -0.269 OA
BRANCH  29  32
ATOM     32  C   UNL A   1      39.154  22.251  26.506  1.00  0.00     0.039 A 
ATOM     33  C   UNL A   1      38.531  23.458  26.197  1.00  0.00     0.014 A 
ATOM     34  C   UNL A   1      40.276  22.216  27.337  1.00  0.00     0.014 A 
ATOM     35  C   UNL A   1      39.188  24.641  26.488  1.00  0.00     0.010 A 
ATOM     36  C   UNL A   1      40.850  23.419  27.755  1.00  0.00     0.010 A 
ATOM     37  C   UNL A   1      40.354  24.641  27.275  1.00  0.00    -0.014 A 
BRANCH  37  38
ATOM     38  C   UNL A   1      41.016  25.937  27.576  1.00  0.00     0.031 A 
ATOM     39  C   UNL A   1      40.353  26.983  28.434  1.00  0.00     0.074 A 
ATOM     40  C   UNL A   1      42.265  26.140  27.110  1.00  0.00     0.049 A 
ATOM     41  N   UNL A   1      40.793  28.172  28.757  1.00  0.00    -0.248 NA
ATOM     42  C   UNL A   1      39.028  26.668  28.997  1.00  0.00     0.031 C 
ATOM     43  C   UNL A   1      43.007  25.203  26.261  1.00  0.00     0.029 A 
ATOM     44  N   UNL A   1      43.142  27.175  27.302  1.00  0.00    -0.354 N 
ATOM     45  C   UNL A   1      39.781  28.770  29.499  1.00  0.00     0.074 A 
ATOM     46  C   UNL A   1      38.706  27.808  29.598  1.00  0.00     0.031 C 
ATOM     47  C   UNL A   1      44.247  25.668  26.068  1.00  0.00     0.029 A 
ATOM     48  C   UNL A   1      44.361  26.977  26.698  1.00  0.00     0.049 A 
ATOM     49  H   UNL A   1      42.921  27.982  27.822  1.00  0.00     0.167 HD
ATOM     50  C   UNL A   1      39.761  30.004  30.056  1.00  0.00     0.034 A 
ATOM     51  C   UNL A   1      45.447  27.767  26.630  1.00  0.00     0.034 A 
ATOM     52  C   UNL A   1      40.864  30.925  30.023  1.00  0.00     0.049 A 
ATOM     53  C   UNL A   1      45.410  29.109  27.288  1.00  0.00     0.074 A 
ATOM     54  C   UNL A   1      40.945  32.187  30.586  1.00  0.00     0.029 A 
ATOM     55  N   UNL A   1      42.083  30.680  29.410  1.00  0.00    -0.354 N 
ATOM     56  N   UNL A   1      44.450  29.642  28.004  1.00  0.00    -0.248 NA
ATOM     57  C   UNL A   1      46.594  29.962  27.130  1.00  0.00     0.031 C 
ATOM     58  C   UNL A   1      42.217  32.702  30.321  1.00  0.00     0.029 A 
ATOM     59  C   UNL A   1      42.926  31.762  29.590  1.00  0.00     0.049 A 
ATOM     60  H   UNL A   1      42.314  29.858  28.921  1.00  0.00     0.167 HD
ATOM     61  C   UNL A   1      44.911  30.896  28.378  1.00  0.00     0.074 A 
ATOM     62  C   UNL A   1      46.248  31.031  27.838  1.00  0.00     0.031 C 
ATOM     63  C   UNL A   1      44.268  31.859  29.080  1.00  0.00     0.034 A 
BRANCH  50  64
ATOM     64  C   UNL A   1      38.525  30.433  30.800  1.00  0.00     0.023 A 
ATOM     65  C   UNL A   1      38.452  30.225  32.190  1.00  0.00     0.012 A 
ATOM     66  C   UNL A   1      37.501  31.148  30.148  1.00  0.00     0.148 A 
ATOM     67  C   UNL A   1      37.373  30.721  32.924  1.00  0.00     0.002 A 
ATOM     68  C   UNL A   1      36.442  31.661  30.889  1.00  0.00     0.091 A 
ATOM     69  F   UNL A   1      37.591  31.323  28.822  1.00  0.00    -0.205 F 
ATOM     70  C   UNL A   1      36.376  31.446  32.276  1.00  0.00     0.022 A 
BRANCH  68  71
ATOM     71  S   UNL A   1      35.132  32.655  30.163  1.00  0.00     0.127 S 
ATOM     72  O   UNL A   1      34.251  32.863  31.312  1.00  0.00    -0.237 OA
ATOM     73  O   UNL A   1      35.858  33.847  29.728  1.00  0.00    -0.237 OA
ATOM     74  O   UNL A   1      34.566  31.853  29.088  1.00  0.00    -0.744 OA
ENDBRANCH  68  71
ENDBRANCH  50  64
BRANCH  51  75
ATOM     75  C   UNL A   1      46.654  27.268  25.919  1.00  0.00     0.023 A 
ATOM     76  C   UNL A   1      46.843  27.602  24.564  1.00  0.00     0.012 A 
ATOM     77  C   UNL A   1      47.669  26.578  26.611  1.00  0.00     0.148 A 
ATOM     78  C   UNL A   1      48.027  27.258  23.912  1.00  0.00     0.002 A 
ATOM     79  C   UNL A   1      48.866  26.290  25.971  1.00  0.00     0.091 A 
ATOM     80  F   UNL A   1      47.459  26.267  27.898  1.00  0.00    -0.205 F 
ATOM     81  C   UNL A   1      49.043  26.619  24.618  1.00  0.00     0.022 A 
BRANCH  79  82
ATOM     82  S   UNL A   1      50.282  25.608  26.842  1.00  0.00     0.127 S 
ATOM     83  O   UNL A   1      51.248  25.445  25.760  1.00  0.00    -0.237 OA
ATOM     84  O   UNL A   1      50.594  26.677  27.792  1.00  0.00    -0.237 OA
ATOM     85  O   UNL A   1      49.809  24.377  27.460  1.00  0.00    -0.744 OA
ENDBRANCH  79  82
ENDBRANCH  51  75
BRANCH  63  86
ATOM     86  C   UNL A   1      44.994  33.153  29.304  1.00  0.00     0.023 A 
ATOM     87  C   UNL A   1      45.837  33.277  30.424  1.00  0.00     0.012 A 
ATOM     88  C   UNL A   1      44.925  34.194  28.360  1.00  0.00     0.148 A 
ATOM     89  C   UNL A   1      46.601  34.428  30.607  1.00  0.00     0.002 A 
ATOM     90  C   UNL A   1      45.712  35.326  28.532  1.00  0.00     0.091 A 
ATOM     91  F   UNL A   1      44.102  34.050  27.311  1.00  0.00    -0.205 F 
ATOM     92  C   UNL A   1      46.547  35.445  29.656  1.00  0.00     0.022 A 
BRANCH  90  93
ATOM     93  S   UNL A   1      45.762  36.658  27.330  1.00  0.00     0.127 S 
ATOM     94  O   UNL A   1      46.777  37.539  27.906  1.00  0.00    -0.237 OA
ATOM     95  O   UNL A   1      46.177  35.961  26.113  1.00  0.00    -0.237 OA
ATOM     96  O   UNL A   1      44.415  37.210  27.284  1.00  0.00    -0.744 OA
ENDBRANCH  90  93
ENDBRANCH  63  86
ENDBRANCH  37  38
ENDBRANCH  29  32
ENDBRANCH  27  28
ENDBRANCH  26  27
ENDBRANCH   1  26
TORSDOF 17
ENDMDL
MODEL 2
REMARK VINA RESULT:     -12.7      1.368      7.568
REMARK SMILES Cc1cc2c(cc1S(=O)(=O)N(C)CC(=O)NCCCCNC(=O)c1ccc(-c3c4nc(c(-c5cccc(S(=O)(=O)[O-])c5F)c5ccc([nH]5)c(-c5cccc(S(=O)(=O)[O-])c5F)c5nc(c(-c6cccc(S(=O)(=O)[O-])c6F)c6ccc3[nH]6)C=C5)C=C4)cc1)OCC(=O)N2
REMARK SMILES IDX 18 1 17 2 16 3 14 4 15 5 13 7 11 8 12 9 8 10 9 11 10 12 7 13
REMARK SMILES IDX 1 14 2 15 3 16 4 17 6 18 5 19 91 20 87 21 89 22 88 24 90 25
REMARK SMILES IDX 19 26 20 27 21 28 22 29 23 31 24 32 25 33 86 34 26 35 85 36
REMARK SMILES IDX 27 37 28 38 29 39 79 40 30 41 84 42 78 43 80 44 31 45 83 46
REMARK SMILES IDX 77 47 76 48 32 50 64 51 44 52 63 53 45 54 48 55 62 56 81 57
REMARK SMILES IDX 46 58 47 59 61 61 82 62 49 63 33 64 34 65 42 66 35 67 37 68
REMARK SMILES IDX 43 69 36 70 38 71 39 72 40 73 41 74 65 75 66 76 74 77 67 78
REMARK SMILES IDX 69 79 75 80 68 81 70 82 71 83 72 84 73 85 50 86 51 87 59 88
REMARK SMILES IDX 52 89 54 90 60 91 53 92 55 93 56 94 57 95 58 96
REMARK H PARENT 16 6 91 23 21 30 80 49 48 60
REMARK Flexibility Score: inf
ROOT
ATOM      1  C   UNL A   1      35.336  22.104  26.157  1.00  0.00     0.023 C 
ENDROOT
BRANCH   1   2
ATOM      2  C   UNL A   1      33.996  21.612  26.710  1.00  0.00     0.116 C 
BRANCH   2   3
ATOM      3  N   UNL A   1      33.148  22.698  27.170  1.00  0.00    -0.355 N 
ATOM      4  C   UNL A   1      32.396  23.609  26.473  1.00  0.00     0.235 C 
ATOM      5  O   UNL A   1      31.589  24.282  27.120  1.00  0.00    -0.274 OA
ATOM      6  H   UNL A   1      33.104  22.797  28.148  1.00  0.00     0.163 HD
BRANCH   4   7
ATOM      7  C   UNL A   1      32.504  23.753  24.953  1.00  0.00     0.202 C 
BRANCH   7   8
ATOM      8  N   UNL A   1      31.607  24.748  24.261  1.00  0.00    -0.192 NA
ATOM      9  C   UNL A   1      30.466  24.100  23.614  1.00  0.00     0.125 C 
BRANCH   8  10
ATOM     10  S   UNL A   1      32.476  25.825  23.248  1.00  0.00     0.243 S 
ATOM     11  O   UNL A   1      32.162  25.443  21.884  1.00  0.00    -0.207 OA
ATOM     12  O   UNL A   1      33.836  25.897  23.723  1.00  0.00    -0.207 OA
BRANCH  10  13
ATOM     13  C   UNL A   1      31.732  27.443  23.488  1.00  0.00     0.089 A 
ATOM     14  C   UNL A   1      32.699  27.847  25.850  1.00  0.00     0.046 C 
ATOM     15  C   UNL A   1      31.836  28.201  24.670  1.00  0.00    -0.029 A 
ATOM     16  C   UNL A   1      31.041  29.361  24.782  1.00  0.00     0.035 A 
ATOM     17  C   UNL A   1      30.242  29.797  23.720  1.00  0.00     0.084 A 
ATOM     18  C   UNL A   1      30.933  27.899  22.423  1.00  0.00     0.070 A 
ATOM     19  C   UNL A   1      30.205  29.079  22.531  1.00  0.00     0.144 A 
ATOM     20  N   UNL A   1      29.512  30.976  23.849  1.00  0.00    -0.320 N 
ATOM     21  O   UNL A   1      29.503  29.456  21.424  1.00  0.00    -0.482 OA
ATOM     22  C   UNL A   1      28.742  31.462  22.830  1.00  0.00     0.262 C 
ATOM     23  H   UNL A   1      29.551  31.473  24.697  1.00  0.00     0.170 HD
ATOM     24  C   UNL A   1      28.646  30.573  21.591  1.00  0.00     0.329 C 
ATOM     25  O   UNL A   1      28.152  32.535  22.936  1.00  0.00    -0.271 OA
ENDBRANCH  10  13
ENDBRANCH   8  10
ENDBRANCH   7   8
ENDBRANCH   4   7
ENDBRANCH   2   3
ENDBRANCH   1   2
BRANCH   1  26
ATOM     26  C   UNL A   1      36.177  21.072  25.437  1.00  0.00     0.023 C 
BRANCH  26  27
ATOM     27  C   UNL A   1      37.584  21.534  25.138  1.00  0.00     0.116 C 
BRANCH  27  28
ATOM     28  N   UNL A   1      38.603  20.513  25.377  1.00  0.00    -0.352 N 
ATOM     29  C   UNL A   1      39.754  20.613  26.131  1.00  0.00     0.251 C 
ATOM     30  H   UNL A   1      38.448  19.643  24.943  1.00  0.00     0.163 HD
ATOM     31  O   UNL A   1      40.559  19.691  26.173  1.00  0.00    -0.269 OA
BRANCH  29  32
ATOM     32  C   UNL A   1      40.006  21.887  26.834  1.00  0.00     0.039 A 
ATOM     33  C   UNL A   1      39.410  23.051  26.352  1.00  0.00     0.014 A 
ATOM     34  C   UNL A   1      40.982  21.942  27.831  1.00  0.00     0.014 A 
ATOM     35  C   UNL A   1      39.983  24.271  26.665  1.00  0.00     0.010 A 
ATOM     36  C   UNL A   1      41.452  23.187  28.255  1.00  0.00     0.010 A 
ATOM     37  C   UNL A   1      41.009  24.359  27.624  1.00  0.00    -0.014 A 
BRANCH  37  38
ATOM     38  C   UNL A   1      41.582  25.694  27.940  1.00  0.00     0.031 A 
ATOM     39  C   UNL A   1      42.971  26.081  27.502  1.00  0.00     0.074 A 
ATOM     40  C   UNL A   1      40.803  26.588  28.582  1.00  0.00     0.049 A 
ATOM     41  N   UNL A   1      43.615  27.196  27.731  1.00  0.00    -0.248 NA
ATOM     42  C   UNL A   1      43.742  25.100  26.718  1.00  0.00     0.031 C 
ATOM     43  C   UNL A   1      39.443  26.324  29.063  1.00  0.00     0.029 A 
ATOM     44  N   UNL A   1      41.022  27.898  28.917  1.00  0.00    -0.354 N 
ATOM     45  C   UNL A   1      44.882  27.029  27.183  1.00  0.00     0.074 A 
ATOM     46  C   UNL A   1      44.914  25.710  26.591  1.00  0.00     0.031 C 
ATOM     47  C   UNL A   1      38.923  27.453  29.560  1.00  0.00     0.029 A 
ATOM     48  C   UNL A   1      39.941  28.495  29.522  1.00  0.00     0.049 A 
ATOM     49  H   UNL A   1      41.870  28.367  28.740  1.00  0.00     0.167 HD
ATOM     50  C   UNL A   1      45.916  27.903  27.165  1.00  0.00     0.034 A 
ATOM     51  C   UNL A   1      39.785  29.735  30.018  1.00  0.00     0.034 A 
ATOM     52  C   UNL A   1      45.851  29.242  27.684  1.00  0.00     0.049 A 
ATOM     53  C   UNL A   1      40.931  30.692  29.950  1.00  0.00     0.074 A 
ATOM     54  C   UNL A   1      46.840  30.211  27.683  1.00  0.00     0.029 A 
ATOM     55  N   UNL A   1      44.735  29.809  28.278  1.00  0.00    -0.354 N 
ATOM     56  N   UNL A   1      42.111  30.518  29.405  1.00  0.00    -0.248 NA
ATOM     57  C   UNL A   1      40.736  32.011  30.564  1.00  0.00     0.031 C 
ATOM     58  C   UNL A   1      46.319  31.367  28.270  1.00  0.00     0.029 A 
ATOM     59  C   UNL A   1      45.007  31.117  28.639  1.00  0.00     0.049 A 
ATOM     60  H   UNL A   1      43.876  29.350  28.421  1.00  0.00     0.167 HD
ATOM     61  C   UNL A   1      42.802  31.703  29.615  1.00  0.00     0.074 A 
ATOM     62  C   UNL A   1      41.898  32.599  30.307  1.00  0.00     0.031 C 
ATOM     63  C   UNL A   1      44.080  32.006  29.289  1.00  0.00     0.034 A 
BRANCH  50  64
ATOM     64  C   UNL A   1      47.206  27.473  26.523  1.00  0.00     0.023 A 
ATOM     65  C   UNL A   1      48.145  26.749  27.283  1.00  0.00     0.012 A 
ATOM     66  C   UNL A   1      47.432  27.674  25.147  1.00  0.00     0.148 A 
ATOM     67  C   UNL A   1      49.294  26.232  26.682  1.00  0.00     0.002 A 
ATOM     68  C   UNL A   1      48.566  27.135  24.550  1.00  0.00     0.091 A 
ATOM     69  F   UNL A   1      46.527  28.375  24.449  1.00  0.00    -0.205 F 
ATOM     70  C   UNL A   1      49.499  26.416  25.317  1.00  0.00     0.022 A 
BRANCH  68  71
ATOM     71  S   UNL A   1      48.900  27.267  22.789  1.00  0.00     0.127 S 
ATOM     72  O   UNL A   1      48.381  25.991  22.295  1.00  0.00    -0.237 OA
ATOM     73  O   UNL A   1      48.105  28.436  22.414  1.00  0.00    -0.237 OA
ATOM     74  O   UNL A   1      50.340  27.437  22.663  1.00  0.00    -0.744 OA
ENDBRANCH  68  71
ENDBRANCH  50  64
BRANCH  51  75
ATOM     75  C   UNL A   1      38.471  30.116  30.599  1.00  0.00     0.023 A 
ATOM     76  C   UNL A   1      38.228  29.883  31.966  1.00  0.00     0.012 A 
ATOM     77  C   UNL A   1      37.518  30.819  29.836  1.00  0.00     0.148 A 
ATOM     78  C   UNL A   1      37.057  30.348  32.564  1.00  0.00     0.002 A 
ATOM     79  C   UNL A   1      36.381  31.327  30.450  1.00  0.00     0.091 A 
ATOM     80  F   UNL A   1      37.771  31.019  28.535  1.00  0.00    -0.205 F 
ATOM     81  C   UNL A   1      36.143  31.083  31.812  1.00  0.00     0.022 A 
BRANCH  79  82
ATOM     82  S   UNL A   1      35.231  32.412  29.597  1.00  0.00     0.127 S 
ATOM     83  O   UNL A   1      34.668  31.516  28.590  1.00  0.00    -0.237 OA
ATOM     84  O   UNL A   1      34.313  32.785  30.674  1.00  0.00    -0.237 OA
ATOM     85  O   UNL A   1      36.034  33.513  29.085  1.00  0.00    -0.744 OA
ENDBRANCH  79  82
ENDBRANCH  51  75
BRANCH  63  86
ATOM     86  C   UNL A   1      44.592  33.361  29.681  1.00  0.00     0.023 A 
ATOM     87  C   UNL A   1      45.270  33.506  30.905  1.00  0.00     0.012 A 
ATOM     88  C   UNL A   1      44.498  34.453  28.798  1.00  0.00     0.148 A 
ATOM     89  C   UNL A   1      45.843  34.728  31.253  1.00  0.00     0.002 A 
ATOM     90  C   UNL A   1      45.098  35.659  29.137  1.00  0.00     0.091 A 
ATOM     91  F   UNL A   1      43.834  34.286  27.645  1.00  0.00    -0.205 F 
ATOM     92  C   UNL A   1      45.767  35.798  30.365  1.00  0.00     0.022 A 
BRANCH  90  93
ATOM     93  S   UNL A   1      45.112  37.074  28.032  1.00  0.00     0.127 S 
ATOM     94  O   UNL A   1      45.780  38.083  28.852  1.00  0.00    -0.237 OA
ATOM     95  O   UNL A   1      45.904  36.579  26.906  1.00  0.00    -0.237 OA
ATOM     96  O   UNL A   1      43.717  37.353  27.717  1.00  0.00    -0.744 OA
ENDBRANCH  90  93
ENDBRANCH  63  86
ENDBRANCH  37  38
ENDBRANCH  29  32
ENDBRANCH  27  28
ENDBRANCH  26  27
ENDBRANCH   1  26
TORSDOF 17
ENDMDL
MODEL 3
REMARK VINA RESULT:     -12.7      4.875      8.674
REMARK SMILES Cc1cc2c(cc1S(=O)(=O)N(C)CC(=O)NCCCCNC(=O)c1ccc(-c3c4nc(c(-c5cccc(S(=O)(=O)[O-])c5F)c5ccc([nH]5)c(-c5cccc(S(=O)(=O)[O-])c5F)c5nc(c(-c6cccc(S(=O)(=O)[O-])c6F)c6ccc3[nH]6)C=C5)C=C4)cc1)OCC(=O)N2
REMARK SMILES IDX 18 1 17 2 16 3 14 4 15 5 13 7 11 8 12 9 8 10 9 11 10 12 7 13
REMARK SMILES IDX 1 14 2 15 3 16 4 17 6 18 5 19 91 20 87 21 89 22 88 24 90 25
REMARK SMILES IDX 19 26 20 27 21 28 22 29 23 31 24 32 25 33 86 34 26 35 85 36
REMARK SMILES IDX 27 37 28 38 29 39 79 40 30 41 84 42 78 43 80 44 31 45 83 46
REMARK SMILES IDX 77 47 76 48 32 50 64 51 44 52 63 53 45 54 48 55 62 56 81 57
REMARK SMILES IDX 46 58 47 59 61 61 82 62 49 63 33 64 34 65 42 66 35 67 37 68
REMARK SMILES IDX 43 69 36 70 38 71 39 72 40 73 41 74 65 75 66 76 74 77 67 78
REMARK SMILES IDX 69 79 75 80 68 81 70 82 71 83 72 84 73 85 50 86 51 87 59 88
REMARK SMILES IDX 52 89 54 90 60 91 53 92 55 93 56 94 57 95 58 96
REMARK H PARENT 16 6 91 23 21 30 80 49 48 60
REMARK Flexibility Score: inf
ROOT
ATOM      1  C   UNL A   1      31.494  29.276  24.614  1.00  0.00     0.023 C 
ENDROOT
BRANCH   1   2
ATOM      2  C   UNL A   1      32.902  28.727  24.864  1.00  0.00     0.116 C 
BRANCH   2   3
ATOM      3  N   UNL A   1      33.561  28.298  23.643  1.00  0.00    -0.355 N 
ATOM      4  C   UNL A   1      33.342  27.210  22.837  1.00  0.00     0.235 C 
ATOM      5  O   UNL A   1      33.896  27.208  21.735  1.00  0.00    -0.274 OA
ATOM      6  H   UNL A   1      34.289  28.888  23.342  1.00  0.00     0.163 HD
BRANCH   4   7
ATOM      7  C   UNL A   1      32.408  26.070  23.253  1.00  0.00     0.202 C 
BRANCH   7   8
ATOM      8  N   UNL A   1      32.994  24.695  23.445  1.00  0.00    -0.192 NA
ATOM      9  C   UNL A   1      32.863  23.870  22.244  1.00  0.00     0.125 C 
BRANCH   8  10
ATOM     10  S   UNL A   1      32.447  23.941  24.884  1.00  0.00     0.243 S 
ATOM     11  O   UNL A   1      31.044  23.637  24.676  1.00  0.00    -0.207 OA
ATOM     12  O   UNL A   1      32.896  24.726  26.007  1.00  0.00    -0.207 OA
BRANCH  10  13
ATOM     13  C   UNL A   1      33.286  22.353  24.964  1.00  0.00     0.089 A 
ATOM     14  C   UNL A   1      35.688  23.306  24.939  1.00  0.00     0.046 C 
ATOM     15  C   UNL A   1      34.683  22.186  24.915  1.00  0.00    -0.029 A 
ATOM     16  C   UNL A   1      35.187  20.874  24.793  1.00  0.00     0.035 A 
ATOM     17  C   UNL A   1      34.335  19.766  24.810  1.00  0.00     0.084 A 
ATOM     18  C   UNL A   1      32.440  21.229  24.992  1.00  0.00     0.070 A 
ATOM     19  C   UNL A   1      32.961  19.941  24.932  1.00  0.00     0.144 A 
ATOM     20  N   UNL A   1      34.873  18.484  24.740  1.00  0.00    -0.320 N 
ATOM     21  O   UNL A   1      32.059  18.922  25.015  1.00  0.00    -0.482 OA
ATOM     22  C   UNL A   1      34.086  17.368  24.785  1.00  0.00     0.262 C 
ATOM     23  H   UNL A   1      35.848  18.378  24.656  1.00  0.00     0.170 HD
ATOM     24  C   UNL A   1      32.579  17.621  24.801  1.00  0.00     0.329 C 
ATOM     25  O   UNL A   1      34.580  16.242  24.784  1.00  0.00    -0.271 OA
ENDBRANCH  10  13
ENDBRANCH   8  10
ENDBRANCH   7   8
ENDBRANCH   4   7
ENDBRANCH   2   3
ENDBRANCH   1   2
BRANCH   1  26
ATOM     26  C   UNL A   1      31.116  30.516  25.392  1.00  0.00     0.023 C 
BRANCH  26  27
ATOM     27  C   UNL A   1      32.133  30.913  26.437  1.00  0.00     0.116 C 
BRANCH  27  28
ATOM     28  N   UNL A   1      31.985  32.287  26.914  1.00  0.00    -0.352 N 
ATOM     29  C   UNL A   1      32.904  33.063  27.588  1.00  0.00     0.251 C 
ATOM     30  H   UNL A   1      31.116  32.712  26.730  1.00  0.00     0.163 HD
ATOM     31  O   UNL A   1      32.604  34.179  27.997  1.00  0.00    -0.269 OA
BRANCH  29  32
ATOM     32  C   UNL A   1      34.236  32.481  27.848  1.00  0.00     0.039 A 
ATOM     33  C   UNL A   1      34.329  31.122  28.143  1.00  0.00     0.014 A 
ATOM     34  C   UNL A   1      35.340  33.323  27.993  1.00  0.00     0.014 A 
ATOM     35  C   UNL A   1      35.435  30.667  28.839  1.00  0.00     0.010 A 
ATOM     36  C   UNL A   1      36.511  32.817  28.560  1.00  0.00     0.010 A 
ATOM     37  C   UNL A   1      36.545  31.505  29.055  1.00  0.00    -0.014 A 
BRANCH  37  38
ATOM     38  C   UNL A   1      37.717  30.966  29.793  1.00  0.00     0.031 A 
ATOM     39  C   UNL A   1      37.978  31.328  31.233  1.00  0.00     0.074 A 
ATOM     40  C   UNL A   1      38.522  30.088  29.161  1.00  0.00     0.049 A 
ATOM     41  N   UNL A   1      38.975  30.961  31.996  1.00  0.00    -0.248 NA
ATOM     42  C   UNL A   1      37.012  32.215  31.903  1.00  0.00     0.031 C 
ATOM     43  C   UNL A   1      38.374  29.669  27.764  1.00  0.00     0.029 A 
ATOM     44  N   UNL A   1      39.599  29.370  29.608  1.00  0.00    -0.354 N 
ATOM     45  C   UNL A   1      38.796  31.620  33.208  1.00  0.00     0.074 A 
ATOM     46  C   UNL A   1      37.582  32.398  33.088  1.00  0.00     0.031 C 
ATOM     47  C   UNL A   1      39.273  28.715  27.491  1.00  0.00     0.029 A 
ATOM     48  C   UNL A   1      40.122  28.523  28.660  1.00  0.00     0.049 A 
ATOM     49  H   UNL A   1      39.964  29.452  30.519  1.00  0.00     0.167 HD
ATOM     50  C   UNL A   1      39.567  31.567  34.319  1.00  0.00     0.034 A 
ATOM     51  C   UNL A   1      41.183  27.698  28.707  1.00  0.00     0.034 A 
ATOM     52  C   UNL A   1      40.727  30.730  34.459  1.00  0.00     0.049 A 
ATOM     53  C   UNL A   1      41.994  27.631  29.961  1.00  0.00     0.074 A 
ATOM     54  C   UNL A   1      41.555  30.588  35.560  1.00  0.00     0.029 A 
ATOM     55  N   UNL A   1      41.215  29.880  33.479  1.00  0.00    -0.354 N 
ATOM     56  N   UNL A   1      41.790  28.246  31.101  1.00  0.00    -0.248 NA
ATOM     57  C   UNL A   1      43.181  26.767  29.942  1.00  0.00     0.031 C 
ATOM     58  C   UNL A   1      42.539  29.646  35.247  1.00  0.00     0.029 A 
ATOM     59  C   UNL A   1      42.325  29.204  33.951  1.00  0.00     0.049 A 
ATOM     60  H   UNL A   1      40.827  29.773  32.580  1.00  0.00     0.167 HD
ATOM     61  C   UNL A   1      42.825  27.848  31.934  1.00  0.00     0.074 A 
ATOM     62  C   UNL A   1      43.637  26.914  31.180  1.00  0.00     0.031 C 
ATOM     63  C   UNL A   1      43.094  28.247  33.200  1.00  0.00     0.034 A 
BRANCH  50  64
ATOM     64  C   UNL A   1      39.169  32.401  35.506  1.00  0.00     0.023 A 
ATOM     65  C   UNL A   1      38.370  31.827  36.514  1.00  0.00     0.012 A 
ATOM     66  C   UNL A   1      39.686  33.700  35.684  1.00  0.00     0.148 A 
ATOM     67  C   UNL A   1      38.087  32.535  37.682  1.00  0.00     0.002 A 
ATOM     68  C   UNL A   1      39.421  34.390  36.862  1.00  0.00     0.091 A 
ATOM     69  F   UNL A   1      40.435  34.226  34.706  1.00  0.00    -0.205 F 
ATOM     70  C   UNL A   1      38.620  33.810  37.860  1.00  0.00     0.022 A 
BRANCH  68  71
ATOM     71  S   UNL A   1      40.101  36.015  37.216  1.00  0.00     0.127 S 
ATOM     72  O   UNL A   1      39.757  36.749  35.998  1.00  0.00    -0.237 OA
ATOM     73  O   UNL A   1      39.342  36.412  38.402  1.00  0.00    -0.237 OA
ATOM     74  O   UNL A   1      41.526  35.818  37.437  1.00  0.00    -0.744 OA
ENDBRANCH  68  71
ENDBRANCH  50  64
BRANCH  51  75
ATOM     75  C   UNL A   1      41.499  26.866  27.516  1.00  0.00     0.023 A 
ATOM     76  C   UNL A   1      42.190  27.444  26.435  1.00  0.00     0.012 A 
ATOM     77  C   UNL A   1      41.231  25.482  27.507  1.00  0.00     0.148 A 
ATOM     78  C   UNL A   1      42.613  26.656  25.364  1.00  0.00     0.002 A 
ATOM     79  C   UNL A   1      41.704  24.696  26.465  1.00  0.00     0.091 A 
ATOM     80  F   UNL A   1      40.564  24.960  28.545  1.00  0.00    -0.205 F 
ATOM     81  C   UNL A   1      42.386  25.282  25.387  1.00  0.00     0.022 A 
BRANCH  79  82
ATOM     82  S   UNL A   1      41.591  22.903  26.488  1.00  0.00     0.127 S 
ATOM     83  O   UNL A   1      40.148  22.694  26.410  1.00  0.00    -0.237 OA
ATOM     84  O   UNL A   1      42.334  22.539  25.281  1.00  0.00    -0.237 OA
ATOM     85  O   UNL A   1      42.224  22.484  27.730  1.00  0.00    -0.744 OA
ENDBRANCH  79  82
ENDBRANCH  51  75
BRANCH  63  86
ATOM     86  C   UNL A   1      44.319  27.685  33.857  1.00  0.00     0.023 A 
ATOM     87  C   UNL A   1      45.521  28.414  33.796  1.00  0.00     0.012 A 
ATOM     88  C   UNL A   1      44.255  26.504  34.619  1.00  0.00     0.148 A 
ATOM     89  C   UNL A   1      46.651  27.970  34.479  1.00  0.00     0.002 A 
ATOM     90  C   UNL A   1      45.376  26.082  35.323  1.00  0.00     0.091 A 
ATOM     91  F   UNL A   1      43.098  25.825  34.647  1.00  0.00    -0.205 F 
ATOM     92  C   UNL A   1      46.575  26.812  35.251  1.00  0.00     0.022 A 
BRANCH  90  93
ATOM     93  S   UNL A   1      45.358  24.643  36.396  1.00  0.00     0.127 S 
ATOM     94  O   UNL A   1      44.927  25.226  37.666  1.00  0.00    -0.237 OA
ATOM     95  O   UNL A   1      44.363  23.788  35.747  1.00  0.00    -0.237 OA
ATOM     96  O   UNL A   1      46.714  24.113  36.383  1.00  0.00    -0.744 OA
ENDBRANCH  90  93
ENDBRANCH  63  86
ENDBRANCH  37  38
ENDBRANCH  29  32
ENDBRANCH  27  28
ENDBRANCH  26  27
ENDBRANCH   1  26
TORSDOF 17
ENDMDL
