MODEL 1
REMARK VINA RESULT:     -11.5      0.000      0.000
REMARK SMILES [NH3+][C@H](CCC(=O)NCCCCNC(=O)c1ccc(-c2c3nc(c(-c4cccc(S(=O)(=O)[O-])c4F)c4ccc([nH]4)c(-c4cccc(S(=O)(=O)[O-])c4F)c4nc(c(-c5cccc(S(=O)(=O)[O-])c5F)c5ccc2[nH]5)C=C4)C=C3)cc1)Cc1c[nH]c2ccccc12
REMARK SMILES IDX 9 1 8 2 7 3 5 4 6 5 4 7 3 8 2 9 1 10 78 14 79 15 80 16 87 17
REMARK SMILES IDX 81 18 82 19 86 20 83 22 85 23 84 24 10 25 11 26 12 27 13 28
REMARK SMILES IDX 14 30 15 31 16 32 77 33 17 34 76 35 18 36 19 37 20 38 70 39
REMARK SMILES IDX 21 40 75 41 69 42 71 43 22 44 74 45 68 46 67 47 23 49 55 50
REMARK SMILES IDX 35 51 54 52 36 53 39 54 53 55 72 56 37 57 38 58 52 60 73 61
REMARK SMILES IDX 40 62 24 63 25 64 33 65 26 66 28 67 34 68 27 69 29 70 30 71
REMARK SMILES IDX 31 72 32 73 56 74 57 75 65 76 58 77 60 78 66 79 59 80 61 81
REMARK SMILES IDX 62 82 63 83 64 84 41 85 42 86 50 87 43 88 45 89 51 90 44 91
REMARK SMILES IDX 46 92 47 93 48 94 49 95
REMARK H PARENT 7 6 1 11 1 12 1 13 81 21 12 29 71 48 39 59
REMARK Flexibility Score: inf
ROOT
ATOM      1  C   UNL A   1      32.680  27.864  27.009  1.00  0.00     0.023 C 
ENDROOT
BRANCH   1   2
ATOM      2  C   UNL A   1      32.054  26.576  26.478  1.00  0.00     0.116 C 
BRANCH   2   3
ATOM      3  N   UNL A   1      33.057  25.617  26.071  1.00  0.00    -0.356 N 
ATOM      4  C   UNL A   1      33.835  25.618  24.947  1.00  0.00     0.220 C 
ATOM      5  O   UNL A   1      34.628  24.693  24.775  1.00  0.00    -0.275 OA
ATOM      6  H   UNL A   1      33.199  24.861  26.686  1.00  0.00     0.163 HD
BRANCH   4   7
ATOM      7  C   UNL A   1      33.702  26.747  23.931  1.00  0.00     0.106 C 
BRANCH   7   8
ATOM      8  C   UNL A   1      33.425  26.218  22.520  1.00  0.00     0.075 C 
BRANCH   8   9
ATOM      9  C   UNL A   1      31.961  26.260  21.990  1.00  0.00     0.185 C 
BRANCH   9  10
ATOM     10  N   UNL A   1      31.870  25.947  20.563  1.00  0.00    -0.355 N 
ATOM     11  H   UNL A   1      32.357  25.070  20.374  1.00  0.00     0.344 HD
ATOM     12  H   UNL A   1      32.300  26.698  20.022  1.00  0.00     0.344 HD
ATOM     13  H   UNL A   1      30.889  25.855  20.297  1.00  0.00     0.344 HD
ENDBRANCH   9  10
BRANCH   9  14
ATOM     14  C   UNL A   1      30.911  25.421  22.784  1.00  0.00     0.102 C 
BRANCH  14  15
ATOM     15  C   UNL A   1      30.056  26.298  23.655  1.00  0.00    -0.017 A 
ATOM     16  C   UNL A   1      29.102  25.918  24.583  1.00  0.00     0.087 A 
ATOM     17  C   UNL A   1      29.740  27.662  23.462  1.00  0.00     0.003 A 
ATOM     18  N   UNL A   1      27.970  26.477  24.024  1.00  0.00    -0.361 N 
ATOM     19  C   UNL A   1      28.349  27.645  23.403  1.00  0.00     0.046 A 
ATOM     20  C   UNL A   1      30.424  28.857  23.204  1.00  0.00     0.010 A 
ATOM     21  H   UNL A   1      27.058  26.108  24.062  1.00  0.00     0.166 HD
ATOM     22  C   UNL A   1      27.603  28.675  22.846  1.00  0.00     0.026 A 
ATOM     23  C   UNL A   1      29.663  29.980  22.863  1.00  0.00     0.001 A 
ATOM     24  C   UNL A   1      28.292  29.867  22.613  1.00  0.00     0.002 A 
ENDBRANCH  14  15
ENDBRANCH   9  14
ENDBRANCH   8   9
ENDBRANCH   7   8
ENDBRANCH   4   7
ENDBRANCH   2   3
ENDBRANCH   1   2
BRANCH   1  25
ATOM     25  C   UNL A   1      31.946  29.142  26.635  1.00  0.00     0.023 C 
BRANCH  25  26
ATOM     26  C   UNL A   1      32.848  30.234  26.091  1.00  0.00     0.116 C 
BRANCH  26  27
ATOM     27  N   UNL A   1      32.572  31.567  26.622  1.00  0.00    -0.352 N 
ATOM     28  C   UNL A   1      33.374  32.322  27.460  1.00  0.00     0.251 C 
ATOM     29  H   UNL A   1      31.717  31.975  26.352  1.00  0.00     0.163 HD
ATOM     30  O   UNL A   1      33.015  33.391  27.892  1.00  0.00    -0.269 OA
BRANCH  28  31
ATOM     31  C   UNL A   1      34.675  31.730  27.836  1.00  0.00     0.039 A 
ATOM     32  C   UNL A   1      35.782  32.567  27.978  1.00  0.00     0.014 A 
ATOM     33  C   UNL A   1      34.722  30.391  28.225  1.00  0.00     0.014 A 
ATOM     34  C   UNL A   1      36.929  32.067  28.594  1.00  0.00     0.010 A 
ATOM     35  C   UNL A   1      35.814  29.940  28.946  1.00  0.00     0.010 A 
ATOM     36  C   UNL A   1      36.935  30.766  29.125  1.00  0.00    -0.014 A 
BRANCH  36  37
ATOM     37  C   UNL A   1      38.108  30.226  29.852  1.00  0.00     0.031 A 
ATOM     38  C   UNL A   1      38.372  30.681  31.262  1.00  0.00     0.074 A 
ATOM     39  C   UNL A   1      38.982  29.417  29.219  1.00  0.00     0.049 A 
ATOM     40  N   UNL A   1      39.382  30.405  32.042  1.00  0.00    -0.248 NA
ATOM     41  C   UNL A   1      37.393  31.609  31.858  1.00  0.00     0.031 C 
ATOM     42  C   UNL A   1      38.889  28.992  27.820  1.00  0.00     0.029 A 
ATOM     43  N   UNL A   1      40.138  28.829  29.665  1.00  0.00    -0.354 N 
ATOM     44  C   UNL A   1      39.183  31.159  33.193  1.00  0.00     0.074 A 
ATOM     45  C   UNL A   1      37.994  31.949  32.987  1.00  0.00     0.031 C 
ATOM     46  C   UNL A   1      39.935  28.200  27.528  1.00  0.00     0.029 A 
ATOM     47  C   UNL A   1      40.787  28.083  28.707  1.00  0.00     0.049 A 
ATOM     48  H   UNL A   1      40.474  28.931  30.585  1.00  0.00     0.167 HD
ATOM     49  C   UNL A   1      39.900  31.157  34.341  1.00  0.00     0.034 A 
ATOM     50  C   UNL A   1      41.937  27.386  28.776  1.00  0.00     0.034 A 
ATOM     51  C   UNL A   1      41.040  30.315  34.563  1.00  0.00     0.049 A 
ATOM     52  C   UNL A   1      42.675  27.340  30.088  1.00  0.00     0.074 A 
ATOM     53  C   UNL A   1      41.781  30.157  35.719  1.00  0.00     0.029 A 
ATOM     54  N   UNL A   1      41.601  29.484  33.607  1.00  0.00    -0.354 N 
ATOM     55  N   UNL A   1      42.382  27.932  31.221  1.00  0.00    -0.248 NA
ATOM     56  C   UNL A   1      43.880  26.499  30.145  1.00  0.00     0.031 C 
ATOM     57  C   UNL A   1      42.804  29.241  35.455  1.00  0.00     0.029 A 
ATOM     58  C   UNL A   1      42.682  28.809  34.143  1.00  0.00     0.049 A 
ATOM     59  H   UNL A   1      41.279  29.388  32.681  1.00  0.00     0.167 HD
ATOM     60  C   UNL A   1      43.341  27.510  32.134  1.00  0.00     0.074 A 
ATOM     61  C   UNL A   1      44.211  26.593  31.426  1.00  0.00     0.031 C 
ATOM     62  C   UNL A   1      43.499  27.859  33.434  1.00  0.00     0.034 A 
BRANCH  49  63
ATOM     63  C   UNL A   1      39.419  32.042  35.461  1.00  0.00     0.023 A 
ATOM     64  C   UNL A   1      38.488  31.541  36.394  1.00  0.00     0.012 A 
ATOM     65  C   UNL A   1      39.907  33.354  35.609  1.00  0.00     0.148 A 
ATOM     66  C   UNL A   1      38.016  32.344  37.430  1.00  0.00     0.002 A 
ATOM     67  C   UNL A   1      39.470  34.132  36.676  1.00  0.00     0.091 A 
ATOM     68  F   UNL A   1      40.772  33.823  34.699  1.00  0.00    -0.205 F 
ATOM     69  C   UNL A   1      38.515  33.634  37.578  1.00  0.00     0.022 A 
BRANCH  67  70
ATOM     70  S   UNL A   1      40.112  35.777  37.002  1.00  0.00     0.127 S 
ATOM     71  O   UNL A   1      39.406  36.128  38.235  1.00  0.00    -0.237 OA
ATOM     72  O   UNL A   1      41.542  35.521  37.171  1.00  0.00    -0.237 OA
ATOM     73  O   UNL A   1      39.770  36.580  35.837  1.00  0.00    -0.744 OA
ENDBRANCH  67  70
ENDBRANCH  49  63
BRANCH  50  74
ATOM     74  C   UNL A   1      42.418  26.614  27.595  1.00  0.00     0.023 A 
ATOM     75  C   UNL A   1      43.243  27.245  26.643  1.00  0.00     0.012 A 
ATOM     76  C   UNL A   1      42.087  25.256  27.421  1.00  0.00     0.148 A 
ATOM     77  C   UNL A   1      43.700  26.550  25.523  1.00  0.00     0.002 A 
ATOM     78  C   UNL A   1      42.592  24.554  26.332  1.00  0.00     0.091 A 
ATOM     79  F   UNL A   1      41.294  24.674  28.331  1.00  0.00    -0.205 F 
ATOM     80  C   UNL A   1      43.384  25.202  25.372  1.00  0.00     0.022 A 
BRANCH  78  81
ATOM     81  S   UNL A   1      42.346  22.786  26.128  1.00  0.00     0.127 S 
ATOM     82  O   UNL A   1      42.944  22.550  24.817  1.00  0.00    -0.237 OA
ATOM     83  O   UNL A   1      43.102  22.243  27.257  1.00  0.00    -0.237 OA
ATOM     84  O   UNL A   1      40.907  22.578  26.216  1.00  0.00    -0.744 OA
ENDBRANCH  78  81
ENDBRANCH  50  74
BRANCH  62  85
ATOM     85  C   UNL A   1      44.631  27.222  34.195  1.00  0.00     0.023 A 
ATOM     86  C   UNL A   1      45.886  27.861  34.250  1.00  0.00     0.012 A 
ATOM     87  C   UNL A   1      44.422  26.037  34.927  1.00  0.00     0.148 A 
ATOM     88  C   UNL A   1      46.925  27.312  34.999  1.00  0.00     0.002 A 
ATOM     89  C   UNL A   1      45.446  25.524  35.712  1.00  0.00     0.091 A 
ATOM     90  F   UNL A   1      43.225  25.438  34.846  1.00  0.00    -0.205 F 
ATOM     91  C   UNL A   1      46.702  26.153  35.739  1.00  0.00     0.022 A 
BRANCH  89  92
ATOM     92  S   UNL A   1      45.218  24.096  36.776  1.00  0.00     0.127 S 
ATOM     93  O   UNL A   1      46.598  23.746  37.105  1.00  0.00    -0.237 OA
ATOM     94  O   UNL A   1      44.448  24.657  37.887  1.00  0.00    -0.237 OA
ATOM     95  O   UNL A   1      44.497  23.112  35.979  1.00  0.00    -0.744 OA
ENDBRANCH  89  92
ENDBRANCH  62  85
ENDBRANCH  36  37
ENDBRANCH  28  31
ENDBRANCH  26  27
ENDBRANCH  25  26
ENDBRANCH   1  25
TORSDOF 19
ENDMDL
MODEL 2
REMARK VINA RESULT:     -11.5      1.778      3.049
REMARK SMILES [NH3+][C@H](CCC(=O)NCCCCNC(=O)c1ccc(-c2c3nc(c(-c4cccc(S(=O)(=O)[O-])c4F)c4ccc([nH]4)c(-c4cccc(S(=O)(=O)[O-])c4F)c4nc(c(-c5cccc(S(=O)(=O)[O-])c5F)c5ccc2[nH]5)C=C4)C=C3)cc1)Cc1c[nH]c2ccccc12
REMARK SMILES IDX 9 1 8 2 7 3 5 4 6 5 4 7 3 8 2 9 1 10 78 14 79 15 80 16 87 17
REMARK SMILES IDX 81 18 82 19 86 20 83 22 85 23 84 24 10 25 11 26 12 27 13 28
REMARK SMILES IDX 14 30 15 31 16 32 77 33 17 34 76 35 18 36 19 37 20 38 70 39
REMARK SMILES IDX 21 40 75 41 69 42 71 43 22 44 74 45 68 46 67 47 23 49 55 50
REMARK SMILES IDX 35 51 54 52 36 53 39 54 53 55 72 56 37 57 38 58 52 60 73 61
REMARK SMILES IDX 40 62 24 63 25 64 33 65 26 66 28 67 34 68 27 69 29 70 30 71
REMARK SMILES IDX 31 72 32 73 56 74 57 75 65 76 58 77 60 78 66 79 59 80 61 81
REMARK SMILES IDX 62 82 63 83 64 84 41 85 42 86 50 87 43 88 45 89 51 90 44 91
REMARK SMILES IDX 46 92 47 93 48 94 49 95
REMARK H PARENT 7 6 1 11 1 12 1 13 81 21 12 29 71 48 39 59
REMARK Flexibility Score: inf
ROOT
ATOM      1  C   UNL A   1      31.987  28.364  27.568  1.00  0.00     0.023 C 
ENDROOT
BRANCH   1   2
ATOM      2  C   UNL A   1      31.659  27.243  26.583  1.00  0.00     0.116 C 
BRANCH   2   3
ATOM      3  N   UNL A   1      31.309  27.758  25.278  1.00  0.00    -0.356 N 
ATOM      4  C   UNL A   1      31.965  27.595  24.090  1.00  0.00     0.220 C 
ATOM      5  O   UNL A   1      31.508  28.133  23.082  1.00  0.00    -0.275 OA
ATOM      6  H   UNL A   1      30.488  28.300  25.240  1.00  0.00     0.163 HD
BRANCH   4   7
ATOM      7  C   UNL A   1      33.245  26.767  24.035  1.00  0.00     0.106 C 
BRANCH   7   8
ATOM      8  C   UNL A   1      33.573  26.314  22.608  1.00  0.00     0.075 C 
BRANCH   8   9
ATOM      9  C   UNL A   1      32.651  25.250  21.941  1.00  0.00     0.185 C 
BRANCH   9  10
ATOM     10  N   UNL A   1      31.902  25.787  20.805  1.00  0.00    -0.355 N 
ATOM     11  H   UNL A   1      32.369  26.623  20.453  1.00  0.00     0.344 HD
ATOM     12  H   UNL A   1      30.956  26.026  21.103  1.00  0.00     0.344 HD
ATOM     13  H   UNL A   1      31.858  25.086  20.064  1.00  0.00     0.344 HD
ENDBRANCH   9  10
BRANCH   9  14
ATOM     14  C   UNL A   1      33.327  23.901  21.540  1.00  0.00     0.102 C 
BRANCH  14  15
ATOM     15  C   UNL A   1      33.616  23.053  22.747  1.00  0.00    -0.017 A 
ATOM     16  C   UNL A   1      32.717  22.401  23.574  1.00  0.00     0.087 A 
ATOM     17  C   UNL A   1      34.788  23.046  23.536  1.00  0.00     0.003 A 
ATOM     18  N   UNL A   1      32.963  23.045  24.771  1.00  0.00    -0.361 N 
ATOM     19  C   UNL A   1      34.302  23.360  24.803  1.00  0.00     0.046 A 
ATOM     20  C   UNL A   1      36.171  22.950  23.336  1.00  0.00     0.010 A 
ATOM     21  H   UNL A   1      32.302  23.242  25.472  1.00  0.00     0.166 HD
ATOM     22  C   UNL A   1      35.109  23.845  25.824  1.00  0.00     0.026 A 
ATOM     23  C   UNL A   1      37.005  23.212  24.428  1.00  0.00     0.001 A 
ATOM     24  C   UNL A   1      36.485  23.724  25.620  1.00  0.00     0.002 A 
ENDBRANCH  14  15
ENDBRANCH   9  14
ENDBRANCH   8   9
ENDBRANCH   7   8
ENDBRANCH   4   7
ENDBRANCH   2   3
ENDBRANCH   1   2
BRANCH   1  25
ATOM     25  C   UNL A   1      31.724  29.771  27.056  1.00  0.00     0.023 C 
BRANCH  25  26
ATOM     26  C   UNL A   1      32.984  30.574  26.787  1.00  0.00     0.116 C 
BRANCH  26  27
ATOM     27  N   UNL A   1      32.902  31.978  27.183  1.00  0.00    -0.352 N 
ATOM     28  C   UNL A   1      33.863  32.725  27.843  1.00  0.00     0.251 C 
ATOM     29  H   UNL A   1      32.067  32.448  26.954  1.00  0.00     0.163 HD
ATOM     30  O   UNL A   1      33.662  33.867  28.181  1.00  0.00    -0.269 OA
BRANCH  28  31
ATOM     31  C   UNL A   1      35.133  32.036  28.155  1.00  0.00     0.039 A 
ATOM     32  C   UNL A   1      36.308  32.784  28.222  1.00  0.00     0.014 A 
ATOM     33  C   UNL A   1      35.097  30.702  28.560  1.00  0.00     0.014 A 
ATOM     34  C   UNL A   1      37.445  32.201  28.781  1.00  0.00     0.010 A 
ATOM     35  C   UNL A   1      36.189  30.173  29.226  1.00  0.00     0.010 A 
ATOM     36  C   UNL A   1      37.379  30.909  29.330  1.00  0.00    -0.014 A 
BRANCH  36  37
ATOM     37  C   UNL A   1      38.546  30.286  29.998  1.00  0.00     0.031 A 
ATOM     38  C   UNL A   1      38.929  30.739  31.382  1.00  0.00     0.074 A 
ATOM     39  C   UNL A   1      39.313  29.399  29.332  1.00  0.00     0.049 A 
ATOM     40  N   UNL A   1      39.958  30.393  32.107  1.00  0.00    -0.248 NA
ATOM     41  C   UNL A   1      38.066  31.754  32.015  1.00  0.00     0.031 C 
ATOM     42  C   UNL A   1      39.102  28.961  27.949  1.00  0.00     0.029 A 
ATOM     43  N   UNL A   1      40.442  28.725  29.722  1.00  0.00    -0.354 N 
ATOM     44  C   UNL A   1      39.890  31.178  33.252  1.00  0.00     0.074 A 
ATOM     45  C   UNL A   1      38.758  32.060  33.099  1.00  0.00     0.031 C 
ATOM     46  C   UNL A   1      40.062  28.082  27.614  1.00  0.00     0.029 A 
ATOM     47  C   UNL A   1      40.970  27.913  28.743  1.00  0.00     0.049 A 
ATOM     48  H   UNL A   1      40.838  28.812  30.619  1.00  0.00     0.167 HD
ATOM     49  C   UNL A   1      40.671  31.134  34.357  1.00  0.00     0.034 A 
ATOM     50  C   UNL A   1      42.062  27.125  28.759  1.00  0.00     0.034 A 
ATOM     51  C   UNL A   1      41.750  30.205  34.529  1.00  0.00     0.049 A 
ATOM     52  C   UNL A   1      42.870  27.039  30.027  1.00  0.00     0.074 A 
ATOM     53  C   UNL A   1      42.543  30.005  35.643  1.00  0.00     0.029 A 
ATOM     54  N   UNL A   1      42.185  29.317  33.558  1.00  0.00    -0.354 N 
ATOM     55  N   UNL A   1      42.694  27.670  31.163  1.00  0.00    -0.248 NA
ATOM     56  C   UNL A   1      44.004  26.102  30.031  1.00  0.00     0.031 C 
ATOM     57  C   UNL A   1      43.471  29.004  35.338  1.00  0.00     0.029 A 
ATOM     58  C   UNL A   1      43.237  28.563  34.045  1.00  0.00     0.049 A 
ATOM     59  H   UNL A   1      41.801  29.233  32.655  1.00  0.00     0.167 HD
ATOM     60  C   UNL A   1      43.668  27.184  32.027  1.00  0.00     0.074 A 
ATOM     61  C   UNL A   1      44.417  26.188  31.288  1.00  0.00     0.031 C 
ATOM     62  C   UNL A   1      43.931  27.538  33.308  1.00  0.00     0.034 A 
BRANCH  49  63
ATOM     63  C   UNL A   1      40.331  32.073  35.485  1.00  0.00     0.023 A 
ATOM     64  C   UNL A   1      41.088  33.250  35.662  1.00  0.00     0.012 A 
ATOM     65  C   UNL A   1      39.251  31.810  36.348  1.00  0.00     0.148 A 
ATOM     66  C   UNL A   1      40.804  34.128  36.706  1.00  0.00     0.002 A 
ATOM     67  C   UNL A   1      38.942  32.716  37.356  1.00  0.00     0.091 A 
ATOM     68  F   UNL A   1      38.559  30.674  36.181  1.00  0.00    -0.205 F 
ATOM     69  C   UNL A   1      39.726  33.867  37.545  1.00  0.00     0.022 A 
BRANCH  67  70
ATOM     70  S   UNL A   1      37.524  32.515  38.439  1.00  0.00     0.127 S 
ATOM     71  O   UNL A   1      37.866  33.415  39.541  1.00  0.00    -0.237 OA
ATOM     72  O   UNL A   1      36.424  32.978  37.593  1.00  0.00    -0.237 OA
ATOM     73  O   UNL A   1      37.477  31.101  38.781  1.00  0.00    -0.744 OA
ENDBRANCH  67  70
ENDBRANCH  49  63
BRANCH  50  74
ATOM     74  C   UNL A   1      42.407  26.298  27.568  1.00  0.00     0.023 A 
ATOM     75  C   UNL A   1      43.186  26.859  26.537  1.00  0.00     0.012 A 
ATOM     76  C   UNL A   1      41.994  24.956  27.460  1.00  0.00     0.148 A 
ATOM     77  C   UNL A   1      43.518  26.112  25.406  1.00  0.00     0.002 A 
ATOM     78  C   UNL A   1      42.374  24.200  26.357  1.00  0.00     0.091 A 
ATOM     79  F   UNL A   1      41.245  24.441  28.446  1.00  0.00    -0.205 F 
ATOM     80  C   UNL A   1      43.120  24.780  25.320  1.00  0.00     0.022 A 
BRANCH  78  81
ATOM     81  S   UNL A   1      42.021  22.443  26.225  1.00  0.00     0.127 S 
ATOM     82  O   UNL A   1      42.688  22.097  24.973  1.00  0.00    -0.237 OA
ATOM     83  O   UNL A   1      42.660  21.915  27.431  1.00  0.00    -0.237 OA
ATOM     84  O   UNL A   1      40.569  22.336  26.220  1.00  0.00    -0.744 OA
ENDBRANCH  78  81
ENDBRANCH  50  74
BRANCH  62  85
ATOM     85  C   UNL A   1      45.050  26.823  34.015  1.00  0.00     0.023 A 
ATOM     86  C   UNL A   1      46.361  27.337  33.954  1.00  0.00     0.012 A 
ATOM     87  C   UNL A   1      44.784  25.692  34.812  1.00  0.00     0.148 A 
ATOM     88  C   UNL A   1      47.396  26.717  34.651  1.00  0.00     0.002 A 
ATOM     89  C   UNL A   1      45.811  25.111  35.544  1.00  0.00     0.091 A 
ATOM     90  F   UNL A   1      43.533  25.211  34.842  1.00  0.00    -0.205 F 
ATOM     91  C   UNL A   1      47.120  25.614  35.455  1.00  0.00     0.022 A 
BRANCH  89  92
ATOM     92  S   UNL A   1      45.528  23.752  36.684  1.00  0.00     0.127 S 
ATOM     93  O   UNL A   1      44.663  24.375  37.683  1.00  0.00    -0.237 OA
ATOM     94  O   UNL A   1      44.864  22.765  35.831  1.00  0.00    -0.237 OA
ATOM     95  O   UNL A   1      46.844  23.347  37.160  1.00  0.00    -0.744 OA
ENDBRANCH  89  92
ENDBRANCH  62  85
ENDBRANCH  36  37
ENDBRANCH  28  31
ENDBRANCH  26  27
ENDBRANCH  25  26
ENDBRANCH   1  25
TORSDOF 19
ENDMDL
MODEL 3
REMARK VINA RESULT:     -11.5      2.590      3.742
REMARK SMILES [NH3+][C@H](CCC(=O)NCCCCNC(=O)c1ccc(-c2c3nc(c(-c4cccc(S(=O)(=O)[O-])c4F)c4ccc([nH]4)c(-c4cccc(S(=O)(=O)[O-])c4F)c4nc(c(-c5cccc(S(=O)(=O)[O-])c5F)c5ccc2[nH]5)C=C4)C=C3)cc1)Cc1c[nH]c2ccccc12
REMARK SMILES IDX 9 1 8 2 7 3 5 4 6 5 4 7 3 8 2 9 1 10 78 14 79 15 80 16 87 17
REMARK SMILES IDX 81 18 82 19 86 20 83 22 85 23 84 24 10 25 11 26 12 27 13 28
REMARK SMILES IDX 14 30 15 31 16 32 77 33 17 34 76 35 18 36 19 37 20 38 70 39
REMARK SMILES IDX 21 40 75 41 69 42 71 43 22 44 74 45 68 46 67 47 23 49 55 50
REMARK SMILES IDX 35 51 54 52 36 53 39 54 53 55 72 56 37 57 38 58 52 60 73 61
REMARK SMILES IDX 40 62 24 63 25 64 33 65 26 66 28 67 34 68 27 69 29 70 30 71
REMARK SMILES IDX 31 72 32 73 56 74 57 75 65 76 58 77 60 78 66 79 59 80 61 81
REMARK SMILES IDX 62 82 63 83 64 84 41 85 42 86 50 87 43 88 45 89 51 90 44 91
REMARK SMILES IDX 46 92 47 93 48 94 49 95
REMARK H PARENT 7 6 1 11 1 12 1 13 81 21 12 29 71 48 39 59
REMARK Flexibility Score: inf
ROOT
ATOM      1  C   UNL A   1      31.765  28.912  24.878  1.00  0.00     0.023 C 
ENDROOT
BRANCH   1   2
ATOM      2  C   UNL A   1      33.244  28.674  24.582  1.00  0.00     0.116 C 
BRANCH   2   3
ATOM      3  N   UNL A   1      33.446  28.109  23.266  1.00  0.00    -0.356 N 
ATOM      4  C   UNL A   1      33.549  26.794  22.907  1.00  0.00     0.220 C 
ATOM      5  O   UNL A   1      33.736  26.516  21.723  1.00  0.00    -0.275 OA
ATOM      6  H   UNL A   1      33.519  28.758  22.530  1.00  0.00     0.163 HD
BRANCH   4   7
ATOM      7  C   UNL A   1      33.443  25.704  23.969  1.00  0.00     0.106 C 
BRANCH   7   8
ATOM      8  C   UNL A   1      32.312  24.717  23.665  1.00  0.00     0.075 C 
BRANCH   8   9
ATOM      9  C   UNL A   1      32.675  23.370  22.971  1.00  0.00     0.185 C 
BRANCH   9  10
ATOM     10  N   UNL A   1      32.924  23.525  21.537  1.00  0.00    -0.355 N 
ATOM     11  H   UNL A   1      33.041  24.514  21.316  1.00  0.00     0.344 HD
ATOM     12  H   UNL A   1      32.134  23.150  21.012  1.00  0.00     0.344 HD
ATOM     13  H   UNL A   1      33.773  23.018  21.283  1.00  0.00     0.344 HD
ENDBRANCH   9  10
BRANCH   9  14
ATOM     14  C   UNL A   1      33.827  22.542  23.622  1.00  0.00     0.102 C 
BRANCH  14  15
ATOM     15  C   UNL A   1      33.290  21.368  24.391  1.00  0.00    -0.017 A 
ATOM     16  C   UNL A   1      33.341  21.137  25.755  1.00  0.00     0.087 A 
ATOM     17  C   UNL A   1      32.977  20.082  23.895  1.00  0.00     0.003 A 
ATOM     18  N   UNL A   1      34.101  19.984  25.787  1.00  0.00    -0.361 N 
ATOM     19  C   UNL A   1      33.793  19.254  24.662  1.00  0.00     0.046 A 
ATOM     20  C   UNL A   1      32.235  19.529  22.843  1.00  0.00     0.010 A 
ATOM     21  H   UNL A   1      34.746  19.731  26.487  1.00  0.00     0.166 HD
ATOM     22  C   UNL A   1      34.124  17.959  24.287  1.00  0.00     0.026 A 
ATOM     23  C   UNL A   1      32.381  18.161  22.593  1.00  0.00     0.001 A 
ATOM     24  C   UNL A   1      33.363  17.413  23.251  1.00  0.00     0.002 A 
ENDBRANCH  14  15
ENDBRANCH   9  14
ENDBRANCH   8   9
ENDBRANCH   7   8
ENDBRANCH   4   7
ENDBRANCH   2   3
ENDBRANCH   1   2
BRANCH   1  25
ATOM     25  C   UNL A   1      31.435  30.274  25.468  1.00  0.00     0.023 C 
BRANCH  25  26
ATOM     26  C   UNL A   1      32.355  30.694  26.601  1.00  0.00     0.116 C 
BRANCH  26  27
ATOM     27  N   UNL A   1      32.228  32.095  26.994  1.00  0.00    -0.352 N 
ATOM     28  C   UNL A   1      33.160  32.870  27.662  1.00  0.00     0.251 C 
ATOM     29  H   UNL A   1      31.383  32.540  26.755  1.00  0.00     0.163 HD
ATOM     30  O   UNL A   1      32.924  34.006  27.996  1.00  0.00    -0.269 OA
BRANCH  28  31
ATOM     31  C   UNL A   1      34.446  32.218  27.988  1.00  0.00     0.039 A 
ATOM     32  C   UNL A   1      35.601  32.997  28.054  1.00  0.00     0.014 A 
ATOM     33  C   UNL A   1      34.443  30.887  28.406  1.00  0.00     0.014 A 
ATOM     34  C   UNL A   1      36.750  32.450  28.625  1.00  0.00     0.010 A 
ATOM     35  C   UNL A   1      35.545  30.394  29.083  1.00  0.00     0.010 A 
ATOM     36  C   UNL A   1      36.715  31.162  29.187  1.00  0.00    -0.014 A 
BRANCH  36  37
ATOM     37  C   UNL A   1      37.894  30.577  29.867  1.00  0.00     0.031 A 
ATOM     38  C   UNL A   1      38.193  30.972  31.289  1.00  0.00     0.074 A 
ATOM     39  C   UNL A   1      38.743  29.781  29.186  1.00  0.00     0.049 A 
ATOM     40  N   UNL A   1      39.214  30.650  32.037  1.00  0.00    -0.248 NA
ATOM     41  C   UNL A   1      37.241  31.890  31.941  1.00  0.00     0.031 C 
ATOM     42  C   UNL A   1      38.615  29.412  27.773  1.00  0.00     0.029 A 
ATOM     43  N   UNL A   1      39.898  29.158  29.585  1.00  0.00    -0.354 N 
ATOM     44  C   UNL A   1      39.050  31.360  33.220  1.00  0.00     0.074 A 
ATOM     45  C   UNL A   1      37.869  32.176  33.069  1.00  0.00     0.031 C 
ATOM     46  C   UNL A   1      39.642  28.617  27.429  1.00  0.00     0.029 A 
ATOM     47  C   UNL A   1      40.515  28.441  28.585  1.00  0.00     0.049 A 
ATOM     48  H   UNL A   1      40.253  29.218  30.500  1.00  0.00     0.167 HD
ATOM     49  C   UNL A   1      39.789  31.302  34.352  1.00  0.00     0.034 A 
ATOM     50  C   UNL A   1      41.656  27.724  28.603  1.00  0.00     0.034 A 
ATOM     51  C   UNL A   1      40.920  30.436  34.517  1.00  0.00     0.049 A 
ATOM     52  C   UNL A   1      42.419  27.616  29.897  1.00  0.00     0.074 A 
ATOM     53  C   UNL A   1      41.681  30.221  35.651  1.00  0.00     0.029 A 
ATOM     54  N   UNL A   1      41.449  29.635  33.518  1.00  0.00    -0.354 N 
ATOM     55  N   UNL A   1      42.158  28.167  31.058  1.00  0.00    -0.248 NA
ATOM     56  C   UNL A   1      43.611  26.755  29.896  1.00  0.00     0.031 C 
ATOM     57  C   UNL A   1      42.684  29.301  35.330  1.00  0.00     0.029 A 
ATOM     58  C   UNL A   1      42.530  28.923  34.006  1.00  0.00     0.049 A 
ATOM     59  H   UNL A   1      41.107  29.580  32.596  1.00  0.00     0.167 HD
ATOM     60  C   UNL A   1      43.127  27.694  31.933  1.00  0.00     0.074 A 
ATOM     61  C   UNL A   1      43.969  26.793  31.172  1.00  0.00     0.031 C 
ATOM     62  C   UNL A   1      43.318  27.989  33.242  1.00  0.00     0.034 A 
BRANCH  49  63
ATOM     63  C   UNL A   1      39.345  32.150  35.515  1.00  0.00     0.023 A 
ATOM     64  C   UNL A   1      39.678  33.520  35.545  1.00  0.00     0.012 A 
ATOM     65  C   UNL A   1      38.577  31.603  36.561  1.00  0.00     0.148 A 
ATOM     66  C   UNL A   1      39.292  34.323  36.616  1.00  0.00     0.002 A 
ATOM     67  C   UNL A   1      38.153  32.422  37.601  1.00  0.00     0.091 A 
ATOM     68  F   UNL A   1      38.292  30.294  36.530  1.00  0.00    -0.205 F 
ATOM     69  C   UNL A   1      38.521  33.777  37.638  1.00  0.00     0.022 A 
BRANCH  67  70
ATOM     70  S   UNL A   1      37.088  31.837  38.923  1.00  0.00     0.127 S 
ATOM     71  O   UNL A   1      36.893  30.437  38.546  1.00  0.00    -0.237 OA
ATOM     72  O   UNL A   1      37.927  32.038  40.104  1.00  0.00    -0.237 OA
ATOM     73  O   UNL A   1      35.893  32.668  38.875  1.00  0.00    -0.744 OA
ENDBRANCH  67  70
ENDBRANCH  49  63
BRANCH  50  74
ATOM     74  C   UNL A   1      42.101  26.992  27.382  1.00  0.00     0.023 A 
ATOM     75  C   UNL A   1      42.677  27.710  26.316  1.00  0.00     0.012 A 
ATOM     76  C   UNL A   1      41.982  25.593  27.281  1.00  0.00     0.148 A 
ATOM     77  C   UNL A   1      43.095  27.052  25.158  1.00  0.00     0.002 A 
ATOM     78  C   UNL A   1      42.450  24.938  26.148  1.00  0.00     0.091 A 
ATOM     79  F   UNL A   1      41.422  24.927  28.302  1.00  0.00    -0.205 F 
ATOM     80  C   UNL A   1      42.991  25.666  25.077  1.00  0.00     0.022 A 
BRANCH  78  81
ATOM     81  S   UNL A   1      42.478  23.146  26.013  1.00  0.00     0.127 S 
ATOM     82  O   UNL A   1      41.064  22.813  26.166  1.00  0.00    -0.237 OA
ATOM     83  O   UNL A   1      43.016  22.952  24.666  1.00  0.00    -0.237 OA
ATOM     84  O   UNL A   1      43.357  22.687  27.080  1.00  0.00    -0.744 OA
ENDBRANCH  78  81
ENDBRANCH  50  74
BRANCH  62  85
ATOM     85  C   UNL A   1      44.454  27.306  33.955  1.00  0.00     0.023 A 
ATOM     86  C   UNL A   1      45.751  27.854  33.892  1.00  0.00     0.012 A 
ATOM     87  C   UNL A   1      44.216  26.173  34.758  1.00  0.00     0.148 A 
ATOM     88  C   UNL A   1      46.800  27.264  34.594  1.00  0.00     0.002 A 
ATOM     89  C   UNL A   1      45.255  25.622  35.494  1.00  0.00     0.091 A 
ATOM     90  F   UNL A   1      42.977  25.660  34.788  1.00  0.00    -0.205 F 
ATOM     91  C   UNL A   1      46.551  26.158  35.404  1.00  0.00     0.022 A 
BRANCH  89  92
ATOM     92  S   UNL A   1      45.006  24.262  36.641  1.00  0.00     0.127 S 
ATOM     93  O   UNL A   1      46.332  24.131  37.241  1.00  0.00    -0.237 OA
ATOM     94  O   UNL A   1      43.979  24.797  37.537  1.00  0.00    -0.237 OA
ATOM     95  O   UNL A   1      44.570  23.131  35.833  1.00  0.00    -0.744 OA
ENDBRANCH  89  92
ENDBRANCH  62  85
ENDBRANCH  36  37
ENDBRANCH  28  31
ENDBRANCH  26  27
ENDBRANCH  25  26
ENDBRANCH   1  25
TORSDOF 19
ENDMDL
