MODEL 1
REMARK VINA RESULT:     -12.7      0.000      0.000
REMARK SMILES Cc1ccc(NC(=O)C[C@@H](C(=O)NCCCCNC(=O)c2ccc(-c3c4nc(c(-c5cccc(S(=O)(=O)[O-])c5F)c5ccc([nH]5)c(-c5cccc(S(=O)(=O)[O-])c5F)c5nc(c(-c6cccc(S(=O)(=O)[O-])c6F)c6ccc3[nH]6)C=C5)C=C4)cc2)[NH+]2CCOCC2)cc1
REMARK SMILES IDX 15 1 14 2 13 3 11 4 12 5 10 7 9 8 7 9 6 10 8 12 5 13 1 14
REMARK SMILES IDX 2 15 3 16 91 17 4 18 90 19 84 20 85 21 89 22 86 24 88 25
REMARK SMILES IDX 87 26 16 27 17 28 18 29 19 30 20 32 21 33 22 34 83 35 23 36
REMARK SMILES IDX 82 37 24 38 25 39 26 40 76 41 27 42 81 43 75 44 77 45 28 46
REMARK SMILES IDX 80 47 74 48 73 49 29 51 61 52 41 53 60 54 42 55 45 56 59 57
REMARK SMILES IDX 78 58 43 59 44 60 58 62 79 63 46 64 30 65 31 66 39 67 32 68
REMARK SMILES IDX 34 69 40 70 33 71 35 72 36 73 37 74 38 75 62 76 63 77 71 78
REMARK SMILES IDX 64 79 66 80 72 81 65 82 67 83 68 84 69 85 70 86 47 87 48 88
REMARK SMILES IDX 56 89 49 90 51 91 57 92 50 93 52 94 53 95 54 96 55 97
REMARK H PARENT 13 6 6 11 84 23 18 31 77 50 45 61
REMARK Flexibility Score: inf
ROOT
ATOM      1  C   UNL A   1      32.074  30.195  26.223  1.00  0.00     0.023 C 
ENDROOT
BRANCH   1   2
ATOM      2  C   UNL A   1      32.765  29.307  25.166  1.00  0.00     0.116 C 
BRANCH   2   3
ATOM      3  N   UNL A   1      31.937  28.934  24.034  1.00  0.00    -0.351 N 
ATOM      4  C   UNL A   1      31.527  27.751  23.504  1.00  0.00     0.278 C 
ATOM      5  O   UNL A   1      30.627  27.860  22.661  1.00  0.00    -0.268 OA
ATOM      6  H   UNL A   1      31.595  29.713  23.539  1.00  0.00     0.163 HD
BRANCH   4   7
ATOM      7  C   UNL A   1      32.085  26.352  23.950  1.00  0.00     0.283 C 
BRANCH   7   8
ATOM      8  C   UNL A   1      32.430  26.241  25.453  1.00  0.00     0.175 C 
BRANCH   8   9
ATOM      9  C   UNL A   1      31.394  25.902  26.493  1.00  0.00     0.230 C 
ATOM     10  N   UNL A   1      31.101  24.630  26.885  1.00  0.00    -0.326 N 
ATOM     11  H   UNL A   1      30.389  24.577  27.562  1.00  0.00     0.169 HD
ATOM     12  O   UNL A   1      30.738  26.824  26.995  1.00  0.00    -0.274 OA
BRANCH  10  13
ATOM     13  C   UNL A   1      31.620  23.379  26.505  1.00  0.00     0.041 A 
ATOM     14  C   UNL A   1      34.032  20.141  25.036  1.00  0.00     0.044 C 
ATOM     15  C   UNL A   1      33.126  21.176  25.628  1.00  0.00    -0.051 A 
ATOM     16  C   UNL A   1      31.989  21.583  24.928  1.00  0.00     0.005 A 
ATOM     17  C   UNL A   1      33.420  21.788  26.848  1.00  0.00     0.005 A 
ATOM     18  C   UNL A   1      31.236  22.674  25.370  1.00  0.00     0.026 A 
ATOM     19  C   UNL A   1      32.652  22.863  27.298  1.00  0.00     0.026 A 
ENDBRANCH  10  13
ENDBRANCH   8   9
ENDBRANCH   7   8
BRANCH   7  20
ATOM     20  N   UNL A   1      33.277  25.998  23.098  1.00  0.00    -0.320 N 
ATOM     21  C   UNL A   1      33.197  26.453  21.691  1.00  0.00     0.291 C 
ATOM     22  C   UNL A   1      33.848  24.642  23.139  1.00  0.00     0.291 C 
ATOM     23  H   UNL A   1      33.950  26.555  23.624  1.00  0.00     0.348 HD
ATOM     24  C   UNL A   1      32.630  25.409  20.715  1.00  0.00     0.221 C 
ATOM     25  C   UNL A   1      33.262  23.651  22.127  1.00  0.00     0.221 C 
ATOM     26  O   UNL A   1      33.336  24.165  20.797  1.00  0.00    -0.370 OA
ENDBRANCH   7  20
ENDBRANCH   4   7
ENDBRANCH   2   3
ENDBRANCH   1   2
BRANCH   1  27
ATOM     27  C   UNL A   1      32.956  31.132  27.049  1.00  0.00     0.023 C 
BRANCH  27  28
ATOM     28  C   UNL A   1      34.340  30.593  27.370  1.00  0.00     0.116 C 
BRANCH  28  29
ATOM     29  N   UNL A   1      35.258  31.608  27.880  1.00  0.00    -0.352 N 
ATOM     30  C   UNL A   1      36.507  31.436  28.465  1.00  0.00     0.251 C 
ATOM     31  H   UNL A   1      34.950  32.539  27.798  1.00  0.00     0.163 HD
ATOM     32  O   UNL A   1      37.094  32.383  28.957  1.00  0.00    -0.269 OA
BRANCH  30  33
ATOM     33  C   UNL A   1      37.129  30.095  28.378  1.00  0.00     0.039 A 
ATOM     34  C   UNL A   1      37.200  29.336  29.551  1.00  0.00     0.014 A 
ATOM     35  C   UNL A   1      37.896  29.769  27.265  1.00  0.00     0.014 A 
ATOM     36  C   UNL A   1      38.240  28.425  29.704  1.00  0.00     0.010 A 
ATOM     37  C   UNL A   1      38.981  28.943  27.446  1.00  0.00     0.010 A 
ATOM     38  C   UNL A   1      39.187  28.331  28.688  1.00  0.00    -0.014 A 
BRANCH  38  39
ATOM     39  C   UNL A   1      40.469  27.667  28.831  1.00  0.00     0.031 A 
ATOM     40  C   UNL A   1      40.572  26.220  28.600  1.00  0.00     0.074 A 
ATOM     41  C   UNL A   1      41.580  28.417  29.002  1.00  0.00     0.049 A 
ATOM     42  N   UNL A   1      41.512  25.479  29.076  1.00  0.00    -0.248 NA
ATOM     43  C   UNL A   1      39.592  25.495  27.800  1.00  0.00     0.031 C 
ATOM     44  C   UNL A   1      42.963  28.005  28.798  1.00  0.00     0.029 A 
ATOM     45  N   UNL A   1      41.681  29.675  29.606  1.00  0.00    -0.354 N 
ATOM     46  C   UNL A   1      41.437  24.274  28.416  1.00  0.00     0.074 A 
ATOM     47  C   UNL A   1      40.181  24.301  27.700  1.00  0.00     0.031 C 
ATOM     48  C   UNL A   1      43.763  28.822  29.499  1.00  0.00     0.029 A 
ATOM     49  C   UNL A   1      42.901  29.669  30.306  1.00  0.00     0.049 A 
ATOM     50  H   UNL A   1      41.032  30.413  29.550  1.00  0.00     0.167 HD
ATOM     51  C   UNL A   1      42.526  23.456  28.383  1.00  0.00     0.034 A 
ATOM     52  C   UNL A   1      42.996  29.841  31.656  1.00  0.00     0.034 A 
ATOM     53  C   UNL A   1      43.653  24.040  29.117  1.00  0.00     0.049 A 
ATOM     54  C   UNL A   1      43.673  28.677  32.360  1.00  0.00     0.074 A 
ATOM     55  C   UNL A   1      44.759  24.772  28.713  1.00  0.00     0.029 A 
ATOM     56  N   UNL A   1      43.578  24.181  30.497  1.00  0.00    -0.354 N 
ATOM     57  N   UNL A   1      44.006  27.557  31.779  1.00  0.00    -0.248 NA
ATOM     58  C   UNL A   1      44.003  28.670  33.782  1.00  0.00     0.031 C 
ATOM     59  C   UNL A   1      45.322  25.397  29.857  1.00  0.00     0.029 A 
ATOM     60  C   UNL A   1      44.571  25.032  30.960  1.00  0.00     0.049 A 
ATOM     61  H   UNL A   1      42.910  23.737  31.069  1.00  0.00     0.167 HD
ATOM     62  C   UNL A   1      44.452  26.652  32.711  1.00  0.00     0.074 A 
ATOM     63  C   UNL A   1      44.508  27.433  33.936  1.00  0.00     0.031 C 
ATOM     64  C   UNL A   1      44.675  25.335  32.387  1.00  0.00     0.034 A 
BRANCH  51  65
ATOM     65  C   UNL A   1      42.663  22.344  27.363  1.00  0.00     0.023 A 
ATOM     66  C   UNL A   1      42.014  21.120  27.631  1.00  0.00     0.012 A 
ATOM     67  C   UNL A   1      43.453  22.392  26.192  1.00  0.00     0.148 A 
ATOM     68  C   UNL A   1      42.232  19.972  26.862  1.00  0.00     0.002 A 
ATOM     69  C   UNL A   1      43.736  21.227  25.470  1.00  0.00     0.091 A 
ATOM     70  F   UNL A   1      43.890  23.575  25.740  1.00  0.00    -0.205 F 
ATOM     71  C   UNL A   1      43.128  20.014  25.808  1.00  0.00     0.022 A 
BRANCH  69  72
ATOM     72  S   UNL A   1      44.994  21.185  24.182  1.00  0.00     0.127 S 
ATOM     73  O   UNL A   1      46.219  21.490  24.928  1.00  0.00    -0.237 OA
ATOM     74  O   UNL A   1      44.909  19.811  23.696  1.00  0.00    -0.237 OA
ATOM     75  O   UNL A   1      44.613  22.225  23.234  1.00  0.00    -0.744 OA
ENDBRANCH  69  72
ENDBRANCH  51  65
BRANCH  52  76
ATOM     76  C   UNL A   1      41.911  30.700  32.222  1.00  0.00     0.023 A 
ATOM     77  C   UNL A   1      41.809  32.015  31.702  1.00  0.00     0.012 A 
ATOM     78  C   UNL A   1      40.808  30.151  32.894  1.00  0.00     0.148 A 
ATOM     79  C   UNL A   1      40.594  32.700  31.713  1.00  0.00     0.002 A 
ATOM     80  C   UNL A   1      39.599  30.850  32.912  1.00  0.00     0.091 A 
ATOM     81  F   UNL A   1      40.923  28.931  33.432  1.00  0.00    -0.205 F 
ATOM     82  C   UNL A   1      39.479  32.100  32.284  1.00  0.00     0.022 A 
BRANCH  80  83
ATOM     83  S   UNL A   1      38.116  30.129  33.631  1.00  0.00     0.127 S 
ATOM     84  O   UNL A   1      37.077  30.997  33.084  1.00  0.00    -0.237 OA
ATOM     85  O   UNL A   1      38.130  28.771  33.089  1.00  0.00    -0.237 OA
ATOM     86  O   UNL A   1      38.335  30.199  35.068  1.00  0.00    -0.744 OA
ENDBRANCH  80  83
ENDBRANCH  52  76
BRANCH  64  87
ATOM     87  C   UNL A   1      44.989  24.185  33.344  1.00  0.00     0.023 A 
ATOM     88  C   UNL A   1      44.099  23.125  33.593  1.00  0.00     0.012 A 
ATOM     89  C   UNL A   1      46.274  24.070  33.949  1.00  0.00     0.148 A 
ATOM     90  C   UNL A   1      44.442  22.033  34.402  1.00  0.00     0.002 A 
ATOM     91  C   UNL A   1      46.650  22.928  34.655  1.00  0.00     0.091 A 
ATOM     92  F   UNL A   1      47.146  25.086  33.879  1.00  0.00    -0.205 F 
ATOM     93  C   UNL A   1      45.727  21.917  34.908  1.00  0.00     0.022 A 
BRANCH  91  94
ATOM     94  S   UNL A   1      48.365  22.652  35.129  1.00  0.00     0.127 S 
ATOM     95  O   UNL A   1      48.489  23.485  36.322  1.00  0.00    -0.237 OA
ATOM     96  O   UNL A   1      48.390  21.211  35.387  1.00  0.00    -0.237 OA
ATOM     97  O   UNL A   1      49.146  23.062  33.970  1.00  0.00    -0.744 OA
ENDBRANCH  91  94
ENDBRANCH  64  87
ENDBRANCH  38  39
ENDBRANCH  30  33
ENDBRANCH  28  29
ENDBRANCH  27  28
ENDBRANCH   1  27
TORSDOF 18
ENDMDL
MODEL 2
REMARK VINA RESULT:     -12.7      1.621      3.283
REMARK SMILES Cc1ccc(NC(=O)C[C@@H](C(=O)NCCCCNC(=O)c2ccc(-c3c4nc(c(-c5cccc(S(=O)(=O)[O-])c5F)c5ccc([nH]5)c(-c5cccc(S(=O)(=O)[O-])c5F)c5nc(c(-c6cccc(S(=O)(=O)[O-])c6F)c6ccc3[nH]6)C=C5)C=C4)cc2)[NH+]2CCOCC2)cc1
REMARK SMILES IDX 15 1 14 2 13 3 11 4 12 5 10 7 9 8 7 9 6 10 8 12 5 13 1 14
REMARK SMILES IDX 2 15 3 16 91 17 4 18 90 19 84 20 85 21 89 22 86 24 88 25
REMARK SMILES IDX 87 26 16 27 17 28 18 29 19 30 20 32 21 33 22 34 83 35 23 36
REMARK SMILES IDX 82 37 24 38 25 39 26 40 76 41 27 42 81 43 75 44 77 45 28 46
REMARK SMILES IDX 80 47 74 48 73 49 29 51 61 52 41 53 60 54 42 55 45 56 59 57
REMARK SMILES IDX 78 58 43 59 44 60 58 62 79 63 46 64 30 65 31 66 39 67 32 68
REMARK SMILES IDX 34 69 40 70 33 71 35 72 36 73 37 74 38 75 62 76 63 77 71 78
REMARK SMILES IDX 64 79 66 80 72 81 65 82 67 83 68 84 69 85 70 86 47 87 48 88
REMARK SMILES IDX 56 89 49 90 51 91 57 92 50 93 52 94 53 95 54 96 55 97
REMARK H PARENT 13 6 6 11 84 23 18 31 77 50 45 61
REMARK Flexibility Score: inf
ROOT
ATOM      1  C   UNL A   1      32.241  29.935  27.060  1.00  0.00     0.023 C 
ENDROOT
BRANCH   1   2
ATOM      2  C   UNL A   1      31.615  30.159  25.667  1.00  0.00     0.116 C 
BRANCH   2   3
ATOM      3  N   UNL A   1      32.427  29.722  24.546  1.00  0.00    -0.351 N 
ATOM      4  C   UNL A   1      32.519  28.570  23.830  1.00  0.00     0.278 C 
ATOM      5  O   UNL A   1      33.182  28.674  22.789  1.00  0.00    -0.268 OA
ATOM      6  H   UNL A   1      33.051  30.417  24.235  1.00  0.00     0.163 HD
BRANCH   4   7
ATOM      7  C   UNL A   1      31.806  27.230  24.231  1.00  0.00     0.283 C 
BRANCH   7   8
ATOM      8  C   UNL A   1      30.328  27.385  24.660  1.00  0.00     0.175 C 
BRANCH   8   9
ATOM      9  C   UNL A   1      29.191  26.834  23.839  1.00  0.00     0.230 C 
ATOM     10  N   UNL A   1      28.326  27.608  23.127  1.00  0.00    -0.326 N 
ATOM     11  H   UNL A   1      27.629  27.097  22.656  1.00  0.00     0.169 HD
ATOM     12  O   UNL A   1      29.001  25.611  23.841  1.00  0.00    -0.274 OA
BRANCH  10  13
ATOM     13  C   UNL A   1      28.237  28.999  22.935  1.00  0.00     0.041 A 
ATOM     14  C   UNL A   1      28.783  33.260  23.023  1.00  0.00     0.044 C 
ATOM     15  C   UNL A   1      28.531  31.791  22.868  1.00  0.00    -0.051 A 
ATOM     16  C   UNL A   1      27.430  31.208  23.497  1.00  0.00     0.005 A 
ATOM     17  C   UNL A   1      29.406  30.976  22.150  1.00  0.00     0.005 A 
ATOM     18  C   UNL A   1      27.280  29.820  23.522  1.00  0.00     0.026 A 
ATOM     19  C   UNL A   1      29.241  29.589  22.158  1.00  0.00     0.026 A 
ENDBRANCH  10  13
ENDBRANCH   8   9
ENDBRANCH   7   8
BRANCH   7  20
ATOM     20  N   UNL A   1      32.607  26.544  25.308  1.00  0.00    -0.320 N 
ATOM     21  C   UNL A   1      33.975  26.141  24.908  1.00  0.00     0.291 C 
ATOM     22  C   UNL A   1      32.004  25.477  26.123  1.00  0.00     0.291 C 
ATOM     23  H   UNL A   1      32.633  27.342  25.942  1.00  0.00     0.348 HD
ATOM     24  C   UNL A   1      34.088  24.696  24.392  1.00  0.00     0.221 C 
ATOM     25  C   UNL A   1      32.170  24.056  25.573  1.00  0.00     0.221 C 
ATOM     26  O   UNL A   1      33.543  23.754  25.324  1.00  0.00    -0.370 OA
ENDBRANCH   7  20
ENDBRANCH   4   7
ENDBRANCH   2   3
ENDBRANCH   1   2
BRANCH   1  27
ATOM     27  C   UNL A   1      33.244  30.975  27.563  1.00  0.00     0.023 C 
BRANCH  27  28
ATOM     28  C   UNL A   1      34.698  30.664  27.253  1.00  0.00     0.116 C 
BRANCH  28  29
ATOM     29  N   UNL A   1      35.635  31.617  27.842  1.00  0.00    -0.352 N 
ATOM     30  C   UNL A   1      36.862  31.370  28.447  1.00  0.00     0.251 C 
ATOM     31  H   UNL A   1      35.362  32.562  27.805  1.00  0.00     0.163 HD
ATOM     32  O   UNL A   1      37.467  32.267  29.006  1.00  0.00    -0.269 OA
BRANCH  30  33
ATOM     33  C   UNL A   1      37.442  30.015  28.300  1.00  0.00     0.039 A 
ATOM     34  C   UNL A   1      37.410  29.172  29.416  1.00  0.00     0.014 A 
ATOM     35  C   UNL A   1      38.267  29.740  27.215  1.00  0.00     0.014 A 
ATOM     36  C   UNL A   1      38.405  28.211  29.565  1.00  0.00     0.010 A 
ATOM     37  C   UNL A   1      39.309  28.860  27.403  1.00  0.00     0.010 A 
ATOM     38  C   UNL A   1      39.413  28.153  28.606  1.00  0.00    -0.014 A 
BRANCH  38  39
ATOM     39  C   UNL A   1      40.659  27.431  28.779  1.00  0.00     0.031 A 
ATOM     40  C   UNL A   1      40.698  25.979  28.554  1.00  0.00     0.074 A 
ATOM     41  C   UNL A   1      41.799  28.129  28.973  1.00  0.00     0.049 A 
ATOM     42  N   UNL A   1      41.591  25.197  29.053  1.00  0.00    -0.248 NA
ATOM     43  C   UNL A   1      39.703  25.299  27.734  1.00  0.00     0.031 C 
ATOM     44  C   UNL A   1      43.165  27.651  28.801  1.00  0.00     0.029 A 
ATOM     45  N   UNL A   1      41.946  29.382  29.576  1.00  0.00    -0.354 N 
ATOM     46  C   UNL A   1      41.475  23.994  28.395  1.00  0.00     0.074 A 
ATOM     47  C   UNL A   1      40.238  24.078  27.651  1.00  0.00     0.031 C 
ATOM     48  C   UNL A   1      43.987  28.433  29.518  1.00  0.00     0.029 A 
ATOM     49  C   UNL A   1      43.148  29.322  30.303  1.00  0.00     0.049 A 
ATOM     50  H   UNL A   1      41.334  30.149  29.504  1.00  0.00     0.167 HD
ATOM     51  C   UNL A   1      42.525  23.126  28.387  1.00  0.00     0.034 A 
ATOM     52  C   UNL A   1      43.222  29.494  31.655  1.00  0.00     0.034 A 
ATOM     53  C   UNL A   1      43.662  23.660  29.145  1.00  0.00     0.049 A 
ATOM     54  C   UNL A   1      43.827  28.302  32.376  1.00  0.00     0.074 A 
ATOM     55  C   UNL A   1      44.810  24.338  28.763  1.00  0.00     0.029 A 
ATOM     56  N   UNL A   1      43.563  23.809  30.523  1.00  0.00    -0.354 N 
ATOM     57  N   UNL A   1      44.120  27.165  31.806  1.00  0.00    -0.248 NA
ATOM     58  C   UNL A   1      44.125  28.285  33.805  1.00  0.00     0.031 C 
ATOM     59  C   UNL A   1      45.376  24.940  29.918  1.00  0.00     0.029 A 
ATOM     60  C   UNL A   1      44.584  24.614  31.006  1.00  0.00     0.049 A 
ATOM     61  H   UNL A   1      42.863  23.398  31.081  1.00  0.00     0.167 HD
ATOM     62  C   UNL A   1      44.503  26.243  32.750  1.00  0.00     0.074 A 
ATOM     63  C   UNL A   1      44.568  27.026  33.973  1.00  0.00     0.031 C 
ATOM     64  C   UNL A   1      44.670  24.917  32.433  1.00  0.00     0.034 A 
BRANCH  51  65
ATOM     65  C   UNL A   1      42.632  22.006  27.373  1.00  0.00     0.023 A 
ATOM     66  C   UNL A   1      41.927  20.811  27.634  1.00  0.00     0.012 A 
ATOM     67  C   UNL A   1      43.444  22.014  26.217  1.00  0.00     0.148 A 
ATOM     68  C   UNL A   1      42.108  19.653  26.872  1.00  0.00     0.002 A 
ATOM     69  C   UNL A   1      43.689  20.836  25.504  1.00  0.00     0.091 A 
ATOM     70  F   UNL A   1      43.940  23.176  25.769  1.00  0.00    -0.205 F 
ATOM     71  C   UNL A   1      43.024  19.652  25.834  1.00  0.00     0.022 A 
BRANCH  69  72
ATOM     72  S   UNL A   1      44.968  20.735  24.239  1.00  0.00     0.127 S 
ATOM     73  O   UNL A   1      46.166  21.167  24.965  1.00  0.00    -0.237 OA
ATOM     74  O   UNL A   1      44.955  19.319  23.883  1.00  0.00    -0.237 OA
ATOM     75  O   UNL A   1      44.552  21.662  23.193  1.00  0.00    -0.744 OA
ENDBRANCH  69  72
ENDBRANCH  51  65
BRANCH  52  76
ATOM     76  C   UNL A   1      42.166  30.404  32.193  1.00  0.00     0.023 A 
ATOM     77  C   UNL A   1      42.158  31.731  31.694  1.00  0.00     0.012 A 
ATOM     78  C   UNL A   1      41.008  29.909  32.814  1.00  0.00     0.148 A 
ATOM     79  C   UNL A   1      40.984  32.484  31.671  1.00  0.00     0.002 A 
ATOM     80  C   UNL A   1      39.841  30.676  32.799  1.00  0.00     0.091 A 
ATOM     81  F   UNL A   1      41.034  28.676  33.334  1.00  0.00    -0.205 F 
ATOM     82  C   UNL A   1      39.816  31.940  32.188  1.00  0.00     0.022 A 
BRANCH  80  83
ATOM     83  S   UNL A   1      38.293  30.030  33.448  1.00  0.00     0.127 S 
ATOM     84  O   UNL A   1      37.325  30.958  32.870  1.00  0.00    -0.237 OA
ATOM     85  O   UNL A   1      38.256  28.678  32.892  1.00  0.00    -0.237 OA
ATOM     86  O   UNL A   1      38.456  30.075  34.894  1.00  0.00    -0.744 OA
ENDBRANCH  80  83
ENDBRANCH  52  76
BRANCH  64  87
ATOM     87  C   UNL A   1      44.909  23.757  33.400  1.00  0.00     0.023 A 
ATOM     88  C   UNL A   1      43.917  22.818  33.737  1.00  0.00     0.012 A 
ATOM     89  C   UNL A   1      46.209  23.498  33.923  1.00  0.00     0.148 A 
ATOM     90  C   UNL A   1      44.182  21.709  34.552  1.00  0.00     0.002 A 
ATOM     91  C   UNL A   1      46.494  22.334  34.635  1.00  0.00     0.091 A 
ATOM     92  F   UNL A   1      47.190  24.399  33.768  1.00  0.00    -0.205 F 
ATOM     93  C   UNL A   1      45.476  21.448  34.976  1.00  0.00     0.022 A 
BRANCH  91  94
ATOM     94  S   UNL A   1      48.191  21.862  35.004  1.00  0.00     0.127 S 
ATOM     95  O   UNL A   1      48.048  20.446  35.334  1.00  0.00    -0.237 OA
ATOM     96  O   UNL A   1      48.872  22.125  33.734  1.00  0.00    -0.237 OA
ATOM     97  O   UNL A   1      48.598  22.742  36.090  1.00  0.00    -0.744 OA
ENDBRANCH  91  94
ENDBRANCH  64  87
ENDBRANCH  38  39
ENDBRANCH  30  33
ENDBRANCH  28  29
ENDBRANCH  27  28
ENDBRANCH   1  27
TORSDOF 18
ENDMDL
MODEL 3
REMARK VINA RESULT:     -12.7      0.898      1.993
REMARK SMILES Cc1ccc(NC(=O)C[C@@H](C(=O)NCCCCNC(=O)c2ccc(-c3c4nc(c(-c5cccc(S(=O)(=O)[O-])c5F)c5ccc([nH]5)c(-c5cccc(S(=O)(=O)[O-])c5F)c5nc(c(-c6cccc(S(=O)(=O)[O-])c6F)c6ccc3[nH]6)C=C5)C=C4)cc2)[NH+]2CCOCC2)cc1
REMARK SMILES IDX 15 1 14 2 13 3 11 4 12 5 10 7 9 8 7 9 6 10 8 12 5 13 1 14
REMARK SMILES IDX 2 15 3 16 91 17 4 18 90 19 84 20 85 21 89 22 86 24 88 25
REMARK SMILES IDX 87 26 16 27 17 28 18 29 19 30 20 32 21 33 22 34 83 35 23 36
REMARK SMILES IDX 82 37 24 38 25 39 26 40 76 41 27 42 81 43 75 44 77 45 28 46
REMARK SMILES IDX 80 47 74 48 73 49 29 51 61 52 41 53 60 54 42 55 45 56 59 57
REMARK SMILES IDX 78 58 43 59 44 60 58 62 79 63 46 64 30 65 31 66 39 67 32 68
REMARK SMILES IDX 34 69 40 70 33 71 35 72 36 73 37 74 38 75 62 76 63 77 71 78
REMARK SMILES IDX 64 79 66 80 72 81 65 82 67 83 68 84 69 85 70 86 47 87 48 88
REMARK SMILES IDX 56 89 49 90 51 91 57 92 50 93 52 94 53 95 54 96 55 97
REMARK H PARENT 13 6 6 11 84 23 18 31 77 50 45 61
REMARK Flexibility Score: inf
ROOT
ATOM      1  C   UNL A   1      31.863  30.182  26.004  1.00  0.00     0.023 C 
ENDROOT
BRANCH   1   2
ATOM      2  C   UNL A   1      32.641  29.606  24.801  1.00  0.00     0.116 C 
BRANCH   2   3
ATOM      3  N   UNL A   1      31.824  29.214  23.667  1.00  0.00    -0.351 N 
ATOM      4  C   UNL A   1      31.427  28.022  23.147  1.00  0.00     0.278 C 
ATOM      5  O   UNL A   1      30.533  28.115  22.295  1.00  0.00    -0.268 OA
ATOM      6  H   UNL A   1      31.480  29.985  23.161  1.00  0.00     0.163 HD
BRANCH   4   7
ATOM      7  C   UNL A   1      31.992  26.633  23.612  1.00  0.00     0.283 C 
BRANCH   7   8
ATOM      8  C   UNL A   1      31.719  25.462  22.640  1.00  0.00     0.175 C 
BRANCH   8   9
ATOM      9  C   UNL A   1      32.765  24.951  21.683  1.00  0.00     0.230 C 
ATOM     10  N   UNL A   1      33.331  23.714  21.768  1.00  0.00    -0.326 N 
ATOM     11  H   UNL A   1      34.009  23.539  21.078  1.00  0.00     0.169 HD
ATOM     12  O   UNL A   1      33.170  25.708  20.792  1.00  0.00    -0.274 OA
BRANCH  10  13
ATOM     13  C   UNL A   1      33.131  22.641  22.655  1.00  0.00     0.041 A 
ATOM     14  C   UNL A   1      33.374  18.969  24.875  1.00  0.00     0.044 C 
ATOM     15  C   UNL A   1      33.219  20.303  24.209  1.00  0.00    -0.051 A 
ATOM     16  C   UNL A   1      32.203  20.494  23.271  1.00  0.00     0.005 A 
ATOM     17  C   UNL A   1      34.105  21.350  24.466  1.00  0.00     0.005 A 
ATOM     18  C   UNL A   1      32.156  21.660  22.505  1.00  0.00     0.026 A 
ATOM     19  C   UNL A   1      34.040  22.525  23.713  1.00  0.00     0.026 A 
ENDBRANCH  10  13
ENDBRANCH   8   9
ENDBRANCH   7   8
BRANCH   7  20
ATOM     20  N   UNL A   1      31.466  26.319  24.990  1.00  0.00    -0.320 N 
ATOM     21  C   UNL A   1      32.503  26.163  26.035  1.00  0.00     0.291 C 
ATOM     22  C   UNL A   1      30.428  25.292  25.177  1.00  0.00     0.291 C 
ATOM     23  H   UNL A   1      30.957  27.195  25.109  1.00  0.00     0.348 HD
ATOM     24  C   UNL A   1      32.965  24.713  26.263  1.00  0.00     0.221 C 
ATOM     25  C   UNL A   1      30.946  23.870  25.425  1.00  0.00     0.221 C 
ATOM     26  O   UNL A   1      31.861  23.837  26.521  1.00  0.00    -0.370 OA
ENDBRANCH   7  20
ENDBRANCH   4   7
ENDBRANCH   2   3
ENDBRANCH   1   2
BRANCH   1  27
ATOM     27  C   UNL A   1      32.613  31.121  26.950  1.00  0.00     0.023 C 
BRANCH  27  28
ATOM     28  C   UNL A   1      33.937  30.586  27.468  1.00  0.00     0.116 C 
BRANCH  28  29
ATOM     29  N   UNL A   1      34.823  31.625  27.988  1.00  0.00    -0.352 N 
ATOM     30  C   UNL A   1      36.085  31.489  28.554  1.00  0.00     0.251 C 
ATOM     31  H   UNL A   1      34.479  32.545  27.930  1.00  0.00     0.163 HD
ATOM     32  O   UNL A   1      36.642  32.447  29.058  1.00  0.00    -0.269 OA
BRANCH  30  33
ATOM     33  C   UNL A   1      36.757  30.174  28.431  1.00  0.00     0.039 A 
ATOM     34  C   UNL A   1      36.884  29.400  29.589  1.00  0.00     0.014 A 
ATOM     35  C   UNL A   1      37.510  29.897  27.295  1.00  0.00     0.014 A 
ATOM     36  C   UNL A   1      37.961  28.528  29.703  1.00  0.00     0.010 A 
ATOM     37  C   UNL A   1      38.630  29.111  27.439  1.00  0.00     0.010 A 
ATOM     38  C   UNL A   1      38.888  28.487  28.665  1.00  0.00    -0.014 A 
BRANCH  38  39
ATOM     39  C   UNL A   1      40.198  27.872  28.768  1.00  0.00     0.031 A 
ATOM     40  C   UNL A   1      40.341  26.423  28.570  1.00  0.00     0.074 A 
ATOM     41  C   UNL A   1      41.288  28.664  28.871  1.00  0.00     0.049 A 
ATOM     42  N   UNL A   1      41.326  25.728  29.023  1.00  0.00    -0.248 NA
ATOM     43  C   UNL A   1      39.354  25.644  27.833  1.00  0.00     0.031 C 
ATOM     44  C   UNL A   1      42.674  28.293  28.617  1.00  0.00     0.029 A 
ATOM     45  N   UNL A   1      41.370  29.940  29.437  1.00  0.00    -0.354 N 
ATOM     46  C   UNL A   1      41.266  24.503  28.399  1.00  0.00     0.074 A 
ATOM     47  C   UNL A   1      39.980  24.469  27.738  1.00  0.00     0.031 C 
ATOM     48  C   UNL A   1      43.474  29.157  29.260  1.00  0.00     0.029 A 
ATOM     49  C   UNL A   1      42.619  29.995  30.082  1.00  0.00     0.049 A 
ATOM     50  H   UNL A   1      40.694  30.654  29.391  1.00  0.00     0.167 HD
ATOM     51  C   UNL A   1      42.381  23.723  28.338  1.00  0.00     0.034 A 
ATOM     52  C   UNL A   1      42.766  30.207  31.422  1.00  0.00     0.034 A 
ATOM     53  C   UNL A   1      43.517  24.365  29.007  1.00  0.00     0.049 A 
ATOM     54  C   UNL A   1      43.513  29.086  32.125  1.00  0.00     0.074 A 
ATOM     55  C   UNL A   1      44.578  25.123  28.535  1.00  0.00     0.029 A 
ATOM     56  N   UNL A   1      43.497  24.541  30.385  1.00  0.00    -0.354 N 
ATOM     57  N   UNL A   1      43.860  27.963  31.559  1.00  0.00    -0.248 NA
ATOM     58  C   UNL A   1      43.904  29.130  33.531  1.00  0.00     0.031 C 
ATOM     59  C   UNL A   1      45.167  25.798  29.637  1.00  0.00     0.029 A 
ATOM     60  C   UNL A   1      44.478  25.437  30.782  1.00  0.00     0.049 A 
ATOM     61  H   UNL A   1      42.871  24.090  30.997  1.00  0.00     0.167 HD
ATOM     62  C   UNL A   1      44.378  27.099  32.494  1.00  0.00     0.074 A 
ATOM     63  C   UNL A   1      44.459  27.915  33.694  1.00  0.00     0.031 C 
ATOM     64  C   UNL A   1      44.633  25.783  32.194  1.00  0.00     0.034 A 
BRANCH  51  65
ATOM     65  C   UNL A   1      42.513  22.589  27.342  1.00  0.00     0.023 A 
ATOM     66  C   UNL A   1      41.809  21.394  27.606  1.00  0.00     0.012 A 
ATOM     67  C   UNL A   1      43.346  22.586  26.201  1.00  0.00     0.148 A 
ATOM     68  C   UNL A   1      42.011  20.226  26.865  1.00  0.00     0.002 A 
ATOM     69  C   UNL A   1      43.610  21.400  25.509  1.00  0.00     0.091 A 
ATOM     70  F   UNL A   1      43.843  23.745  25.745  1.00  0.00    -0.205 F 
ATOM     71  C   UNL A   1      42.946  20.216  25.843  1.00  0.00     0.022 A 
BRANCH  69  72
ATOM     72  S   UNL A   1      44.912  21.289  24.269  1.00  0.00     0.127 S 
ATOM     73  O   UNL A   1      44.574  22.385  23.357  1.00  0.00    -0.237 OA
ATOM     74  O   UNL A   1      46.123  21.508  25.055  1.00  0.00    -0.237 OA
ATOM     75  O   UNL A   1      44.767  19.966  23.671  1.00  0.00    -0.744 OA
ENDBRANCH  69  72
ENDBRANCH  51  65
BRANCH  52  76
ATOM     76  C   UNL A   1      41.677  31.044  32.013  1.00  0.00     0.023 A 
ATOM     77  C   UNL A   1      41.460  32.313  31.419  1.00  0.00     0.012 A 
ATOM     78  C   UNL A   1      40.659  30.484  32.802  1.00  0.00     0.148 A 
ATOM     79  C   UNL A   1      40.211  32.931  31.479  1.00  0.00     0.002 A 
ATOM     80  C   UNL A   1      39.417  31.117  32.868  1.00  0.00     0.091 A 
ATOM     81  F   UNL A   1      40.885  29.311  33.407  1.00  0.00    -0.205 F 
ATOM     82  C   UNL A   1      39.178  32.312  32.171  1.00  0.00     0.022 A 
BRANCH  80  83
ATOM     83  S   UNL A   1      38.035  30.369  33.743  1.00  0.00     0.127 S 
ATOM     84  O   UNL A   1      37.985  29.044  33.131  1.00  0.00    -0.237 OA
ATOM     85  O   UNL A   1      38.493  30.386  35.131  1.00  0.00    -0.237 OA
ATOM     86  O   UNL A   1      36.911  31.254  33.476  1.00  0.00    -0.744 OA
ENDBRANCH  80  83
ENDBRANCH  52  76
BRANCH  64  87
ATOM     87  C   UNL A   1      45.028  24.671  33.165  1.00  0.00     0.023 A 
ATOM     88  C   UNL A   1      44.221  23.548  33.421  1.00  0.00     0.012 A 
ATOM     89  C   UNL A   1      46.314  24.661  33.779  1.00  0.00     0.148 A 
ATOM     90  C   UNL A   1      44.642  22.494  34.244  1.00  0.00     0.002 A 
ATOM     91  C   UNL A   1      46.773  23.560  34.500  1.00  0.00     0.091 A 
ATOM     92  F   UNL A   1      47.106  25.741  33.703  1.00  0.00    -0.205 F 
ATOM     93  C   UNL A   1      45.929  22.483  34.759  1.00  0.00     0.022 A 
BRANCH  91  94
ATOM     94  S   UNL A   1      48.500  23.422  34.987  1.00  0.00     0.127 S 
ATOM     95  O   UNL A   1      48.587  22.028  35.411  1.00  0.00    -0.237 OA
ATOM     96  O   UNL A   1      49.203  23.725  33.738  1.00  0.00    -0.237 OA
ATOM     97  O   UNL A   1      48.679  24.427  36.027  1.00  0.00    -0.744 OA
ENDBRANCH  91  94
ENDBRANCH  64  87
ENDBRANCH  38  39
ENDBRANCH  30  33
ENDBRANCH  28  29
ENDBRANCH  27  28
ENDBRANCH   1  27
TORSDOF 18
ENDMDL
