MODEL 1
REMARK VINA RESULT:     -12.1      0.000      0.000
REMARK SMILES C[C@@H](CC(=O)NCCCCNC(=O)c1ccc(-c2c3nc(c(-c4cccc(S(=O)(=O)[O-])c4F)c4ccc([nH]4)c(-c4cccc(S(=O)(=O)[O-])c4F)c4nc(c(-c5cccc(S(=O)(=O)[O-])c5F)c5ccc2[nH]5)C=C4)C=C3)cc1)Cc1nnc(C2C(C)(C)C2(C)C)o1
REMARK SMILES IDX 8 1 7 2 6 3 4 4 5 5 3 7 2 8 1 9 77 10 78 11 79 12 89 13
REMARK SMILES IDX 80 14 81 15 82 16 83 17 86 18 84 19 85 20 87 21 88 22 9 23
REMARK SMILES IDX 10 24 11 25 12 26 13 28 14 29 15 30 76 31 16 32 75 33 17 34
REMARK SMILES IDX 18 35 19 36 69 37 20 38 74 39 68 40 70 41 21 42 73 43 67 44
REMARK SMILES IDX 66 45 22 47 54 48 34 49 53 50 35 51 38 52 52 53 71 54 36 55
REMARK SMILES IDX 37 56 51 58 72 59 39 60 23 61 24 62 32 63 25 64 27 65 33 66
REMARK SMILES IDX 26 67 28 68 29 69 30 70 31 71 55 72 56 73 64 74 57 75 59 76
REMARK SMILES IDX 65 77 58 78 60 79 61 80 62 81 63 82 40 83 41 84 49 85 42 86
REMARK SMILES IDX 44 87 50 88 43 89 45 90 46 91 47 92 48 93
REMARK H PARENT 6 6 11 27 70 46 38 57
REMARK Flexibility Score: inf
ROOT
ATOM      1  C   UNL A   1      32.110  30.268  26.662  1.00  0.00     0.023 C 
ENDROOT
BRANCH   1   2
ATOM      2  C   UNL A   1      32.676  29.937  25.281  1.00  0.00     0.116 C 
BRANCH   2   3
ATOM      3  N   UNL A   1      31.616  29.723  24.317  1.00  0.00    -0.356 N 
ATOM      4  C   UNL A   1      31.108  28.560  23.831  1.00  0.00     0.220 C 
ATOM      5  O   UNL A   1      30.253  28.606  22.946  1.00  0.00    -0.275 OA
ATOM      6  H   UNL A   1      31.203  30.541  23.960  1.00  0.00     0.163 HD
BRANCH   4   7
ATOM      7  C   UNL A   1      31.588  27.222  24.362  1.00  0.00     0.103 C 
BRANCH   7   8
ATOM      8  C   UNL A   1      30.819  26.628  25.559  1.00  0.00     0.004 C 
ATOM      9  C   UNL A   1      31.514  26.933  26.897  1.00  0.00     0.009 C 
BRANCH   8  10
ATOM     10  C   UNL A   1      30.436  25.136  25.377  1.00  0.00     0.103 C 
BRANCH  10  11
ATOM     11  C   UNL A   1      31.353  24.242  26.124  1.00  0.00     0.216 A 
ATOM     12  N   UNL A   1      31.197  23.711  27.316  1.00  0.00    -0.113 NA
ATOM     13  O   UNL A   1      32.375  23.673  25.419  1.00  0.00    -0.425 OA
ATOM     14  N   UNL A   1      32.107  22.682  27.399  1.00  0.00    -0.113 NA
ATOM     15  C   UNL A   1      32.762  22.660  26.254  1.00  0.00     0.220 A 
BRANCH  15  16
ATOM     16  C   UNL A   1      33.710  21.530  25.891  1.00  0.00     0.090 C 
ATOM     17  C   UNL A   1      33.461  20.692  24.625  1.00  0.00    -0.017 C 
ATOM     18  C   UNL A   1      34.701  21.581  24.735  1.00  0.00    -0.017 C 
ATOM     19  C   UNL A   1      33.558  19.190  24.812  1.00  0.00     0.012 C 
ATOM     20  C   UNL A   1      32.395  21.037  23.604  1.00  0.00     0.012 C 
ATOM     21  C   UNL A   1      34.841  22.853  23.929  1.00  0.00     0.012 C 
ATOM     22  C   UNL A   1      36.046  20.916  24.958  1.00  0.00     0.012 C 
ENDBRANCH  15  16
ENDBRANCH  10  11
ENDBRANCH   8  10
ENDBRANCH   7   8
ENDBRANCH   4   7
ENDBRANCH   2   3
ENDBRANCH   1   2
BRANCH   1  23
ATOM     23  C   UNL A   1      31.774  31.739  26.888  1.00  0.00     0.023 C 
BRANCH  23  24
ATOM     24  C   UNL A   1      32.908  32.583  27.452  1.00  0.00     0.116 C 
BRANCH  24  25
ATOM     25  N   UNL A   1      32.534  33.972  27.695  1.00  0.00    -0.352 N 
ATOM     26  C   UNL A   1      33.075  34.857  28.598  1.00  0.00     0.251 C 
ATOM     27  H   UNL A   1      31.800  34.322  27.141  1.00  0.00     0.163 HD
ATOM     28  O   UNL A   1      32.585  35.973  28.744  1.00  0.00    -0.269 OA
BRANCH  26  29
ATOM     29  C   UNL A   1      34.229  34.433  29.418  1.00  0.00     0.039 A 
ATOM     30  C   UNL A   1      33.998  33.817  30.649  1.00  0.00     0.014 A 
ATOM     31  C   UNL A   1      35.532  34.590  28.937  1.00  0.00     0.014 A 
ATOM     32  C   UNL A   1      35.073  33.284  31.364  1.00  0.00     0.010 A 
ATOM     33  C   UNL A   1      36.588  33.988  29.610  1.00  0.00     0.010 A 
ATOM     34  C   UNL A   1      36.371  33.331  30.830  1.00  0.00    -0.014 A 
BRANCH  34  35
ATOM     35  C   UNL A   1      37.521  32.697  31.523  1.00  0.00     0.031 A 
ATOM     36  C   UNL A   1      38.238  31.540  30.881  1.00  0.00     0.074 A 
ATOM     37  C   UNL A   1      37.847  33.087  32.772  1.00  0.00     0.049 A 
ATOM     38  N   UNL A   1      39.198  30.796  31.362  1.00  0.00    -0.248 NA
ATOM     39  C   UNL A   1      37.791  31.144  29.534  1.00  0.00     0.031 C 
ATOM     40  C   UNL A   1      37.168  34.134  33.538  1.00  0.00     0.029 A 
ATOM     41  N   UNL A   1      38.816  32.627  33.628  1.00  0.00    -0.354 N 
ATOM     42  C   UNL A   1      39.438  29.820  30.403  1.00  0.00     0.074 A 
ATOM     43  C   UNL A   1      38.499  30.044  29.326  1.00  0.00     0.031 C 
ATOM     44  C   UNL A   1      37.743  34.239  34.747  1.00  0.00     0.029 A 
ATOM     45  C   UNL A   1      38.815  33.254  34.853  1.00  0.00     0.049 A 
ATOM     46  H   UNL A   1      39.451  31.914  33.389  1.00  0.00     0.167 HD
ATOM     47  C   UNL A   1      40.381  28.848  30.398  1.00  0.00     0.034 A 
ATOM     48  C   UNL A   1      39.592  33.059  35.936  1.00  0.00     0.034 A 
ATOM     49  C   UNL A   1      41.359  28.675  31.436  1.00  0.00     0.049 A 
ATOM     50  C   UNL A   1      40.681  32.021  35.874  1.00  0.00     0.074 A 
ATOM     51  C   UNL A   1      42.420  27.788  31.478  1.00  0.00     0.029 A 
ATOM     52  N   UNL A   1      41.401  29.407  32.612  1.00  0.00    -0.354 N 
ATOM     53  N   UNL A   1      41.001  31.218  34.888  1.00  0.00    -0.248 NA
ATOM     54  C   UNL A   1      41.543  31.889  37.058  1.00  0.00     0.031 C 
ATOM     55  C   UNL A   1      43.103  27.982  32.685  1.00  0.00     0.029 A 
ATOM     56  C   UNL A   1      42.470  28.995  33.388  1.00  0.00     0.049 A 
ATOM     57  H   UNL A   1      40.764  30.115  32.859  1.00  0.00     0.167 HD
ATOM     58  C   UNL A   1      42.117  30.511  35.318  1.00  0.00     0.074 A 
ATOM     59  C   UNL A   1      42.433  30.996  36.646  1.00  0.00     0.031 C 
ATOM     60  C   UNL A   1      42.807  29.534  34.681  1.00  0.00     0.034 A 
BRANCH  47  61
ATOM     61  C   UNL A   1      40.445  27.946  29.194  1.00  0.00     0.023 A 
ATOM     62  C   UNL A   1      39.545  26.865  29.094  1.00  0.00     0.012 A 
ATOM     63  C   UNL A   1      41.355  28.188  28.146  1.00  0.00     0.148 A 
ATOM     64  C   UNL A   1      39.572  26.017  27.989  1.00  0.00     0.002 A 
ATOM     65  C   UNL A   1      41.348  27.363  27.027  1.00  0.00     0.091 A 
ATOM     66  F   UNL A   1      42.219  29.206  28.270  1.00  0.00    -0.205 F 
ATOM     67  C   UNL A   1      40.465  26.272  26.952  1.00  0.00     0.022 A 
BRANCH  65  68
ATOM     68  S   UNL A   1      42.409  27.650  25.607  1.00  0.00     0.127 S 
ATOM     69  O   UNL A   1      43.734  27.657  26.225  1.00  0.00    -0.237 OA
ATOM     70  O   UNL A   1      42.133  26.482  24.771  1.00  0.00    -0.237 OA
ATOM     71  O   UNL A   1      41.976  28.918  25.035  1.00  0.00    -0.744 OA
ENDBRANCH  65  68
ENDBRANCH  47  61
BRANCH  48  72
ATOM     72  C   UNL A   1      39.428  33.924  37.137  1.00  0.00     0.023 A 
ATOM     73  C   UNL A   1      39.861  35.264  37.080  1.00  0.00     0.012 A 
ATOM     74  C   UNL A   1      38.824  33.448  38.316  1.00  0.00     0.148 A 
ATOM     75  C   UNL A   1      39.723  36.105  38.184  1.00  0.00     0.002 A 
ATOM     76  C   UNL A   1      38.644  34.306  39.396  1.00  0.00     0.091 A 
ATOM     77  F   UNL A   1      38.432  32.167  38.358  1.00  0.00    -0.205 F 
ATOM     78  C   UNL A   1      39.106  35.630  39.338  1.00  0.00     0.022 A 
BRANCH  76  79
ATOM     79  S   UNL A   1      37.747  33.812  40.873  1.00  0.00     0.127 S 
ATOM     80  O   UNL A   1      38.699  32.910  41.514  1.00  0.00    -0.237 OA
ATOM     81  O   UNL A   1      37.555  35.093  41.557  1.00  0.00    -0.237 OA
ATOM     82  O   UNL A   1      36.515  33.204  40.391  1.00  0.00    -0.744 OA
ENDBRANCH  76  79
ENDBRANCH  48  72
BRANCH  60  83
ATOM     83  C   UNL A   1      43.991  28.936  35.392  1.00  0.00     0.023 A 
ATOM     84  C   UNL A   1      45.263  29.523  35.238  1.00  0.00     0.012 A 
ATOM     85  C   UNL A   1      43.830  27.851  36.275  1.00  0.00     0.148 A 
ATOM     86  C   UNL A   1      46.362  29.023  35.934  1.00  0.00     0.002 A 
ATOM     87  C   UNL A   1      44.922  27.386  36.999  1.00  0.00     0.091 A 
ATOM     88  F   UNL A   1      42.616  27.293  36.392  1.00  0.00    -0.205 F 
ATOM     89  C   UNL A   1      46.190  27.964  36.823  1.00  0.00     0.022 A 
BRANCH  87  90
ATOM     90  S   UNL A   1      44.770  26.089  38.233  1.00  0.00     0.127 S 
ATOM     91  O   UNL A   1      46.141  25.984  38.727  1.00  0.00    -0.237 OA
ATOM     92  O   UNL A   1      43.823  26.671  39.185  1.00  0.00    -0.237 OA
ATOM     93  O   UNL A   1      44.265  24.922  37.523  1.00  0.00    -0.744 OA
ENDBRANCH  87  90
ENDBRANCH  60  83
ENDBRANCH  34  35
ENDBRANCH  26  29
ENDBRANCH  24  25
ENDBRANCH  23  24
ENDBRANCH   1  23
TORSDOF 18
ENDMDL
MODEL 2
REMARK VINA RESULT:     -12.0      6.185     11.620
REMARK SMILES C[C@@H](CC(=O)NCCCCNC(=O)c1ccc(-c2c3nc(c(-c4cccc(S(=O)(=O)[O-])c4F)c4ccc([nH]4)c(-c4cccc(S(=O)(=O)[O-])c4F)c4nc(c(-c5cccc(S(=O)(=O)[O-])c5F)c5ccc2[nH]5)C=C4)C=C3)cc1)Cc1nnc(C2C(C)(C)C2(C)C)o1
REMARK SMILES IDX 8 1 7 2 6 3 4 4 5 5 3 7 2 8 1 9 77 10 78 11 79 12 89 13
REMARK SMILES IDX 80 14 81 15 82 16 83 17 86 18 84 19 85 20 87 21 88 22 9 23
REMARK SMILES IDX 10 24 11 25 12 26 13 28 14 29 15 30 76 31 16 32 75 33 17 34
REMARK SMILES IDX 18 35 19 36 69 37 20 38 74 39 68 40 70 41 21 42 73 43 67 44
REMARK SMILES IDX 66 45 22 47 54 48 34 49 53 50 35 51 38 52 52 53 71 54 36 55
REMARK SMILES IDX 37 56 51 58 72 59 39 60 23 61 24 62 32 63 25 64 27 65 33 66
REMARK SMILES IDX 26 67 28 68 29 69 30 70 31 71 55 72 56 73 64 74 57 75 59 76
REMARK SMILES IDX 65 77 58 78 60 79 61 80 62 81 63 82 40 83 41 84 49 85 42 86
REMARK SMILES IDX 44 87 50 88 43 89 45 90 46 91 47 92 48 93
REMARK H PARENT 6 6 11 27 70 46 38 57
REMARK Flexibility Score: inf
ROOT
ATOM      1  C   UNL A   1      36.354  20.156  24.994  1.00  0.00     0.023 C 
ENDROOT
BRANCH   1   2
ATOM      2  C   UNL A   1      36.309  21.613  25.454  1.00  0.00     0.116 C 
BRANCH   2   3
ATOM      3  N   UNL A   1      35.541  21.755  26.675  1.00  0.00    -0.356 N 
ATOM      4  C   UNL A   1      34.400  22.455  26.905  1.00  0.00     0.220 C 
ATOM      5  O   UNL A   1      33.952  22.507  28.051  1.00  0.00    -0.275 OA
ATOM      6  H   UNL A   1      35.900  21.272  27.454  1.00  0.00     0.163 HD
BRANCH   4   7
ATOM      7  C   UNL A   1      33.687  23.170  25.773  1.00  0.00     0.103 C 
BRANCH   7   8
ATOM      8  C   UNL A   1      32.705  22.335  24.926  1.00  0.00     0.004 C 
ATOM      9  C   UNL A   1      32.954  22.512  23.418  1.00  0.00     0.009 C 
BRANCH   8  10
ATOM     10  C   UNL A   1      31.221  22.507  25.342  1.00  0.00     0.103 C 
BRANCH  10  11
ATOM     11  C   UNL A   1      30.928  23.899  25.760  1.00  0.00     0.216 A 
ATOM     12  N   UNL A   1      30.917  24.410  26.971  1.00  0.00    -0.113 NA
ATOM     13  O   UNL A   1      30.913  24.850  24.780  1.00  0.00    -0.425 OA
ATOM     14  N   UNL A   1      30.974  25.776  26.808  1.00  0.00    -0.113 NA
ATOM     15  C   UNL A   1      31.007  26.004  25.510  1.00  0.00     0.220 A 
BRANCH  15  16
ATOM     16  C   UNL A   1      31.278  27.388  24.943  1.00  0.00     0.090 C 
ATOM     17  C   UNL A   1      32.523  28.173  25.389  1.00  0.00    -0.017 C 
ATOM     18  C   UNL A   1      32.382  27.702  23.940  1.00  0.00    -0.017 C 
ATOM     19  C   UNL A   1      32.276  29.621  25.765  1.00  0.00     0.012 C 
ATOM     20  C   UNL A   1      33.610  27.572  26.257  1.00  0.00     0.012 C 
ATOM     21  C   UNL A   1      33.226  26.576  23.385  1.00  0.00     0.012 C 
ATOM     22  C   UNL A   1      32.065  28.733  22.875  1.00  0.00     0.012 C 
ENDBRANCH  15  16
ENDBRANCH  10  11
ENDBRANCH   8  10
ENDBRANCH   7   8
ENDBRANCH   4   7
ENDBRANCH   2   3
ENDBRANCH   1   2
BRANCH   1  23
ATOM     23  C   UNL A   1      37.754  19.566  24.852  1.00  0.00     0.023 C 
BRANCH  23  24
ATOM     24  C   UNL A   1      38.817  20.200  25.737  1.00  0.00     0.116 C 
BRANCH  24  25
ATOM     25  N   UNL A   1      39.980  19.347  25.953  1.00  0.00    -0.352 N 
ATOM     26  C   UNL A   1      41.239  19.708  26.371  1.00  0.00     0.251 C 
ATOM     27  H   UNL A   1      39.846  18.388  25.777  1.00  0.00     0.163 HD
ATOM     28  O   UNL A   1      42.141  18.876  26.417  1.00  0.00    -0.269 OA
BRANCH  26  29
ATOM     29  C   UNL A   1      41.503  21.118  26.725  1.00  0.00     0.039 A 
ATOM     30  C   UNL A   1      41.973  21.420  28.005  1.00  0.00     0.014 A 
ATOM     31  C   UNL A   1      41.346  22.127  25.772  1.00  0.00     0.014 A 
ATOM     32  C   UNL A   1      42.361  22.727  28.305  1.00  0.00     0.010 A 
ATOM     33  C   UNL A   1      41.809  23.408  26.046  1.00  0.00     0.010 A 
ATOM     34  C   UNL A   1      42.319  23.722  27.315  1.00  0.00    -0.014 A 
BRANCH  34  35
ATOM     35  C   UNL A   1      42.808  25.100  27.574  1.00  0.00     0.031 A 
ATOM     36  C   UNL A   1      41.895  26.114  28.208  1.00  0.00     0.074 A 
ATOM     37  C   UNL A   1      44.030  25.469  27.139  1.00  0.00     0.049 A 
ATOM     38  N   UNL A   1      42.101  27.385  28.431  1.00  0.00    -0.248 NA
ATOM     39  C   UNL A   1      40.558  25.644  28.612  1.00  0.00     0.031 C 
ATOM     40  C   UNL A   1      44.974  24.604  26.427  1.00  0.00     0.029 A 
ATOM     41  N   UNL A   1      44.677  26.678  27.207  1.00  0.00    -0.354 N 
ATOM     42  C   UNL A   1      40.911  27.876  28.955  1.00  0.00     0.074 A 
ATOM     43  C   UNL A   1      39.975  26.774  28.985  1.00  0.00     0.031 C 
ATOM     44  C   UNL A   1      46.078  25.308  26.129  1.00  0.00     0.029 A 
ATOM     45  C   UNL A   1      45.914  26.678  26.606  1.00  0.00     0.049 A 
ATOM     46  H   UNL A   1      44.291  27.471  27.644  1.00  0.00     0.167 HD
ATOM     47  C   UNL A   1      40.634  29.121  29.407  1.00  0.00     0.034 A 
ATOM     48  C   UNL A   1      46.815  27.669  26.459  1.00  0.00     0.034 A 
ATOM     49  C   UNL A   1      41.589  30.193  29.443  1.00  0.00     0.049 A 
ATOM     50  C   UNL A   1      46.509  29.023  27.039  1.00  0.00     0.074 A 
ATOM     51  C   UNL A   1      41.440  31.461  29.976  1.00  0.00     0.029 A 
ATOM     52  N   UNL A   1      42.875  30.122  28.930  1.00  0.00    -0.354 N 
ATOM     53  N   UNL A   1      45.439  29.423  27.683  1.00  0.00    -0.248 NA
ATOM     54  C   UNL A   1      47.550  30.054  26.908  1.00  0.00     0.031 C 
ATOM     55  C   UNL A   1      42.637  32.160  29.781  1.00  0.00     0.029 A 
ATOM     56  C   UNL A   1      43.533  31.322  29.135  1.00  0.00     0.049 A 
ATOM     57  H   UNL A   1      43.263  29.334  28.486  1.00  0.00     0.167 HD
ATOM     58  C   UNL A   1      45.690  30.736  28.062  1.00  0.00     0.074 A 
ATOM     59  C   UNL A   1      47.022  31.059  27.594  1.00  0.00     0.031 C 
ATOM     60  C   UNL A   1      44.883  31.605  28.719  1.00  0.00     0.034 A 
BRANCH  47  61
ATOM     61  C   UNL A   1      39.260  29.366  29.973  1.00  0.00     0.023 A 
ATOM     62  C   UNL A   1      38.974  28.954  31.291  1.00  0.00     0.012 A 
ATOM     63  C   UNL A   1      38.271  30.038  29.229  1.00  0.00     0.148 A 
ATOM     64  C   UNL A   1      37.716  29.174  31.848  1.00  0.00     0.002 A 
ATOM     65  C   UNL A   1      37.031  30.291  29.805  1.00  0.00     0.091 A 
ATOM     66  F   UNL A   1      38.553  30.401  27.969  1.00  0.00    -0.205 F 
ATOM     67  C   UNL A   1      36.749  29.851  31.110  1.00  0.00     0.022 A 
BRANCH  65  68
ATOM     68  S   UNL A   1      35.745  31.219  28.964  1.00  0.00     0.127 S 
ATOM     69  O   UNL A   1      34.931  31.682  30.087  1.00  0.00    -0.237 OA
ATOM     70  O   UNL A   1      36.509  32.271  28.292  1.00  0.00    -0.237 OA
ATOM     71  O   UNL A   1      35.096  30.276  28.063  1.00  0.00    -0.744 OA
ENDBRANCH  65  68
ENDBRANCH  47  61
BRANCH  48  72
ATOM     72  C   UNL A   1      48.128  27.393  25.812  1.00  0.00     0.023 A 
ATOM     73  C   UNL A   1      49.202  26.944  26.607  1.00  0.00     0.012 A 
ATOM     74  C   UNL A   1      48.316  27.538  24.425  1.00  0.00     0.148 A 
ATOM     75  C   UNL A   1      50.446  26.673  26.037  1.00  0.00     0.002 A 
ATOM     76  C   UNL A   1      49.545  27.220  23.855  1.00  0.00     0.091 A 
ATOM     77  F   UNL A   1      47.289  27.982  23.686  1.00  0.00    -0.205 F 
ATOM     78  C   UNL A   1      50.616  26.802  24.662  1.00  0.00     0.022 A 
BRANCH  76  79
ATOM     79  S   UNL A   1      49.811  27.237  22.078  1.00  0.00     0.127 S 
ATOM     80  O   UNL A   1      51.202  26.806  21.979  1.00  0.00    -0.237 OA
ATOM     81  O   UNL A   1      48.827  26.258  21.612  1.00  0.00    -0.237 OA
ATOM     82  O   UNL A   1      49.534  28.605  21.660  1.00  0.00    -0.744 OA
ENDBRANCH  76  79
ENDBRANCH  48  72
BRANCH  60  83
ATOM     83  C   UNL A   1      45.420  32.982  29.001  1.00  0.00     0.023 A 
ATOM     84  C   UNL A   1      46.098  33.228  30.212  1.00  0.00     0.012 A 
ATOM     85  C   UNL A   1      45.329  34.004  28.037  1.00  0.00     0.148 A 
ATOM     86  C   UNL A   1      46.655  34.480  30.469  1.00  0.00     0.002 A 
ATOM     87  C   UNL A   1      45.926  35.235  28.282  1.00  0.00     0.091 A 
ATOM     88  F   UNL A   1      44.662  33.756  26.900  1.00  0.00    -0.205 F 
ATOM     89  C   UNL A   1      46.581  35.477  29.500  1.00  0.00     0.022 A 
BRANCH  87  90
ATOM     90  S   UNL A   1      45.958  36.544  27.052  1.00  0.00     0.127 S 
ATOM     91  O   UNL A   1      46.884  37.500  27.656  1.00  0.00    -0.237 OA
ATOM     92  O   UNL A   1      46.480  35.854  25.872  1.00  0.00    -0.237 OA
ATOM     93  O   UNL A   1      44.581  36.999  26.920  1.00  0.00    -0.744 OA
ENDBRANCH  87  90
ENDBRANCH  60  83
ENDBRANCH  34  35
ENDBRANCH  26  29
ENDBRANCH  24  25
ENDBRANCH  23  24
ENDBRANCH   1  23
TORSDOF 18
ENDMDL
MODEL 3
REMARK VINA RESULT:     -11.9      3.620      8.848
REMARK SMILES C[C@@H](CC(=O)NCCCCNC(=O)c1ccc(-c2c3nc(c(-c4cccc(S(=O)(=O)[O-])c4F)c4ccc([nH]4)c(-c4cccc(S(=O)(=O)[O-])c4F)c4nc(c(-c5cccc(S(=O)(=O)[O-])c5F)c5ccc2[nH]5)C=C4)C=C3)cc1)Cc1nnc(C2C(C)(C)C2(C)C)o1
REMARK SMILES IDX 8 1 7 2 6 3 4 4 5 5 3 7 2 8 1 9 77 10 78 11 79 12 89 13
REMARK SMILES IDX 80 14 81 15 82 16 83 17 86 18 84 19 85 20 87 21 88 22 9 23
REMARK SMILES IDX 10 24 11 25 12 26 13 28 14 29 15 30 76 31 16 32 75 33 17 34
REMARK SMILES IDX 18 35 19 36 69 37 20 38 74 39 68 40 70 41 21 42 73 43 67 44
REMARK SMILES IDX 66 45 22 47 54 48 34 49 53 50 35 51 38 52 52 53 71 54 36 55
REMARK SMILES IDX 37 56 51 58 72 59 39 60 23 61 24 62 32 63 25 64 27 65 33 66
REMARK SMILES IDX 26 67 28 68 29 69 30 70 31 71 55 72 56 73 64 74 57 75 59 76
REMARK SMILES IDX 65 77 58 78 60 79 61 80 62 81 63 82 40 83 41 84 49 85 42 86
REMARK SMILES IDX 44 87 50 88 43 89 45 90 46 91 47 92 48 93
REMARK H PARENT 6 6 11 27 70 46 38 57
REMARK Flexibility Score: inf
ROOT
ATOM      1  C   UNL A   1      31.729  27.722  26.923  1.00  0.00     0.023 C 
ENDROOT
BRANCH   1   2
ATOM      2  C   UNL A   1      31.442  26.418  26.178  1.00  0.00     0.116 C 
BRANCH   2   3
ATOM      3  N   UNL A   1      30.101  26.411  25.631  1.00  0.00    -0.356 N 
ATOM      4  C   UNL A   1      29.692  26.299  24.340  1.00  0.00     0.220 C 
ATOM      5  O   UNL A   1      28.491  26.398  24.084  1.00  0.00    -0.275 OA
ATOM      6  H   UNL A   1      29.378  26.499  26.293  1.00  0.00     0.163 HD
BRANCH   4   7
ATOM      7  C   UNL A   1      30.694  26.064  23.226  1.00  0.00     0.103 C 
BRANCH   7   8
ATOM      8  C   UNL A   1      31.773  27.145  23.015  1.00  0.00     0.004 C 
ATOM      9  C   UNL A   1      31.157  28.508  22.652  1.00  0.00     0.009 C 
BRANCH   8  10
ATOM     10  C   UNL A   1      32.922  26.704  22.072  1.00  0.00     0.103 C 
BRANCH  10  11
ATOM     11  C   UNL A   1      33.384  25.329  22.378  1.00  0.00     0.216 A 
ATOM     12  N   UNL A   1      33.302  24.248  21.635  1.00  0.00    -0.113 NA
ATOM     13  O   UNL A   1      34.226  25.181  23.442  1.00  0.00    -0.425 OA
ATOM     14  N   UNL A   1      34.190  23.345  22.176  1.00  0.00    -0.113 NA
ATOM     15  C   UNL A   1      34.746  23.935  23.217  1.00  0.00     0.220 A 
BRANCH  15  16
ATOM     16  C   UNL A   1      35.929  23.325  23.950  1.00  0.00     0.090 C 
ATOM     17  C   UNL A   1      35.967  23.328  25.488  1.00  0.00    -0.017 C 
ATOM     18  C   UNL A   1      35.876  22.009  24.717  1.00  0.00    -0.017 C 
ATOM     19  C   UNL A   1      37.276  23.783  26.103  1.00  0.00     0.012 C 
ATOM     20  C   UNL A   1      34.793  23.765  26.341  1.00  0.00     0.012 C 
ATOM     21  C   UNL A   1      34.607  21.186  24.698  1.00  0.00     0.012 C 
ATOM     22  C   UNL A   1      37.109  21.129  24.649  1.00  0.00     0.012 C 
ENDBRANCH  15  16
ENDBRANCH  10  11
ENDBRANCH   8  10
ENDBRANCH   7   8
ENDBRANCH   4   7
ENDBRANCH   2   3
ENDBRANCH   1   2
BRANCH   1  23
ATOM     23  C   UNL A   1      33.207  28.009  27.178  1.00  0.00     0.023 C 
BRANCH  23  24
ATOM     24  C   UNL A   1      33.823  29.074  26.281  1.00  0.00     0.116 C 
BRANCH  24  25
ATOM     25  N   UNL A   1      33.772  30.415  26.850  1.00  0.00    -0.352 N 
ATOM     26  C   UNL A   1      34.659  31.011  27.715  1.00  0.00     0.251 C 
ATOM     27  H   UNL A   1      33.003  30.966  26.580  1.00  0.00     0.163 HD
ATOM     28  O   UNL A   1      34.425  32.125  28.175  1.00  0.00    -0.269 OA
BRANCH  26  29
ATOM     29  C   UNL A   1      35.879  30.279  28.112  1.00  0.00     0.039 A 
ATOM     30  C   UNL A   1      36.999  30.321  27.278  1.00  0.00     0.014 A 
ATOM     31  C   UNL A   1      35.932  29.607  29.336  1.00  0.00     0.014 A 
ATOM     32  C   UNL A   1      38.200  29.754  27.710  1.00  0.00     0.010 A 
ATOM     33  C   UNL A   1      37.148  29.117  29.798  1.00  0.00     0.010 A 
ATOM     34  C   UNL A   1      38.293  29.183  28.990  1.00  0.00    -0.014 A 
BRANCH  34  35
ATOM     35  C   UNL A   1      39.577  28.652  29.514  1.00  0.00     0.031 A 
ATOM     36  C   UNL A   1      40.291  29.376  30.622  1.00  0.00     0.074 A 
ATOM     37  C   UNL A   1      40.152  27.587  28.919  1.00  0.00     0.049 A 
ATOM     38  N   UNL A   1      41.460  29.127  31.151  1.00  0.00    -0.248 NA
ATOM     39  C   UNL A   1      39.619  30.558  31.188  1.00  0.00     0.031 C 
ATOM     40  C   UNL A   1      39.604  26.856  27.774  1.00  0.00     0.029 A 
ATOM     41  N   UNL A   1      41.342  26.953  29.177  1.00  0.00    -0.354 N 
ATOM     42  C   UNL A   1      41.684  30.142  32.073  1.00  0.00     0.074 A 
ATOM     43  C   UNL A   1      40.546  31.031  32.008  1.00  0.00     0.031 C 
ATOM     44  C   UNL A   1      40.452  25.872  27.433  1.00  0.00     0.029 A 
ATOM     45  C   UNL A   1      41.613  25.915  28.317  1.00  0.00     0.049 A 
ATOM     46  H   UNL A   1      41.945  27.217  29.909  1.00  0.00     0.167 HD
ATOM     47  C   UNL A   1      42.724  30.299  32.925  1.00  0.00     0.034 A 
ATOM     48  C   UNL A   1      42.676  25.089  28.249  1.00  0.00     0.034 A 
ATOM     49  C   UNL A   1      43.817  29.374  33.037  1.00  0.00     0.049 A 
ATOM     50  C   UNL A   1      43.782  25.242  29.259  1.00  0.00     0.074 A 
ATOM     51  C   UNL A   1      44.867  29.388  33.939  1.00  0.00     0.029 A 
ATOM     52  N   UNL A   1      43.999  28.265  32.225  1.00  0.00    -0.354 N 
ATOM     53  N   UNL A   1      43.894  26.110  30.235  1.00  0.00    -0.248 NA
ATOM     54  C   UNL A   1      44.890  24.278  29.184  1.00  0.00     0.031 C 
ATOM     55  C   UNL A   1      45.687  28.287  33.669  1.00  0.00     0.029 A 
ATOM     56  C   UNL A   1      45.143  27.585  32.604  1.00  0.00     0.049 A 
ATOM     57  H   UNL A   1      43.404  28.002  31.488  1.00  0.00     0.167 HD
ATOM     58  C   UNL A   1      45.063  25.777  30.909  1.00  0.00     0.074 A 
ATOM     59  C   UNL A   1      45.613  24.615  30.243  1.00  0.00     0.031 C 
ATOM     60  C   UNL A   1      45.641  26.391  31.971  1.00  0.00     0.034 A 
BRANCH  47  61
ATOM     61  C   UNL A   1      42.685  31.480  33.858  1.00  0.00     0.023 A 
ATOM     62  C   UNL A   1      43.149  32.733  33.405  1.00  0.00     0.012 A 
ATOM     63  C   UNL A   1      42.154  31.370  35.158  1.00  0.00     0.148 A 
ATOM     64  C   UNL A   1      43.119  33.848  34.239  1.00  0.00     0.002 A 
ATOM     65  C   UNL A   1      42.089  32.496  35.971  1.00  0.00     0.091 A 
ATOM     66  F   UNL A   1      41.740  30.167  35.581  1.00  0.00    -0.205 F 
ATOM     67  C   UNL A   1      42.580  33.732  35.518  1.00  0.00     0.022 A 
BRANCH  65  68
ATOM     68  S   UNL A   1      41.346  32.466  37.606  1.00  0.00     0.127 S 
ATOM     69  O   UNL A   1      39.985  32.026  37.305  1.00  0.00    -0.237 OA
ATOM     70  O   UNL A   1      42.166  31.474  38.302  1.00  0.00    -0.237 OA
ATOM     71  O   UNL A   1      41.468  33.822  38.125  1.00  0.00    -0.744 OA
ENDBRANCH  65  68
ENDBRANCH  47  61
BRANCH  48  72
ATOM     72  C   UNL A   1      42.702  23.988  27.247  1.00  0.00     0.023 A 
ATOM     73  C   UNL A   1      43.349  24.201  26.013  1.00  0.00     0.012 A 
ATOM     74  C   UNL A   1      42.125  22.731  27.511  1.00  0.00     0.148 A 
ATOM     75  C   UNL A   1      43.396  23.192  25.050  1.00  0.00     0.002 A 
ATOM     76  C   UNL A   1      42.218  21.714  26.566  1.00  0.00     0.091 A 
ATOM     77  F   UNL A   1      41.500  22.551  28.684  1.00  0.00    -0.205 F 
ATOM     78  C   UNL A   1      42.840  21.948  25.329  1.00  0.00     0.022 A 
BRANCH  76  79
ATOM     79  S   UNL A   1      41.640  20.045  26.894  1.00  0.00     0.127 S 
ATOM     80  O   UNL A   1      41.481  19.512  25.545  1.00  0.00    -0.237 OA
ATOM     81  O   UNL A   1      42.757  19.478  27.654  1.00  0.00    -0.237 OA
ATOM     82  O   UNL A   1      40.416  20.206  27.667  1.00  0.00    -0.744 OA
ENDBRANCH  76  79
ENDBRANCH  48  72
BRANCH  60  83
ATOM     83  C   UNL A   1      46.922  25.808  32.503  1.00  0.00     0.023 A 
ATOM     84  C   UNL A   1      48.156  26.282  32.016  1.00  0.00     0.012 A 
ATOM     85  C   UNL A   1      46.905  24.856  33.541  1.00  0.00     0.148 A 
ATOM     86  C   UNL A   1      49.355  25.798  32.538  1.00  0.00     0.002 A 
ATOM     87  C   UNL A   1      48.104  24.411  34.086  1.00  0.00     0.091 A 
ATOM     88  F   UNL A   1      45.720  24.402  33.976  1.00  0.00    -0.205 F 
ATOM     89  C   UNL A   1      49.329  24.875  33.579  1.00  0.00     0.022 A 
BRANCH  87  90
ATOM     90  S   UNL A   1      48.160  23.293  35.491  1.00  0.00     0.127 S 
ATOM     91  O   UNL A   1      47.145  23.868  36.371  1.00  0.00    -0.237 OA
ATOM     92  O   UNL A   1      47.788  22.012  34.888  1.00  0.00    -0.237 OA
ATOM     93  O   UNL A   1      49.528  23.347  35.988  1.00  0.00    -0.744 OA
ENDBRANCH  87  90
ENDBRANCH  60  83
ENDBRANCH  34  35
ENDBRANCH  26  29
ENDBRANCH  24  25
ENDBRANCH  23  24
ENDBRANCH   1  23
TORSDOF 18
ENDMDL
