MODEL 1
REMARK VINA RESULT:     -12.4      0.000      0.000
REMARK SMILES CCN1C(=O)C[C@@H](C(=O)NCCCCNC(=O)c2ccc(-c3c4nc(c(-c5cccc(S(=O)(=O)[O-])c5F)c5ccc([nH]5)c(-c5cccc(S(=O)(=O)[O-])c5F)c5nc(c(-c6cccc(S(=O)(=O)[O-])c6F)c6ccc3[nH]6)C=C5)C=C4)cc2)[C@H]1c1ccccc1C1CC1
REMARK SMILES IDX 13 1 12 2 11 3 10 4 8 5 9 6 7 8 3 9 4 10 81 11 5 12 6 13
REMARK SMILES IDX 2 14 1 15 82 16 83 17 87 18 84 19 86 20 85 21 88 22 89 23
REMARK SMILES IDX 90 24 14 25 15 26 16 27 17 29 18 30 19 31 80 32 20 33 79 34
REMARK SMILES IDX 21 35 22 36 23 37 73 38 24 39 78 40 72 41 74 42 25 43 77 44
REMARK SMILES IDX 71 45 70 46 26 48 58 49 38 50 57 51 39 52 42 53 56 54 75 55
REMARK SMILES IDX 40 56 41 57 55 59 76 60 43 61 27 62 28 63 36 64 29 65 31 66
REMARK SMILES IDX 37 67 30 68 32 69 33 70 34 71 35 72 59 73 60 74 68 75 61 76
REMARK SMILES IDX 63 77 69 78 62 79 64 80 65 81 66 82 67 83 44 84 45 85 53 86
REMARK SMILES IDX 46 87 48 88 54 89 47 90 49 91 50 92 51 93 52 94
REMARK H PARENT 10 7 15 28 74 47 42 58
REMARK Flexibility Score: inf
ROOT
ATOM      1  C   UNL A   1      32.624  29.096  25.230  1.00  0.00     0.023 C 
ENDROOT
BRANCH   1   2
ATOM      2  C   UNL A   1      32.171  27.642  25.227  1.00  0.00     0.023 C 
BRANCH   2   3
ATOM      3  C   UNL A   1      33.252  26.598  24.990  1.00  0.00     0.116 C 
BRANCH   3   4
ATOM      4  N   UNL A   1      33.584  26.378  23.594  1.00  0.00    -0.356 N 
ATOM      5  C   UNL A   1      33.281  25.442  22.667  1.00  0.00     0.226 C 
ATOM      6  O   UNL A   1      33.653  25.710  21.514  1.00  0.00    -0.275 OA
ATOM      7  H   UNL A   1      34.174  27.080  23.235  1.00  0.00     0.163 HD
BRANCH   5   8
ATOM      8  C   UNL A   1      32.506  24.132  22.864  1.00  0.00     0.115 C 
ATOM      9  N   UNL A   1      32.129  23.629  25.103  1.00  0.00    -0.335 N 
ATOM     10  C   UNL A   1      30.999  24.348  24.646  1.00  0.00     0.223 C 
ATOM     11  C   UNL A   1      32.842  23.064  23.931  1.00  0.00     0.128 C 
ATOM     12  O   UNL A   1      30.079  24.768  25.333  1.00  0.00    -0.275 OA
ATOM     13  C   UNL A   1      31.058  24.482  23.156  1.00  0.00     0.116 C 
BRANCH   9  14
ATOM     14  C   UNL A   1      32.088  23.281  26.524  1.00  0.00     0.117 C 
ATOM     15  C   UNL A   1      33.326  23.110  27.377  1.00  0.00     0.027 C 
ENDBRANCH   9  14
BRANCH  11  16
ATOM     16  C   UNL A   1      34.281  22.547  23.984  1.00  0.00    -0.021 A 
ATOM     17  C   UNL A   1      35.290  23.214  23.231  1.00  0.00     0.006 A 
ATOM     18  C   UNL A   1      34.693  21.387  24.688  1.00  0.00    -0.040 A 
ATOM     19  C   UNL A   1      36.652  22.956  23.366  1.00  0.00     0.000 A 
ATOM     20  C   UNL A   1      36.097  21.189  24.851  1.00  0.00     0.004 A 
ATOM     21  C   UNL A   1      37.064  21.978  24.237  1.00  0.00     0.000 A 
BRANCH  18  22
ATOM     22  C   UNL A   1      33.838  20.242  25.223  1.00  0.00     0.019 C 
ATOM     23  C   UNL A   1      32.420  19.850  24.923  1.00  0.00     0.009 C 
ATOM     24  C   UNL A   1      33.534  19.129  24.238  1.00  0.00     0.009 C 
ENDBRANCH  18  22
ENDBRANCH  11  16
ENDBRANCH   5   8
ENDBRANCH   3   4
ENDBRANCH   2   3
ENDBRANCH   1   2
BRANCH   1  25
ATOM     25  C   UNL A   1      33.171  29.529  26.573  1.00  0.00     0.116 C 
BRANCH  25  26
ATOM     26  N   UNL A   1      33.030  30.966  26.798  1.00  0.00    -0.352 N 
ATOM     27  C   UNL A   1      33.854  31.801  27.512  1.00  0.00     0.251 C 
ATOM     28  H   UNL A   1      32.244  31.390  26.385  1.00  0.00     0.163 HD
ATOM     29  O   UNL A   1      33.531  32.965  27.727  1.00  0.00    -0.269 OA
BRANCH  27  30
ATOM     30  C   UNL A   1      35.115  31.255  28.044  1.00  0.00     0.039 A 
ATOM     31  C   UNL A   1      36.247  32.070  28.100  1.00  0.00     0.014 A 
ATOM     32  C   UNL A   1      35.143  29.959  28.562  1.00  0.00     0.014 A 
ATOM     33  C   UNL A   1      37.396  31.595  28.730  1.00  0.00     0.010 A 
ATOM     34  C   UNL A   1      36.235  29.544  29.302  1.00  0.00     0.010 A 
ATOM     35  C   UNL A   1      37.386  30.340  29.362  1.00  0.00    -0.014 A 
BRANCH  35  36
ATOM     36  C   UNL A   1      38.581  29.802  30.051  1.00  0.00     0.031 A 
ATOM     37  C   UNL A   1      38.935  30.321  31.421  1.00  0.00     0.074 A 
ATOM     38  C   UNL A   1      39.389  28.934  29.413  1.00  0.00     0.049 A 
ATOM     39  N   UNL A   1      39.981  30.059  32.157  1.00  0.00    -0.248 NA
ATOM     40  C   UNL A   1      38.018  31.309  32.021  1.00  0.00     0.031 C 
ATOM     41  C   UNL A   1      39.199  28.444  28.045  1.00  0.00     0.029 A 
ATOM     42  N   UNL A   1      40.547  28.326  29.823  1.00  0.00    -0.354 N 
ATOM     43  C   UNL A   1      39.872  30.882  33.272  1.00  0.00     0.074 A 
ATOM     44  C   UNL A   1      38.695  31.698  33.089  1.00  0.00     0.031 C 
ATOM     45  C   UNL A   1      40.196  27.598  27.738  1.00  0.00     0.029 A 
ATOM     46  C   UNL A   1      41.108  27.506  28.872  1.00  0.00     0.049 A 
ATOM     47  H   UNL A   1      40.941  28.463  30.716  1.00  0.00     0.167 HD
ATOM     48  C   UNL A   1      40.655  30.923  34.374  1.00  0.00     0.034 A 
ATOM     49  C   UNL A   1      42.231  26.764  28.917  1.00  0.00     0.034 A 
ATOM     50  C   UNL A   1      41.775  30.050  34.578  1.00  0.00     0.049 A 
ATOM     51  C   UNL A   1      43.035  26.757  30.189  1.00  0.00     0.074 A 
ATOM     52  C   UNL A   1      42.579  29.924  35.696  1.00  0.00     0.029 A 
ATOM     53  N   UNL A   1      42.244  29.142  33.639  1.00  0.00    -0.354 N 
ATOM     54  N   UNL A   1      42.828  27.427  31.299  1.00  0.00    -0.248 NA
ATOM     55  C   UNL A   1      44.200  25.863  30.235  1.00  0.00     0.031 C 
ATOM     56  C   UNL A   1      43.544  28.948  35.426  1.00  0.00     0.029 A 
ATOM     57  C   UNL A   1      43.325  28.450  34.150  1.00  0.00     0.049 A 
ATOM     58  H   UNL A   1      41.862  29.010  32.742  1.00  0.00     0.167 HD
ATOM     59  C   UNL A   1      43.813  27.010  32.185  1.00  0.00     0.074 A 
ATOM     60  C   UNL A   1      44.602  26.013  31.490  1.00  0.00     0.031 C 
ATOM     61  C   UNL A   1      44.056  27.422  33.455  1.00  0.00     0.034 A 
BRANCH  48  62
ATOM     62  C   UNL A   1      40.278  31.891  35.466  1.00  0.00     0.023 A 
ATOM     63  C   UNL A   1      41.018  33.083  35.627  1.00  0.00     0.012 A 
ATOM     64  C   UNL A   1      39.180  31.643  36.311  1.00  0.00     0.148 A 
ATOM     65  C   UNL A   1      40.700  33.988  36.638  1.00  0.00     0.002 A 
ATOM     66  C   UNL A   1      38.837  32.575  37.284  1.00  0.00     0.091 A 
ATOM     67  F   UNL A   1      38.503  30.496  36.160  1.00  0.00    -0.205 F 
ATOM     68  C   UNL A   1      39.605  33.740  37.459  1.00  0.00     0.022 A 
BRANCH  66  69
ATOM     69  S   UNL A   1      37.396  32.392  38.339  1.00  0.00     0.127 S 
ATOM     70  O   UNL A   1      37.821  33.098  39.547  1.00  0.00    -0.237 OA
ATOM     71  O   UNL A   1      36.360  33.077  37.566  1.00  0.00    -0.237 OA
ATOM     72  O   UNL A   1      37.191  30.958  38.495  1.00  0.00    -0.744 OA
ENDBRANCH  66  69
ENDBRANCH  48  62
BRANCH  49  73
ATOM     73  C   UNL A   1      42.606  25.906  27.757  1.00  0.00     0.023 A 
ATOM     74  C   UNL A   1      43.562  26.373  26.833  1.00  0.00     0.012 A 
ATOM     75  C   UNL A   1      42.059  24.621  27.586  1.00  0.00     0.148 A 
ATOM     76  C   UNL A   1      43.938  25.591  25.740  1.00  0.00     0.002 A 
ATOM     77  C   UNL A   1      42.478  23.824  26.526  1.00  0.00     0.091 A 
ATOM     78  F   UNL A   1      41.146  24.195  28.471  1.00  0.00    -0.205 F 
ATOM     79  C   UNL A   1      43.405  24.314  25.593  1.00  0.00     0.022 A 
BRANCH  77  80
ATOM     80  S   UNL A   1      41.949  22.118  26.335  1.00  0.00     0.127 S 
ATOM     81  O   UNL A   1      42.741  21.686  25.186  1.00  0.00    -0.237 OA
ATOM     82  O   UNL A   1      42.348  21.532  27.615  1.00  0.00    -0.237 OA
ATOM     83  O   UNL A   1      40.509  22.176  26.127  1.00  0.00    -0.744 OA
ENDBRANCH  77  80
ENDBRANCH  49  73
BRANCH  61  84
ATOM     84  C   UNL A   1      45.195  26.774  34.190  1.00  0.00     0.023 A 
ATOM     85  C   UNL A   1      46.478  27.354  34.148  1.00  0.00     0.012 A 
ATOM     86  C   UNL A   1      44.972  25.638  34.993  1.00  0.00     0.148 A 
ATOM     87  C   UNL A   1      47.529  26.795  34.872  1.00  0.00     0.002 A 
ATOM     88  C   UNL A   1      46.011  25.117  35.751  1.00  0.00     0.091 A 
ATOM     89  F   UNL A   1      43.746  25.092  35.003  1.00  0.00    -0.205 F 
ATOM     90  C   UNL A   1      47.294  25.686  35.683  1.00  0.00     0.022 A 
BRANCH  88  91
ATOM     91  S   UNL A   1      45.775  23.757  36.899  1.00  0.00     0.127 S 
ATOM     92  O   UNL A   1      47.138  23.528  37.374  1.00  0.00    -0.237 OA
ATOM     93  O   UNL A   1      44.873  24.342  37.892  1.00  0.00    -0.237 OA
ATOM     94  O   UNL A   1      45.192  22.672  36.121  1.00  0.00    -0.744 OA
ENDBRANCH  88  91
ENDBRANCH  61  84
ENDBRANCH  35  36
ENDBRANCH  27  30
ENDBRANCH  25  26
ENDBRANCH   1  25
TORSDOF 17
ENDMDL
MODEL 2
REMARK VINA RESULT:     -12.4      2.399      2.839
REMARK SMILES CCN1C(=O)C[C@@H](C(=O)NCCCCNC(=O)c2ccc(-c3c4nc(c(-c5cccc(S(=O)(=O)[O-])c5F)c5ccc([nH]5)c(-c5cccc(S(=O)(=O)[O-])c5F)c5nc(c(-c6cccc(S(=O)(=O)[O-])c6F)c6ccc3[nH]6)C=C5)C=C4)cc2)[C@H]1c1ccccc1C1CC1
REMARK SMILES IDX 13 1 12 2 11 3 10 4 8 5 9 6 7 8 3 9 4 10 81 11 5 12 6 13
REMARK SMILES IDX 2 14 1 15 82 16 83 17 87 18 84 19 86 20 85 21 88 22 89 23
REMARK SMILES IDX 90 24 14 25 15 26 16 27 17 29 18 30 19 31 80 32 20 33 79 34
REMARK SMILES IDX 21 35 22 36 23 37 73 38 24 39 78 40 72 41 74 42 25 43 77 44
REMARK SMILES IDX 71 45 70 46 26 48 58 49 38 50 57 51 39 52 42 53 56 54 75 55
REMARK SMILES IDX 40 56 41 57 55 59 76 60 43 61 27 62 28 63 36 64 29 65 31 66
REMARK SMILES IDX 37 67 30 68 32 69 33 70 34 71 35 72 59 73 60 74 68 75 61 76
REMARK SMILES IDX 63 77 69 78 62 79 64 80 65 81 66 82 67 83 44 84 45 85 53 86
REMARK SMILES IDX 46 87 48 88 54 89 47 90 49 91 50 92 51 93 52 94
REMARK H PARENT 10 7 15 28 74 47 42 58
REMARK Flexibility Score: inf
ROOT
ATOM      1  C   UNL A   1      33.186  27.801  26.121  1.00  0.00     0.023 C 
ENDROOT
BRANCH   1   2
ATOM      2  C   UNL A   1      33.138  27.329  24.675  1.00  0.00     0.023 C 
BRANCH   2   3
ATOM      3  C   UNL A   1      33.912  26.060  24.351  1.00  0.00     0.116 C 
BRANCH   3   4
ATOM      4  N   UNL A   1      33.755  25.586  22.988  1.00  0.00    -0.356 N 
ATOM      5  C   UNL A   1      33.137  24.540  22.398  1.00  0.00     0.226 C 
ATOM      6  O   UNL A   1      33.109  24.583  21.158  1.00  0.00    -0.275 OA
ATOM      7  H   UNL A   1      34.207  26.168  22.336  1.00  0.00     0.163 HD
BRANCH   5   8
ATOM      8  C   UNL A   1      32.441  23.349  23.071  1.00  0.00     0.115 C 
ATOM      9  N   UNL A   1      32.426  23.501  25.391  1.00  0.00    -0.335 N 
ATOM     10  C   UNL A   1      31.218  24.079  24.932  1.00  0.00     0.223 C 
ATOM     11  C   UNL A   1      32.969  22.620  24.329  1.00  0.00     0.128 C 
ATOM     12  O   UNL A   1      30.402  24.688  25.608  1.00  0.00    -0.275 OA
ATOM     13  C   UNL A   1      31.045  23.788  23.475  1.00  0.00     0.116 C 
BRANCH   9  14
ATOM     14  C   UNL A   1      32.613  23.568  26.841  1.00  0.00     0.117 C 
ATOM     15  C   UNL A   1      32.996  22.374  27.689  1.00  0.00     0.027 C 
ENDBRANCH   9  14
BRANCH  11  16
ATOM     16  C   UNL A   1      34.414  22.118  24.300  1.00  0.00    -0.021 A 
ATOM     17  C   UNL A   1      35.412  22.903  23.655  1.00  0.00     0.006 A 
ATOM     18  C   UNL A   1      34.841  20.869  24.820  1.00  0.00    -0.040 A 
ATOM     19  C   UNL A   1      36.778  22.644  23.747  1.00  0.00     0.000 A 
ATOM     20  C   UNL A   1      36.248  20.666  24.949  1.00  0.00     0.004 A 
ATOM     21  C   UNL A   1      37.204  21.550  24.460  1.00  0.00     0.000 A 
BRANCH  18  22
ATOM     22  C   UNL A   1      34.001  19.646  25.176  1.00  0.00     0.019 C 
ATOM     23  C   UNL A   1      32.523  19.403  25.070  1.00  0.00     0.009 C 
ATOM     24  C   UNL A   1      33.426  18.875  24.003  1.00  0.00     0.009 C 
ENDBRANCH  18  22
ENDBRANCH  11  16
ENDBRANCH   5   8
ENDBRANCH   3   4
ENDBRANCH   2   3
ENDBRANCH   1   2
BRANCH   1  25
ATOM     25  C   UNL A   1      34.364  28.710  26.395  1.00  0.00     0.116 C 
BRANCH  25  26
ATOM     26  N   UNL A   1      33.953  30.045  26.826  1.00  0.00    -0.352 N 
ATOM     27  C   UNL A   1      34.552  30.863  27.752  1.00  0.00     0.251 C 
ATOM     28  H   UNL A   1      33.143  30.403  26.396  1.00  0.00     0.163 HD
ATOM     29  O   UNL A   1      34.011  31.905  28.109  1.00  0.00    -0.269 OA
BRANCH  27  30
ATOM     30  C   UNL A   1      35.839  30.441  28.332  1.00  0.00     0.039 A 
ATOM     31  C   UNL A   1      35.849  29.684  29.505  1.00  0.00     0.014 A 
ATOM     32  C   UNL A   1      37.029  30.729  27.659  1.00  0.00     0.014 A 
ATOM     33  C   UNL A   1      37.057  29.171  29.972  1.00  0.00     0.010 A 
ATOM     34  C   UNL A   1      38.201  30.107  28.050  1.00  0.00     0.010 A 
ATOM     35  C   UNL A   1      38.236  29.354  29.230  1.00  0.00    -0.014 A 
BRANCH  35  36
ATOM     36  C   UNL A   1      39.538  28.816  29.685  1.00  0.00     0.031 A 
ATOM     37  C   UNL A   1      40.267  29.506  30.809  1.00  0.00     0.074 A 
ATOM     38  C   UNL A   1      40.102  27.782  29.031  1.00  0.00     0.049 A 
ATOM     39  N   UNL A   1      41.453  29.262  31.297  1.00  0.00    -0.248 NA
ATOM     40  C   UNL A   1      39.595  30.663  31.432  1.00  0.00     0.031 C 
ATOM     41  C   UNL A   1      39.534  27.104  27.863  1.00  0.00     0.029 A 
ATOM     42  N   UNL A   1      41.292  27.135  29.242  1.00  0.00    -0.354 N 
ATOM     43  C   UNL A   1      41.685  30.257  32.238  1.00  0.00     0.074 A 
ATOM     44  C   UNL A   1      40.548  31.146  32.212  1.00  0.00     0.031 C 
ATOM     45  C   UNL A   1      40.367  26.125  27.474  1.00  0.00     0.029 A 
ATOM     46  C   UNL A   1      41.538  26.124  28.343  1.00  0.00     0.049 A 
ATOM     47  H   UNL A   1      41.913  27.372  29.970  1.00  0.00     0.167 HD
ATOM     48  C   UNL A   1      42.730  30.394  33.086  1.00  0.00     0.034 A 
ATOM     49  C   UNL A   1      42.592  25.291  28.239  1.00  0.00     0.034 A 
ATOM     50  C   UNL A   1      43.815  29.457  33.157  1.00  0.00     0.049 A 
ATOM     51  C   UNL A   1      43.699  25.405  29.252  1.00  0.00     0.074 A 
ATOM     52  C   UNL A   1      44.875  29.430  34.045  1.00  0.00     0.029 A 
ATOM     53  N   UNL A   1      43.971  28.371  32.308  1.00  0.00    -0.354 N 
ATOM     54  N   UNL A   1      43.826  26.258  30.240  1.00  0.00    -0.248 NA
ATOM     55  C   UNL A   1      44.784  24.419  29.165  1.00  0.00     0.031 C 
ATOM     56  C   UNL A   1      45.681  28.333  33.721  1.00  0.00     0.029 A 
ATOM     57  C   UNL A   1      45.108  27.664  32.650  1.00  0.00     0.049 A 
ATOM     58  H   UNL A   1      43.361  28.138  31.572  1.00  0.00     0.167 HD
ATOM     59  C   UNL A   1      44.985  25.891  30.914  1.00  0.00     0.074 A 
ATOM     60  C   UNL A   1      45.509  24.724  30.232  1.00  0.00     0.031 C 
ATOM     61  C   UNL A   1      45.574  26.473  31.989  1.00  0.00     0.034 A 
BRANCH  48  62
ATOM     62  C   UNL A   1      42.706  31.554  34.048  1.00  0.00     0.023 A 
ATOM     63  C   UNL A   1      43.298  32.780  33.675  1.00  0.00     0.012 A 
ATOM     64  C   UNL A   1      42.074  31.448  35.301  1.00  0.00     0.148 A 
ATOM     65  C   UNL A   1      43.303  33.865  34.550  1.00  0.00     0.002 A 
ATOM     66  C   UNL A   1      42.038  32.550  36.148  1.00  0.00     0.091 A 
ATOM     67  F   UNL A   1      41.537  30.270  35.649  1.00  0.00    -0.205 F 
ATOM     68  C   UNL A   1      42.665  33.753  35.781  1.00  0.00     0.022 A 
BRANCH  66  69
ATOM     69  S   UNL A   1      41.170  32.538  37.721  1.00  0.00     0.127 S 
ATOM     70  O   UNL A   1      39.883  31.955  37.344  1.00  0.00    -0.237 OA
ATOM     71  O   UNL A   1      42.020  31.668  38.533  1.00  0.00    -0.237 OA
ATOM     72  O   UNL A   1      41.121  33.925  38.163  1.00  0.00    -0.744 OA
ENDBRANCH  66  69
ENDBRANCH  48  62
BRANCH  49  73
ATOM     73  C   UNL A   1      42.602  24.228  27.194  1.00  0.00     0.023 A 
ATOM     74  C   UNL A   1      43.301  24.449  25.991  1.00  0.00     0.012 A 
ATOM     75  C   UNL A   1      41.964  22.990  27.398  1.00  0.00     0.148 A 
ATOM     76  C   UNL A   1      43.334  23.471  24.996  1.00  0.00     0.002 A 
ATOM     77  C   UNL A   1      42.048  21.998  26.426  1.00  0.00     0.091 A 
ATOM     78  F   UNL A   1      41.299  22.799  28.546  1.00  0.00    -0.205 F 
ATOM     79  C   UNL A   1      42.717  22.243  25.217  1.00  0.00     0.022 A 
BRANCH  77  80
ATOM     80  S   UNL A   1      41.401  20.342  26.682  1.00  0.00     0.127 S 
ATOM     81  O   UNL A   1      41.792  19.674  25.443  1.00  0.00    -0.237 OA
ATOM     82  O   UNL A   1      42.134  19.911  27.873  1.00  0.00    -0.237 OA
ATOM     83  O   UNL A   1      39.969  20.508  26.888  1.00  0.00    -0.744 OA
ENDBRANCH  77  80
ENDBRANCH  49  73
BRANCH  61  84
ATOM     84  C   UNL A   1      46.829  25.839  32.521  1.00  0.00     0.023 A 
ATOM     85  C   UNL A   1      46.759  24.957  33.617  1.00  0.00     0.012 A 
ATOM     86  C   UNL A   1      48.064  26.052  31.878  1.00  0.00     0.148 A 
ATOM     87  C   UNL A   1      47.905  24.320  34.084  1.00  0.00     0.002 A 
ATOM     88  C   UNL A   1      49.192  25.373  32.316  1.00  0.00     0.091 A 
ATOM     89  F   UNL A   1      48.109  26.909  30.847  1.00  0.00    -0.205 F 
ATOM     90  C   UNL A   1      49.119  24.517  33.427  1.00  0.00     0.022 A 
BRANCH  88  91
ATOM     91  S   UNL A   1      50.771  25.487  31.468  1.00  0.00     0.127 S 
ATOM     92  O   UNL A   1      50.417  25.044  30.120  1.00  0.00    -0.237 OA
ATOM     93  O   UNL A   1      51.081  26.913  31.579  1.00  0.00    -0.237 OA
ATOM     94  O   UNL A   1      51.681  24.613  32.196  1.00  0.00    -0.744 OA
ENDBRANCH  88  91
ENDBRANCH  61  84
ENDBRANCH  35  36
ENDBRANCH  27  30
ENDBRANCH  25  26
ENDBRANCH   1  25
TORSDOF 17
ENDMDL
MODEL 3
REMARK VINA RESULT:     -12.4      1.760      2.167
REMARK SMILES CCN1C(=O)C[C@@H](C(=O)NCCCCNC(=O)c2ccc(-c3c4nc(c(-c5cccc(S(=O)(=O)[O-])c5F)c5ccc([nH]5)c(-c5cccc(S(=O)(=O)[O-])c5F)c5nc(c(-c6cccc(S(=O)(=O)[O-])c6F)c6ccc3[nH]6)C=C5)C=C4)cc2)[C@H]1c1ccccc1C1CC1
REMARK SMILES IDX 13 1 12 2 11 3 10 4 8 5 9 6 7 8 3 9 4 10 81 11 5 12 6 13
REMARK SMILES IDX 2 14 1 15 82 16 83 17 87 18 84 19 86 20 85 21 88 22 89 23
REMARK SMILES IDX 90 24 14 25 15 26 16 27 17 29 18 30 19 31 80 32 20 33 79 34
REMARK SMILES IDX 21 35 22 36 23 37 73 38 24 39 78 40 72 41 74 42 25 43 77 44
REMARK SMILES IDX 71 45 70 46 26 48 58 49 38 50 57 51 39 52 42 53 56 54 75 55
REMARK SMILES IDX 40 56 41 57 55 59 76 60 43 61 27 62 28 63 36 64 29 65 31 66
REMARK SMILES IDX 37 67 30 68 32 69 33 70 34 71 35 72 59 73 60 74 68 75 61 76
REMARK SMILES IDX 63 77 69 78 62 79 64 80 65 81 66 82 67 83 44 84 45 85 53 86
REMARK SMILES IDX 46 87 48 88 54 89 47 90 49 91 50 92 51 93 52 94
REMARK H PARENT 10 7 15 28 74 47 42 58
REMARK Flexibility Score: inf
ROOT
ATOM      1  C   UNL A   1      33.497  27.823  26.543  1.00  0.00     0.023 C 
ENDROOT
BRANCH   1   2
ATOM      2  C   UNL A   1      33.662  26.566  25.701  1.00  0.00     0.023 C 
BRANCH   2   3
ATOM      3  C   UNL A   1      32.692  26.395  24.542  1.00  0.00     0.116 C 
BRANCH   3   4
ATOM      4  N   UNL A   1      33.252  25.733  23.377  1.00  0.00    -0.356 N 
ATOM      5  C   UNL A   1      33.125  24.514  22.809  1.00  0.00     0.226 C 
ATOM      6  O   UNL A   1      33.672  24.396  21.701  1.00  0.00    -0.275 OA
ATOM      7  H   UNL A   1      33.874  26.313  22.882  1.00  0.00     0.163 HD
BRANCH   5   8
ATOM      8  C   UNL A   1      32.361  23.296  23.343  1.00  0.00     0.115 C 
ATOM      9  N   UNL A   1      32.181  23.283  25.661  1.00  0.00    -0.335 N 
ATOM     10  C   UNL A   1      31.021  23.920  25.162  1.00  0.00     0.223 C 
ATOM     11  C   UNL A   1      32.783  22.467  24.579  1.00  0.00     0.128 C 
ATOM     12  O   UNL A   1      30.169  24.499  25.821  1.00  0.00    -0.275 OA
ATOM     13  C   UNL A   1      30.947  23.737  23.678  1.00  0.00     0.116 C 
BRANCH   9  14
ATOM     14  C   UNL A   1      32.264  23.242  27.122  1.00  0.00     0.117 C 
ATOM     15  C   UNL A   1      33.228  22.353  27.879  1.00  0.00     0.027 C 
ENDBRANCH   9  14
BRANCH  11  16
ATOM     16  C   UNL A   1      34.217  21.934  24.616  1.00  0.00    -0.021 A 
ATOM     17  C   UNL A   1      35.303  22.853  24.551  1.00  0.00     0.006 A 
ATOM     18  C   UNL A   1      34.562  20.559  24.645  1.00  0.00    -0.040 A 
ATOM     19  C   UNL A   1      36.631  22.496  24.781  1.00  0.00     0.000 A 
ATOM     20  C   UNL A   1      35.921  20.236  24.938  1.00  0.00     0.004 A 
ATOM     21  C   UNL A   1      36.934  21.183  25.045  1.00  0.00     0.000 A 
BRANCH  18  22
ATOM     22  C   UNL A   1      33.697  19.350  24.301  1.00  0.00     0.019 C 
ATOM     23  C   UNL A   1      33.742  17.935  24.801  1.00  0.00     0.009 C 
ATOM     24  C   UNL A   1      32.750  18.884  25.391  1.00  0.00     0.009 C 
ENDBRANCH  18  22
ENDBRANCH  11  16
ENDBRANCH   5   8
ENDBRANCH   3   4
ENDBRANCH   2   3
ENDBRANCH   1   2
BRANCH   1  25
ATOM     25  C   UNL A   1      34.093  29.046  25.880  1.00  0.00     0.116 C 
BRANCH  25  26
ATOM     26  N   UNL A   1      33.832  30.273  26.631  1.00  0.00    -0.352 N 
ATOM     27  C   UNL A   1      34.554  30.805  27.671  1.00  0.00     0.251 C 
ATOM     28  H   UNL A   1      33.037  30.783  26.355  1.00  0.00     0.163 HD
ATOM     29  O   UNL A   1      34.133  31.775  28.293  1.00  0.00    -0.269 OA
BRANCH  27  30
ATOM     30  C   UNL A   1      35.826  30.160  28.044  1.00  0.00     0.039 A 
ATOM     31  C   UNL A   1      36.974  30.419  27.293  1.00  0.00     0.014 A 
ATOM     32  C   UNL A   1      35.887  29.366  29.191  1.00  0.00     0.014 A 
ATOM     33  C   UNL A   1      38.198  29.919  27.731  1.00  0.00     0.010 A 
ATOM     34  C   UNL A   1      37.120  28.987  29.693  1.00  0.00     0.010 A 
ATOM     35  C   UNL A   1      38.283  29.226  28.950  1.00  0.00    -0.014 A 
BRANCH  35  36
ATOM     36  C   UNL A   1      39.566  28.688  29.456  1.00  0.00     0.031 A 
ATOM     37  C   UNL A   1      40.263  29.393  30.590  1.00  0.00     0.074 A 
ATOM     38  C   UNL A   1      40.143  27.638  28.839  1.00  0.00     0.049 A 
ATOM     39  N   UNL A   1      41.431  29.149  31.120  1.00  0.00    -0.248 NA
ATOM     40  C   UNL A   1      39.580  30.565  31.171  1.00  0.00     0.031 C 
ATOM     41  C   UNL A   1      39.608  26.942  27.666  1.00  0.00     0.029 A 
ATOM     42  N   UNL A   1      41.320  26.987  29.100  1.00  0.00    -0.354 N 
ATOM     43  C   UNL A   1      41.640  30.160  32.051  1.00  0.00     0.074 A 
ATOM     44  C   UNL A   1      40.511  31.056  31.972  1.00  0.00     0.031 C 
ATOM     45  C   UNL A   1      40.445  25.951  27.321  1.00  0.00     0.029 A 
ATOM     46  C   UNL A   1      41.587  25.958  28.228  1.00  0.00     0.049 A 
ATOM     47  H   UNL A   1      41.919  27.232  29.843  1.00  0.00     0.167 HD
ATOM     48  C   UNL A   1      42.659  30.305  32.930  1.00  0.00     0.034 A 
ATOM     49  C   UNL A   1      42.638  25.116  28.173  1.00  0.00     0.034 A 
ATOM     50  C   UNL A   1      43.733  29.362  33.052  1.00  0.00     0.049 A 
ATOM     51  C   UNL A   1      43.712  25.241  29.218  1.00  0.00     0.074 A 
ATOM     52  C   UNL A   1      44.765  29.344  33.974  1.00  0.00     0.029 A 
ATOM     53  N   UNL A   1      43.908  28.260  32.229  1.00  0.00    -0.354 N 
ATOM     54  N   UNL A   1      43.814  26.111  30.195  1.00  0.00    -0.248 NA
ATOM     55  C   UNL A   1      44.793  24.246  29.184  1.00  0.00     0.031 C 
ATOM     56  C   UNL A   1      45.572  28.236  33.696  1.00  0.00     0.029 A 
ATOM     57  C   UNL A   1      45.029  27.552  32.619  1.00  0.00     0.049 A 
ATOM     58  H   UNL A   1      43.321  28.017  31.478  1.00  0.00     0.167 HD
ATOM     59  C   UNL A   1      44.948  25.748  30.912  1.00  0.00     0.074 A 
ATOM     60  C   UNL A   1      45.485  24.566  30.269  1.00  0.00     0.031 C 
ATOM     61  C   UNL A   1      45.507  26.345  31.995  1.00  0.00     0.034 A 
BRANCH  48  62
ATOM     62  C   UNL A   1      42.612  31.483  33.868  1.00  0.00     0.023 A 
ATOM     63  C   UNL A   1      43.137  32.726  33.453  1.00  0.00     0.012 A 
ATOM     64  C   UNL A   1      42.025  31.375  35.144  1.00  0.00     0.148 A 
ATOM     65  C   UNL A   1      43.120  33.828  34.307  1.00  0.00     0.002 A 
ATOM     66  C   UNL A   1      41.966  32.491  35.970  1.00  0.00     0.091 A 
ATOM     67  F   UNL A   1      41.553  30.182  35.531  1.00  0.00    -0.205 F 
ATOM     68  C   UNL A   1      42.526  33.714  35.559  1.00  0.00     0.022 A 
BRANCH  66  69
ATOM     69  S   UNL A   1      41.150  32.474  37.569  1.00  0.00     0.127 S 
ATOM     70  O   UNL A   1      42.021  31.585  38.337  1.00  0.00    -0.237 OA
ATOM     71  O   UNL A   1      41.216  33.881  37.963  1.00  0.00    -0.237 OA
ATOM     72  O   UNL A   1      39.804  31.972  37.328  1.00  0.00    -0.744 OA
ENDBRANCH  66  69
ENDBRANCH  48  62
BRANCH  49  73
ATOM     73  C   UNL A   1      42.674  24.034  27.148  1.00  0.00     0.023 A 
ATOM     74  C   UNL A   1      43.420  24.225  25.968  1.00  0.00     0.012 A 
ATOM     75  C   UNL A   1      42.014  22.807  27.350  1.00  0.00     0.148 A 
ATOM     76  C   UNL A   1      43.478  23.229  24.993  1.00  0.00     0.002 A 
ATOM     77  C   UNL A   1      42.121  21.797  26.399  1.00  0.00     0.091 A 
ATOM     78  F   UNL A   1      41.304  22.645  28.475  1.00  0.00    -0.205 F 
ATOM     79  C   UNL A   1      42.838  22.012  25.212  1.00  0.00     0.022 A 
BRANCH  77  80
ATOM     80  S   UNL A   1      41.445  20.153  26.660  1.00  0.00     0.127 S 
ATOM     81  O   UNL A   1      41.823  19.475  25.423  1.00  0.00    -0.237 OA
ATOM     82  O   UNL A   1      42.170  19.713  27.852  1.00  0.00    -0.237 OA
ATOM     83  O   UNL A   1      40.016  20.346  26.867  1.00  0.00    -0.744 OA
ENDBRANCH  77  80
ENDBRANCH  49  73
BRANCH  61  84
ATOM     84  C   UNL A   1      46.739  25.713  32.579  1.00  0.00     0.023 A 
ATOM     85  C   UNL A   1      48.013  26.148  32.167  1.00  0.00     0.012 A 
ATOM     86  C   UNL A   1      46.630  24.747  33.600  1.00  0.00     0.148 A 
ATOM     87  C   UNL A   1      49.163  25.611  32.742  1.00  0.00     0.002 A 
ATOM     88  C   UNL A   1      47.778  24.254  34.204  1.00  0.00     0.091 A 
ATOM     89  F   UNL A   1      45.406  24.335  33.963  1.00  0.00    -0.205 F 
ATOM     90  C   UNL A   1      49.046  24.674  33.768  1.00  0.00     0.022 A 
BRANCH  88  91
ATOM     91  S   UNL A   1      47.720  23.125  35.599  1.00  0.00     0.127 S 
ATOM     92  O   UNL A   1      49.139  22.857  35.824  1.00  0.00    -0.237 OA
ATOM     93  O   UNL A   1      47.081  23.941  36.632  1.00  0.00    -0.237 OA
ATOM     94  O   UNL A   1      46.929  21.984  35.158  1.00  0.00    -0.744 OA
ENDBRANCH  88  91
ENDBRANCH  61  84
ENDBRANCH  35  36
ENDBRANCH  27  30
ENDBRANCH  25  26
ENDBRANCH   1  25
TORSDOF 17
ENDMDL
