MODEL 1
REMARK VINA RESULT:     -11.1      0.000      0.000
REMARK SMILES O=C(NCCCCNC(=O)C1CN(c2cnccn2)C1)c1ccc(-c2c3nc(c(-c4cccc(S(=O)(=O)[O-])c4F)c4ccc([nH]4)c(-c4cccc(S(=O)(=O)[O-])c4F)c4nc(c(-c5cccc(S(=O)(=O)[O-])c5F)c5ccc2[nH]5)C=C4)C=C3)cc1
REMARK SMILES IDX 4 1 3 2 1 3 2 4 21 6 22 7 83 8 23 9 82 10 24 11 25 12 26 13
REMARK SMILES IDX 76 14 27 15 81 16 75 17 77 18 28 19 80 20 74 21 73 22 29 24
REMARK SMILES IDX 61 25 41 26 60 27 42 28 45 29 59 30 78 31 43 32 44 33 58 35
REMARK SMILES IDX 79 36 46 37 30 38 31 39 39 40 32 41 34 42 40 43 33 44 35 45
REMARK SMILES IDX 36 46 37 47 38 48 62 49 63 50 71 51 64 52 66 53 72 54 65 55
REMARK SMILES IDX 67 56 68 57 69 58 70 59 47 60 48 61 56 62 49 63 51 64 57 65
REMARK SMILES IDX 50 66 52 67 53 68 54 69 55 70 5 71 6 72 7 73 8 74 9 75 10 77
REMARK SMILES IDX 11 78 12 79 20 80 13 81 14 82 15 83 19 84 16 85 18 86 17 87
REMARK H PARENT 3 5 77 23 45 34 8 76
REMARK Flexibility Score: inf
ROOT
ATOM      1  C   UNL A   1      34.176  28.833  26.204  1.00  0.00     0.116 C 
ENDROOT
BRANCH   1   2
ATOM      2  N   UNL A   1      33.890  30.173  26.688  1.00  0.00    -0.352 N 
ATOM      3  O   UNL A   1      34.085  31.972  28.025  1.00  0.00    -0.269 OA
ATOM      4  C   UNL A   1      34.565  30.915  27.625  1.00  0.00     0.251 C 
ATOM      5  H   UNL A   1      33.102  30.609  26.289  1.00  0.00     0.163 HD
BRANCH   4   6
ATOM      6  C   UNL A   1      35.849  30.421  28.164  1.00  0.00     0.039 A 
ATOM      7  C   UNL A   1      37.050  30.665  27.489  1.00  0.00     0.014 A 
ATOM      8  C   UNL A   1      35.845  29.702  29.360  1.00  0.00     0.014 A 
ATOM      9  C   UNL A   1      38.231  30.090  27.949  1.00  0.00     0.010 A 
ATOM     10  C   UNL A   1      37.042  29.181  29.854  1.00  0.00     0.010 A 
ATOM     11  C   UNL A   1      38.238  29.347  29.137  1.00  0.00    -0.014 A 
BRANCH  11  12
ATOM     12  C   UNL A   1      39.507  28.789  29.667  1.00  0.00     0.031 A 
ATOM     13  C   UNL A   1      40.245  29.479  30.777  1.00  0.00     0.074 A 
ATOM     14  C   UNL A   1      40.023  27.689  29.089  1.00  0.00     0.049 A 
ATOM     15  N   UNL A   1      41.407  29.185  31.300  1.00  0.00    -0.248 NA
ATOM     16  C   UNL A   1      39.601  30.661  31.372  1.00  0.00     0.031 C 
ATOM     17  C   UNL A   1      39.413  26.962  27.974  1.00  0.00     0.029 A 
ATOM     18  N   UNL A   1      41.193  27.014  29.329  1.00  0.00    -0.354 N 
ATOM     19  C   UNL A   1      41.658  30.167  32.248  1.00  0.00     0.074 A 
ATOM     20  C   UNL A   1      40.526  31.069  32.231  1.00  0.00     0.031 C 
ATOM     21  C   UNL A   1      40.222  25.957  27.612  1.00  0.00     0.029 A 
ATOM     22  C   UNL A   1      41.426  25.997  28.435  1.00  0.00     0.049 A 
ATOM     23  H   UNL A   1      41.804  27.237  30.068  1.00  0.00     0.167 HD
ATOM     24  C   UNL A   1      42.730  30.298  33.067  1.00  0.00     0.034 A 
ATOM     25  C   UNL A   1      42.505  25.208  28.266  1.00  0.00     0.034 A 
ATOM     26  C   UNL A   1      43.835  29.377  33.099  1.00  0.00     0.049 A 
ATOM     27  C   UNL A   1      43.672  25.358  29.198  1.00  0.00     0.074 A 
ATOM     28  C   UNL A   1      44.926  29.373  33.951  1.00  0.00     0.029 A 
ATOM     29  N   UNL A   1      43.998  28.305  32.235  1.00  0.00    -0.354 N 
ATOM     30  N   UNL A   1      43.830  26.204  30.186  1.00  0.00    -0.248 NA
ATOM     31  C   UNL A   1      44.796  24.428  29.016  1.00  0.00     0.031 C 
ATOM     32  C   UNL A   1      45.761  28.311  33.585  1.00  0.00     0.029 A 
ATOM     33  C   UNL A   1      45.178  27.640  32.522  1.00  0.00     0.049 A 
ATOM     34  H   UNL A   1      43.368  28.054  31.522  1.00  0.00     0.167 HD
ATOM     35  C   UNL A   1      45.054  25.892  30.764  1.00  0.00     0.074 A 
ATOM     36  C   UNL A   1      45.591  24.770  30.021  1.00  0.00     0.031 C 
ATOM     37  C   UNL A   1      45.677  26.490  31.809  1.00  0.00     0.034 A 
BRANCH  24  38
ATOM     38  C   UNL A   1      42.745  31.464  34.020  1.00  0.00     0.023 A 
ATOM     39  C   UNL A   1      43.343  32.679  33.625  1.00  0.00     0.012 A 
ATOM     40  C   UNL A   1      42.131  31.377  35.285  1.00  0.00     0.148 A 
ATOM     41  C   UNL A   1      43.360  33.776  34.487  1.00  0.00     0.002 A 
ATOM     42  C   UNL A   1      42.118  32.487  36.123  1.00  0.00     0.091 A 
ATOM     43  F   UNL A   1      41.590  30.208  35.656  1.00  0.00    -0.205 F 
ATOM     44  C   UNL A   1      42.741  33.682  35.731  1.00  0.00     0.022 A 
BRANCH  42  45
ATOM     45  S   UNL A   1      41.277  32.472  37.710  1.00  0.00     0.127 S 
ATOM     46  O   UNL A   1      42.137  31.587  38.493  1.00  0.00    -0.237 OA
ATOM     47  O   UNL A   1      41.331  33.879  38.109  1.00  0.00    -0.237 OA
ATOM     48  O   UNL A   1      39.935  31.978  37.438  1.00  0.00    -0.744 OA
ENDBRANCH  42  45
ENDBRANCH  24  38
BRANCH  25  49
ATOM     49  C   UNL A   1      42.486  24.186  27.183  1.00  0.00     0.023 A 
ATOM     50  C   UNL A   1      43.152  24.448  25.973  1.00  0.00     0.012 A 
ATOM     51  C   UNL A   1      41.904  22.920  27.393  1.00  0.00     0.148 A 
ATOM     52  C   UNL A   1      43.232  23.467  24.983  1.00  0.00     0.002 A 
ATOM     53  C   UNL A   1      42.036  21.931  26.428  1.00  0.00     0.091 A 
ATOM     54  F   UNL A   1      41.269  22.699  28.553  1.00  0.00    -0.205 F 
ATOM     55  C   UNL A   1      42.689  22.206  25.216  1.00  0.00     0.022 A 
BRANCH  53  56
ATOM     56  S   UNL A   1      41.500  20.238  26.700  1.00  0.00     0.127 S 
ATOM     57  O   UNL A   1      40.060  20.405  26.874  1.00  0.00    -0.237 OA
ATOM     58  O   UNL A   1      41.898  19.593  25.448  1.00  0.00    -0.237 OA
ATOM     59  O   UNL A   1      42.228  19.775  27.873  1.00  0.00    -0.744 OA
ENDBRANCH  53  56
ENDBRANCH  25  49
BRANCH  37  60
ATOM     60  C   UNL A   1      47.003  25.931  32.250  1.00  0.00     0.023 A 
ATOM     61  C   UNL A   1      48.191  26.412  31.671  1.00  0.00     0.012 A 
ATOM     62  C   UNL A   1      47.071  25.012  33.316  1.00  0.00     0.148 A 
ATOM     63  C   UNL A   1      49.431  25.976  32.137  1.00  0.00     0.002 A 
ATOM     64  C   UNL A   1      48.310  24.616  33.804  1.00  0.00     0.091 A 
ATOM     65  F   UNL A   1      45.924  24.554  33.839  1.00  0.00    -0.205 F 
ATOM     66  C   UNL A   1      49.491  25.091  33.212  1.00  0.00     0.022 A 
BRANCH  64  67
ATOM     67  S   UNL A   1      48.487  23.553  35.243  1.00  0.00     0.127 S 
ATOM     68  O   UNL A   1      47.565  24.178  36.190  1.00  0.00    -0.237 OA
ATOM     69  O   UNL A   1      48.047  22.257  34.727  1.00  0.00    -0.237 OA
ATOM     70  O   UNL A   1      49.894  23.610  35.614  1.00  0.00    -0.744 OA
ENDBRANCH  64  67
ENDBRANCH  37  60
ENDBRANCH  11  12
ENDBRANCH   4   6
ENDBRANCH   1   2
BRANCH   1  71
ATOM     71  C   UNL A   1      33.158  27.804  26.686  1.00  0.00     0.023 C 
BRANCH  71  72
ATOM     72  C   UNL A   1      33.257  26.430  26.020  1.00  0.00     0.023 C 
BRANCH  72  73
ATOM     73  C   UNL A   1      32.048  25.526  26.249  1.00  0.00     0.116 C 
BRANCH  73  74
ATOM     74  N   UNL A   1      31.583  24.926  25.012  1.00  0.00    -0.356 N 
ATOM     75  C   UNL A   1      30.745  25.435  24.047  1.00  0.00     0.226 C 
ATOM     76  H   UNL A   1      31.918  24.017  24.837  1.00  0.00     0.163 HD
ATOM     77  O   UNL A   1      30.471  24.691  23.098  1.00  0.00    -0.275 OA
BRANCH  75  78
ATOM     78  C   UNL A   1      30.216  26.872  24.183  1.00  0.00     0.117 C 
ATOM     79  C   UNL A   1      30.832  27.957  23.277  1.00  0.00     0.133 C 
ATOM     80  C   UNL A   1      28.885  27.234  23.508  1.00  0.00     0.133 C 
ATOM     81  N   UNL A   1      29.508  28.452  23.133  1.00  0.00    -0.354 N 
BRANCH  81  82
ATOM     82  C   UNL A   1      29.037  29.684  22.698  1.00  0.00     0.147 A 
ATOM     83  C   UNL A   1      29.036  30.797  23.544  1.00  0.00     0.157 A 
ATOM     84  N   UNL A   1      28.613  29.812  21.420  1.00  0.00    -0.236 NA
ATOM     85  N   UNL A   1      28.624  32.037  23.172  1.00  0.00    -0.259 NA
ATOM     86  C   UNL A   1      28.170  31.035  21.050  1.00  0.00     0.133 A 
ATOM     87  C   UNL A   1      28.183  32.124  21.902  1.00  0.00     0.131 A 
ENDBRANCH  81  82
ENDBRANCH  75  78
ENDBRANCH  73  74
ENDBRANCH  72  73
ENDBRANCH  71  72
ENDBRANCH   1  71
TORSDOF 15
ENDMDL
MODEL 2
REMARK VINA RESULT:     -10.9      3.375      6.265
REMARK SMILES O=C(NCCCCNC(=O)C1CN(c2cnccn2)C1)c1ccc(-c2c3nc(c(-c4cccc(S(=O)(=O)[O-])c4F)c4ccc([nH]4)c(-c4cccc(S(=O)(=O)[O-])c4F)c4nc(c(-c5cccc(S(=O)(=O)[O-])c5F)c5ccc2[nH]5)C=C4)C=C3)cc1
REMARK SMILES IDX 4 1 3 2 1 3 2 4 21 6 22 7 83 8 23 9 82 10 24 11 25 12 26 13
REMARK SMILES IDX 76 14 27 15 81 16 75 17 77 18 28 19 80 20 74 21 73 22 29 24
REMARK SMILES IDX 61 25 41 26 60 27 42 28 45 29 59 30 78 31 43 32 44 33 58 35
REMARK SMILES IDX 79 36 46 37 30 38 31 39 39 40 32 41 34 42 40 43 33 44 35 45
REMARK SMILES IDX 36 46 37 47 38 48 62 49 63 50 71 51 64 52 66 53 72 54 65 55
REMARK SMILES IDX 67 56 68 57 69 58 70 59 47 60 48 61 56 62 49 63 51 64 57 65
REMARK SMILES IDX 50 66 52 67 53 68 54 69 55 70 5 71 6 72 7 73 8 74 9 75 10 77
REMARK SMILES IDX 11 78 12 79 20 80 13 81 14 82 15 83 19 84 16 85 18 86 17 87
REMARK H PARENT 3 5 77 23 45 34 8 76
REMARK Flexibility Score: inf
ROOT
ATOM      1  C   UNL A   1      34.426  32.975  28.892  1.00  0.00     0.116 C 
ENDROOT
BRANCH   1   2
ATOM      2  N   UNL A   1      33.871  31.999  27.969  1.00  0.00    -0.352 N 
ATOM      3  O   UNL A   1      33.874  30.204  26.613  1.00  0.00    -0.269 OA
ATOM      4  C   UNL A   1      34.424  30.826  27.517  1.00  0.00     0.251 C 
ATOM      5  H   UNL A   1      32.975  32.208  27.618  1.00  0.00     0.163 HD
BRANCH   4   6
ATOM      6  C   UNL A   1      35.690  30.340  28.103  1.00  0.00     0.039 A 
ATOM      7  C   UNL A   1      36.899  30.483  27.411  1.00  0.00     0.014 A 
ATOM      8  C   UNL A   1      35.664  29.734  29.359  1.00  0.00     0.014 A 
ATOM      9  C   UNL A   1      38.061  29.914  27.925  1.00  0.00     0.010 A 
ATOM     10  C   UNL A   1      36.843  29.221  29.901  1.00  0.00     0.010 A 
ATOM     11  C   UNL A   1      38.043  29.281  29.176  1.00  0.00    -0.014 A 
BRANCH  11  12
ATOM     12  C   UNL A   1      39.293  28.733  29.757  1.00  0.00     0.031 A 
ATOM     13  C   UNL A   1      39.925  29.371  30.960  1.00  0.00     0.074 A 
ATOM     14  C   UNL A   1      39.890  27.693  29.147  1.00  0.00     0.049 A 
ATOM     15  N   UNL A   1      41.059  29.082  31.544  1.00  0.00    -0.248 NA
ATOM     16  C   UNL A   1      39.196  30.487  31.583  1.00  0.00     0.031 C 
ATOM     17  C   UNL A   1      39.387  27.023  27.946  1.00  0.00     0.029 A 
ATOM     18  N   UNL A   1      41.066  27.044  29.425  1.00  0.00    -0.354 N 
ATOM     19  C   UNL A   1      41.206  30.005  32.570  1.00  0.00     0.074 A 
ATOM     20  C   UNL A   1      40.044  30.867  32.530  1.00  0.00     0.031 C 
ATOM     21  C   UNL A   1      40.258  26.073  27.578  1.00  0.00     0.029 A 
ATOM     22  C   UNL A   1      41.400  26.098  28.486  1.00  0.00     0.049 A 
ATOM     23  H   UNL A   1      41.615  27.237  30.219  1.00  0.00     0.167 HD
ATOM     24  C   UNL A   1      42.213  30.117  33.470  1.00  0.00     0.034 A 
ATOM     25  C   UNL A   1      42.517  25.359  28.343  1.00  0.00     0.034 A 
ATOM     26  C   UNL A   1      43.348  29.235  33.521  1.00  0.00     0.049 A 
ATOM     27  C   UNL A   1      43.611  25.486  29.364  1.00  0.00     0.074 A 
ATOM     28  C   UNL A   1      44.377  29.210  34.446  1.00  0.00     0.029 A 
ATOM     29  N   UNL A   1      43.612  28.230  32.602  1.00  0.00    -0.354 N 
ATOM     30  N   UNL A   1      43.667  26.268  30.413  1.00  0.00    -0.248 NA
ATOM     31  C   UNL A   1      44.780  24.610  29.202  1.00  0.00     0.031 C 
ATOM     32  C   UNL A   1      45.276  28.204  34.072  1.00  0.00     0.029 A 
ATOM     33  C   UNL A   1      44.794  27.587  32.928  1.00  0.00     0.049 A 
ATOM     34  H   UNL A   1      43.042  28.006  31.831  1.00  0.00     0.167 HD
ATOM     35  C   UNL A   1      44.860  25.960  31.056  1.00  0.00     0.074 A 
ATOM     36  C   UNL A   1      45.490  24.910  30.282  1.00  0.00     0.031 C 
ATOM     37  C   UNL A   1      45.385  26.506  32.180  1.00  0.00     0.034 A 
BRANCH  24  38
ATOM     38  C   UNL A   1      42.117  31.216  34.495  1.00  0.00     0.023 A 
ATOM     39  C   UNL A   1      41.632  30.925  35.786  1.00  0.00     0.012 A 
ATOM     40  C   UNL A   1      42.547  32.525  34.199  1.00  0.00     0.148 A 
ATOM     41  C   UNL A   1      41.544  31.925  36.755  1.00  0.00     0.002 A 
ATOM     42  C   UNL A   1      42.493  33.507  35.182  1.00  0.00     0.091 A 
ATOM     43  F   UNL A   1      42.981  32.793  32.960  1.00  0.00    -0.205 F 
ATOM     44  C   UNL A   1      41.981  33.212  36.456  1.00  0.00     0.022 A 
BRANCH  42  45
ATOM     45  S   UNL A   1      43.106  35.172  34.900  1.00  0.00     0.127 S 
ATOM     46  O   UNL A   1      44.489  34.916  34.503  1.00  0.00    -0.237 OA
ATOM     47  O   UNL A   1      42.242  35.646  33.817  1.00  0.00    -0.237 OA
ATOM     48  O   UNL A   1      42.925  35.874  36.162  1.00  0.00    -0.744 OA
ENDBRANCH  42  45
ENDBRANCH  24  38
BRANCH  25  49
ATOM     49  C   UNL A   1      42.613  24.413  27.198  1.00  0.00     0.023 A 
ATOM     50  C   UNL A   1      43.384  24.762  26.074  1.00  0.00     0.012 A 
ATOM     51  C   UNL A   1      42.032  23.132  27.268  1.00  0.00     0.148 A 
ATOM     52  C   UNL A   1      43.568  23.851  25.033  1.00  0.00     0.002 A 
ATOM     53  C   UNL A   1      42.268  22.211  26.255  1.00  0.00     0.091 A 
ATOM     54  F   UNL A   1      41.297  22.826  28.347  1.00  0.00    -0.205 F 
ATOM     55  C   UNL A   1      43.024  22.573  25.130  1.00  0.00     0.022 A 
BRANCH  53  56
ATOM     56  S   UNL A   1      41.733  20.499  26.362  1.00  0.00     0.127 S 
ATOM     57  O   UNL A   1      42.521  19.873  25.304  1.00  0.00    -0.237 OA
ATOM     58  O   UNL A   1      42.137  20.144  27.723  1.00  0.00    -0.237 OA
ATOM     59  O   UNL A   1      40.292  20.519  26.148  1.00  0.00    -0.744 OA
ENDBRANCH  53  56
ENDBRANCH  25  49
BRANCH  37  60
ATOM     60  C   UNL A   1      46.698  25.964  32.677  1.00  0.00     0.023 A 
ATOM     61  C   UNL A   1      47.900  26.595  32.307  1.00  0.00     0.012 A 
ATOM     62  C   UNL A   1      46.728  24.899  33.600  1.00  0.00     0.148 A 
ATOM     63  C   UNL A   1      49.116  26.166  32.837  1.00  0.00     0.002 A 
ATOM     64  C   UNL A   1      47.938  24.506  34.158  1.00  0.00     0.091 A 
ATOM     65  F   UNL A   1      45.572  24.302  33.922  1.00  0.00    -0.205 F 
ATOM     66  C   UNL A   1      49.134  25.133  33.772  1.00  0.00     0.022 A 
BRANCH  64  67
ATOM     67  S   UNL A   1      48.048  23.250  35.437  1.00  0.00     0.127 S 
ATOM     68  O   UNL A   1      47.260  23.849  36.512  1.00  0.00    -0.237 OA
ATOM     69  O   UNL A   1      47.424  22.095  34.792  1.00  0.00    -0.237 OA
ATOM     70  O   UNL A   1      49.468  23.089  35.722  1.00  0.00    -0.744 OA
ENDBRANCH  64  67
ENDBRANCH  37  60
ENDBRANCH  11  12
ENDBRANCH   4   6
ENDBRANCH   1   2
BRANCH   1  71
ATOM     71  C   UNL A   1      34.954  34.220  28.184  1.00  0.00     0.023 C 
BRANCH  71  72
ATOM     72  C   UNL A   1      34.153  35.499  28.435  1.00  0.00     0.023 C 
BRANCH  72  73
ATOM     73  C   UNL A   1      33.008  35.344  29.433  1.00  0.00     0.116 C 
BRANCH  73  74
ATOM     74  N   UNL A   1      32.843  36.532  30.251  1.00  0.00    -0.356 N 
ATOM     75  C   UNL A   1      33.134  36.734  31.579  1.00  0.00     0.226 C 
ATOM     76  H   UNL A   1      32.465  37.312  29.782  1.00  0.00     0.163 HD
ATOM     77  O   UNL A   1      32.854  37.842  32.049  1.00  0.00    -0.275 OA
BRANCH  75  78
ATOM     78  C   UNL A   1      33.790  35.605  32.392  1.00  0.00     0.117 C 
ATOM     79  C   UNL A   1      35.228  35.191  32.021  1.00  0.00     0.133 C 
ATOM     80  C   UNL A   1      34.371  35.936  33.775  1.00  0.00     0.133 C 
ATOM     81  N   UNL A   1      35.460  35.099  33.420  1.00  0.00    -0.354 N 
BRANCH  81  82
ATOM     82  C   UNL A   1      36.463  34.463  34.138  1.00  0.00     0.147 A 
ATOM     83  C   UNL A   1      36.160  33.512  35.118  1.00  0.00     0.157 A 
ATOM     84  N   UNL A   1      37.756  34.741  33.850  1.00  0.00    -0.236 NA
ATOM     85  N   UNL A   1      37.092  32.827  35.830  1.00  0.00    -0.259 NA
ATOM     86  C   UNL A   1      38.691  34.089  34.578  1.00  0.00     0.133 A 
ATOM     87  C   UNL A   1      38.368  33.147  35.538  1.00  0.00     0.131 A 
ENDBRANCH  81  82
ENDBRANCH  75  78
ENDBRANCH  73  74
ENDBRANCH  72  73
ENDBRANCH  71  72
ENDBRANCH   1  71
TORSDOF 15
ENDMDL
MODEL 3
REMARK VINA RESULT:     -10.8      2.191      4.060
REMARK SMILES O=C(NCCCCNC(=O)C1CN(c2cnccn2)C1)c1ccc(-c2c3nc(c(-c4cccc(S(=O)(=O)[O-])c4F)c4ccc([nH]4)c(-c4cccc(S(=O)(=O)[O-])c4F)c4nc(c(-c5cccc(S(=O)(=O)[O-])c5F)c5ccc2[nH]5)C=C4)C=C3)cc1
REMARK SMILES IDX 4 1 3 2 1 3 2 4 21 6 22 7 83 8 23 9 82 10 24 11 25 12 26 13
REMARK SMILES IDX 76 14 27 15 81 16 75 17 77 18 28 19 80 20 74 21 73 22 29 24
REMARK SMILES IDX 61 25 41 26 60 27 42 28 45 29 59 30 78 31 43 32 44 33 58 35
REMARK SMILES IDX 79 36 46 37 30 38 31 39 39 40 32 41 34 42 40 43 33 44 35 45
REMARK SMILES IDX 36 46 37 47 38 48 62 49 63 50 71 51 64 52 66 53 72 54 65 55
REMARK SMILES IDX 67 56 68 57 69 58 70 59 47 60 48 61 56 62 49 63 51 64 57 65
REMARK SMILES IDX 50 66 52 67 53 68 54 69 55 70 5 71 6 72 7 73 8 74 9 75 10 77
REMARK SMILES IDX 11 78 12 79 20 80 13 81 14 82 15 83 19 84 16 85 18 86 17 87
REMARK H PARENT 3 5 77 23 45 34 8 76
REMARK Flexibility Score: inf
ROOT
ATOM      1  C   UNL A   1      34.026  28.652  26.191  1.00  0.00     0.116 C 
ENDROOT
BRANCH   1   2
ATOM      2  N   UNL A   1      33.873  30.064  26.500  1.00  0.00    -0.352 N 
ATOM      3  O   UNL A   1      34.243  31.989  27.604  1.00  0.00    -0.269 OA
ATOM      4  C   UNL A   1      34.617  30.848  27.346  1.00  0.00     0.251 C 
ATOM      5  H   UNL A   1      33.134  30.522  26.038  1.00  0.00     0.163 HD
BRANCH   4   6
ATOM      6  C   UNL A   1      35.844  30.302  27.962  1.00  0.00     0.039 A 
ATOM      7  C   UNL A   1      37.071  30.367  27.292  1.00  0.00     0.014 A 
ATOM      8  C   UNL A   1      35.761  29.717  29.226  1.00  0.00     0.014 A 
ATOM      9  C   UNL A   1      38.189  29.741  27.834  1.00  0.00     0.010 A 
ATOM     10  C   UNL A   1      36.899  29.146  29.797  1.00  0.00     0.010 A 
ATOM     11  C   UNL A   1      38.115  29.129  29.093  1.00  0.00    -0.014 A 
BRANCH  11  12
ATOM     12  C   UNL A   1      39.321  28.521  29.706  1.00  0.00     0.031 A 
ATOM     13  C   UNL A   1      39.946  29.121  30.932  1.00  0.00     0.074 A 
ATOM     14  C   UNL A   1      39.889  27.460  29.104  1.00  0.00     0.049 A 
ATOM     15  N   UNL A   1      41.048  28.777  31.545  1.00  0.00    -0.248 NA
ATOM     16  C   UNL A   1      39.249  30.264  31.544  1.00  0.00     0.031 C 
ATOM     17  C   UNL A   1      39.392  26.822  27.883  1.00  0.00     0.029 A 
ATOM     18  N   UNL A   1      41.026  26.756  29.410  1.00  0.00    -0.354 N 
ATOM     19  C   UNL A   1      41.206  29.684  32.584  1.00  0.00     0.074 A 
ATOM     20  C   UNL A   1      40.085  30.598  32.519  1.00  0.00     0.031 C 
ATOM     21  C   UNL A   1      40.229  25.837  27.532  1.00  0.00     0.029 A 
ATOM     22  C   UNL A   1      41.345  25.805  28.472  1.00  0.00     0.049 A 
ATOM     23  H   UNL A   1      41.560  26.919  30.221  1.00  0.00     0.167 HD
ATOM     24  C   UNL A   1      42.190  29.745  33.514  1.00  0.00     0.034 A 
ATOM     25  C   UNL A   1      42.431  25.017  28.355  1.00  0.00     0.034 A 
ATOM     26  C   UNL A   1      43.283  28.811  33.589  1.00  0.00     0.049 A 
ATOM     27  C   UNL A   1      43.500  25.087  29.408  1.00  0.00     0.074 A 
ATOM     28  C   UNL A   1      44.282  28.734  34.543  1.00  0.00     0.029 A 
ATOM     29  N   UNL A   1      43.528  27.803  32.669  1.00  0.00    -0.354 N 
ATOM     30  N   UNL A   1      43.560  25.857  30.466  1.00  0.00    -0.248 NA
ATOM     31  C   UNL A   1      44.632  24.160  29.272  1.00  0.00     0.031 C 
ATOM     32  C   UNL A   1      45.145  27.691  34.187  1.00  0.00     0.029 A 
ATOM     33  C   UNL A   1      44.670  27.106  33.024  1.00  0.00     0.049 A 
ATOM     34  H   UNL A   1      42.972  27.611  31.880  1.00  0.00     0.167 HD
ATOM     35  C   UNL A   1      44.718  25.491  31.140  1.00  0.00     0.074 A 
ATOM     36  C   UNL A   1      45.323  24.420  30.375  1.00  0.00     0.031 C 
ATOM     37  C   UNL A   1      45.234  26.005  32.283  1.00  0.00     0.034 A 
BRANCH  24  38
ATOM     38  C   UNL A   1      42.113  30.839  34.545  1.00  0.00     0.023 A 
ATOM     39  C   UNL A   1      41.485  30.588  35.782  1.00  0.00     0.012 A 
ATOM     40  C   UNL A   1      42.699  32.098  34.312  1.00  0.00     0.148 A 
ATOM     41  C   UNL A   1      41.411  31.583  36.757  1.00  0.00     0.002 A 
ATOM     42  C   UNL A   1      42.656  33.073  35.304  1.00  0.00     0.091 A 
ATOM     43  F   UNL A   1      43.270  32.331  33.122  1.00  0.00    -0.205 F 
ATOM     44  C   UNL A   1      42.003  32.822  36.521  1.00  0.00     0.022 A 
BRANCH  42  45
ATOM     45  S   UNL A   1      43.458  34.668  35.108  1.00  0.00     0.127 S 
ATOM     46  O   UNL A   1      43.166  35.307  36.388  1.00  0.00    -0.237 OA
ATOM     47  O   UNL A   1      44.862  34.294  34.923  1.00  0.00    -0.237 OA
ATOM     48  O   UNL A   1      42.841  35.275  33.938  1.00  0.00    -0.744 OA
ENDBRANCH  42  45
ENDBRANCH  24  38
BRANCH  25  49
ATOM     49  C   UNL A   1      42.518  24.077  27.205  1.00  0.00     0.023 A 
ATOM     50  C   UNL A   1      43.242  24.450  26.058  1.00  0.00     0.012 A 
ATOM     51  C   UNL A   1      41.978  22.778  27.289  1.00  0.00     0.148 A 
ATOM     52  C   UNL A   1      43.420  23.547  25.009  1.00  0.00     0.002 A 
ATOM     53  C   UNL A   1      42.207  21.867  26.267  1.00  0.00     0.091 A 
ATOM     54  F   UNL A   1      41.286  22.450  28.390  1.00  0.00    -0.205 F 
ATOM     55  C   UNL A   1      42.917  22.253  25.120  1.00  0.00     0.022 A 
BRANCH  53  56
ATOM     56  S   UNL A   1      41.727  20.139  26.386  1.00  0.00     0.127 S 
ATOM     57  O   UNL A   1      42.281  19.764  27.684  1.00  0.00    -0.237 OA
ATOM     58  O   UNL A   1      40.267  20.231  26.342  1.00  0.00    -0.237 OA
ATOM     59  O   UNL A   1      42.323  19.482  25.231  1.00  0.00    -0.744 OA
ENDBRANCH  53  56
ENDBRANCH  25  49
BRANCH  37  60
ATOM     60  C   UNL A   1      46.507  25.400  32.813  1.00  0.00     0.023 A 
ATOM     61  C   UNL A   1      47.749  25.945  32.436  1.00  0.00     0.012 A 
ATOM     62  C   UNL A   1      46.462  24.367  33.770  1.00  0.00     0.148 A 
ATOM     63  C   UNL A   1      48.931  25.460  32.995  1.00  0.00     0.002 A 
ATOM     64  C   UNL A   1      47.640  23.919  34.354  1.00  0.00     0.091 A 
ATOM     65  F   UNL A   1      45.268  23.852  34.098  1.00  0.00    -0.205 F 
ATOM     66  C   UNL A   1      48.876  24.460  33.963  1.00  0.00     0.022 A 
BRANCH  64  67
ATOM     67  S   UNL A   1      47.661  22.702  35.675  1.00  0.00     0.127 S 
ATOM     68  O   UNL A   1      46.971  21.574  35.052  1.00  0.00    -0.237 OA
ATOM     69  O   UNL A   1      49.094  22.500  35.888  1.00  0.00    -0.237 OA
ATOM     70  O   UNL A   1      46.963  23.314  36.798  1.00  0.00    -0.744 OA
ENDBRANCH  64  67
ENDBRANCH  37  60
ENDBRANCH  11  12
ENDBRANCH   4   6
ENDBRANCH   1   2
BRANCH   1  71
ATOM     71  C   UNL A   1      32.978  27.783  26.881  1.00  0.00     0.023 C 
BRANCH  71  72
ATOM     72  C   UNL A   1      31.550  27.949  26.359  1.00  0.00     0.023 C 
BRANCH  72  73
ATOM     73  C   UNL A   1      31.064  26.808  25.469  1.00  0.00     0.116 C 
BRANCH  73  74
ATOM     74  N   UNL A   1      30.564  25.691  26.251  1.00  0.00    -0.356 N 
ATOM     75  C   UNL A   1      31.181  24.512  26.596  1.00  0.00     0.226 C 
ATOM     76  H   UNL A   1      29.644  25.795  26.586  1.00  0.00     0.163 HD
ATOM     77  O   UNL A   1      30.509  23.699  27.242  1.00  0.00    -0.275 OA
BRANCH  75  78
ATOM     78  C   UNL A   1      32.643  24.272  26.185  1.00  0.00     0.117 C 
ATOM     79  C   UNL A   1      33.472  23.272  27.016  1.00  0.00     0.133 C 
ATOM     80  C   UNL A   1      32.932  23.340  24.999  1.00  0.00     0.133 C 
ATOM     81  N   UNL A   1      34.003  22.828  25.776  1.00  0.00    -0.354 N 
BRANCH  81  82
ATOM     82  C   UNL A   1      35.140  22.087  25.483  1.00  0.00     0.147 A 
ATOM     83  C   UNL A   1      35.078  20.700  25.324  1.00  0.00     0.157 A 
ATOM     84  N   UNL A   1      36.317  22.731  25.308  1.00  0.00    -0.236 NA
ATOM     85  N   UNL A   1      36.144  19.921  25.001  1.00  0.00    -0.259 NA
ATOM     86  C   UNL A   1      37.391  21.960  25.021  1.00  0.00     0.133 A 
ATOM     87  C   UNL A   1      37.306  20.589  24.861  1.00  0.00     0.131 A 
ENDBRANCH  81  82
ENDBRANCH  75  78
ENDBRANCH  73  74
ENDBRANCH  72  73
ENDBRANCH  71  72
ENDBRANCH   1  71
TORSDOF 15
ENDMDL
