MODEL 1
REMARK VINA RESULT:     -10.9      0.000      0.000
REMARK SMILES Nc1ccc(Cl)c(SC[C@H]2CC[C@@H](C(=O)NCCCCNC(=O)c3ccc(-c4c5nc(c(-c6cccc(S(=O)(=O)[O-])c6F)c6ccc([nH]6)c(-c6cccc(S(=O)(=O)[O-])c6F)c6nc(c(-c7cccc(S(=O)(=O)[O-])c7F)c7ccc4[nH]7)C=C6)C=C5)cc3)O2)c1
REMARK SMILES IDX 18 1 17 2 16 3 14 4 15 5 13 7 10 8 11 9 87 10 12 11 9 12
REMARK SMILES IDX 8 13 7 14 2 15 3 16 88 17 4 18 5 19 6 20 1 21 19 24 20 25
REMARK SMILES IDX 21 26 22 27 23 29 24 30 25 31 86 32 26 33 85 34 27 35 28 36
REMARK SMILES IDX 29 37 79 38 30 39 84 40 78 41 80 42 31 43 83 44 77 45 76 46
REMARK SMILES IDX 32 48 64 49 44 50 63 51 45 52 48 53 62 54 81 55 46 56 47 57
REMARK SMILES IDX 61 59 82 60 49 61 33 62 34 63 42 64 35 65 37 66 43 67 36 68
REMARK SMILES IDX 38 69 39 70 40 71 41 72 65 73 66 74 74 75 67 76 69 77 75 78
REMARK SMILES IDX 68 79 70 80 71 81 72 82 73 83 50 84 51 85 59 86 52 87 54 88
REMARK SMILES IDX 60 89 53 90 55 91 56 92 57 93 58 94
REMARK H PARENT 16 6 1 22 1 23 21 28 80 47 48 58
REMARK Flexibility Score: inf
ROOT
ATOM      1  C   UNL A   1      35.273  22.334  26.480  1.00  0.00     0.023 C 
ENDROOT
BRANCH   1   2
ATOM      2  C   UNL A   1      33.758  22.512  26.582  1.00  0.00     0.116 C 
BRANCH   2   3
ATOM      3  N   UNL A   1      33.045  21.305  26.227  1.00  0.00    -0.354 N 
ATOM      4  C   UNL A   1      32.435  20.911  25.076  1.00  0.00     0.249 C 
ATOM      5  O   UNL A   1      31.973  19.763  25.080  1.00  0.00    -0.272 OA
ATOM      6  H   UNL A   1      32.990  20.644  26.956  1.00  0.00     0.163 HD
BRANCH   4   7
ATOM      7  C   UNL A   1      32.384  21.771  23.785  1.00  0.00     0.207 C 
ATOM      8  C   UNL A   1      31.967  24.085  23.552  1.00  0.00     0.129 C 
ATOM      9  C   UNL A   1      33.107  23.717  22.626  1.00  0.00     0.036 C 
ATOM     10  O   UNL A   1      31.394  22.827  23.930  1.00  0.00    -0.364 OA
ATOM     11  C   UNL A   1      33.633  22.460  23.262  1.00  0.00     0.045 C 
BRANCH   8  12
ATOM     12  C   UNL A   1      32.383  24.990  24.740  1.00  0.00     0.107 C 
BRANCH  12  13
ATOM     13  S   UNL A   1      33.779  26.153  24.542  1.00  0.00    -0.122 SA
BRANCH  13  14
ATOM     14  C   UNL A   1      33.189  27.715  25.236  1.00  0.00     0.028 A 
ATOM     15  C   UNL A   1      33.378  29.546  26.865  1.00  0.00     0.033 A 
ATOM     16  C   UNL A   1      32.275  30.171  26.292  1.00  0.00     0.027 A 
ATOM     17  C   UNL A   1      33.782  28.300  26.369  1.00  0.00     0.042 A 
ATOM     18  C   UNL A   1      31.647  29.607  25.182  1.00  0.00     0.024 A 
ATOM     19  C   UNL A   1      32.105  28.396  24.647  1.00  0.00     0.054 A 
ATOM     20  Cl  UNL A   1      31.270  27.801  23.249  1.00  0.00    -0.083 Cl
BRANCH  15  21
ATOM     21  N   UNL A   1      33.980  30.073  28.003  1.00  0.00    -0.399 N 
ATOM     22  H   UNL A   1      33.471  30.668  28.599  1.00  0.00     0.156 HD
ATOM     23  H   UNL A   1      34.917  29.848  28.213  1.00  0.00     0.156 HD
ENDBRANCH  15  21
ENDBRANCH  13  14
ENDBRANCH  12  13
ENDBRANCH   8  12
ENDBRANCH   4   7
ENDBRANCH   2   3
ENDBRANCH   1   2
BRANCH   1  24
ATOM     24  C   UNL A   1      36.043  23.569  26.010  1.00  0.00     0.023 C 
BRANCH  24  25
ATOM     25  C   UNL A   1      37.185  23.297  25.039  1.00  0.00     0.116 C 
BRANCH  25  26
ATOM     26  N   UNL A   1      38.185  22.372  25.556  1.00  0.00    -0.352 N 
ATOM     27  C   UNL A   1      39.274  22.657  26.346  1.00  0.00     0.251 C 
ATOM     28  H   UNL A   1      38.068  21.427  25.308  1.00  0.00     0.163 HD
ATOM     29  O   UNL A   1      40.078  21.775  26.637  1.00  0.00    -0.269 OA
BRANCH  27  30
ATOM     30  C   UNL A   1      39.486  24.045  26.804  1.00  0.00     0.039 A 
ATOM     31  C   UNL A   1      39.153  24.379  28.119  1.00  0.00     0.014 A 
ATOM     32  C   UNL A   1      40.068  24.991  25.957  1.00  0.00     0.014 A 
ATOM     33  C   UNL A   1      39.477  25.646  28.610  1.00  0.00     0.010 A 
ATOM     34  C   UNL A   1      40.447  26.227  26.466  1.00  0.00     0.010 A 
ATOM     35  C   UNL A   1      40.161  26.565  27.798  1.00  0.00    -0.014 A 
BRANCH  35  36
ATOM     36  C   UNL A   1      40.620  27.873  28.328  1.00  0.00     0.031 A 
ATOM     37  C   UNL A   1      42.088  28.143  28.505  1.00  0.00     0.074 A 
ATOM     38  C   UNL A   1      39.710  28.768  28.760  1.00  0.00     0.049 A 
ATOM     39  N   UNL A   1      42.676  29.186  29.027  1.00  0.00    -0.248 NA
ATOM     40  C   UNL A   1      43.018  27.089  28.065  1.00  0.00     0.031 C 
ATOM     41  C   UNL A   1      38.257  28.578  28.732  1.00  0.00     0.029 A 
ATOM     42  N   UNL A   1      39.871  29.999  29.344  1.00  0.00    -0.354 N 
ATOM     43  C   UNL A   1      44.035  28.899  29.021  1.00  0.00     0.074 A 
ATOM     44  C   UNL A   1      44.185  27.574  28.463  1.00  0.00     0.031 C 
ATOM     45  C   UNL A   1      37.663  29.651  29.282  1.00  0.00     0.029 A 
ATOM     46  C   UNL A   1      38.688  30.593  29.718  1.00  0.00     0.049 A 
ATOM     47  H   UNL A   1      40.751  30.419  29.481  1.00  0.00     0.167 HD
ATOM     48  C   UNL A   1      45.066  29.682  29.417  1.00  0.00     0.034 A 
ATOM     49  C   UNL A   1      38.456  31.760  30.351  1.00  0.00     0.034 A 
ATOM     50  C   UNL A   1      44.916  31.023  29.910  1.00  0.00     0.049 A 
ATOM     51  C   UNL A   1      39.622  32.640  30.710  1.00  0.00     0.074 A 
ATOM     52  C   UNL A   1      45.905  31.940  30.221  1.00  0.00     0.029 A 
ATOM     53  N   UNL A   1      43.702  31.640  30.165  1.00  0.00    -0.354 N 
ATOM     54  N   UNL A   1      40.901  32.431  30.519  1.00  0.00    -0.248 NA
ATOM     55  C   UNL A   1      39.311  33.934  31.336  1.00  0.00     0.031 C 
ATOM     56  C   UNL A   1      45.287  33.110  30.676  1.00  0.00     0.029 A 
ATOM     57  C   UNL A   1      43.914  32.923  30.638  1.00  0.00     0.049 A 
ATOM     58  H   UNL A   1      42.818  31.227  30.030  1.00  0.00     0.167 HD
ATOM     59  C   UNL A   1      41.547  33.576  30.972  1.00  0.00     0.074 A 
ATOM     60  C   UNL A   1      40.515  34.486  31.426  1.00  0.00     0.031 C 
ATOM     61  C   UNL A   1      42.875  33.842  31.027  1.00  0.00     0.034 A 
BRANCH  48  62
ATOM     62  C   UNL A   1      46.460  29.134  29.267  1.00  0.00     0.023 A 
ATOM     63  C   UNL A   1      47.049  28.441  30.344  1.00  0.00     0.012 A 
ATOM     64  C   UNL A   1      47.158  29.242  28.048  1.00  0.00     0.148 A 
ATOM     65  C   UNL A   1      48.322  27.886  30.219  1.00  0.00     0.002 A 
ATOM     66  C   UNL A   1      48.411  28.653  27.920  1.00  0.00     0.091 A 
ATOM     67  F   UNL A   1      46.591  29.926  27.043  1.00  0.00    -0.205 F 
ATOM     68  C   UNL A   1      48.997  27.983  29.007  1.00  0.00     0.022 A 
BRANCH  66  69
ATOM     69  S   UNL A   1      49.329  28.659  26.376  1.00  0.00     0.127 S 
ATOM     70  O   UNL A   1      49.819  30.037  26.331  1.00  0.00    -0.237 OA
ATOM     71  O   UNL A   1      50.363  27.654  26.627  1.00  0.00    -0.237 OA
ATOM     72  O   UNL A   1      48.373  28.299  25.340  1.00  0.00    -0.744 OA
ENDBRANCH  66  69
ENDBRANCH  48  62
BRANCH  49  73
ATOM     73  C   UNL A   1      37.056  32.198  30.613  1.00  0.00     0.023 A 
ATOM     74  C   UNL A   1      36.518  32.044  31.905  1.00  0.00     0.012 A 
ATOM     75  C   UNL A   1      36.268  32.791  29.607  1.00  0.00     0.148 A 
ATOM     76  C   UNL A   1      35.212  32.446  32.185  1.00  0.00     0.002 A 
ATOM     77  C   UNL A   1      34.984  33.235  29.906  1.00  0.00     0.091 A 
ATOM     78  F   UNL A   1      36.791  32.914  28.379  1.00  0.00    -0.205 F 
ATOM     79  C   UNL A   1      34.449  33.050  31.190  1.00  0.00     0.022 A 
BRANCH  77  80
ATOM     80  S   UNL A   1      33.987  34.140  28.718  1.00  0.00     0.127 S 
ATOM     81  O   UNL A   1      34.930  35.147  28.241  1.00  0.00    -0.237 OA
ATOM     82  O   UNL A   1      33.651  33.100  27.744  1.00  0.00    -0.237 OA
ATOM     83  O   UNL A   1      32.846  34.639  29.474  1.00  0.00    -0.744 OA
ENDBRANCH  77  80
ENDBRANCH  49  73
BRANCH  61  84
ATOM     84  C   UNL A   1      43.300  35.178  31.574  1.00  0.00     0.023 A 
ATOM     85  C   UNL A   1      43.603  36.227  30.685  1.00  0.00     0.012 A 
ATOM     86  C   UNL A   1      43.310  35.419  32.961  1.00  0.00     0.148 A 
ATOM     87  C   UNL A   1      43.934  37.491  31.169  1.00  0.00     0.002 A 
ATOM     88  C   UNL A   1      43.597  36.693  33.436  1.00  0.00     0.091 A 
ATOM     89  F   UNL A   1      43.037  34.402  33.791  1.00  0.00    -0.205 F 
ATOM     90  C   UNL A   1      43.918  37.728  32.542  1.00  0.00     0.022 A 
BRANCH  88  91
ATOM     91  S   UNL A   1      43.509  37.110  35.182  1.00  0.00     0.127 S 
ATOM     92  O   UNL A   1      43.836  38.534  35.166  1.00  0.00    -0.237 OA
ATOM     93  O   UNL A   1      42.113  36.808  35.506  1.00  0.00    -0.237 OA
ATOM     94  O   UNL A   1      44.479  36.250  35.844  1.00  0.00    -0.744 OA
ENDBRANCH  88  91
ENDBRANCH  61  84
ENDBRANCH  35  36
ENDBRANCH  27  30
ENDBRANCH  25  26
ENDBRANCH  24  25
ENDBRANCH   1  24
TORSDOF 18
ENDMDL
MODEL 2
REMARK VINA RESULT:     -10.9      4.016      9.434
REMARK SMILES Nc1ccc(Cl)c(SC[C@H]2CC[C@@H](C(=O)NCCCCNC(=O)c3ccc(-c4c5nc(c(-c6cccc(S(=O)(=O)[O-])c6F)c6ccc([nH]6)c(-c6cccc(S(=O)(=O)[O-])c6F)c6nc(c(-c7cccc(S(=O)(=O)[O-])c7F)c7ccc4[nH]7)C=C6)C=C5)cc3)O2)c1
REMARK SMILES IDX 18 1 17 2 16 3 14 4 15 5 13 7 10 8 11 9 87 10 12 11 9 12
REMARK SMILES IDX 8 13 7 14 2 15 3 16 88 17 4 18 5 19 6 20 1 21 19 24 20 25
REMARK SMILES IDX 21 26 22 27 23 29 24 30 25 31 86 32 26 33 85 34 27 35 28 36
REMARK SMILES IDX 29 37 79 38 30 39 84 40 78 41 80 42 31 43 83 44 77 45 76 46
REMARK SMILES IDX 32 48 64 49 44 50 63 51 45 52 48 53 62 54 81 55 46 56 47 57
REMARK SMILES IDX 61 59 82 60 49 61 33 62 34 63 42 64 35 65 37 66 43 67 36 68
REMARK SMILES IDX 38 69 39 70 40 71 41 72 65 73 66 74 74 75 67 76 69 77 75 78
REMARK SMILES IDX 68 79 70 80 71 81 72 82 73 83 50 84 51 85 59 86 52 87 54 88
REMARK SMILES IDX 60 89 53 90 55 91 56 92 57 93 58 94
REMARK H PARENT 16 6 1 22 1 23 21 28 80 47 48 58
REMARK Flexibility Score: inf
ROOT
ATOM      1  C   UNL A   1      33.584  29.031  24.407  1.00  0.00     0.023 C 
ENDROOT
BRANCH   1   2
ATOM      2  C   UNL A   1      33.221  28.101  23.247  1.00  0.00     0.116 C 
BRANCH   2   3
ATOM      3  N   UNL A   1      32.030  28.539  22.554  1.00  0.00    -0.354 N 
ATOM      4  C   UNL A   1      30.781  28.007  22.463  1.00  0.00     0.249 C 
ATOM      5  O   UNL A   1      29.954  28.684  21.838  1.00  0.00    -0.272 OA
ATOM      6  H   UNL A   1      32.145  29.380  22.053  1.00  0.00     0.163 HD
BRANCH   4   7
ATOM      7  C   UNL A   1      30.347  26.690  23.160  1.00  0.00     0.207 C 
ATOM      8  C   UNL A   1      31.652  24.804  23.727  1.00  0.00     0.129 C 
ATOM      9  C   UNL A   1      30.726  25.101  24.888  1.00  0.00     0.036 C 
ATOM     10  O   UNL A   1      31.121  25.574  22.641  1.00  0.00    -0.364 OA
ATOM     11  C   UNL A   1      30.412  26.556  24.672  1.00  0.00     0.045 C 
BRANCH   8  12
ATOM     12  C   UNL A   1      33.150  25.061  24.030  1.00  0.00     0.107 C 
BRANCH  12  13
ATOM     13  S   UNL A   1      33.777  24.839  25.733  1.00  0.00    -0.122 SA
BRANCH  13  14
ATOM     14  C   UNL A   1      35.033  23.544  25.604  1.00  0.00     0.028 A 
ATOM     15  C   UNL A   1      37.376  22.810  25.710  1.00  0.00     0.033 A 
ATOM     16  C   UNL A   1      36.981  21.506  25.431  1.00  0.00     0.027 A 
ATOM     17  C   UNL A   1      36.405  23.819  25.734  1.00  0.00     0.042 A 
ATOM     18  C   UNL A   1      35.630  21.200  25.273  1.00  0.00     0.024 A 
ATOM     19  C   UNL A   1      34.659  22.205  25.372  1.00  0.00     0.054 A 
ATOM     20  Cl  UNL A   1      33.008  21.709  25.188  1.00  0.00    -0.083 Cl
BRANCH  15  21
ATOM     21  N   UNL A   1      38.724  23.136  25.819  1.00  0.00    -0.399 N 
ATOM     22  H   UNL A   1      38.992  24.009  26.185  1.00  0.00     0.156 HD
ATOM     23  H   UNL A   1      39.412  22.491  25.531  1.00  0.00     0.156 HD
ENDBRANCH  15  21
ENDBRANCH  13  14
ENDBRANCH  12  13
ENDBRANCH   8  12
ENDBRANCH   4   7
ENDBRANCH   2   3
ENDBRANCH   1   2
BRANCH   1  24
ATOM     24  C   UNL A   1      32.812  28.786  25.703  1.00  0.00     0.023 C 
BRANCH  24  25
ATOM     25  C   UNL A   1      33.605  28.999  26.986  1.00  0.00     0.116 C 
BRANCH  25  26
ATOM     26  N   UNL A   1      33.625  30.384  27.440  1.00  0.00    -0.352 N 
ATOM     27  C   UNL A   1      34.611  31.029  28.147  1.00  0.00     0.251 C 
ATOM     28  H   UNL A   1      32.834  30.923  27.212  1.00  0.00     0.163 HD
ATOM     29  O   UNL A   1      34.445  32.185  28.530  1.00  0.00    -0.269 OA
BRANCH  27  30
ATOM     30  C   UNL A   1      35.852  30.301  28.479  1.00  0.00     0.039 A 
ATOM     31  C   UNL A   1      36.925  30.357  27.588  1.00  0.00     0.014 A 
ATOM     32  C   UNL A   1      35.973  29.621  29.695  1.00  0.00     0.014 A 
ATOM     33  C   UNL A   1      38.150  29.792  27.949  1.00  0.00     0.010 A 
ATOM     34  C   UNL A   1      37.210  29.118  30.079  1.00  0.00     0.010 A 
ATOM     35  C   UNL A   1      38.312  29.203  29.214  1.00  0.00    -0.014 A 
BRANCH  35  36
ATOM     36  C   UNL A   1      39.631  28.700  29.671  1.00  0.00     0.031 A 
ATOM     37  C   UNL A   1      40.378  29.421  30.758  1.00  0.00     0.074 A 
ATOM     38  C   UNL A   1      40.205  27.668  29.023  1.00  0.00     0.049 A 
ATOM     39  N   UNL A   1      41.573  29.184  31.231  1.00  0.00    -0.248 NA
ATOM     40  C   UNL A   1      39.708  30.578  31.374  1.00  0.00     0.031 C 
ATOM     41  C   UNL A   1      39.620  26.950  27.887  1.00  0.00     0.029 A 
ATOM     42  N   UNL A   1      41.426  27.066  29.200  1.00  0.00    -0.354 N 
ATOM     43  C   UNL A   1      41.817  30.183  32.164  1.00  0.00     0.074 A 
ATOM     44  C   UNL A   1      40.655  31.044  32.176  1.00  0.00     0.031 C 
ATOM     45  C   UNL A   1      40.487  26.013  27.465  1.00  0.00     0.029 A 
ATOM     46  C   UNL A   1      41.692  26.075  28.284  1.00  0.00     0.049 A 
ATOM     47  H   UNL A   1      42.053  27.320  29.916  1.00  0.00     0.167 HD
ATOM     48  C   UNL A   1      42.899  30.351  32.960  1.00  0.00     0.034 A 
ATOM     49  C   UNL A   1      42.788  25.309  28.117  1.00  0.00     0.034 A 
ATOM     50  C   UNL A   1      44.022  29.455  32.991  1.00  0.00     0.049 A 
ATOM     51  C   UNL A   1      43.944  25.471  29.067  1.00  0.00     0.074 A 
ATOM     52  C   UNL A   1      45.109  29.470  33.847  1.00  0.00     0.029 A 
ATOM     53  N   UNL A   1      44.206  28.387  32.128  1.00  0.00    -0.354 N 
ATOM     54  N   UNL A   1      44.074  26.302  30.072  1.00  0.00    -0.248 NA
ATOM     55  C   UNL A   1      45.088  24.564  28.885  1.00  0.00     0.031 C 
ATOM     56  C   UNL A   1      45.957  28.415  33.493  1.00  0.00     0.029 A 
ATOM     57  C   UNL A   1      45.392  27.739  32.424  1.00  0.00     0.049 A 
ATOM     58  H   UNL A   1      43.584  28.127  31.410  1.00  0.00     0.167 HD
ATOM     59  C   UNL A   1      45.297  26.000  30.661  1.00  0.00     0.074 A 
ATOM     60  C   UNL A   1      45.859  24.893  29.914  1.00  0.00     0.031 C 
ATOM     61  C   UNL A   1      45.908  26.598  31.712  1.00  0.00     0.034 A 
BRANCH  48  62
ATOM     62  C   UNL A   1      42.890  31.511  33.920  1.00  0.00     0.023 A 
ATOM     63  C   UNL A   1      43.382  32.762  33.494  1.00  0.00     0.012 A 
ATOM     64  C   UNL A   1      42.338  31.386  35.209  1.00  0.00     0.148 A 
ATOM     65  C   UNL A   1      43.349  33.864  34.347  1.00  0.00     0.002 A 
ATOM     66  C   UNL A   1      42.273  32.499  36.039  1.00  0.00     0.091 A 
ATOM     67  F   UNL A   1      41.897  30.182  35.603  1.00  0.00    -0.205 F 
ATOM     68  C   UNL A   1      42.786  33.736  35.612  1.00  0.00     0.022 A 
BRANCH  66  69
ATOM     69  S   UNL A   1      41.500  32.454  37.660  1.00  0.00     0.127 S 
ATOM     70  O   UNL A   1      40.140  32.030  37.326  1.00  0.00    -0.237 OA
ATOM     71  O   UNL A   1      42.299  31.444  38.355  1.00  0.00    -0.237 OA
ATOM     72  O   UNL A   1      41.623  33.800  38.200  1.00  0.00    -0.744 OA
ENDBRANCH  66  69
ENDBRANCH  48  62
BRANCH  49  73
ATOM     73  C   UNL A   1      42.811  24.266  27.053  1.00  0.00     0.023 A 
ATOM     74  C   UNL A   1      43.509  24.519  25.857  1.00  0.00     0.012 A 
ATOM     75  C   UNL A   1      42.178  23.020  27.229  1.00  0.00     0.148 A 
ATOM     76  C   UNL A   1      43.552  23.563  24.842  1.00  0.00     0.002 A 
ATOM     77  C   UNL A   1      42.268  22.052  26.234  1.00  0.00     0.091 A 
ATOM     78  F   UNL A   1      41.506  22.802  28.368  1.00  0.00    -0.205 F 
ATOM     79  C   UNL A   1      42.941  22.327  25.034  1.00  0.00     0.022 A 
BRANCH  77  80
ATOM     80  S   UNL A   1      41.622  20.391  26.457  1.00  0.00     0.127 S 
ATOM     81  O   UNL A   1      42.220  19.684  25.328  1.00  0.00    -0.237 OA
ATOM     82  O   UNL A   1      42.160  20.025  27.768  1.00  0.00    -0.237 OA
ATOM     83  O   UNL A   1      40.173  20.535  26.427  1.00  0.00    -0.744 OA
ENDBRANCH  77  80
ENDBRANCH  49  73
BRANCH  61  84
ATOM     84  C   UNL A   1      47.247  26.061  32.142  1.00  0.00     0.023 A 
ATOM     85  C   UNL A   1      48.419  26.552  31.536  1.00  0.00     0.012 A 
ATOM     86  C   UNL A   1      47.348  25.142  33.204  1.00  0.00     0.148 A 
ATOM     87  C   UNL A   1      49.672  26.118  31.964  1.00  0.00     0.002 A 
ATOM     88  C   UNL A   1      48.601  24.747  33.656  1.00  0.00     0.091 A 
ATOM     89  F   UNL A   1      46.219  24.672  33.755  1.00  0.00    -0.205 F 
ATOM     90  C   UNL A   1      49.765  25.227  33.031  1.00  0.00     0.022 A 
BRANCH  88  91
ATOM     91  S   UNL A   1      48.814  23.675  35.083  1.00  0.00     0.127 S 
ATOM     92  O   UNL A   1      48.139  24.437  36.131  1.00  0.00    -0.237 OA
ATOM     93  O   UNL A   1      48.116  22.458  34.666  1.00  0.00    -0.237 OA
ATOM     94  O   UNL A   1      50.252  23.517  35.249  1.00  0.00    -0.744 OA
ENDBRANCH  88  91
ENDBRANCH  61  84
ENDBRANCH  35  36
ENDBRANCH  27  30
ENDBRANCH  25  26
ENDBRANCH  24  25
ENDBRANCH   1  24
TORSDOF 18
ENDMDL
MODEL 3
REMARK VINA RESULT:     -10.7      4.853      8.226
REMARK SMILES Nc1ccc(Cl)c(SC[C@H]2CC[C@@H](C(=O)NCCCCNC(=O)c3ccc(-c4c5nc(c(-c6cccc(S(=O)(=O)[O-])c6F)c6ccc([nH]6)c(-c6cccc(S(=O)(=O)[O-])c6F)c6nc(c(-c7cccc(S(=O)(=O)[O-])c7F)c7ccc4[nH]7)C=C6)C=C5)cc3)O2)c1
REMARK SMILES IDX 18 1 17 2 16 3 14 4 15 5 13 7 10 8 11 9 87 10 12 11 9 12
REMARK SMILES IDX 8 13 7 14 2 15 3 16 88 17 4 18 5 19 6 20 1 21 19 24 20 25
REMARK SMILES IDX 21 26 22 27 23 29 24 30 25 31 86 32 26 33 85 34 27 35 28 36
REMARK SMILES IDX 29 37 79 38 30 39 84 40 78 41 80 42 31 43 83 44 77 45 76 46
REMARK SMILES IDX 32 48 64 49 44 50 63 51 45 52 48 53 62 54 81 55 46 56 47 57
REMARK SMILES IDX 61 59 82 60 49 61 33 62 34 63 42 64 35 65 37 66 43 67 36 68
REMARK SMILES IDX 38 69 39 70 40 71 41 72 65 73 66 74 74 75 67 76 69 77 75 78
REMARK SMILES IDX 68 79 70 80 71 81 72 82 73 83 50 84 51 85 59 86 52 87 54 88
REMARK SMILES IDX 60 89 53 90 55 91 56 92 57 93 58 94
REMARK H PARENT 16 6 1 22 1 23 21 28 80 47 48 58
REMARK Flexibility Score: inf
ROOT
ATOM      1  C   UNL A   1      32.477  30.267  26.095  1.00  0.00     0.023 C 
ENDROOT
BRANCH   1   2
ATOM      2  C   UNL A   1      33.018  29.182  27.027  1.00  0.00     0.116 C 
BRANCH   2   3
ATOM      3  N   UNL A   1      32.064  28.113  27.226  1.00  0.00    -0.354 N 
ATOM      4  C   UNL A   1      31.354  27.350  26.351  1.00  0.00     0.249 C 
ATOM      5  O   UNL A   1      30.667  26.453  26.857  1.00  0.00    -0.272 OA
ATOM      6  H   UNL A   1      31.897  27.898  28.173  1.00  0.00     0.163 HD
BRANCH   4   7
ATOM      7  C   UNL A   1      31.441  27.493  24.809  1.00  0.00     0.207 C 
ATOM      8  C   UNL A   1      32.218  25.938  23.209  1.00  0.00     0.129 C 
ATOM      9  C   UNL A   1      30.960  26.582  22.666  1.00  0.00     0.036 C 
ATOM     10  O   UNL A   1      32.602  26.775  24.307  1.00  0.00    -0.364 OA
ATOM     11  C   UNL A   1      30.285  27.059  23.923  1.00  0.00     0.045 C 
BRANCH   8  12
ATOM     12  C   UNL A   1      32.059  24.437  23.564  1.00  0.00     0.107 C 
BRANCH  12  13
ATOM     13  S   UNL A   1      32.490  23.857  25.243  1.00  0.00    -0.122 SA
BRANCH  13  14
ATOM     14  C   UNL A   1      34.112  23.077  25.066  1.00  0.00     0.028 A 
ATOM     15  C   UNL A   1      36.193  22.714  23.808  1.00  0.00     0.033 A 
ATOM     16  C   UNL A   1      36.657  21.876  24.817  1.00  0.00     0.027 A 
ATOM     17  C   UNL A   1      34.905  23.254  23.919  1.00  0.00     0.042 A 
ATOM     18  C   UNL A   1      35.887  21.657  25.958  1.00  0.00     0.024 A 
ATOM     19  C   UNL A   1      34.630  22.262  26.092  1.00  0.00     0.054 A 
ATOM     20  Cl  UNL A   1      33.771  21.947  27.565  1.00  0.00    -0.083 Cl
BRANCH  15  21
ATOM     21  N   UNL A   1      36.929  22.897  22.642  1.00  0.00    -0.399 N 
ATOM     22  H   UNL A   1      37.681  23.533  22.630  1.00  0.00     0.156 HD
ATOM     23  H   UNL A   1      36.699  22.391  21.829  1.00  0.00     0.156 HD
ENDBRANCH  15  21
ENDBRANCH  13  14
ENDBRANCH  12  13
ENDBRANCH   8  12
ENDBRANCH   4   7
ENDBRANCH   2   3
ENDBRANCH   1   2
BRANCH   1  24
ATOM     24  C   UNL A   1      31.977  31.533  26.792  1.00  0.00     0.023 C 
BRANCH  24  25
ATOM     25  C   UNL A   1      33.063  32.441  27.355  1.00  0.00     0.116 C 
BRANCH  25  26
ATOM     26  N   UNL A   1      32.608  33.797  27.633  1.00  0.00    -0.352 N 
ATOM     27  C   UNL A   1      33.107  34.686  28.554  1.00  0.00     0.251 C 
ATOM     28  H   UNL A   1      31.847  34.115  27.095  1.00  0.00     0.163 HD
ATOM     29  O   UNL A   1      32.560  35.772  28.729  1.00  0.00    -0.269 OA
BRANCH  27  30
ATOM     30  C   UNL A   1      34.282  34.301  29.361  1.00  0.00     0.039 A 
ATOM     31  C   UNL A   1      34.079  33.736  30.622  1.00  0.00     0.014 A 
ATOM     32  C   UNL A   1      35.574  34.440  28.845  1.00  0.00     0.014 A 
ATOM     33  C   UNL A   1      35.170  33.239  31.337  1.00  0.00     0.010 A 
ATOM     34  C   UNL A   1      36.650  33.886  29.530  1.00  0.00     0.010 A 
ATOM     35  C   UNL A   1      36.458  33.275  30.779  1.00  0.00    -0.014 A 
BRANCH  35  36
ATOM     36  C   UNL A   1      37.617  32.650  31.464  1.00  0.00     0.031 A 
ATOM     37  C   UNL A   1      38.338  31.495  30.827  1.00  0.00     0.074 A 
ATOM     38  C   UNL A   1      37.940  33.046  32.711  1.00  0.00     0.049 A 
ATOM     39  N   UNL A   1      39.313  30.769  31.306  1.00  0.00    -0.248 NA
ATOM     40  C   UNL A   1      37.884  31.082  29.488  1.00  0.00     0.031 C 
ATOM     41  C   UNL A   1      37.249  34.090  33.474  1.00  0.00     0.029 A 
ATOM     42  N   UNL A   1      38.906  32.591  33.574  1.00  0.00    -0.354 N 
ATOM     43  C   UNL A   1      39.560  29.789  30.353  1.00  0.00     0.074 A 
ATOM     44  C   UNL A   1      38.617  29.999  29.276  1.00  0.00     0.031 C 
ATOM     45  C   UNL A   1      37.809  34.188  34.691  1.00  0.00     0.029 A 
ATOM     46  C   UNL A   1      38.881  33.205  34.805  1.00  0.00     0.049 A 
ATOM     47  H   UNL A   1      39.556  31.892  33.333  1.00  0.00     0.167 HD
ATOM     48  C   UNL A   1      40.506  28.821  30.360  1.00  0.00     0.034 A 
ATOM     49  C   UNL A   1      39.631  32.992  35.904  1.00  0.00     0.034 A 
ATOM     50  C   UNL A   1      41.482  28.658  31.402  1.00  0.00     0.049 A 
ATOM     51  C   UNL A   1      40.724  31.959  35.853  1.00  0.00     0.074 A 
ATOM     52  C   UNL A   1      42.556  27.787  31.444  1.00  0.00     0.029 A 
ATOM     53  N   UNL A   1      41.503  29.379  32.586  1.00  0.00    -0.354 N 
ATOM     54  N   UNL A   1      41.066  31.170  34.865  1.00  0.00    -0.248 NA
ATOM     55  C   UNL A   1      41.559  31.814  37.055  1.00  0.00     0.031 C 
ATOM     56  C   UNL A   1      43.222  27.974  32.661  1.00  0.00     0.029 A 
ATOM     57  C   UNL A   1      42.566  28.968  33.370  1.00  0.00     0.049 A 
ATOM     58  H   UNL A   1      40.857  30.079  32.832  1.00  0.00     0.167 HD
ATOM     59  C   UNL A   1      42.173  30.456  35.312  1.00  0.00     0.074 A 
ATOM     60  C   UNL A   1      42.458  30.925  36.653  1.00  0.00     0.031 C 
ATOM     61  C   UNL A   1      42.876  29.487  34.677  1.00  0.00     0.034 A 
BRANCH  48  62
ATOM     62  C   UNL A   1      40.580  27.903  29.170  1.00  0.00     0.023 A 
ATOM     63  C   UNL A   1      39.697  26.807  29.088  1.00  0.00     0.012 A 
ATOM     64  C   UNL A   1      41.466  28.159  28.106  1.00  0.00     0.148 A 
ATOM     65  C   UNL A   1      39.714  25.964  27.978  1.00  0.00     0.002 A 
ATOM     66  C   UNL A   1      41.450  27.337  26.986  1.00  0.00     0.091 A 
ATOM     67  F   UNL A   1      42.315  29.193  28.213  1.00  0.00    -0.205 F 
ATOM     68  C   UNL A   1      40.581  26.234  26.924  1.00  0.00     0.022 A 
BRANCH  66  69
ATOM     69  S   UNL A   1      42.478  27.644  25.544  1.00  0.00     0.127 S 
ATOM     70  O   UNL A   1      41.929  28.909  25.055  1.00  0.00    -0.237 OA
ATOM     71  O   UNL A   1      43.814  27.748  26.134  1.00  0.00    -0.237 OA
ATOM     72  O   UNL A   1      42.291  26.498  24.667  1.00  0.00    -0.744 OA
ENDBRANCH  66  69
ENDBRANCH  48  62
BRANCH  49  73
ATOM     73  C   UNL A   1      39.424  33.830  37.118  1.00  0.00     0.023 A 
ATOM     74  C   UNL A   1      39.866  35.167  37.115  1.00  0.00     0.012 A 
ATOM     75  C   UNL A   1      38.770  33.326  38.259  1.00  0.00     0.148 A 
ATOM     76  C   UNL A   1      39.685  35.979  38.235  1.00  0.00     0.002 A 
ATOM     77  C   UNL A   1      38.548  34.156  39.353  1.00  0.00     0.091 A 
ATOM     78  F   UNL A   1      38.371  32.046  38.250  1.00  0.00    -0.205 F 
ATOM     79  C   UNL A   1      39.018  35.478  39.348  1.00  0.00     0.022 A 
BRANCH  77  80
ATOM     80  S   UNL A   1      37.583  33.627  40.772  1.00  0.00     0.127 S 
ATOM     81  O   UNL A   1      37.420  34.879  41.506  1.00  0.00    -0.237 OA
ATOM     82  O   UNL A   1      36.363  33.118  40.143  1.00  0.00    -0.237 OA
ATOM     83  O   UNL A   1      38.388  32.603  41.425  1.00  0.00    -0.744 OA
ENDBRANCH  77  80
ENDBRANCH  49  73
BRANCH  61  84
ATOM     84  C   UNL A   1      44.042  28.876  35.408  1.00  0.00     0.023 A 
ATOM     85  C   UNL A   1      45.323  29.443  35.267  1.00  0.00     0.012 A 
ATOM     86  C   UNL A   1      43.851  27.803  36.300  1.00  0.00     0.148 A 
ATOM     87  C   UNL A   1      46.404  28.934  35.985  1.00  0.00     0.002 A 
ATOM     88  C   UNL A   1      44.925  27.331  37.046  1.00  0.00     0.091 A 
ATOM     89  F   UNL A   1      42.627  27.265  36.404  1.00  0.00    -0.205 F 
ATOM     90  C   UNL A   1      46.203  27.888  36.883  1.00  0.00     0.022 A 
BRANCH  88  91
ATOM     91  S   UNL A   1      44.737  26.049  38.292  1.00  0.00     0.127 S 
ATOM     92  O   UNL A   1      43.832  26.689  39.244  1.00  0.00    -0.237 OA
ATOM     93  O   UNL A   1      44.142  24.952  37.526  1.00  0.00    -0.237 OA
ATOM     94  O   UNL A   1      46.079  25.777  38.787  1.00  0.00    -0.744 OA
ENDBRANCH  88  91
ENDBRANCH  61  84
ENDBRANCH  35  36
ENDBRANCH  27  30
ENDBRANCH  25  26
ENDBRANCH  24  25
ENDBRANCH   1  24
TORSDOF 18
ENDMDL
