MODEL 1
REMARK VINA RESULT:     -11.9      0.000      0.000
REMARK SMILES O=C(NCCCCNC(=O)[C@H]1CC[C@H](CNS(=O)(=O)c2cccs2)O1)c1ccc(-c2c3nc(c(-c4cccc(S(=O)(=O)[O-])c4F)c4ccc([nH]4)c(-c4cccc(S(=O)(=O)[O-])c4F)c4nc(c(-c5cccc(S(=O)(=O)[O-])c5F)c5ccc2[nH]5)C=C4)C=C3)cc1
REMARK SMILES IDX 6 1 5 2 4 3 3 4 1 5 2 6 26 8 27 9 88 10 28 11 87 12 29 13
REMARK SMILES IDX 30 14 31 15 81 16 32 17 86 18 80 19 82 20 33 21 85 22 79 23
REMARK SMILES IDX 78 24 34 26 66 27 46 28 65 29 47 30 50 31 64 32 83 33 48 34
REMARK SMILES IDX 49 35 63 37 84 38 51 39 35 40 36 41 44 42 37 43 39 44 45 45
REMARK SMILES IDX 38 46 40 47 41 48 42 49 43 50 67 51 68 52 76 53 69 54 71 55
REMARK SMILES IDX 77 56 70 57 72 58 73 59 74 60 75 61 52 62 53 63 61 64 54 65
REMARK SMILES IDX 56 66 62 67 55 68 57 69 58 70 59 71 60 72 7 73 8 74 9 75
REMARK SMILES IDX 10 77 11 78 12 79 25 80 13 81 14 82 15 83 16 84 17 86 18 87
REMARK SMILES IDX 19 88 20 89 21 90 24 91 22 92 23 93
REMARK H PARENT 3 7 82 25 50 36 8 76 16 85
REMARK Flexibility Score: inf
ROOT
ATOM      1  C   UNL A   1      32.741  29.202  24.060  1.00  0.00     0.023 C 
ENDROOT
BRANCH   1   2
ATOM      2  C   UNL A   1      31.814  29.516  25.226  1.00  0.00     0.023 C 
BRANCH   2   3
ATOM      3  C   UNL A   1      32.513  29.985  26.496  1.00  0.00     0.116 C 
BRANCH   3   4
ATOM      4  N   UNL A   1      32.305  31.396  26.805  1.00  0.00    -0.352 N 
ATOM      5  O   UNL A   1      32.841  33.426  27.655  1.00  0.00    -0.269 OA
ATOM      6  C   UNL A   1      33.183  32.278  27.398  1.00  0.00     0.251 C 
ATOM      7  H   UNL A   1      31.426  31.767  26.558  1.00  0.00     0.163 HD
BRANCH   6   8
ATOM      8  C   UNL A   1      34.522  31.777  27.764  1.00  0.00     0.039 A 
ATOM      9  C   UNL A   1      34.683  30.429  28.086  1.00  0.00     0.014 A 
ATOM     10  C   UNL A   1      35.566  32.686  27.937  1.00  0.00     0.014 A 
ATOM     11  C   UNL A   1      35.812  30.035  28.787  1.00  0.00     0.010 A 
ATOM     12  C   UNL A   1      36.749  32.257  28.545  1.00  0.00     0.010 A 
ATOM     13  C   UNL A   1      36.856  30.945  29.034  1.00  0.00    -0.014 A 
BRANCH  13  14
ATOM     14  C   UNL A   1      38.048  30.488  29.793  1.00  0.00     0.031 A 
ATOM     15  C   UNL A   1      38.253  30.863  31.238  1.00  0.00     0.074 A 
ATOM     16  C   UNL A   1      38.939  29.695  29.167  1.00  0.00     0.049 A 
ATOM     17  N   UNL A   1      39.221  30.512  32.046  1.00  0.00    -0.248 NA
ATOM     18  C   UNL A   1      37.254  31.750  31.858  1.00  0.00     0.031 C 
ATOM     19  C   UNL A   1      38.861  29.293  27.760  1.00  0.00     0.029 A 
ATOM     20  N   UNL A   1      40.070  29.074  29.627  1.00  0.00    -0.354 N 
ATOM     21  C   UNL A   1      38.985  31.179  33.243  1.00  0.00     0.074 A 
ATOM     22  C   UNL A   1      37.777  31.955  33.059  1.00  0.00     0.031 C 
ATOM     23  C   UNL A   1      39.867  28.453  27.486  1.00  0.00     0.029 A 
ATOM     24  C   UNL A   1      40.698  28.307  28.674  1.00  0.00     0.049 A 
ATOM     25  H   UNL A   1      40.401  29.167  30.550  1.00  0.00     0.167 HD
ATOM     26  C   UNL A   1      39.703  31.140  34.392  1.00  0.00     0.034 A 
ATOM     27  C   UNL A   1      41.823  27.571  28.742  1.00  0.00     0.034 A 
ATOM     28  C   UNL A   1      40.869  30.318  34.587  1.00  0.00     0.049 A 
ATOM     29  C   UNL A   1      42.566  27.507  30.043  1.00  0.00     0.074 A 
ATOM     30  C   UNL A   1      41.624  30.153  35.736  1.00  0.00     0.029 A 
ATOM     31  N   UNL A   1      41.450  29.522  33.611  1.00  0.00    -0.354 N 
ATOM     32  N   UNL A   1      42.263  28.057  31.194  1.00  0.00    -0.248 NA
ATOM     33  C   UNL A   1      43.793  26.701  30.063  1.00  0.00     0.031 C 
ATOM     34  C   UNL A   1      42.668  29.267  35.449  1.00  0.00     0.029 A 
ATOM     35  C   UNL A   1      42.555  28.867  34.128  1.00  0.00     0.049 A 
ATOM     36  H   UNL A   1      41.124  29.435  32.687  1.00  0.00     0.167 HD
ATOM     37  C   UNL A   1      43.244  27.643  32.083  1.00  0.00     0.074 A 
ATOM     38  C   UNL A   1      44.139  26.775  31.343  1.00  0.00     0.031 C 
ATOM     39  C   UNL A   1      43.403  27.965  33.391  1.00  0.00     0.034 A 
BRANCH  26  40
ATOM     40  C   UNL A   1      39.233  31.988  35.548  1.00  0.00     0.023 A 
ATOM     41  C   UNL A   1      38.351  31.444  36.502  1.00  0.00     0.012 A 
ATOM     42  C   UNL A   1      39.717  33.300  35.726  1.00  0.00     0.148 A 
ATOM     43  C   UNL A   1      37.933  32.201  37.597  1.00  0.00     0.002 A 
ATOM     44  C   UNL A   1      39.328  34.035  36.841  1.00  0.00     0.091 A 
ATOM     45  F   UNL A   1      40.537  33.812  34.798  1.00  0.00    -0.205 F 
ATOM     46  C   UNL A   1      38.429  33.490  37.773  1.00  0.00     0.022 A 
BRANCH  44  47
ATOM     47  S   UNL A   1      39.977  35.675  37.186  1.00  0.00     0.127 S 
ATOM     48  O   UNL A   1      39.293  36.007  38.434  1.00  0.00    -0.237 OA
ATOM     49  O   UNL A   1      41.412  35.421  37.326  1.00  0.00    -0.237 OA
ATOM     50  O   UNL A   1      39.621  36.490  36.033  1.00  0.00    -0.744 OA
ENDBRANCH  44  47
ENDBRANCH  26  40
BRANCH  27  51
ATOM     51  C   UNL A   1      42.261  26.790  27.553  1.00  0.00     0.023 A 
ATOM     52  C   UNL A   1      42.950  27.446  26.515  1.00  0.00     0.012 A 
ATOM     53  C   UNL A   1      42.067  25.398  27.481  1.00  0.00     0.148 A 
ATOM     54  C   UNL A   1      43.426  26.729  25.417  1.00  0.00     0.002 A 
ATOM     55  C   UNL A   1      42.597  24.681  26.414  1.00  0.00     0.091 A 
ATOM     56  F   UNL A   1      41.396  24.796  28.474  1.00  0.00    -0.205 F 
ATOM     57  C   UNL A   1      43.262  25.346  25.374  1.00  0.00     0.022 A 
BRANCH  55  58
ATOM     58  S   UNL A   1      42.565  22.886  26.360  1.00  0.00     0.127 S 
ATOM     59  O   UNL A   1      41.282  22.591  26.992  1.00  0.00    -0.237 OA
ATOM     60  O   UNL A   1      42.620  22.625  24.921  1.00  0.00    -0.237 OA
ATOM     61  O   UNL A   1      43.749  22.454  27.089  1.00  0.00    -0.744 OA
ENDBRANCH  55  58
ENDBRANCH  27  51
BRANCH  39  62
ATOM     62  C   UNL A   1      44.569  27.350  34.115  1.00  0.00     0.023 A 
ATOM     63  C   UNL A   1      45.817  28.005  34.112  1.00  0.00     0.012 A 
ATOM     64  C   UNL A   1      44.416  26.155  34.843  1.00  0.00     0.148 A 
ATOM     65  C   UNL A   1      46.903  27.461  34.795  1.00  0.00     0.002 A 
ATOM     66  C   UNL A   1      45.490  25.643  35.560  1.00  0.00     0.091 A 
ATOM     67  F   UNL A   1      43.227  25.533  34.813  1.00  0.00    -0.205 F 
ATOM     68  C   UNL A   1      46.737  26.287  35.528  1.00  0.00     0.022 A 
BRANCH  66  69
ATOM     69  S   UNL A   1      45.331  24.187  36.600  1.00  0.00     0.127 S 
ATOM     70  O   UNL A   1      44.783  23.208  35.663  1.00  0.00    -0.237 OA
ATOM     71  O   UNL A   1      46.715  23.936  37.005  1.00  0.00    -0.237 OA
ATOM     72  O   UNL A   1      44.449  24.578  37.692  1.00  0.00    -0.744 OA
ENDBRANCH  66  69
ENDBRANCH  39  62
ENDBRANCH  13  14
ENDBRANCH   6   8
ENDBRANCH   3   4
ENDBRANCH   2   3
ENDBRANCH   1   2
BRANCH   1  73
ATOM     73  C   UNL A   1      32.022  28.812  22.775  1.00  0.00     0.116 C 
BRANCH  73  74
ATOM     74  N   UNL A   1      32.736  27.815  22.016  1.00  0.00    -0.354 N 
ATOM     75  C   UNL A   1      32.886  26.477  22.206  1.00  0.00     0.249 C 
ATOM     76  H   UNL A   1      33.195  28.165  21.219  1.00  0.00     0.163 HD
ATOM     77  O   UNL A   1      33.540  25.876  21.343  1.00  0.00    -0.272 OA
BRANCH  75  78
ATOM     78  C   UNL A   1      32.255  25.681  23.379  1.00  0.00     0.207 C 
ATOM     79  C   UNL A   1      30.747  25.540  23.476  1.00  0.00     0.045 C 
ATOM     80  O   UNL A   1      32.820  24.372  23.520  1.00  0.00    -0.364 OA
ATOM     81  C   UNL A   1      30.472  24.068  23.250  1.00  0.00     0.037 C 
ATOM     82  C   UNL A   1      31.788  23.383  23.575  1.00  0.00     0.134 C 
BRANCH  82  83
ATOM     83  C   UNL A   1      31.734  22.718  24.955  1.00  0.00     0.131 C 
BRANCH  83  84
ATOM     84  N   UNL A   1      32.012  21.268  24.826  1.00  0.00    -0.208 NA
ATOM     85  H   UNL A   1      31.816  21.000  23.862  1.00  0.00     0.141 HD
BRANCH  84  86
ATOM     86  S   UNL A   1      33.578  20.759  25.188  1.00  0.00     0.250 S 
ATOM     87  O   UNL A   1      34.488  21.576  24.422  1.00  0.00    -0.206 OA
ATOM     88  O   UNL A   1      33.664  20.679  26.632  1.00  0.00    -0.206 OA
BRANCH  86  89
ATOM     89  C   UNL A   1      33.734  19.122  24.523  1.00  0.00     0.134 A 
ATOM     90  C   UNL A   1      34.773  18.212  24.602  1.00  0.00     0.033 A 
ATOM     91  S   UNL A   1      32.457  18.536  23.553  1.00  0.00    -0.131 S 
ATOM     92  C   UNL A   1      34.523  17.038  23.838  1.00  0.00     0.013 A 
ATOM     93  C   UNL A   1      33.292  17.081  23.222  1.00  0.00     0.066 A 
ENDBRANCH  86  89
ENDBRANCH  84  86
ENDBRANCH  83  84
ENDBRANCH  82  83
ENDBRANCH  75  78
ENDBRANCH  73  74
ENDBRANCH   1  73
TORSDOF 18
ENDMDL
MODEL 2
REMARK VINA RESULT:     -11.8      1.451      1.894
REMARK SMILES O=C(NCCCCNC(=O)[C@H]1CC[C@H](CNS(=O)(=O)c2cccs2)O1)c1ccc(-c2c3nc(c(-c4cccc(S(=O)(=O)[O-])c4F)c4ccc([nH]4)c(-c4cccc(S(=O)(=O)[O-])c4F)c4nc(c(-c5cccc(S(=O)(=O)[O-])c5F)c5ccc2[nH]5)C=C4)C=C3)cc1
REMARK SMILES IDX 6 1 5 2 4 3 3 4 1 5 2 6 26 8 27 9 88 10 28 11 87 12 29 13
REMARK SMILES IDX 30 14 31 15 81 16 32 17 86 18 80 19 82 20 33 21 85 22 79 23
REMARK SMILES IDX 78 24 34 26 66 27 46 28 65 29 47 30 50 31 64 32 83 33 48 34
REMARK SMILES IDX 49 35 63 37 84 38 51 39 35 40 36 41 44 42 37 43 39 44 45 45
REMARK SMILES IDX 38 46 40 47 41 48 42 49 43 50 67 51 68 52 76 53 69 54 71 55
REMARK SMILES IDX 77 56 70 57 72 58 73 59 74 60 75 61 52 62 53 63 61 64 54 65
REMARK SMILES IDX 56 66 62 67 55 68 57 69 58 70 59 71 60 72 7 73 8 74 9 75
REMARK SMILES IDX 10 77 11 78 12 79 25 80 13 81 14 82 15 83 16 84 17 86 18 87
REMARK SMILES IDX 19 88 20 89 21 90 24 91 22 92 23 93
REMARK H PARENT 3 7 82 25 50 36 8 76 16 85
REMARK Flexibility Score: inf
ROOT
ATOM      1  C   UNL A   1      31.781  28.035  26.414  1.00  0.00     0.023 C 
ENDROOT
BRANCH   1   2
ATOM      2  C   UNL A   1      31.744  29.423  27.038  1.00  0.00     0.023 C 
BRANCH   2   3
ATOM      3  C   UNL A   1      32.472  30.503  26.248  1.00  0.00     0.116 C 
BRANCH   3   4
ATOM      4  N   UNL A   1      32.241  31.858  26.739  1.00  0.00    -0.352 N 
ATOM      5  O   UNL A   1      32.728  33.754  27.878  1.00  0.00    -0.269 OA
ATOM      6  C   UNL A   1      33.089  32.653  27.481  1.00  0.00     0.251 C 
ATOM      7  H   UNL A   1      31.369  32.256  26.512  1.00  0.00     0.163 HD
BRANCH   6   8
ATOM      8  C   UNL A   1      34.418  32.111  27.825  1.00  0.00     0.039 A 
ATOM      9  C   UNL A   1      34.536  30.768  28.184  1.00  0.00     0.014 A 
ATOM     10  C   UNL A   1      35.500  32.983  27.943  1.00  0.00     0.014 A 
ATOM     11  C   UNL A   1      35.668  30.351  28.865  1.00  0.00     0.010 A 
ATOM     12  C   UNL A   1      36.683  32.526  28.531  1.00  0.00     0.010 A 
ATOM     13  C   UNL A   1      36.753  31.226  29.057  1.00  0.00    -0.014 A 
BRANCH  13  14
ATOM     14  C   UNL A   1      37.947  30.745  29.797  1.00  0.00     0.031 A 
ATOM     15  C   UNL A   1      38.200  31.143  31.228  1.00  0.00     0.074 A 
ATOM     16  C   UNL A   1      38.796  29.909  29.167  1.00  0.00     0.049 A 
ATOM     17  N   UNL A   1      39.175  30.777  32.020  1.00  0.00    -0.248 NA
ATOM     18  C   UNL A   1      37.247  32.076  31.852  1.00  0.00     0.031 C 
ATOM     19  C   UNL A   1      38.670  29.481  27.771  1.00  0.00     0.029 A 
ATOM     20  N   UNL A   1      39.917  29.260  29.613  1.00  0.00    -0.354 N 
ATOM     21  C   UNL A   1      38.992  31.477  33.207  1.00  0.00     0.074 A 
ATOM     22  C   UNL A   1      37.806  32.289  33.035  1.00  0.00     0.031 C 
ATOM     23  C   UNL A   1      39.641  28.602  27.492  1.00  0.00     0.029 A 
ATOM     24  C   UNL A   1      40.495  28.453  28.663  1.00  0.00     0.049 A 
ATOM     25  H   UNL A   1      40.273  29.362  30.525  1.00  0.00     0.167 HD
ATOM     26  C   UNL A   1      39.736  31.438  34.339  1.00  0.00     0.034 A 
ATOM     27  C   UNL A   1      41.596  27.682  28.720  1.00  0.00     0.034 A 
ATOM     28  C   UNL A   1      40.879  30.581  34.524  1.00  0.00     0.049 A 
ATOM     29  C   UNL A   1      42.369  27.619  30.004  1.00  0.00     0.074 A 
ATOM     30  C   UNL A   1      41.656  30.415  35.658  1.00  0.00     0.029 A 
ATOM     31  N   UNL A   1      41.408  29.746  33.553  1.00  0.00    -0.354 N 
ATOM     32  N   UNL A   1      42.112  28.204  31.149  1.00  0.00    -0.248 NA
ATOM     33  C   UNL A   1      43.569  26.774  30.012  1.00  0.00     0.031 C 
ATOM     34  C   UNL A   1      42.662  29.489  35.366  1.00  0.00     0.029 A 
ATOM     35  C   UNL A   1      42.503  29.065  34.057  1.00  0.00     0.049 A 
ATOM     36  H   UNL A   1      41.057  29.650  32.638  1.00  0.00     0.167 HD
ATOM     37  C   UNL A   1      43.101  27.775  32.024  1.00  0.00     0.074 A 
ATOM     38  C   UNL A   1      43.949  26.862  31.281  1.00  0.00     0.031 C 
ATOM     39  C   UNL A   1      43.302  28.120  33.319  1.00  0.00     0.034 A 
BRANCH  26  40
ATOM     40  C   UNL A   1      39.323  32.325  35.487  1.00  0.00     0.023 A 
ATOM     41  C   UNL A   1      38.505  31.810  36.512  1.00  0.00     0.012 A 
ATOM     42  C   UNL A   1      39.799  33.649  35.586  1.00  0.00     0.148 A 
ATOM     43  C   UNL A   1      38.143  32.604  37.600  1.00  0.00     0.002 A 
ATOM     44  C   UNL A   1      39.466  34.422  36.693  1.00  0.00     0.091 A 
ATOM     45  F   UNL A   1      40.557  34.133  34.592  1.00  0.00    -0.205 F 
ATOM     46  C   UNL A   1      38.630  33.905  37.697  1.00  0.00     0.022 A 
BRANCH  44  47
ATOM     47  S   UNL A   1      40.112  36.081  36.935  1.00  0.00     0.127 S 
ATOM     48  O   UNL A   1      39.332  36.537  38.084  1.00  0.00    -0.237 OA
ATOM     49  O   UNL A   1      41.526  35.829  37.220  1.00  0.00    -0.237 OA
ATOM     50  O   UNL A   1      39.867  36.786  35.685  1.00  0.00    -0.744 OA
ENDBRANCH  44  47
ENDBRANCH  26  40
BRANCH  27  51
ATOM     51  C   UNL A   1      41.979  26.861  27.538  1.00  0.00     0.023 A 
ATOM     52  C   UNL A   1      42.728  27.453  26.503  1.00  0.00     0.012 A 
ATOM     53  C   UNL A   1      41.673  25.489  27.470  1.00  0.00     0.148 A 
ATOM     54  C   UNL A   1      43.152  26.694  25.412  1.00  0.00     0.002 A 
ATOM     55  C   UNL A   1      42.151  24.726  26.411  1.00  0.00     0.091 A 
ATOM     56  F   UNL A   1      40.946  24.949  28.460  1.00  0.00    -0.205 F 
ATOM     57  C   UNL A   1      42.876  25.329  25.374  1.00  0.00     0.022 A 
BRANCH  55  58
ATOM     58  S   UNL A   1      41.973  22.939  26.364  1.00  0.00     0.127 S 
ATOM     59  O   UNL A   1      42.708  22.535  27.559  1.00  0.00    -0.237 OA
ATOM     60  O   UNL A   1      40.521  22.776  26.446  1.00  0.00    -0.237 OA
ATOM     61  O   UNL A   1      42.549  22.525  25.092  1.00  0.00    -0.744 OA
ENDBRANCH  55  58
ENDBRANCH  27  51
BRANCH  39  62
ATOM     62  C   UNL A   1      44.465  27.481  34.029  1.00  0.00     0.023 A 
ATOM     63  C   UNL A   1      45.733  28.094  33.984  1.00  0.00     0.012 A 
ATOM     64  C   UNL A   1      44.290  26.306  34.784  1.00  0.00     0.148 A 
ATOM     65  C   UNL A   1      46.817  27.528  34.652  1.00  0.00     0.002 A 
ATOM     66  C   UNL A   1      45.365  25.773  35.487  1.00  0.00     0.091 A 
ATOM     67  F   UNL A   1      43.082  25.723  34.795  1.00  0.00    -0.205 F 
ATOM     68  C   UNL A   1      46.631  26.375  35.413  1.00  0.00     0.022 A 
BRANCH  66  69
ATOM     69  S   UNL A   1      45.183  24.344  36.560  1.00  0.00     0.127 S 
ATOM     70  O   UNL A   1      46.520  24.234  37.140  1.00  0.00    -0.237 OA
ATOM     71  O   UNL A   1      44.147  24.784  37.496  1.00  0.00    -0.237 OA
ATOM     72  O   UNL A   1      44.778  23.248  35.691  1.00  0.00    -0.744 OA
ENDBRANCH  66  69
ENDBRANCH  39  62
ENDBRANCH  13  14
ENDBRANCH   6   8
ENDBRANCH   3   4
ENDBRANCH   2   3
ENDBRANCH   1   2
BRANCH   1  73
ATOM     73  C   UNL A   1      31.879  28.035  24.893  1.00  0.00     0.116 C 
BRANCH  73  74
ATOM     74  N   UNL A   1      30.593  28.145  24.250  1.00  0.00    -0.354 N 
ATOM     75  C   UNL A   1      29.761  27.200  23.739  1.00  0.00     0.249 C 
ATOM     76  H   UNL A   1      30.259  29.068  24.167  1.00  0.00     0.163 HD
ATOM     77  O   UNL A   1      28.688  27.614  23.277  1.00  0.00    -0.272 OA
BRANCH  75  78
ATOM     78  C   UNL A   1      30.048  25.675  23.753  1.00  0.00     0.207 C 
ATOM     79  C   UNL A   1      31.217  25.116  22.964  1.00  0.00     0.045 C 
ATOM     80  O   UNL A   1      30.130  25.145  25.081  1.00  0.00    -0.364 OA
ATOM     81  C   UNL A   1      32.186  24.599  24.007  1.00  0.00     0.037 C 
ATOM     82  C   UNL A   1      31.332  24.386  25.245  1.00  0.00     0.134 C 
BRANCH  82  83
ATOM     83  C   UNL A   1      31.022  22.899  25.448  1.00  0.00     0.131 C 
BRANCH  83  84
ATOM     84  N   UNL A   1      32.066  22.280  26.299  1.00  0.00    -0.208 NA
ATOM     85  H   UNL A   1      31.594  21.736  27.021  1.00  0.00     0.141 HD
BRANCH  84  86
ATOM     86  S   UNL A   1      33.167  21.259  25.532  1.00  0.00     0.250 S 
ATOM     87  O   UNL A   1      33.296  20.072  26.342  1.00  0.00    -0.206 OA
ATOM     88  O   UNL A   1      32.765  21.187  24.142  1.00  0.00    -0.206 OA
BRANCH  86  89
ATOM     89  C   UNL A   1      34.742  22.070  25.621  1.00  0.00     0.134 A 
ATOM     90  C   UNL A   1      35.071  23.364  25.982  1.00  0.00     0.033 A 
ATOM     91  S   UNL A   1      36.116  21.187  25.122  1.00  0.00    -0.131 S 
ATOM     92  C   UNL A   1      36.459  23.635  25.822  1.00  0.00     0.013 A 
ATOM     93  C   UNL A   1      37.146  22.530  25.367  1.00  0.00     0.066 A 
ENDBRANCH  86  89
ENDBRANCH  84  86
ENDBRANCH  83  84
ENDBRANCH  82  83
ENDBRANCH  75  78
ENDBRANCH  73  74
ENDBRANCH   1  73
TORSDOF 18
ENDMDL
MODEL 3
REMARK VINA RESULT:     -11.7      2.670      3.560
REMARK SMILES O=C(NCCCCNC(=O)[C@H]1CC[C@H](CNS(=O)(=O)c2cccs2)O1)c1ccc(-c2c3nc(c(-c4cccc(S(=O)(=O)[O-])c4F)c4ccc([nH]4)c(-c4cccc(S(=O)(=O)[O-])c4F)c4nc(c(-c5cccc(S(=O)(=O)[O-])c5F)c5ccc2[nH]5)C=C4)C=C3)cc1
REMARK SMILES IDX 6 1 5 2 4 3 3 4 1 5 2 6 26 8 27 9 88 10 28 11 87 12 29 13
REMARK SMILES IDX 30 14 31 15 81 16 32 17 86 18 80 19 82 20 33 21 85 22 79 23
REMARK SMILES IDX 78 24 34 26 66 27 46 28 65 29 47 30 50 31 64 32 83 33 48 34
REMARK SMILES IDX 49 35 63 37 84 38 51 39 35 40 36 41 44 42 37 43 39 44 45 45
REMARK SMILES IDX 38 46 40 47 41 48 42 49 43 50 67 51 68 52 76 53 69 54 71 55
REMARK SMILES IDX 77 56 70 57 72 58 73 59 74 60 75 61 52 62 53 63 61 64 54 65
REMARK SMILES IDX 56 66 62 67 55 68 57 69 58 70 59 71 60 72 7 73 8 74 9 75
REMARK SMILES IDX 10 77 11 78 12 79 25 80 13 81 14 82 15 83 16 84 17 86 18 87
REMARK SMILES IDX 19 88 20 89 21 90 24 91 22 92 23 93
REMARK H PARENT 3 7 82 25 50 36 8 76 16 85
REMARK Flexibility Score: inf
ROOT
ATOM      1  C   UNL A   1      32.929  29.332  24.805  1.00  0.00     0.023 C 
ENDROOT
BRANCH   1   2
ATOM      2  C   UNL A   1      33.743  28.457  25.748  1.00  0.00     0.023 C 
BRANCH   2   3
ATOM      3  C   UNL A   1      33.488  28.698  27.231  1.00  0.00     0.116 C 
BRANCH   3   4
ATOM      4  N   UNL A   1      33.559  30.101  27.627  1.00  0.00    -0.352 N 
ATOM      5  O   UNL A   1      34.524  31.953  28.505  1.00  0.00    -0.269 OA
ATOM      6  C   UNL A   1      34.634  30.783  28.157  1.00  0.00     0.251 C 
ATOM      7  H   UNL A   1      32.737  30.627  27.501  1.00  0.00     0.163 HD
BRANCH   6   8
ATOM      8  C   UNL A   1      35.897  30.044  28.343  1.00  0.00     0.039 A 
ATOM      9  C   UNL A   1      36.124  29.369  29.543  1.00  0.00     0.014 A 
ATOM     10  C   UNL A   1      36.906  30.166  27.387  1.00  0.00     0.014 A 
ATOM     11  C   UNL A   1      37.420  29.010  29.878  1.00  0.00     0.010 A 
ATOM     12  C   UNL A   1      38.189  29.701  27.687  1.00  0.00     0.010 A 
ATOM     13  C   UNL A   1      38.471  29.179  28.959  1.00  0.00    -0.014 A 
BRANCH  13  14
ATOM     14  C   UNL A   1      39.848  28.787  29.356  1.00  0.00     0.031 A 
ATOM     15  C   UNL A   1      40.565  29.472  30.491  1.00  0.00     0.074 A 
ATOM     16  C   UNL A   1      40.441  27.774  28.696  1.00  0.00     0.049 A 
ATOM     17  N   UNL A   1      41.752  29.220  30.982  1.00  0.00    -0.248 NA
ATOM     18  C   UNL A   1      39.871  30.587  31.158  1.00  0.00     0.031 C 
ATOM     19  C   UNL A   1      39.855  27.058  27.559  1.00  0.00     0.029 A 
ATOM     20  N   UNL A   1      41.649  27.159  28.887  1.00  0.00    -0.354 N 
ATOM     21  C   UNL A   1      41.974  30.177  31.966  1.00  0.00     0.074 A 
ATOM     22  C   UNL A   1      40.795  31.015  32.009  1.00  0.00     0.031 C 
ATOM     23  C   UNL A   1      40.680  26.071  27.188  1.00  0.00     0.029 A 
ATOM     24  C   UNL A   1      41.879  26.122  28.015  1.00  0.00     0.049 A 
ATOM     25  H   UNL A   1      42.291  27.433  29.582  1.00  0.00     0.167 HD
ATOM     26  C   UNL A   1      43.056  30.334  32.767  1.00  0.00     0.034 A 
ATOM     27  C   UNL A   1      42.940  25.304  27.885  1.00  0.00     0.034 A 
ATOM     28  C   UNL A   1      44.199  29.458  32.761  1.00  0.00     0.049 A 
ATOM     29  C   UNL A   1      44.100  25.471  28.821  1.00  0.00     0.074 A 
ATOM     30  C   UNL A   1      45.313  29.490  33.582  1.00  0.00     0.029 A 
ATOM     31  N   UNL A   1      44.376  28.393  31.892  1.00  0.00    -0.354 N 
ATOM     32  N   UNL A   1      44.240  26.311  29.818  1.00  0.00    -0.248 NA
ATOM     33  C   UNL A   1      45.237  24.563  28.632  1.00  0.00     0.031 C 
ATOM     34  C   UNL A   1      46.168  28.452  33.200  1.00  0.00     0.029 A 
ATOM     35  C   UNL A   1      45.580  27.762  32.152  1.00  0.00     0.049 A 
ATOM     36  H   UNL A   1      43.738  28.123  31.192  1.00  0.00     0.167 HD
ATOM     37  C   UNL A   1      45.468  26.015  30.394  1.00  0.00     0.074 A 
ATOM     38  C   UNL A   1      46.021  24.901  29.648  1.00  0.00     0.031 C 
ATOM     39  C   UNL A   1      46.090  26.622  31.434  1.00  0.00     0.034 A 
BRANCH  26  40
ATOM     40  C   UNL A   1      43.048  31.481  33.747  1.00  0.00     0.023 A 
ATOM     41  C   UNL A   1      43.486  32.756  33.337  1.00  0.00     0.012 A 
ATOM     42  C   UNL A   1      42.544  31.313  35.053  1.00  0.00     0.148 A 
ATOM     43  C   UNL A   1      43.452  33.837  34.219  1.00  0.00     0.002 A 
ATOM     44  C   UNL A   1      42.476  32.403  35.913  1.00  0.00     0.091 A 
ATOM     45  F   UNL A   1      42.153  30.089  35.436  1.00  0.00    -0.205 F 
ATOM     46  C   UNL A   1      42.938  33.664  35.502  1.00  0.00     0.022 A 
BRANCH  44  47
ATOM     47  S   UNL A   1      41.759  32.286  37.557  1.00  0.00     0.127 S 
ATOM     48  O   UNL A   1      40.371  31.947  37.249  1.00  0.00    -0.237 OA
ATOM     49  O   UNL A   1      42.532  31.200  38.160  1.00  0.00    -0.237 OA
ATOM     50  O   UNL A   1      41.970  33.589  38.173  1.00  0.00    -0.744 OA
ENDBRANCH  44  47
ENDBRANCH  26  40
BRANCH  27  51
ATOM     51  C   UNL A   1      42.908  24.218  26.868  1.00  0.00     0.023 A 
ATOM     52  C   UNL A   1      43.636  24.371  25.673  1.00  0.00     0.012 A 
ATOM     53  C   UNL A   1      42.226  23.009  27.110  1.00  0.00     0.148 A 
ATOM     54  C   UNL A   1      43.673  23.345  24.729  1.00  0.00     0.002 A 
ATOM     55  C   UNL A   1      42.318  21.969  26.193  1.00  0.00     0.091 A 
ATOM     56  F   UNL A   1      41.527  22.890  28.248  1.00  0.00    -0.205 F 
ATOM     57  C   UNL A   1      43.027  22.140  24.996  1.00  0.00     0.022 A 
BRANCH  55  58
ATOM     58  S   UNL A   1      41.646  20.338  26.529  1.00  0.00     0.127 S 
ATOM     59  O   UNL A   1      40.211  20.603  26.546  1.00  0.00    -0.237 OA
ATOM     60  O   UNL A   1      42.120  19.570  25.377  1.00  0.00    -0.237 OA
ATOM     61  O   UNL A   1      42.234  19.929  27.798  1.00  0.00    -0.744 OA
ENDBRANCH  55  58
ENDBRANCH  27  51
BRANCH  39  62
ATOM     62  C   UNL A   1      47.428  26.072  31.851  1.00  0.00     0.023 A 
ATOM     63  C   UNL A   1      48.597  26.515  31.201  1.00  0.00     0.012 A 
ATOM     64  C   UNL A   1      47.531  25.162  32.920  1.00  0.00     0.148 A 
ATOM     65  C   UNL A   1      49.847  26.033  31.587  1.00  0.00     0.002 A 
ATOM     66  C   UNL A   1      48.784  24.722  33.330  1.00  0.00     0.091 A 
ATOM     67  F   UNL A   1      46.405  24.734  33.509  1.00  0.00    -0.205 F 
ATOM     68  C   UNL A   1      49.941  25.146  32.658  1.00  0.00     0.022 A 
BRANCH  66  69
ATOM     69  S   UNL A   1      48.994  23.652  34.758  1.00  0.00     0.127 S 
ATOM     70  O   UNL A   1      50.286  23.029  34.478  1.00  0.00    -0.237 OA
ATOM     71  O   UNL A   1      49.005  24.607  35.867  1.00  0.00    -0.237 OA
ATOM     72  O   UNL A   1      47.845  22.756  34.751  1.00  0.00    -0.744 OA
ENDBRANCH  66  69
ENDBRANCH  39  62
ENDBRANCH  13  14
ENDBRANCH   6   8
ENDBRANCH   3   4
ENDBRANCH   2   3
ENDBRANCH   1   2
BRANCH   1  73
ATOM     73  C   UNL A   1      31.426  29.085  24.863  1.00  0.00     0.116 C 
BRANCH  73  74
ATOM     74  N   UNL A   1      30.747  29.489  23.657  1.00  0.00    -0.354 N 
ATOM     75  C   UNL A   1      30.399  28.790  22.544  1.00  0.00     0.249 C 
ATOM     76  H   UNL A   1      30.491  30.440  23.635  1.00  0.00     0.163 HD
ATOM     77  O   UNL A   1      29.779  29.422  21.678  1.00  0.00    -0.272 OA
BRANCH  75  78
ATOM     78  C   UNL A   1      30.679  27.278  22.333  1.00  0.00     0.207 C 
ATOM     79  C   UNL A   1      32.095  26.798  22.075  1.00  0.00     0.045 C 
ATOM     80  O   UNL A   1      30.133  26.468  23.380  1.00  0.00    -0.364 OA
ATOM     81  C   UNL A   1      32.463  25.980  23.295  1.00  0.00     0.037 C 
ATOM     82  C   UNL A   1      31.128  25.584  23.903  1.00  0.00     0.134 C 
BRANCH  82  83
ATOM     83  C   UNL A   1      30.793  24.123  23.583  1.00  0.00     0.131 C 
BRANCH  83  84
ATOM     84  N   UNL A   1      31.110  23.267  24.751  1.00  0.00    -0.208 NA
ATOM     85  H   UNL A   1      30.232  22.888  25.104  1.00  0.00     0.141 HD
BRANCH  84  86
ATOM     86  S   UNL A   1      32.153  21.970  24.482  1.00  0.00     0.250 S 
ATOM     87  O   UNL A   1      31.751  20.901  25.363  1.00  0.00    -0.206 OA
ATOM     88  O   UNL A   1      32.222  21.785  23.047  1.00  0.00    -0.206 OA
BRANCH  86  89
ATOM     89  C   UNL A   1      33.748  22.487  25.059  1.00  0.00     0.134 A 
ATOM     90  C   UNL A   1      34.188  23.718  25.512  1.00  0.00     0.033 A 
ATOM     91  S   UNL A   1      35.018  21.347  25.006  1.00  0.00    -0.131 S 
ATOM     92  C   UNL A   1      35.584  23.726  25.791  1.00  0.00     0.013 A 
ATOM     93  C   UNL A   1      36.157  22.493  25.565  1.00  0.00     0.066 A 
ENDBRANCH  86  89
ENDBRANCH  84  86
ENDBRANCH  83  84
ENDBRANCH  82  83
ENDBRANCH  75  78
ENDBRANCH  73  74
ENDBRANCH   1  73
TORSDOF 18
ENDMDL
