MODEL 1
REMARK VINA RESULT:     -13.7      0.000      0.000
REMARK SMILES O=C(NCCCCNC(=O)c1ccc(-c2c3nc(c(-c4cccc(S(=O)(=O)[O-])c4F)c4ccc([nH]4)c(-c4cccc(S(=O)(=O)[O-])c4F)c4nc(c(-c5cccc(S(=O)(=O)[O-])c5F)c5ccc2[nH]5)C=C4)C=C3)cc1)C1=Cc2cc(S(F)(F)(F)(F)F)cc(Br)c2O[C@@H]1C(F)(F)F
REMARK SMILES IDX 6 1 5 2 4 3 3 4 1 5 2 6 74 8 75 9 90 10 76 11 89 12 77 13
REMARK SMILES IDX 88 14 78 15 86 16 85 17 87 18 91 19 92 20 93 21 94 22 79 23
REMARK SMILES IDX 80 24 81 25 82 26 83 27 84 28 7 29 8 30 9 31 10 33 11 34
REMARK SMILES IDX 12 35 73 36 13 37 72 38 14 39 15 40 16 41 66 42 17 43 71 44
REMARK SMILES IDX 65 45 67 46 18 47 70 48 64 49 63 50 19 52 51 53 31 54 50 55
REMARK SMILES IDX 32 56 35 57 49 58 68 59 33 60 34 61 48 63 69 64 36 65 20 66
REMARK SMILES IDX 21 67 29 68 22 69 24 70 30 71 23 72 25 73 26 74 27 75 28 76
REMARK SMILES IDX 52 77 53 78 61 79 54 80 56 81 62 82 55 83 57 84 58 85 59 86
REMARK SMILES IDX 60 87 37 88 38 89 46 90 39 91 41 92 47 93 40 94 42 95 43 96
REMARK SMILES IDX 44 97 45 98
REMARK H PARENT 3 7 8 32 67 51 35 62
REMARK Flexibility Score: inf
ROOT
ATOM      1  C   UNL A   1      32.991  27.886  25.662  1.00  0.00     0.023 C 
ENDROOT
BRANCH   1   2
ATOM      2  C   UNL A   1      33.221  27.003  24.447  1.00  0.00     0.023 C 
BRANCH   2   3
ATOM      3  C   UNL A   1      33.726  25.641  24.899  1.00  0.00     0.116 C 
BRANCH   3   4
ATOM      4  N   UNL A   1      34.063  24.828  23.721  1.00  0.00    -0.352 N 
ATOM      5  O   UNL A   1      33.533  22.955  22.359  1.00  0.00    -0.270 OA
ATOM      6  C   UNL A   1      33.242  23.658  23.377  1.00  0.00     0.251 C 
ATOM      7  H   UNL A   1      34.840  25.066  23.165  1.00  0.00     0.163 HD
BRANCH   6   8
ATOM      8  C   UNL A   1      32.044  23.291  24.237  1.00  0.00     0.067 C 
ATOM      9  C   UNL A   1      31.965  22.056  24.802  1.00  0.00     0.025 C 
ATOM     10  C   UNL A   1      30.933  24.304  24.466  1.00  0.00     0.314 C 
ATOM     11  C   UNL A   1      33.074  21.044  24.572  1.00  0.00     0.020 A 
ATOM     12  O   UNL A   1      34.727  22.748  24.681  1.00  0.00    -0.474 OA
ATOM     13  C   UNL A   1      32.685  19.726  24.396  1.00  0.00     0.036 A 
ATOM     14  C   UNL A   1      34.357  21.377  24.662  1.00  0.00     0.142 A 
ATOM     15  C   UNL A   1      33.723  18.788  24.615  1.00  0.00     0.109 A 
ATOM     16  C   UNL A   1      35.328  20.409  24.735  1.00  0.00     0.062 A 
ATOM     17  C   UNL A   1      35.009  19.083  24.626  1.00  0.00     0.044 A 
ATOM     18  Br  UNL A   1      37.198  20.934  24.999  1.00  0.00    -0.047 Br
BRANCH  10  19
ATOM     19  C   UNL A   1      30.805  24.588  25.954  1.00  0.00     0.429 C 
ATOM     20  F   UNL A   1      31.983  24.399  26.544  1.00  0.00    -0.167 F 
ATOM     21  F   UNL A   1      30.416  25.847  26.134  1.00  0.00    -0.167 F 
ATOM     22  F   UNL A   1      29.906  23.765  26.486  1.00  0.00    -0.167 F 
ENDBRANCH  10  19
BRANCH  15  23
ATOM     23  S   UNL A   1      33.251  17.063  24.898  1.00  0.00     0.310 S 
ATOM     24  F   UNL A   1      31.773  17.322  24.385  1.00  0.00    -0.094 F 
ATOM     25  F   UNL A   1      32.751  17.470  26.334  1.00  0.00    -0.094 F 
ATOM     26  F   UNL A   1      32.841  15.584  25.144  1.00  0.00    -0.094 F 
ATOM     27  F   UNL A   1      33.628  16.702  23.407  1.00  0.00    -0.094 F 
ATOM     28  F   UNL A   1      33.567  18.582  24.594  1.00  0.00    -0.094 F 
ENDBRANCH  15  23
ENDBRANCH   6   8
ENDBRANCH   3   4
ENDBRANCH   2   3
ENDBRANCH   1   2
BRANCH   1  29
ATOM     29  C   UNL A   1      33.753  29.190  25.491  1.00  0.00     0.116 C 
BRANCH  29  30
ATOM     30  N   UNL A   1      32.860  30.321  25.782  1.00  0.00    -0.352 N 
ATOM     31  C   UNL A   1      33.166  31.232  26.896  1.00  0.00     0.251 C 
ATOM     32  H   UNL A   1      32.058  30.470  25.232  1.00  0.00     0.163 HD
ATOM     33  O   UNL A   1      32.394  32.209  27.148  1.00  0.00    -0.269 OA
BRANCH  31  34
ATOM     34  C   UNL A   1      34.405  31.002  27.746  1.00  0.00     0.039 A 
ATOM     35  C   UNL A   1      35.357  31.989  27.941  1.00  0.00     0.014 A 
ATOM     36  C   UNL A   1      34.591  29.766  28.195  1.00  0.00     0.014 A 
ATOM     37  C   UNL A   1      36.612  31.498  28.374  1.00  0.00     0.010 A 
ATOM     38  C   UNL A   1      35.801  29.391  28.730  1.00  0.00     0.010 A 
ATOM     39  C   UNL A   1      36.807  30.301  28.898  1.00  0.00    -0.014 A 
BRANCH  39  40
ATOM     40  C   UNL A   1      38.083  29.954  29.648  1.00  0.00     0.031 A 
ATOM     41  C   UNL A   1      38.171  30.521  30.921  1.00  0.00     0.074 A 
ATOM     42  C   UNL A   1      39.006  29.061  29.133  1.00  0.00     0.049 A 
ATOM     43  N   UNL A   1      39.102  30.294  31.850  1.00  0.00    -0.248 NA
ATOM     44  C   UNL A   1      37.210  31.495  31.457  1.00  0.00     0.031 C 
ATOM     45  C   UNL A   1      38.919  28.477  27.854  1.00  0.00     0.029 A 
ATOM     46  N   UNL A   1      40.148  28.583  29.737  1.00  0.00    -0.354 N 
ATOM     47  C   UNL A   1      38.840  31.008  32.947  1.00  0.00     0.074 A 
ATOM     48  C   UNL A   1      37.623  31.795  32.708  1.00  0.00     0.031 C 
ATOM     49  C   UNL A   1      39.998  27.669  27.684  1.00  0.00     0.029 A 
ATOM     50  C   UNL A   1      40.778  27.733  28.855  1.00  0.00     0.049 A 
ATOM     51  H   UNL A   1      40.461  28.810  30.643  1.00  0.00     0.167 HD
ATOM     52  C   UNL A   1      39.569  31.030  34.138  1.00  0.00     0.034 A 
ATOM     53  C   UNL A   1      41.966  27.043  29.042  1.00  0.00     0.034 A 
ATOM     54  C   UNL A   1      40.733  30.308  34.340  1.00  0.00     0.049 A 
ATOM     55  C   UNL A   1      42.725  27.112  30.213  1.00  0.00     0.074 A 
ATOM     56  C   UNL A   1      41.475  30.314  35.538  1.00  0.00     0.029 A 
ATOM     57  N   UNL A   1      41.376  29.476  33.450  1.00  0.00    -0.354 N 
ATOM     58  N   UNL A   1      42.443  27.794  31.324  1.00  0.00    -0.248 NA
ATOM     59  C   UNL A   1      44.002  26.412  30.410  1.00  0.00     0.031 C 
ATOM     60  C   UNL A   1      42.555  29.504  35.368  1.00  0.00     0.029 A 
ATOM     61  C   UNL A   1      42.506  28.981  34.063  1.00  0.00     0.049 A 
ATOM     62  H   UNL A   1      41.079  29.272  32.533  1.00  0.00     0.167 HD
ATOM     63  C   UNL A   1      43.396  27.599  32.237  1.00  0.00     0.074 A 
ATOM     64  C   UNL A   1      44.416  26.713  31.660  1.00  0.00     0.031 C 
ATOM     65  C   UNL A   1      43.454  28.121  33.531  1.00  0.00     0.034 A 
BRANCH  52  66
ATOM     66  C   UNL A   1      39.055  31.896  35.276  1.00  0.00     0.023 A 
ATOM     67  C   UNL A   1      39.270  33.258  35.138  1.00  0.00     0.012 A 
ATOM     68  C   UNL A   1      38.334  31.412  36.279  1.00  0.00     0.148 A 
ATOM     69  C   UNL A   1      38.920  34.013  36.283  1.00  0.00     0.002 A 
ATOM     70  C   UNL A   1      37.909  32.233  37.297  1.00  0.00     0.091 A 
ATOM     71  F   UNL A   1      38.019  30.119  36.301  1.00  0.00    -0.205 F 
ATOM     72  C   UNL A   1      38.137  33.580  37.255  1.00  0.00     0.022 A 
BRANCH  70  73
ATOM     73  S   UNL A   1      37.032  31.520  38.711  1.00  0.00     0.127 S 
ATOM     74  O   UNL A   1      35.755  32.320  38.975  1.00  0.00    -0.237 OA
ATOM     75  O   UNL A   1      36.668  30.066  38.406  1.00  0.00    -0.237 OA
ATOM     76  O   UNL A   1      38.037  31.578  40.093  1.00  0.00    -0.744 OA
ENDBRANCH  70  73
ENDBRANCH  52  66
BRANCH  53  77
ATOM     77  C   UNL A   1      42.471  26.165  27.910  1.00  0.00     0.023 A 
ATOM     78  C   UNL A   1      43.190  26.722  26.866  1.00  0.00     0.012 A 
ATOM     79  C   UNL A   1      42.084  24.895  27.878  1.00  0.00     0.148 A 
ATOM     80  C   UNL A   1      43.203  25.931  25.692  1.00  0.00     0.002 A 
ATOM     81  C   UNL A   1      42.251  24.140  26.743  1.00  0.00     0.091 A 
ATOM     82  F   UNL A   1      41.528  24.349  28.957  1.00  0.00    -0.205 F 
ATOM     83  C   UNL A   1      42.901  24.647  25.652  1.00  0.00     0.022 A 
BRANCH  81  84
ATOM     84  S   UNL A   1      41.602  22.452  26.690  1.00  0.00     0.127 S 
ATOM     85  O   UNL A   1      41.962  21.808  25.349  1.00  0.00    -0.237 OA
ATOM     86  O   UNL A   1      42.216  21.634  27.830  1.00  0.00    -0.237 OA
ATOM     87  O   UNL A   1      39.902  22.488  26.867  1.00  0.00    -0.744 OA
ENDBRANCH  81  84
ENDBRANCH  53  77
BRANCH  65  88
ATOM     88  C   UNL A   1      44.628  27.722  34.410  1.00  0.00     0.023 A 
ATOM     89  C   UNL A   1      45.839  28.396  34.364  1.00  0.00     0.012 A 
ATOM     90  C   UNL A   1      44.482  26.617  35.131  1.00  0.00     0.148 A 
ATOM     91  C   UNL A   1      46.925  27.660  34.891  1.00  0.00     0.002 A 
ATOM     92  C   UNL A   1      45.567  26.025  35.731  1.00  0.00     0.091 A 
ATOM     93  F   UNL A   1      43.274  26.080  35.275  1.00  0.00    -0.205 F 
ATOM     94  C   UNL A   1      46.804  26.605  35.678  1.00  0.00     0.022 A 
BRANCH  92  95
ATOM     95  S   UNL A   1      45.355  24.454  36.606  1.00  0.00     0.127 S 
ATOM     96  O   UNL A   1      46.728  23.851  36.911  1.00  0.00    -0.237 OA
ATOM     97  O   UNL A   1      44.603  24.698  37.917  1.00  0.00    -0.237 OA
ATOM     98  O   UNL A   1      44.461  23.374  35.628  1.00  0.00    -0.744 OA
ENDBRANCH  92  95
ENDBRANCH  65  88
ENDBRANCH  39  40
ENDBRANCH  31  34
ENDBRANCH  29  30
ENDBRANCH   1  29
TORSDOF 16
ENDMDL
MODEL 2
REMARK VINA RESULT:     -13.7      2.136      2.759
REMARK SMILES O=C(NCCCCNC(=O)c1ccc(-c2c3nc(c(-c4cccc(S(=O)(=O)[O-])c4F)c4ccc([nH]4)c(-c4cccc(S(=O)(=O)[O-])c4F)c4nc(c(-c5cccc(S(=O)(=O)[O-])c5F)c5ccc2[nH]5)C=C4)C=C3)cc1)C1=Cc2cc(S(F)(F)(F)(F)F)cc(Br)c2O[C@@H]1C(F)(F)F
REMARK SMILES IDX 6 1 5 2 4 3 3 4 1 5 2 6 74 8 75 9 90 10 76 11 89 12 77 13
REMARK SMILES IDX 88 14 78 15 86 16 85 17 87 18 91 19 92 20 93 21 94 22 79 23
REMARK SMILES IDX 80 24 81 25 82 26 83 27 84 28 7 29 8 30 9 31 10 33 11 34
REMARK SMILES IDX 12 35 73 36 13 37 72 38 14 39 15 40 16 41 66 42 17 43 71 44
REMARK SMILES IDX 65 45 67 46 18 47 70 48 64 49 63 50 19 52 51 53 31 54 50 55
REMARK SMILES IDX 32 56 35 57 49 58 68 59 33 60 34 61 48 63 69 64 36 65 20 66
REMARK SMILES IDX 21 67 29 68 22 69 24 70 30 71 23 72 25 73 26 74 27 75 28 76
REMARK SMILES IDX 52 77 53 78 61 79 54 80 56 81 62 82 55 83 57 84 58 85 59 86
REMARK SMILES IDX 60 87 37 88 38 89 46 90 39 91 41 92 47 93 40 94 42 95 43 96
REMARK SMILES IDX 44 97 45 98
REMARK H PARENT 3 7 8 32 67 51 35 62
REMARK Flexibility Score: inf
ROOT
ATOM      1  C   UNL A   1      32.915  27.521  26.273  1.00  0.00     0.023 C 
ENDROOT
BRANCH   1   2
ATOM      2  C   UNL A   1      33.418  26.861  25.000  1.00  0.00     0.023 C 
BRANCH   2   3
ATOM      3  C   UNL A   1      33.792  25.416  25.291  1.00  0.00     0.116 C 
BRANCH   3   4
ATOM      4  N   UNL A   1      34.114  24.729  24.032  1.00  0.00    -0.352 N 
ATOM      5  O   UNL A   1      33.555  23.021  22.479  1.00  0.00    -0.270 OA
ATOM      6  C   UNL A   1      33.276  23.614  23.568  1.00  0.00     0.251 C 
ATOM      7  H   UNL A   1      34.892  25.015  23.501  1.00  0.00     0.163 HD
BRANCH   6   8
ATOM      8  C   UNL A   1      32.076  23.173  24.388  1.00  0.00     0.067 C 
ATOM      9  C   UNL A   1      32.020  21.908  24.886  1.00  0.00     0.025 C 
ATOM     10  C   UNL A   1      30.936  24.144  24.653  1.00  0.00     0.314 C 
ATOM     11  C   UNL A   1      33.158  20.936  24.621  1.00  0.00     0.020 A 
ATOM     12  O   UNL A   1      34.766  22.673  24.846  1.00  0.00    -0.474 OA
ATOM     13  C   UNL A   1      32.806  19.621  24.370  1.00  0.00     0.036 A 
ATOM     14  C   UNL A   1      34.430  21.296  24.748  1.00  0.00     0.142 A 
ATOM     15  C   UNL A   1      33.863  18.698  24.555  1.00  0.00     0.109 A 
ATOM     16  C   UNL A   1      35.425  20.350  24.786  1.00  0.00     0.062 A 
ATOM     17  C   UNL A   1      35.142  19.024  24.603  1.00  0.00     0.044 A 
ATOM     18  Br  UNL A   1      37.277  20.906  25.106  1.00  0.00    -0.047 Br
BRANCH  10  19
ATOM     19  C   UNL A   1      30.780  24.346  26.151  1.00  0.00     0.429 C 
ATOM     20  F   UNL A   1      31.944  24.116  26.754  1.00  0.00    -0.167 F 
ATOM     21  F   UNL A   1      30.395  25.595  26.393  1.00  0.00    -0.167 F 
ATOM     22  F   UNL A   1      29.866  23.501  26.619  1.00  0.00    -0.167 F 
ENDBRANCH  10  19
BRANCH  15  23
ATOM     23  S   UNL A   1      33.432  16.950  24.739  1.00  0.00     0.310 S 
ATOM     24  F   UNL A   1      31.921  17.220  24.339  1.00  0.00    -0.094 F 
ATOM     25  F   UNL A   1      33.017  17.243  26.230  1.00  0.00    -0.094 F 
ATOM     26  F   UNL A   1      33.057  15.450  24.901  1.00  0.00    -0.094 F 
ATOM     27  F   UNL A   1      33.720  16.704  23.206  1.00  0.00    -0.094 F 
ATOM     28  F   UNL A   1      33.710  18.492  24.529  1.00  0.00    -0.094 F 
ENDBRANCH  15  23
ENDBRANCH   6   8
ENDBRANCH   3   4
ENDBRANCH   2   3
ENDBRANCH   1   2
BRANCH   1  29
ATOM     29  C   UNL A   1      34.017  28.386  26.863  1.00  0.00     0.116 C 
BRANCH  29  30
ATOM     30  N   UNL A   1      33.511  29.751  27.067  1.00  0.00    -0.352 N 
ATOM     31  C   UNL A   1      34.367  30.765  27.700  1.00  0.00     0.251 C 
ATOM     32  H   UNL A   1      32.600  29.987  26.780  1.00  0.00     0.163 HD
ATOM     33  O   UNL A   1      33.930  31.946  27.877  1.00  0.00    -0.269 OA
BRANCH  31  34
ATOM     34  C   UNL A   1      35.775  30.402  28.144  1.00  0.00     0.039 A 
ATOM     35  C   UNL A   1      36.870  30.545  27.310  1.00  0.00     0.014 A 
ATOM     36  C   UNL A   1      35.886  29.823  29.335  1.00  0.00     0.014 A 
ATOM     37  C   UNL A   1      37.994  29.780  27.702  1.00  0.00     0.010 A 
ATOM     38  C   UNL A   1      37.059  29.211  29.708  1.00  0.00     0.010 A 
ATOM     39  C   UNL A   1      38.165  29.262  28.905  1.00  0.00    -0.014 A 
BRANCH  39  40
ATOM     40  C   UNL A   1      39.517  28.751  29.374  1.00  0.00     0.031 A 
ATOM     41  C   UNL A   1      40.114  29.533  30.365  1.00  0.00     0.074 A 
ATOM     42  C   UNL A   1      40.036  27.551  28.918  1.00  0.00     0.049 A 
ATOM     43  N   UNL A   1      41.226  29.267  31.052  1.00  0.00    -0.248 NA
ATOM     44  C   UNL A   1      39.582  30.823  30.827  1.00  0.00     0.031 C 
ATOM     45  C   UNL A   1      39.436  26.753  27.925  1.00  0.00     0.029 A 
ATOM     46  N   UNL A   1      41.192  26.923  29.322  1.00  0.00    -0.354 N 
ATOM     47  C   UNL A   1      41.471  30.243  31.928  1.00  0.00     0.074 A 
ATOM     48  C   UNL A   1      40.420  31.261  31.792  1.00  0.00     0.031 C 
ATOM     49  C   UNL A   1      40.225  25.664  27.725  1.00  0.00     0.029 A 
ATOM     50  C   UNL A   1      41.332  25.764  28.590  1.00  0.00     0.049 A 
ATOM     51  H   UNL A   1      41.814  27.245  30.015  1.00  0.00     0.167 HD
ATOM     52  C   UNL A   1      42.528  30.323  32.836  1.00  0.00     0.034 A 
ATOM     53  C   UNL A   1      42.358  24.835  28.657  1.00  0.00     0.034 A 
ATOM     54  C   UNL A   1      43.531  29.372  32.934  1.00  0.00     0.049 A 
ATOM     55  C   UNL A   1      43.446  24.944  29.527  1.00  0.00     0.074 A 
ATOM     56  C   UNL A   1      44.599  29.433  33.850  1.00  0.00     0.029 A 
ATOM     57  N   UNL A   1      43.682  28.225  32.185  1.00  0.00    -0.354 N 
ATOM     58  N   UNL A   1      43.670  25.900  30.430  1.00  0.00    -0.248 NA
ATOM     59  C   UNL A   1      44.555  23.984  29.584  1.00  0.00     0.031 C 
ATOM     60  C   UNL A   1      45.388  28.344  33.650  1.00  0.00     0.029 A 
ATOM     61  C   UNL A   1      44.827  27.586  32.606  1.00  0.00     0.049 A 
ATOM     62  H   UNL A   1      43.077  27.917  31.472  1.00  0.00     0.167 HD
ATOM     63  C   UNL A   1      44.805  25.654  31.088  1.00  0.00     0.074 A 
ATOM     64  C   UNL A   1      45.395  24.422  30.548  1.00  0.00     0.031 C 
ATOM     65  C   UNL A   1      45.370  26.407  32.119  1.00  0.00     0.034 A 
BRANCH  52  66
ATOM     66  C   UNL A   1      42.581  31.519  33.772  1.00  0.00     0.023 A 
ATOM     67  C   UNL A   1      43.115  32.679  33.232  1.00  0.00     0.012 A 
ATOM     68  C   UNL A   1      42.040  31.510  34.984  1.00  0.00     0.148 A 
ATOM     69  C   UNL A   1      43.291  33.720  34.173  1.00  0.00     0.002 A 
ATOM     70  C   UNL A   1      42.132  32.612  35.800  1.00  0.00     0.091 A 
ATOM     71  F   UNL A   1      41.403  30.424  35.413  1.00  0.00    -0.205 F 
ATOM     72  C   UNL A   1      42.700  33.773  35.353  1.00  0.00     0.022 A 
BRANCH  70  73
ATOM     73  S   UNL A   1      41.492  32.525  37.491  1.00  0.00     0.127 S 
ATOM     74  O   UNL A   1      39.992  32.224  37.453  1.00  0.00    -0.237 OA
ATOM     75  O   UNL A   1      42.216  31.415  38.255  1.00  0.00    -0.237 OA
ATOM     76  O   UNL A   1      41.753  34.022  38.277  1.00  0.00    -0.744 OA
ENDBRANCH  70  73
ENDBRANCH  52  66
BRANCH  53  77
ATOM     77  C   UNL A   1      42.296  23.630  27.734  1.00  0.00     0.023 A 
ATOM     78  C   UNL A   1      41.416  22.594  28.000  1.00  0.00     0.012 A 
ATOM     79  C   UNL A   1      43.197  23.535  26.763  1.00  0.00     0.148 A 
ATOM     80  C   UNL A   1      41.759  21.374  27.371  1.00  0.00     0.002 A 
ATOM     81  C   UNL A   1      43.386  22.348  26.097  1.00  0.00     0.091 A 
ATOM     82  F   UNL A   1      43.924  24.599  26.433  1.00  0.00    -0.205 F 
ATOM     83  C   UNL A   1      42.591  21.265  26.352  1.00  0.00     0.022 A 
BRANCH  81  84
ATOM     84  S   UNL A   1      44.704  22.217  24.865  1.00  0.00     0.127 S 
ATOM     85  O   UNL A   1      44.622  20.855  24.172  1.00  0.00    -0.237 OA
ATOM     86  O   UNL A   1      44.543  23.329  23.825  1.00  0.00    -0.237 OA
ATOM     87  O   UNL A   1      46.222  22.374  25.636  1.00  0.00    -0.744 OA
ENDBRANCH  81  84
ENDBRANCH  53  77
BRANCH  65  88
ATOM     88  C   UNL A   1      46.659  25.902  32.746  1.00  0.00     0.023 A 
ATOM     89  C   UNL A   1      47.904  26.295  32.278  1.00  0.00     0.012 A 
ATOM     90  C   UNL A   1      46.539  24.968  33.682  1.00  0.00     0.148 A 
ATOM     91  C   UNL A   1      48.958  25.432  32.658  1.00  0.00     0.002 A 
ATOM     92  C   UNL A   1      47.636  24.255  34.103  1.00  0.00     0.091 A 
ATOM     93  F   UNL A   1      45.347  24.721  34.216  1.00  0.00    -0.205 F 
ATOM     94  C   UNL A   1      48.887  24.550  33.639  1.00  0.00     0.022 A 
BRANCH  92  95
ATOM     95  S   UNL A   1      47.419  22.906  35.290  1.00  0.00     0.127 S 
ATOM     96  O   UNL A   1      48.756  22.190  35.498  1.00  0.00    -0.237 OA
ATOM     97  O   UNL A   1      46.932  23.475  36.626  1.00  0.00    -0.237 OA
ATOM     98  O   UNL A   1      46.265  21.797  34.689  1.00  0.00    -0.744 OA
ENDBRANCH  92  95
ENDBRANCH  65  88
ENDBRANCH  39  40
ENDBRANCH  31  34
ENDBRANCH  29  30
ENDBRANCH   1  29
TORSDOF 16
ENDMDL
MODEL 3
REMARK VINA RESULT:     -13.6      5.909      8.815
REMARK SMILES O=C(NCCCCNC(=O)c1ccc(-c2c3nc(c(-c4cccc(S(=O)(=O)[O-])c4F)c4ccc([nH]4)c(-c4cccc(S(=O)(=O)[O-])c4F)c4nc(c(-c5cccc(S(=O)(=O)[O-])c5F)c5ccc2[nH]5)C=C4)C=C3)cc1)C1=Cc2cc(S(F)(F)(F)(F)F)cc(Br)c2O[C@@H]1C(F)(F)F
REMARK SMILES IDX 6 1 5 2 4 3 3 4 1 5 2 6 74 8 75 9 90 10 76 11 89 12 77 13
REMARK SMILES IDX 88 14 78 15 86 16 85 17 87 18 91 19 92 20 93 21 94 22 79 23
REMARK SMILES IDX 80 24 81 25 82 26 83 27 84 28 7 29 8 30 9 31 10 33 11 34
REMARK SMILES IDX 12 35 73 36 13 37 72 38 14 39 15 40 16 41 66 42 17 43 71 44
REMARK SMILES IDX 65 45 67 46 18 47 70 48 64 49 63 50 19 52 51 53 31 54 50 55
REMARK SMILES IDX 32 56 35 57 49 58 68 59 33 60 34 61 48 63 69 64 36 65 20 66
REMARK SMILES IDX 21 67 29 68 22 69 24 70 30 71 23 72 25 73 26 74 27 75 28 76
REMARK SMILES IDX 52 77 53 78 61 79 54 80 56 81 62 82 55 83 57 84 58 85 59 86
REMARK SMILES IDX 60 87 37 88 38 89 46 90 39 91 41 92 47 93 40 94 42 95 43 96
REMARK SMILES IDX 44 97 45 98
REMARK H PARENT 3 7 8 32 67 51 35 62
REMARK Flexibility Score: inf
ROOT
ATOM      1  C   UNL A   1      38.978  21.375  25.691  1.00  0.00     0.023 C 
ENDROOT
BRANCH   1   2
ATOM      2  C   UNL A   1      38.961  22.853  26.042  1.00  0.00     0.023 C 
BRANCH   2   3
ATOM      3  C   UNL A   1      37.561  23.409  25.830  1.00  0.00     0.116 C 
BRANCH   3   4
ATOM      4  N   UNL A   1      37.270  23.467  24.390  1.00  0.00    -0.352 N 
ATOM      5  O   UNL A   1      35.787  22.913  22.620  1.00  0.00    -0.270 OA
ATOM      6  C   UNL A   1      36.038  22.862  23.864  1.00  0.00     0.251 C 
ATOM      7  H   UNL A   1      37.902  23.910  23.779  1.00  0.00     0.163 HD
BRANCH   6   8
ATOM      8  C   UNL A   1      35.064  22.178  24.809  1.00  0.00     0.067 C 
ATOM      9  C   UNL A   1      34.079  22.898  25.409  1.00  0.00     0.025 C 
ATOM     10  C   UNL A   1      35.192  20.688  25.084  1.00  0.00     0.314 C 
ATOM     11  C   UNL A   1      33.951  24.387  25.135  1.00  0.00     0.020 A 
ATOM     12  O   UNL A   1      34.538  24.073  22.854  1.00  0.00    -0.474 OA
ATOM     13  C   UNL A   1      33.612  25.190  26.212  1.00  0.00     0.036 A 
ATOM     14  C   UNL A   1      34.034  24.883  23.906  1.00  0.00     0.142 A 
ATOM     15  C   UNL A   1      33.094  26.455  25.843  1.00  0.00     0.109 A 
ATOM     16  C   UNL A   1      33.638  26.171  23.643  1.00  0.00     0.062 A 
ATOM     17  C   UNL A   1      33.236  27.003  24.651  1.00  0.00     0.044 A 
ATOM     18  Br  UNL A   1      33.650  26.828  21.796  1.00  0.00    -0.047 Br
BRANCH  10  19
ATOM     19  C   UNL A   1      33.913  19.983  24.662  1.00  0.00     0.429 C 
ATOM     20  F   UNL A   1      33.315  20.686  23.703  1.00  0.00    -0.167 F 
ATOM     21  F   UNL A   1      34.205  18.769  24.204  1.00  0.00    -0.167 F 
ATOM     22  F   UNL A   1      33.098  19.879  25.708  1.00  0.00    -0.167 F 
ENDBRANCH  10  19
BRANCH  15  23
ATOM     23  S   UNL A   1      32.175  27.385  27.095  1.00  0.00     0.310 S 
ATOM     24  F   UNL A   1      31.824  28.539  26.065  1.00  0.00    -0.094 F 
ATOM     25  F   UNL A   1      33.495  28.177  27.428  1.00  0.00    -0.094 F 
ATOM     26  F   UNL A   1      31.389  28.189  28.169  1.00  0.00    -0.094 F 
ATOM     27  F   UNL A   1      30.833  26.680  26.652  1.00  0.00    -0.094 F 
ATOM     28  F   UNL A   1      32.935  26.641  25.925  1.00  0.00    -0.094 F 
ENDBRANCH  15  23
ENDBRANCH   6   8
ENDBRANCH   3   4
ENDBRANCH   2   3
ENDBRANCH   1   2
BRANCH   1  29
ATOM     29  C   UNL A   1      39.650  20.596  26.810  1.00  0.00     0.116 C 
BRANCH  29  30
ATOM     30  N   UNL A   1      40.491  19.537  26.234  1.00  0.00    -0.352 N 
ATOM     31  C   UNL A   1      41.920  19.785  25.989  1.00  0.00     0.251 C 
ATOM     32  H   UNL A   1      40.099  18.663  26.012  1.00  0.00     0.163 HD
ATOM     33  O   UNL A   1      42.647  18.870  25.491  1.00  0.00    -0.269 OA
BRANCH  31  34
ATOM     34  C   UNL A   1      42.527  21.136  26.331  1.00  0.00     0.039 A 
ATOM     35  C   UNL A   1      42.735  21.540  27.640  1.00  0.00     0.014 A 
ATOM     36  C   UNL A   1      42.735  21.963  25.313  1.00  0.00     0.014 A 
ATOM     37  C   UNL A   1      42.889  22.938  27.791  1.00  0.00     0.010 A 
ATOM     38  C   UNL A   1      43.015  23.291  25.537  1.00  0.00     0.010 A 
ATOM     39  C   UNL A   1      43.176  23.771  26.807  1.00  0.00    -0.014 A 
BRANCH  39  40
ATOM     40  C   UNL A   1      43.660  25.187  27.071  1.00  0.00     0.031 A 
ATOM     41  C   UNL A   1      42.663  26.062  27.505  1.00  0.00     0.074 A 
ATOM     42  C   UNL A   1      45.000  25.522  26.986  1.00  0.00     0.049 A 
ATOM     43  N   UNL A   1      42.811  27.318  27.933  1.00  0.00    -0.248 NA
ATOM     44  C   UNL A   1      41.234  25.720  27.563  1.00  0.00     0.031 C 
ATOM     45  C   UNL A   1      46.014  24.642  26.558  1.00  0.00     0.029 A 
ATOM     46  N   UNL A   1      45.591  26.729  27.288  1.00  0.00    -0.354 N 
ATOM     47  C   UNL A   1      41.628  27.828  28.280  1.00  0.00     0.074 A 
ATOM     48  C   UNL A   1      40.596  26.810  28.043  1.00  0.00     0.031 C 
ATOM     49  C   UNL A   1      47.195  25.312  26.590  1.00  0.00     0.029 A 
ATOM     50  C   UNL A   1      46.941  26.622  27.040  1.00  0.00     0.049 A 
ATOM     51  H   UNL A   1      45.128  27.531  27.624  1.00  0.00     0.167 HD
ATOM     52  C   UNL A   1      41.371  29.103  28.789  1.00  0.00     0.034 A 
ATOM     53  C   UNL A   1      47.912  27.600  27.189  1.00  0.00     0.034 A 
ATOM     54  C   UNL A   1      42.348  30.066  28.979  1.00  0.00     0.049 A 
ATOM     55  C   UNL A   1      47.645  28.894  27.643  1.00  0.00     0.074 A 
ATOM     56  C   UNL A   1      42.106  31.353  29.498  1.00  0.00     0.029 A 
ATOM     57  N   UNL A   1      43.695  29.967  28.708  1.00  0.00    -0.354 N 
ATOM     58  N   UNL A   1      46.469  29.392  28.029  1.00  0.00    -0.248 NA
ATOM     59  C   UNL A   1      48.660  29.948  27.774  1.00  0.00     0.031 C 
ATOM     60  C   UNL A   1      43.289  32.024  29.530  1.00  0.00     0.029 A 
ATOM     61  C   UNL A   1      44.288  31.167  29.032  1.00  0.00     0.049 A 
ATOM     62  H   UNL A   1      44.154  29.175  28.345  1.00  0.00     0.167 HD
ATOM     63  C   UNL A   1      46.612  30.661  28.417  1.00  0.00     0.074 A 
ATOM     64  C   UNL A   1      48.022  31.039  28.252  1.00  0.00     0.031 C 
ATOM     65  C   UNL A   1      45.624  31.517  28.905  1.00  0.00     0.034 A 
BRANCH  52  66
ATOM     66  C   UNL A   1      39.938  29.453  29.155  1.00  0.00     0.023 A 
ATOM     67  C   UNL A   1      39.106  29.763  28.092  1.00  0.00     0.012 A 
ATOM     68  C   UNL A   1      39.465  29.348  30.391  1.00  0.00     0.148 A 
ATOM     69  C   UNL A   1      37.829  30.233  28.480  1.00  0.00     0.002 A 
ATOM     70  C   UNL A   1      38.166  29.696  30.675  1.00  0.00     0.091 A 
ATOM     71  F   UNL A   1      40.255  28.903  31.364  1.00  0.00    -0.205 F 
ATOM     72  C   UNL A   1      37.304  30.069  29.681  1.00  0.00     0.022 A 
BRANCH  70  73
ATOM     73  S   UNL A   1      37.587  29.658  32.390  1.00  0.00     0.127 S 
ATOM     74  O   UNL A   1      38.499  30.530  33.255  1.00  0.00    -0.237 OA
ATOM     75  O   UNL A   1      36.155  30.194  32.458  1.00  0.00    -0.237 OA
ATOM     76  O   UNL A   1      37.621  28.049  32.967  1.00  0.00    -0.744 OA
ENDBRANCH  70  73
ENDBRANCH  52  66
BRANCH  53  77
ATOM     77  C   UNL A   1      49.348  27.245  26.839  1.00  0.00     0.023 A 
ATOM     78  C   UNL A   1      50.207  26.776  27.818  1.00  0.00     0.012 A 
ATOM     79  C   UNL A   1      49.786  27.531  25.618  1.00  0.00     0.148 A 
ATOM     80  C   UNL A   1      51.577  26.917  27.495  1.00  0.00     0.002 A 
ATOM     81  C   UNL A   1      51.130  27.517  25.336  1.00  0.00     0.091 A 
ATOM     82  F   UNL A   1      48.915  27.834  24.660  1.00  0.00    -0.205 F 
ATOM     83  C   UNL A   1      52.041  27.121  26.276  1.00  0.00     0.022 A 
BRANCH  81  84
ATOM     84  S   UNL A   1      51.704  28.030  23.698  1.00  0.00     0.127 S 
ATOM     85  O   UNL A   1      51.388  29.513  23.488  1.00  0.00    -0.237 OA
ATOM     86  O   UNL A   1      53.215  27.811  23.596  1.00  0.00    -0.237 OA
ATOM     87  O   UNL A   1      50.911  27.103  22.501  1.00  0.00    -0.744 OA
ENDBRANCH  81  84
ENDBRANCH  53  77
BRANCH  65  88
ATOM     88  C   UNL A   1      46.037  32.918  29.325  1.00  0.00     0.023 A 
ATOM     89  C   UNL A   1      46.433  33.207  30.621  1.00  0.00     0.012 A 
ATOM     90  C   UNL A   1      45.879  33.880  28.423  1.00  0.00     0.148 A 
ATOM     91  C   UNL A   1      46.360  34.580  30.951  1.00  0.00     0.002 A 
ATOM     92  C   UNL A   1      45.954  35.202  28.790  1.00  0.00     0.091 A 
ATOM     93  F   UNL A   1      45.645  33.560  27.153  1.00  0.00    -0.205 F 
ATOM     94  C   UNL A   1      46.284  35.559  30.067  1.00  0.00     0.022 A 
BRANCH  92  95
ATOM     95  S   UNL A   1      45.613  36.488  27.563  1.00  0.00     0.127 S 
ATOM     96  O   UNL A   1      44.183  36.331  27.043  1.00  0.00    -0.237 OA
ATOM     97  O   UNL A   1      45.771  37.866  28.211  1.00  0.00    -0.237 OA
ATOM     98  O   UNL A   1      46.713  36.341  26.262  1.00  0.00    -0.744 OA
ENDBRANCH  92  95
ENDBRANCH  65  88
ENDBRANCH  39  40
ENDBRANCH  31  34
ENDBRANCH  29  30
ENDBRANCH   1  29
TORSDOF 16
ENDMDL
