MODEL 1
REMARK VINA RESULT:     -13.4      0.000      0.000
REMARK SMILES CC1(C)S[C@@H](c2cccc3c2sc2ccccc23)[NH2+][C@@H]1C(=O)NCCCCNC(=O)c1ccc(-c2c3nc(c(-c4cccc(S(=O)(=O)[O-])c4F)c4ccc([nH]4)c(-c4cccc(S(=O)(=O)[O-])c4F)c4nc(c(-c5cccc(S(=O)(=O)[O-])c5F)c5ccc2[nH]5)C=C4)C=C3)cc1
REMARK SMILES IDX 26 1 25 2 24 3 23 4 21 5 22 6 20 8 1 9 2 10 3 11 4 12 5 13
REMARK SMILES IDX 19 14 6 17 7 18 11 19 8 20 10 21 12 22 9 23 18 24 13 25
REMARK SMILES IDX 17 26 14 27 16 28 15 29 27 30 28 31 29 32 30 34 31 35 32 36
REMARK SMILES IDX 93 37 33 38 92 39 34 40 35 41 36 42 86 43 37 44 91 45 85 46
REMARK SMILES IDX 87 47 38 48 90 49 84 50 83 51 39 53 71 54 51 55 70 56 52 57
REMARK SMILES IDX 55 58 69 59 88 60 53 61 54 62 68 64 89 65 56 66 40 67 41 68
REMARK SMILES IDX 49 69 42 70 44 71 50 72 43 73 45 74 46 75 47 76 48 77 72 78
REMARK SMILES IDX 73 79 81 80 74 81 76 82 82 83 75 84 77 85 78 86 79 87 80 88
REMARK SMILES IDX 57 89 58 90 66 91 59 92 61 93 67 94 60 95 62 96 63 97 64 98
REMARK SMILES IDX 65 99
REMARK H PARENT 23 7 19 15 19 16 28 33 87 52 55 63
REMARK Flexibility Score: inf
ROOT
ATOM      1  C   UNL A   1      31.548  31.720  26.730  1.00  0.00     0.023 C 
ENDROOT
BRANCH   1   2
ATOM      2  C   UNL A   1      31.792  30.298  26.233  1.00  0.00     0.023 C 
BRANCH   2   3
ATOM      3  C   UNL A   1      32.194  29.282  27.297  1.00  0.00     0.116 C 
BRANCH   3   4
ATOM      4  N   UNL A   1      31.479  28.024  27.169  1.00  0.00    -0.351 N 
ATOM      5  C   UNL A   1      31.730  26.918  26.409  1.00  0.00     0.279 C 
ATOM      6  O   UNL A   1      30.908  26.007  26.515  1.00  0.00    -0.268 OA
ATOM      7  H   UNL A   1      30.672  27.958  27.729  1.00  0.00     0.163 HD
BRANCH   5   8
ATOM      8  C   UNL A   1      32.891  26.876  25.372  1.00  0.00     0.289 C 
ATOM      9  C   UNL A   1      33.621  27.172  22.946  1.00  0.00     0.030 C 
ATOM     10  C   UNL A   1      32.504  26.654  23.878  1.00  0.00     0.077 C 
ATOM     11  C   UNL A   1      31.181  27.248  23.395  1.00  0.00     0.030 C 
ATOM     12  S   UNL A   1      32.467  24.827  23.708  1.00  0.00    -0.081 SA
ATOM     13  C   UNL A   1      33.322  24.538  25.283  1.00  0.00     0.276 C 
ATOM     14  N   UNL A   1      33.893  25.822  25.700  1.00  0.00    -0.320 N 
ATOM     15  H   UNL A   1      34.762  25.998  25.198  1.00  0.00     0.348 HD
ATOM     16  H   UNL A   1      34.101  25.819  26.699  1.00  0.00     0.348 HD
BRANCH  13  17
ATOM     17  C   UNL A   1      34.400  23.470  25.213  1.00  0.00     0.038 A 
ATOM     18  C   UNL A   1      35.762  23.822  25.378  1.00  0.00     0.012 A 
ATOM     19  C   UNL A   1      34.118  22.083  25.041  1.00  0.00     0.046 A 
ATOM     20  C   UNL A   1      36.777  22.881  25.357  1.00  0.00     0.001 A 
ATOM     21  C   UNL A   1      35.128  21.114  24.997  1.00  0.00     0.001 A 
ATOM     22  S   UNL A   1      32.571  21.336  24.874  1.00  0.00    -0.135 S 
ATOM     23  C   UNL A   1      36.471  21.540  25.161  1.00  0.00     0.010 A 
ATOM     24  C   UNL A   1      34.610  19.777  24.772  1.00  0.00     0.000 A 
ATOM     25  C   UNL A   1      33.219  19.763  24.697  1.00  0.00     0.036 A 
ATOM     26  C   UNL A   1      35.291  18.539  24.627  1.00  0.00     0.010 A 
ATOM     27  C   UNL A   1      32.500  18.567  24.496  1.00  0.00     0.019 A 
ATOM     28  C   UNL A   1      34.585  17.351  24.417  1.00  0.00     0.001 A 
ATOM     29  C   UNL A   1      33.200  17.367  24.356  1.00  0.00     0.002 A 
ENDBRANCH  13  17
ENDBRANCH   5   8
ENDBRANCH   3   4
ENDBRANCH   2   3
ENDBRANCH   1   2
BRANCH   1  30
ATOM     30  C   UNL A   1      32.780  32.456  27.242  1.00  0.00     0.116 C 
BRANCH  30  31
ATOM     31  N   UNL A   1      32.515  33.849  27.572  1.00  0.00    -0.352 N 
ATOM     32  C   UNL A   1      33.086  34.638  28.542  1.00  0.00     0.251 C 
ATOM     33  H   UNL A   1      31.829  34.290  27.021  1.00  0.00     0.163 HD
ATOM     34  O   UNL A   1      32.633  35.756  28.770  1.00  0.00    -0.269 OA
BRANCH  32  35
ATOM     35  C   UNL A   1      34.231  34.128  29.328  1.00  0.00     0.039 A 
ATOM     36  C   UNL A   1      33.984  33.353  30.465  1.00  0.00     0.014 A 
ATOM     37  C   UNL A   1      35.544  34.404  28.940  1.00  0.00     0.014 A 
ATOM     38  C   UNL A   1      35.056  32.805  31.175  1.00  0.00     0.010 A 
ATOM     39  C   UNL A   1      36.604  33.787  29.596  1.00  0.00     0.010 A 
ATOM     40  C   UNL A   1      36.374  32.992  30.729  1.00  0.00    -0.014 A 
BRANCH  40  41
ATOM     41  C   UNL A   1      37.528  32.381  31.439  1.00  0.00     0.031 A 
ATOM     42  C   UNL A   1      38.284  31.243  30.805  1.00  0.00     0.074 A 
ATOM     43  C   UNL A   1      37.842  32.786  32.686  1.00  0.00     0.049 A 
ATOM     44  N   UNL A   1      39.272  30.535  31.290  1.00  0.00    -0.248 NA
ATOM     45  C   UNL A   1      37.853  30.822  29.461  1.00  0.00     0.031 C 
ATOM     46  C   UNL A   1      37.137  33.822  33.443  1.00  0.00     0.029 A 
ATOM     47  N   UNL A   1      38.820  32.354  33.547  1.00  0.00    -0.354 N 
ATOM     48  C   UNL A   1      39.551  29.566  30.334  1.00  0.00     0.074 A 
ATOM     49  C   UNL A   1      38.603  29.749  29.257  1.00  0.00     0.031 C 
ATOM     50  C   UNL A   1      37.708  33.949  34.652  1.00  0.00     0.029 A 
ATOM     51  C   UNL A   1      38.800  32.987  34.769  1.00  0.00     0.049 A 
ATOM     52  H   UNL A   1      39.475  31.656  33.313  1.00  0.00     0.167 HD
ATOM     53  C   UNL A   1      40.527  28.628  30.333  1.00  0.00     0.034 A 
ATOM     54  C   UNL A   1      39.570  32.811  35.860  1.00  0.00     0.034 A 
ATOM     55  C   UNL A   1      41.499  28.479  31.381  1.00  0.00     0.049 A 
ATOM     56  C   UNL A   1      40.684  31.798  35.812  1.00  0.00     0.074 A 
ATOM     57  C   UNL A   1      42.580  27.617  31.437  1.00  0.00     0.029 A 
ATOM     58  N   UNL A   1      41.509  29.208  32.560  1.00  0.00    -0.354 N 
ATOM     59  N   UNL A   1      41.028  30.995  34.835  1.00  0.00    -0.248 NA
ATOM     60  C   UNL A   1      41.541  31.696  37.002  1.00  0.00     0.031 C 
ATOM     61  C   UNL A   1      43.232  27.812  32.659  1.00  0.00     0.029 A 
ATOM     62  C   UNL A   1      42.575  28.817  33.351  1.00  0.00     0.049 A 
ATOM     63  H   UNL A   1      40.853  29.904  32.799  1.00  0.00     0.167 HD
ATOM     64  C   UNL A   1      42.166  30.326  35.273  1.00  0.00     0.074 A 
ATOM     65  C   UNL A   1      42.462  30.832  36.597  1.00  0.00     0.031 C 
ATOM     66  C   UNL A   1      42.893  29.373  34.641  1.00  0.00     0.034 A 
BRANCH  53  67
ATOM     67  C   UNL A   1      40.625  27.722  29.132  1.00  0.00     0.023 A 
ATOM     68  C   UNL A   1      39.793  26.587  29.044  1.00  0.00     0.012 A 
ATOM     69  C   UNL A   1      41.501  28.018  28.069  1.00  0.00     0.148 A 
ATOM     70  C   UNL A   1      39.859  25.739  27.940  1.00  0.00     0.002 A 
ATOM     71  C   UNL A   1      41.526  27.195  26.949  1.00  0.00     0.091 A 
ATOM     72  F   UNL A   1      42.300  29.089  28.176  1.00  0.00    -0.205 F 
ATOM     73  C   UNL A   1      40.717  26.048  26.889  1.00  0.00     0.022 A 
BRANCH  71  74
ATOM     74  S   UNL A   1      42.535  27.551  25.506  1.00  0.00     0.127 S 
ATOM     75  O   UNL A   1      42.284  26.375  24.674  1.00  0.00    -0.237 OA
ATOM     76  O   UNL A   1      41.933  28.789  25.009  1.00  0.00    -0.237 OA
ATOM     77  O   UNL A   1      43.899  27.694  25.993  1.00  0.00    -0.744 OA
ENDBRANCH  71  74
ENDBRANCH  53  67
BRANCH  54  78
ATOM     78  C   UNL A   1      39.368  33.665  37.065  1.00  0.00     0.023 A 
ATOM     79  C   UNL A   1      39.842  34.992  37.059  1.00  0.00     0.012 A 
ATOM     80  C   UNL A   1      38.696  33.182  38.204  1.00  0.00     0.148 A 
ATOM     81  C   UNL A   1      39.686  35.809  38.178  1.00  0.00     0.002 A 
ATOM     82  C   UNL A   1      38.494  34.020  39.296  1.00  0.00     0.091 A 
ATOM     83  F   UNL A   1      38.260  31.915  38.195  1.00  0.00    -0.205 F 
ATOM     84  C   UNL A   1      39.004  35.327  39.292  1.00  0.00     0.022 A 
BRANCH  82  85
ATOM     85  S   UNL A   1      37.518  33.528  40.721  1.00  0.00     0.127 S 
ATOM     86  O   UNL A   1      38.363  32.500  41.323  1.00  0.00    -0.237 OA
ATOM     87  O   UNL A   1      37.436  34.780  41.476  1.00  0.00    -0.237 OA
ATOM     88  O   UNL A   1      36.245  33.067  40.186  1.00  0.00    -0.744 OA
ENDBRANCH  82  85
ENDBRANCH  54  78
BRANCH  66  89
ATOM     89  C   UNL A   1      44.118  28.845  35.343  1.00  0.00     0.023 A 
ATOM     90  C   UNL A   1      45.368  29.464  35.145  1.00  0.00     0.012 A 
ATOM     91  C   UNL A   1      44.013  27.775  36.254  1.00  0.00     0.148 A 
ATOM     92  C   UNL A   1      46.501  29.003  35.816  1.00  0.00     0.002 A 
ATOM     93  C   UNL A   1      45.135  27.355  36.957  1.00  0.00     0.091 A 
ATOM     94  F   UNL A   1      42.819  27.186  36.415  1.00  0.00    -0.205 F 
ATOM     95  C   UNL A   1      46.383  27.958  36.729  1.00  0.00     0.022 A 
BRANCH  93  96
ATOM     96  S   UNL A   1      45.053  26.085  38.225  1.00  0.00     0.127 S 
ATOM     97  O   UNL A   1      44.146  26.694  39.198  1.00  0.00    -0.237 OA
ATOM     98  O   UNL A   1      44.489  24.950  37.494  1.00  0.00    -0.237 OA
ATOM     99  O   UNL A   1      46.422  25.887  38.681  1.00  0.00    -0.744 OA
ENDBRANCH  93  96
ENDBRANCH  66  89
ENDBRANCH  40  41
ENDBRANCH  32  35
ENDBRANCH  30  31
ENDBRANCH   1  30
TORSDOF 15
ENDMDL
MODEL 2
REMARK VINA RESULT:     -13.0      5.598     11.968
REMARK SMILES CC1(C)S[C@@H](c2cccc3c2sc2ccccc23)[NH2+][C@@H]1C(=O)NCCCCNC(=O)c1ccc(-c2c3nc(c(-c4cccc(S(=O)(=O)[O-])c4F)c4ccc([nH]4)c(-c4cccc(S(=O)(=O)[O-])c4F)c4nc(c(-c5cccc(S(=O)(=O)[O-])c5F)c5ccc2[nH]5)C=C4)C=C3)cc1
REMARK SMILES IDX 26 1 25 2 24 3 23 4 21 5 22 6 20 8 1 9 2 10 3 11 4 12 5 13
REMARK SMILES IDX 19 14 6 17 7 18 11 19 8 20 10 21 12 22 9 23 18 24 13 25
REMARK SMILES IDX 17 26 14 27 16 28 15 29 27 30 28 31 29 32 30 34 31 35 32 36
REMARK SMILES IDX 93 37 33 38 92 39 34 40 35 41 36 42 86 43 37 44 91 45 85 46
REMARK SMILES IDX 87 47 38 48 90 49 84 50 83 51 39 53 71 54 51 55 70 56 52 57
REMARK SMILES IDX 55 58 69 59 88 60 53 61 54 62 68 64 89 65 56 66 40 67 41 68
REMARK SMILES IDX 49 69 42 70 44 71 50 72 43 73 45 74 46 75 47 76 48 77 72 78
REMARK SMILES IDX 73 79 81 80 74 81 76 82 82 83 75 84 77 85 78 86 79 87 80 88
REMARK SMILES IDX 57 89 58 90 66 91 59 92 61 93 67 94 60 95 62 96 63 97 64 98
REMARK SMILES IDX 65 99
REMARK H PARENT 23 7 19 15 19 16 28 33 87 52 55 63
REMARK Flexibility Score: inf
ROOT
ATOM      1  C   UNL A   1      37.826  20.058  24.997  1.00  0.00     0.023 C 
ENDROOT
BRANCH   1   2
ATOM      2  C   UNL A   1      36.680  21.065  24.960  1.00  0.00     0.023 C 
BRANCH   2   3
ATOM      3  C   UNL A   1      37.009  22.423  24.350  1.00  0.00     0.116 C 
BRANCH   3   4
ATOM      4  N   UNL A   1      36.017  22.858  23.382  1.00  0.00    -0.351 N 
ATOM      5  C   UNL A   1      34.848  23.546  23.536  1.00  0.00     0.279 C 
ATOM      6  O   UNL A   1      34.212  23.747  22.501  1.00  0.00    -0.268 OA
ATOM      7  H   UNL A   1      36.225  22.614  22.451  1.00  0.00     0.163 HD
BRANCH   5   8
ATOM      8  C   UNL A   1      34.289  23.917  24.941  1.00  0.00     0.289 C 
ATOM      9  C   UNL A   1      32.717  23.319  26.859  1.00  0.00     0.030 C 
ATOM     10  C   UNL A   1      32.890  23.348  25.326  1.00  0.00     0.077 C 
ATOM     11  C   UNL A   1      32.519  21.965  24.788  1.00  0.00     0.030 C 
ATOM     12  S   UNL A   1      31.719  24.603  24.677  1.00  0.00    -0.081 SA
ATOM     13  C   UNL A   1      33.009  25.852  24.413  1.00  0.00     0.276 C 
ATOM     14  N   UNL A   1      34.201  25.393  25.133  1.00  0.00    -0.320 N 
ATOM     15  H   UNL A   1      34.116  25.612  26.125  1.00  0.00     0.348 HD
ATOM     16  H   UNL A   1      35.038  25.855  24.779  1.00  0.00     0.348 HD
BRANCH  13  17
ATOM     17  C   UNL A   1      32.617  27.249  24.862  1.00  0.00     0.038 A 
ATOM     18  C   UNL A   1      33.315  27.878  25.922  1.00  0.00     0.012 A 
ATOM     19  C   UNL A   1      31.595  28.017  24.230  1.00  0.00     0.046 A 
ATOM     20  C   UNL A   1      33.019  29.163  26.344  1.00  0.00     0.001 A 
ATOM     21  C   UNL A   1      31.263  29.310  24.650  1.00  0.00     0.001 A 
ATOM     22  S   UNL A   1      30.613  27.559  22.886  1.00  0.00    -0.135 S 
ATOM     23  C   UNL A   1      31.998  29.875  25.724  1.00  0.00     0.010 A 
ATOM     24  C   UNL A   1      30.166  29.881  23.889  1.00  0.00     0.000 A 
ATOM     25  C   UNL A   1      29.728  29.023  22.884  1.00  0.00     0.036 A 
ATOM     26  C   UNL A   1      29.511  31.135  24.019  1.00  0.00     0.010 A 
ATOM     27  C   UNL A   1      28.679  29.378  22.012  1.00  0.00     0.019 A 
ATOM     28  C   UNL A   1      28.463  31.488  23.165  1.00  0.00     0.001 A 
ATOM     29  C   UNL A   1      28.055  30.617  22.167  1.00  0.00     0.002 A 
ENDBRANCH  13  17
ENDBRANCH   5   8
ENDBRANCH   3   4
ENDBRANCH   2   3
ENDBRANCH   1   2
BRANCH   1  30
ATOM     30  C   UNL A   1      39.058  20.496  25.779  1.00  0.00     0.116 C 
BRANCH  30  31
ATOM     31  N   UNL A   1      40.040  19.433  25.936  1.00  0.00    -0.352 N 
ATOM     32  C   UNL A   1      41.394  19.524  26.157  1.00  0.00     0.251 C 
ATOM     33  H   UNL A   1      39.684  18.517  25.877  1.00  0.00     0.163 HD
ATOM     34  O   UNL A   1      42.091  18.514  26.120  1.00  0.00    -0.269 OA
BRANCH  32  35
ATOM     35  C   UNL A   1      42.012  20.843  26.414  1.00  0.00     0.039 A 
ATOM     36  C   UNL A   1      42.316  21.674  25.331  1.00  0.00     0.014 A 
ATOM     37  C   UNL A   1      42.283  21.264  27.717  1.00  0.00     0.014 A 
ATOM     38  C   UNL A   1      42.833  22.951  25.563  1.00  0.00     0.010 A 
ATOM     39  C   UNL A   1      42.715  22.566  27.949  1.00  0.00     0.010 A 
ATOM     40  C   UNL A   1      43.009  23.420  26.874  1.00  0.00    -0.014 A 
BRANCH  40  41
ATOM     41  C   UNL A   1      43.513  24.791  27.148  1.00  0.00     0.031 A 
ATOM     42  C   UNL A   1      42.578  25.843  27.684  1.00  0.00     0.074 A 
ATOM     43  C   UNL A   1      44.783  25.116  26.834  1.00  0.00     0.049 A 
ATOM     44  N   UNL A   1      42.808  27.109  27.924  1.00  0.00    -0.248 NA
ATOM     45  C   UNL A   1      41.191  25.427  27.958  1.00  0.00     0.031 C 
ATOM     46  C   UNL A   1      45.766  24.212  26.233  1.00  0.00     0.029 A 
ATOM     47  N   UNL A   1      45.457  26.306  26.952  1.00  0.00    -0.354 N 
ATOM     48  C   UNL A   1      41.593  27.645  28.334  1.00  0.00     0.074 A 
ATOM     49  C   UNL A   1      40.618  26.578  28.273  1.00  0.00     0.031 C 
ATOM     50  C   UNL A   1      46.916  24.877  26.041  1.00  0.00     0.029 A 
ATOM     51  C   UNL A   1      46.748  26.260  26.476  1.00  0.00     0.049 A 
ATOM     52  H   UNL A   1      45.055  27.118  27.339  1.00  0.00     0.167 HD
ATOM     53  C   UNL A   1      41.317  28.902  28.754  1.00  0.00     0.034 A 
ATOM     54  C   UNL A   1      47.686  27.223  26.395  1.00  0.00     0.034 A 
ATOM     55  C   UNL A   1      42.297  29.947  28.860  1.00  0.00     0.049 A 
ATOM     56  C   UNL A   1      47.370  28.599  26.921  1.00  0.00     0.074 A 
ATOM     57  C   UNL A   1      42.139  31.229  29.355  1.00  0.00     0.029 A 
ATOM     58  N   UNL A   1      43.621  29.833  28.464  1.00  0.00    -0.354 N 
ATOM     59  N   UNL A   1      46.256  29.044  27.449  1.00  0.00    -0.248 NA
ATOM     60  C   UNL A   1      48.453  29.592  26.877  1.00  0.00     0.031 C 
ATOM     61  C   UNL A   1      43.362  31.898  29.240  1.00  0.00     0.029 A 
ATOM     62  C   UNL A   1      44.290  31.021  28.701  1.00  0.00     0.049 A 
ATOM     63  H   UNL A   1      44.025  29.025  28.072  1.00  0.00     0.167 HD
ATOM     64  C   UNL A   1      46.516  30.353  27.842  1.00  0.00     0.074 A 
ATOM     65  C   UNL A   1      47.899  30.620  27.506  1.00  0.00     0.031 C 
ATOM     66  C   UNL A   1      45.683  31.253  28.418  1.00  0.00     0.034 A 
BRANCH  53  67
ATOM     67  C   UNL A   1      39.903  29.200  29.185  1.00  0.00     0.023 A 
ATOM     68  C   UNL A   1      38.914  29.446  28.209  1.00  0.00     0.012 A 
ATOM     69  C   UNL A   1      39.540  29.188  30.546  1.00  0.00     0.148 A 
ATOM     70  C   UNL A   1      37.598  29.716  28.582  1.00  0.00     0.002 A 
ATOM     71  C   UNL A   1      38.216  29.410  30.907  1.00  0.00     0.091 A 
ATOM     72  F   UNL A   1      40.496  28.973  31.462  1.00  0.00    -0.205 F 
ATOM     73  C   UNL A   1      37.248  29.687  29.928  1.00  0.00     0.022 A 
BRANCH  71  74
ATOM     74  S   UNL A   1      37.645  29.312  32.607  1.00  0.00     0.127 S 
ATOM     75  O   UNL A   1      36.284  29.830  32.492  1.00  0.00    -0.237 OA
ATOM     76  O   UNL A   1      37.729  27.876  32.877  1.00  0.00    -0.237 OA
ATOM     77  O   UNL A   1      38.563  30.130  33.388  1.00  0.00    -0.744 OA
ENDBRANCH  71  74
ENDBRANCH  53  67
BRANCH  54  78
ATOM     78  C   UNL A   1      49.043  26.903  25.867  1.00  0.00     0.023 A 
ATOM     79  C   UNL A   1      49.945  26.178  26.670  1.00  0.00     0.012 A 
ATOM     80  C   UNL A   1      49.438  27.293  24.573  1.00  0.00     0.148 A 
ATOM     81  C   UNL A   1      51.228  25.880  26.211  1.00  0.00     0.002 A 
ATOM     82  C   UNL A   1      50.699  26.945  24.100  1.00  0.00     0.091 A 
ATOM     83  F   UNL A   1      48.570  27.990  23.827  1.00  0.00    -0.205 F 
ATOM     84  C   UNL A   1      51.602  26.255  24.923  1.00  0.00     0.022 A 
BRANCH  82  85
ATOM     85  S   UNL A   1      51.220  27.273  22.412  1.00  0.00     0.127 S 
ATOM     86  O   UNL A   1      50.132  26.680  21.641  1.00  0.00    -0.237 OA
ATOM     87  O   UNL A   1      51.266  28.736  22.391  1.00  0.00    -0.237 OA
ATOM     88  O   UNL A   1      52.520  26.631  22.271  1.00  0.00    -0.744 OA
ENDBRANCH  82  85
ENDBRANCH  54  78
BRANCH  66  89
ATOM     89  C   UNL A   1      46.251  32.602  28.778  1.00  0.00     0.023 A 
ATOM     90  C   UNL A   1      46.890  32.792  30.020  1.00  0.00     0.012 A 
ATOM     91  C   UNL A   1      46.210  33.664  27.853  1.00  0.00     0.148 A 
ATOM     92  C   UNL A   1      47.447  34.027  30.348  1.00  0.00     0.002 A 
ATOM     93  C   UNL A   1      46.812  34.877  28.166  1.00  0.00     0.091 A 
ATOM     94  F   UNL A   1      45.581  33.471  26.685  1.00  0.00    -0.205 F 
ATOM     95  C   UNL A   1      47.419  35.065  29.419  1.00  0.00     0.022 A 
BRANCH  93  96
ATOM     96  S   UNL A   1      46.911  36.230  26.991  1.00  0.00     0.127 S 
ATOM     97  O   UNL A   1      45.502  36.582  26.821  1.00  0.00    -0.237 OA
ATOM     98  O   UNL A   1      47.702  37.221  27.721  1.00  0.00    -0.237 OA
ATOM     99  O   UNL A   1      47.569  35.687  25.810  1.00  0.00    -0.744 OA
ENDBRANCH  93  96
ENDBRANCH  66  89
ENDBRANCH  40  41
ENDBRANCH  32  35
ENDBRANCH  30  31
ENDBRANCH   1  30
TORSDOF 15
ENDMDL
MODEL 3
REMARK VINA RESULT:     -12.8      1.719      7.700
REMARK SMILES CC1(C)S[C@@H](c2cccc3c2sc2ccccc23)[NH2+][C@@H]1C(=O)NCCCCNC(=O)c1ccc(-c2c3nc(c(-c4cccc(S(=O)(=O)[O-])c4F)c4ccc([nH]4)c(-c4cccc(S(=O)(=O)[O-])c4F)c4nc(c(-c5cccc(S(=O)(=O)[O-])c5F)c5ccc2[nH]5)C=C4)C=C3)cc1
REMARK SMILES IDX 26 1 25 2 24 3 23 4 21 5 22 6 20 8 1 9 2 10 3 11 4 12 5 13
REMARK SMILES IDX 19 14 6 17 7 18 11 19 8 20 10 21 12 22 9 23 18 24 13 25
REMARK SMILES IDX 17 26 14 27 16 28 15 29 27 30 28 31 29 32 30 34 31 35 32 36
REMARK SMILES IDX 93 37 33 38 92 39 34 40 35 41 36 42 86 43 37 44 91 45 85 46
REMARK SMILES IDX 87 47 38 48 90 49 84 50 83 51 39 53 71 54 51 55 70 56 52 57
REMARK SMILES IDX 55 58 69 59 88 60 53 61 54 62 68 64 89 65 56 66 40 67 41 68
REMARK SMILES IDX 49 69 42 70 44 71 50 72 43 73 45 74 46 75 47 76 48 77 72 78
REMARK SMILES IDX 73 79 81 80 74 81 76 82 82 83 75 84 77 85 78 86 79 87 80 88
REMARK SMILES IDX 57 89 58 90 66 91 59 92 61 93 67 94 60 95 62 96 63 97 64 98
REMARK SMILES IDX 65 99
REMARK H PARENT 23 7 19 15 19 16 28 33 87 52 55 63
REMARK Flexibility Score: inf
ROOT
ATOM      1  C   UNL A   1      31.300  31.512  26.133  1.00  0.00     0.023 C 
ENDROOT
BRANCH   1   2
ATOM      2  C   UNL A   1      31.416  30.189  25.380  1.00  0.00     0.023 C 
BRANCH   2   3
ATOM      3  C   UNL A   1      32.383  29.170  25.973  1.00  0.00     0.116 C 
BRANCH   3   4
ATOM      4  N   UNL A   1      31.709  27.992  26.489  1.00  0.00    -0.351 N 
ATOM      5  C   UNL A   1      31.630  26.716  26.009  1.00  0.00     0.279 C 
ATOM      6  O   UNL A   1      30.953  25.938  26.684  1.00  0.00    -0.268 OA
ATOM      7  H   UNL A   1      31.223  28.139  27.333  1.00  0.00     0.163 HD
BRANCH   5   8
ATOM      8  C   UNL A   1      32.231  26.315  24.630  1.00  0.00     0.289 C 
ATOM      9  C   UNL A   1      31.804  25.732  22.184  1.00  0.00     0.030 C 
ATOM     10  C   UNL A   1      31.291  25.573  23.631  1.00  0.00     0.077 C 
ATOM     11  C   UNL A   1      29.809  25.948  23.645  1.00  0.00     0.030 C 
ATOM     12  S   UNL A   1      31.492  23.805  24.081  1.00  0.00    -0.081 SA
ATOM     13  C   UNL A   1      32.969  24.101  25.094  1.00  0.00     0.276 C 
ATOM     14  N   UNL A   1      33.438  25.453  24.778  1.00  0.00    -0.320 N 
ATOM     15  H   UNL A   1      33.971  25.445  23.909  1.00  0.00     0.348 HD
ATOM     16  H   UNL A   1      34.047  25.807  25.517  1.00  0.00     0.348 HD
BRANCH  13  17
ATOM     17  C   UNL A   1      34.078  23.085  24.880  1.00  0.00     0.038 A 
ATOM     18  C   UNL A   1      35.416  23.518  24.712  1.00  0.00     0.012 A 
ATOM     19  C   UNL A   1      33.862  21.676  24.893  1.00  0.00     0.046 A 
ATOM     20  C   UNL A   1      36.466  22.630  24.549  1.00  0.00     0.001 A 
ATOM     21  C   UNL A   1      34.903  20.758  24.711  1.00  0.00     0.001 A 
ATOM     22  S   UNL A   1      32.370  20.841  25.133  1.00  0.00    -0.135 S 
ATOM     23  C   UNL A   1      36.217  21.262  24.539  1.00  0.00     0.010 A 
ATOM     24  C   UNL A   1      34.442  19.381  24.720  1.00  0.00     0.000 A 
ATOM     25  C   UNL A   1      33.072  19.292  24.953  1.00  0.00     0.036 A 
ATOM     26  C   UNL A   1      35.160  18.169  24.535  1.00  0.00     0.010 A 
ATOM     27  C   UNL A   1      32.411  18.049  25.017  1.00  0.00     0.019 A 
ATOM     28  C   UNL A   1      34.509  16.934  24.586  1.00  0.00     0.001 A 
ATOM     29  C   UNL A   1      33.146  16.876  24.830  1.00  0.00     0.002 A 
ENDBRANCH  13  17
ENDBRANCH   5   8
ENDBRANCH   3   4
ENDBRANCH   2   3
ENDBRANCH   1   2
BRANCH   1  30
ATOM     30  C   UNL A   1      32.439  31.820  27.096  1.00  0.00     0.116 C 
BRANCH  30  31
ATOM     31  N   UNL A   1      32.612  33.246  27.336  1.00  0.00    -0.352 N 
ATOM     32  C   UNL A   1      33.592  33.896  28.046  1.00  0.00     0.251 C 
ATOM     33  H   UNL A   1      31.929  33.827  26.930  1.00  0.00     0.163 HD
ATOM     34  O   UNL A   1      33.497  35.101  28.262  1.00  0.00    -0.269 OA
BRANCH  32  35
ATOM     35  C   UNL A   1      34.750  33.138  28.569  1.00  0.00     0.039 A 
ATOM     36  C   UNL A   1      36.042  33.606  28.310  1.00  0.00     0.014 A 
ATOM     37  C   UNL A   1      34.563  31.976  29.320  1.00  0.00     0.014 A 
ATOM     38  C   UNL A   1      37.142  32.941  28.859  1.00  0.00     0.010 A 
ATOM     39  C   UNL A   1      35.652  31.368  29.936  1.00  0.00     0.010 A 
ATOM     40  C   UNL A   1      36.955  31.833  29.702  1.00  0.00    -0.014 A 
BRANCH  40  41
ATOM     41  C   UNL A   1      38.105  31.137  30.335  1.00  0.00     0.031 A 
ATOM     42  C   UNL A   1      38.523  31.497  31.737  1.00  0.00     0.074 A 
ATOM     43  C   UNL A   1      38.827  30.248  29.625  1.00  0.00     0.049 A 
ATOM     44  N   UNL A   1      39.535  31.054  32.437  1.00  0.00    -0.248 NA
ATOM     45  C   UNL A   1      37.715  32.514  32.434  1.00  0.00     0.031 C 
ATOM     46  C   UNL A   1      38.577  29.872  28.232  1.00  0.00     0.029 A 
ATOM     47  N   UNL A   1      39.938  29.518  29.970  1.00  0.00    -0.354 N 
ATOM     48  C   UNL A   1      39.510  31.763  33.633  1.00  0.00     0.074 A 
ATOM     49  C   UNL A   1      38.406  32.694  33.549  1.00  0.00     0.031 C 
ATOM     50  C   UNL A   1      39.502  28.979  27.844  1.00  0.00     0.029 A 
ATOM     51  C   UNL A   1      40.428  28.739  28.947  1.00  0.00     0.049 A 
ATOM     52  H   UNL A   1      40.347  29.550  30.866  1.00  0.00     0.167 HD
ATOM     53  C   UNL A   1      40.310  31.632  34.716  1.00  0.00     0.034 A 
ATOM     54  C   UNL A   1      41.502  27.928  28.901  1.00  0.00     0.034 A 
ATOM     55  C   UNL A   1      41.375  30.672  34.817  1.00  0.00     0.049 A 
ATOM     56  C   UNL A   1      42.343  27.758  30.139  1.00  0.00     0.074 A 
ATOM     57  C   UNL A   1      42.189  30.399  35.902  1.00  0.00     0.029 A 
ATOM     58  N   UNL A   1      41.778  29.827  33.794  1.00  0.00    -0.354 N 
ATOM     59  N   UNL A   1      42.209  28.326  31.313  1.00  0.00    -0.248 NA
ATOM     60  C   UNL A   1      43.460  26.805  30.058  1.00  0.00     0.031 C 
ATOM     61  C   UNL A   1      43.097  29.402  35.528  1.00  0.00     0.029 A 
ATOM     62  C   UNL A   1      42.828  29.033  34.220  1.00  0.00     0.049 A 
ATOM     63  H   UNL A   1      41.374  29.796  32.896  1.00  0.00     0.167 HD
ATOM     64  C   UNL A   1      43.192  27.767  32.123  1.00  0.00     0.074 A 
ATOM     65  C   UNL A   1      43.903  26.803  31.308  1.00  0.00     0.031 C 
ATOM     66  C   UNL A   1      43.486  28.034  33.418  1.00  0.00     0.034 A 
BRANCH  53  67
ATOM     67  C   UNL A   1      40.027  32.513  35.906  1.00  0.00     0.023 A 
ATOM     68  C   UNL A   1      40.707  33.742  36.041  1.00  0.00     0.012 A 
ATOM     69  C   UNL A   1      39.056  32.155  36.862  1.00  0.00     0.148 A 
ATOM     70  C   UNL A   1      40.457  34.578  37.128  1.00  0.00     0.002 A 
ATOM     71  C   UNL A   1      38.776  33.017  37.916  1.00  0.00     0.091 A 
ATOM     72  F   UNL A   1      38.433  30.975  36.730  1.00  0.00    -0.205 F 
ATOM     73  C   UNL A   1      39.485  34.221  38.058  1.00  0.00     0.022 A 
BRANCH  71  74
ATOM     74  S   UNL A   1      37.485  32.689  39.121  1.00  0.00     0.127 S 
ATOM     75  O   UNL A   1      37.840  31.345  39.575  1.00  0.00    -0.237 OA
ATOM     76  O   UNL A   1      37.711  33.745  40.108  1.00  0.00    -0.237 OA
ATOM     77  O   UNL A   1      36.225  32.793  38.398  1.00  0.00    -0.744 OA
ENDBRANCH  71  74
ENDBRANCH  53  67
BRANCH  54  78
ATOM     78  C   UNL A   1      41.800  27.150  27.665  1.00  0.00     0.023 A 
ATOM     79  C   UNL A   1      42.315  27.817  26.536  1.00  0.00     0.012 A 
ATOM     80  C   UNL A   1      41.597  25.758  27.605  1.00  0.00     0.148 A 
ATOM     81  C   UNL A   1      42.586  27.120  25.358  1.00  0.00     0.002 A 
ATOM     82  C   UNL A   1      41.921  25.060  26.447  1.00  0.00     0.091 A 
ATOM     83  F   UNL A   1      41.098  25.142  28.686  1.00  0.00    -0.205 F 
ATOM     84  C   UNL A   1      42.399  25.741  25.317  1.00  0.00     0.022 A 
BRANCH  82  85
ATOM     85  S   UNL A   1      41.833  23.269  26.343  1.00  0.00     0.127 S 
ATOM     86  O   UNL A   1      40.395  23.046  26.227  1.00  0.00    -0.237 OA
ATOM     87  O   UNL A   1      42.600  23.000  25.126  1.00  0.00    -0.237 OA
ATOM     88  O   UNL A   1      42.454  22.774  27.564  1.00  0.00    -0.744 OA
ENDBRANCH  82  85
ENDBRANCH  54  78
BRANCH  66  89
ATOM     89  C   UNL A   1      44.591  27.239  34.064  1.00  0.00     0.023 A 
ATOM     90  C   UNL A   1      45.925  27.683  33.977  1.00  0.00     0.012 A 
ATOM     91  C   UNL A   1      44.294  26.086  34.817  1.00  0.00     0.148 A 
ATOM     92  C   UNL A   1      46.950  26.971  34.600  1.00  0.00     0.002 A 
ATOM     93  C   UNL A   1      45.313  25.410  35.477  1.00  0.00     0.091 A 
ATOM     94  F   UNL A   1      43.021  25.667  34.872  1.00  0.00    -0.205 F 
ATOM     95  C   UNL A   1      46.644  25.843  35.358  1.00  0.00     0.022 A 
BRANCH  93  96
ATOM     96  S   UNL A   1      44.995  24.011  36.556  1.00  0.00     0.127 S 
ATOM     97  O   UNL A   1      46.347  23.645  36.977  1.00  0.00    -0.237 OA
ATOM     98  O   UNL A   1      44.170  24.607  37.607  1.00  0.00    -0.237 OA
ATOM     99  O   UNL A   1      44.304  23.024  35.737  1.00  0.00    -0.744 OA
ENDBRANCH  93  96
ENDBRANCH  66  89
ENDBRANCH  40  41
ENDBRANCH  32  35
ENDBRANCH  30  31
ENDBRANCH   1  30
TORSDOF 15
ENDMDL
