MODEL 1
REMARK VINA RESULT:     -13.2      0.000      0.000
REMARK SMILES Cc1cc(C)c2c(c1)C=C(C(=O)NCCCCNC(=O)c1ccc(-c3c4nc(c(-c5cccc(S(=O)(=O)[O-])c5F)c5ccc([nH]5)c(-c5cccc(S(=O)(=O)[O-])c5F)c5nc(c(-c6cccc(S(=O)(=O)[O-])c6F)c6ccc3[nH]6)C=C5)C=C4)cc1)[C@@H](C(F)(F)F)O2
REMARK SMILES IDX 16 1 15 2 14 3 13 4 11 5 12 6 10 8 1 9 2 10 3 11 8 12 4 13
REMARK SMILES IDX 7 14 5 15 6 16 9 17 89 18 84 19 85 20 86 21 87 22 88 23
REMARK SMILES IDX 17 24 18 25 19 26 20 28 21 29 22 30 83 31 23 32 82 33 24 34
REMARK SMILES IDX 25 35 26 36 76 37 27 38 81 39 75 40 77 41 28 42 80 43 74 44
REMARK SMILES IDX 73 45 29 47 61 48 41 49 60 50 42 51 45 52 59 53 78 54 43 55
REMARK SMILES IDX 44 56 58 58 79 59 46 60 30 61 31 62 39 63 32 64 34 65 40 66
REMARK SMILES IDX 33 67 35 68 36 69 37 70 38 71 62 72 63 73 71 74 64 75 66 76
REMARK SMILES IDX 72 77 65 78 67 79 68 80 69 81 70 82 47 83 48 84 56 85 49 86
REMARK SMILES IDX 51 87 57 88 50 89 52 90 53 91 54 92 55 93
REMARK H PARENT 13 7 18 27 77 46 45 57
REMARK Flexibility Score: inf
ROOT
ATOM      1  C   UNL A   1      35.212  21.368  25.277  1.00  0.00     0.023 C 
ENDROOT
BRANCH   1   2
ATOM      2  C   UNL A   1      34.046  21.837  26.152  1.00  0.00     0.023 C 
BRANCH   2   3
ATOM      3  C   UNL A   1      32.668  21.545  25.565  1.00  0.00     0.116 C 
BRANCH   3   4
ATOM      4  N   UNL A   1      31.605  22.161  26.337  1.00  0.00    -0.352 N 
ATOM      5  C   UNL A   1      31.094  23.403  26.500  1.00  0.00     0.251 C 
ATOM      6  O   UNL A   1      30.143  23.485  27.284  1.00  0.00    -0.270 OA
ATOM      7  H   UNL A   1      31.129  21.499  26.888  1.00  0.00     0.163 HD
BRANCH   5   8
ATOM      8  C   UNL A   1      31.588  24.636  25.818  1.00  0.00     0.067 C 
ATOM      9  C   UNL A   1      31.988  30.737  26.732  1.00  0.00     0.044 C 
ATOM     10  C   UNL A   1      32.241  29.431  26.041  1.00  0.00    -0.050 A 
ATOM     11  C   UNL A   1      32.891  29.395  24.800  1.00  0.00     0.010 A 
ATOM     12  C   UNL A   1      31.787  28.234  26.611  1.00  0.00     0.015 A 
ATOM     13  C   UNL A   1      33.113  28.180  24.138  1.00  0.00    -0.008 A 
ATOM     14  C   UNL A   1      31.994  27.014  25.959  1.00  0.00     0.018 A 
ATOM     15  C   UNL A   1      33.817  28.151  22.812  1.00  0.00     0.048 C 
ATOM     16  C   UNL A   1      32.653  26.995  24.728  1.00  0.00     0.130 A 
ATOM     17  C   UNL A   1      31.562  25.759  26.561  1.00  0.00     0.025 C 
ATOM     18  O   UNL A   1      32.914  25.824  24.071  1.00  0.00    -0.475 OA
ATOM     19  C   UNL A   1      32.052  24.697  24.391  1.00  0.00     0.314 C 
BRANCH  19  20
ATOM     20  C   UNL A   1      30.888  24.650  23.383  1.00  0.00     0.429 C 
ATOM     21  F   UNL A   1      30.506  23.367  23.163  1.00  0.00    -0.167 F 
ATOM     22  F   UNL A   1      29.790  25.306  23.824  1.00  0.00    -0.167 F 
ATOM     23  F   UNL A   1      31.212  25.184  22.184  1.00  0.00    -0.167 F 
ENDBRANCH  19  20
ENDBRANCH   5   8
ENDBRANCH   3   4
ENDBRANCH   2   3
ENDBRANCH   1   2
BRANCH   1  24
ATOM     24  C   UNL A   1      36.592  21.880  25.691  1.00  0.00     0.116 C 
BRANCH  24  25
ATOM     25  N   UNL A   1      37.638  20.867  25.635  1.00  0.00    -0.352 N 
ATOM     26  C   UNL A   1      38.963  21.002  25.978  1.00  0.00     0.251 C 
ATOM     27  H   UNL A   1      37.364  19.978  25.312  1.00  0.00     0.163 HD
ATOM     28  O   UNL A   1      39.751  20.078  25.809  1.00  0.00    -0.269 OA
BRANCH  26  29
ATOM     29  C   UNL A   1      39.423  22.296  26.514  1.00  0.00     0.039 A 
ATOM     30  C   UNL A   1      40.481  22.310  27.426  1.00  0.00     0.014 A 
ATOM     31  C   UNL A   1      38.862  23.489  26.049  1.00  0.00     0.014 A 
ATOM     32  C   UNL A   1      41.029  23.531  27.818  1.00  0.00     0.010 A 
ATOM     33  C   UNL A   1      39.449  24.700  26.395  1.00  0.00     0.010 A 
ATOM     34  C   UNL A   1      40.541  24.732  27.276  1.00  0.00    -0.014 A 
BRANCH  34  35
ATOM     35  C   UNL A   1      41.170  26.033  27.604  1.00  0.00     0.031 A 
ATOM     36  C   UNL A   1      42.583  26.312  27.181  1.00  0.00     0.074 A 
ATOM     37  C   UNL A   1      40.494  26.927  28.352  1.00  0.00     0.049 A 
ATOM     38  N   UNL A   1      43.318  27.367  27.415  1.00  0.00    -0.248 NA
ATOM     39  C   UNL A   1      43.271  25.259  26.416  1.00  0.00     0.031 C 
ATOM     40  C   UNL A   1      39.142  26.735  28.882  1.00  0.00     0.029 A 
ATOM     41  N   UNL A   1      40.856  28.167  28.813  1.00  0.00    -0.354 N 
ATOM     42  C   UNL A   1      44.557  27.097  26.851  1.00  0.00     0.074 A 
ATOM     43  C   UNL A   1      44.490  25.763  26.296  1.00  0.00     0.031 C 
ATOM     44  C   UNL A   1      38.785  27.824  29.582  1.00  0.00     0.029 A 
ATOM     45  C   UNL A   1      39.887  28.781  29.571  1.00  0.00     0.049 A 
ATOM     46  H   UNL A   1      41.730  28.579  28.620  1.00  0.00     0.167 HD
ATOM     47  C   UNL A   1      45.641  27.904  26.765  1.00  0.00     0.034 A 
ATOM     48  C   UNL A   1      39.883  29.983  30.179  1.00  0.00     0.034 A 
ATOM     49  C   UNL A   1      45.685  29.247  27.271  1.00  0.00     0.049 A 
ATOM     50  C   UNL A   1      41.089  30.875  30.038  1.00  0.00     0.074 A 
ATOM     51  C   UNL A   1      46.709  30.170  27.169  1.00  0.00     0.029 A 
ATOM     52  N   UNL A   1      44.657  29.863  27.970  1.00  0.00    -0.354 N 
ATOM     53  N   UNL A   1      42.199  30.659  29.374  1.00  0.00    -0.248 NA
ATOM     54  C   UNL A   1      41.030  32.187  30.700  1.00  0.00     0.031 C 
ATOM     55  C   UNL A   1      46.303  31.345  27.810  1.00  0.00     0.029 A 
ATOM     56  C   UNL A   1      45.022  31.154  28.307  1.00  0.00     0.049 A 
ATOM     57  H   UNL A   1      43.795  29.442  28.193  1.00  0.00     0.167 HD
ATOM     58  C   UNL A   1      42.960  31.813  29.516  1.00  0.00     0.074 A 
ATOM     59  C   UNL A   1      42.173  32.736  30.310  1.00  0.00     0.031 C 
ATOM     60  C   UNL A   1      44.205  32.078  29.050  1.00  0.00     0.034 A 
BRANCH  47  61
ATOM     61  C   UNL A   1      46.840  27.381  26.020  1.00  0.00     0.023 A 
ATOM     62  C   UNL A   1      47.692  26.458  26.658  1.00  0.00     0.012 A 
ATOM     63  C   UNL A   1      47.091  27.746  24.683  1.00  0.00     0.148 A 
ATOM     64  C   UNL A   1      48.793  25.926  25.990  1.00  0.00     0.002 A 
ATOM     65  C   UNL A   1      48.168  27.181  24.010  1.00  0.00     0.091 A 
ATOM     66  F   UNL A   1      46.283  28.644  24.101  1.00  0.00    -0.205 F 
ATOM     67  C   UNL A   1      49.024  26.279  24.663  1.00  0.00     0.022 A 
BRANCH  65  68
ATOM     68  S   UNL A   1      48.510  27.515  22.278  1.00  0.00     0.127 S 
ATOM     69  O   UNL A   1      49.664  28.410  22.373  1.00  0.00    -0.237 OA
ATOM     70  O   UNL A   1      48.816  26.181  21.760  1.00  0.00    -0.237 OA
ATOM     71  O   UNL A   1      47.297  28.112  21.738  1.00  0.00    -0.744 OA
ENDBRANCH  65  68
ENDBRANCH  47  61
BRANCH  48  72
ATOM     72  C   UNL A   1      38.656  30.451  30.885  1.00  0.00     0.023 A 
ATOM     73  C   UNL A   1      38.568  30.283  32.281  1.00  0.00     0.012 A 
ATOM     74  C   UNL A   1      37.613  31.111  30.206  1.00  0.00     0.148 A 
ATOM     75  C   UNL A   1      37.456  30.747  32.985  1.00  0.00     0.002 A 
ATOM     76  C   UNL A   1      36.534  31.617  30.922  1.00  0.00     0.091 A 
ATOM     77  F   UNL A   1      37.709  31.248  28.876  1.00  0.00    -0.205 F 
ATOM     78  C   UNL A   1      36.447  31.424  32.309  1.00  0.00     0.022 A 
BRANCH  76  79
ATOM     79  S   UNL A   1      35.257  32.622  30.154  1.00  0.00     0.127 S 
ATOM     80  O   UNL A   1      34.785  31.744  29.087  1.00  0.00    -0.237 OA
ATOM     81  O   UNL A   1      34.314  32.811  31.258  1.00  0.00    -0.237 OA
ATOM     82  O   UNL A   1      35.926  33.843  29.724  1.00  0.00    -0.744 OA
ENDBRANCH  76  79
ENDBRANCH  48  72
BRANCH  60  83
ATOM     83  C   UNL A   1      44.809  33.419  29.373  1.00  0.00     0.023 A 
ATOM     84  C   UNL A   1      45.533  33.578  30.570  1.00  0.00     0.012 A 
ATOM     85  C   UNL A   1      44.764  34.477  28.445  1.00  0.00     0.148 A 
ATOM     86  C   UNL A   1      46.191  34.774  30.846  1.00  0.00     0.002 A 
ATOM     87  C   UNL A   1      45.458  35.653  28.707  1.00  0.00     0.091 A 
ATOM     88  F   UNL A   1      44.052  34.313  27.319  1.00  0.00    -0.205 F 
ATOM     89  C   UNL A   1      46.166  35.805  29.910  1.00  0.00     0.022 A 
BRANCH  87  90
ATOM     90  S   UNL A   1      45.563  36.991  27.512  1.00  0.00     0.127 S 
ATOM     91  O   UNL A   1      46.532  37.883  28.149  1.00  0.00    -0.237 OA
ATOM     92  O   UNL A   1      46.058  36.307  26.317  1.00  0.00    -0.237 OA
ATOM     93  O   UNL A   1      44.212  37.519  27.386  1.00  0.00    -0.744 OA
ENDBRANCH  87  90
ENDBRANCH  60  83
ENDBRANCH  34  35
ENDBRANCH  26  29
ENDBRANCH  24  25
ENDBRANCH   1  24
TORSDOF 15
ENDMDL
MODEL 2
REMARK VINA RESULT:     -13.2      5.355      9.963
REMARK SMILES Cc1cc(C)c2c(c1)C=C(C(=O)NCCCCNC(=O)c1ccc(-c3c4nc(c(-c5cccc(S(=O)(=O)[O-])c5F)c5ccc([nH]5)c(-c5cccc(S(=O)(=O)[O-])c5F)c5nc(c(-c6cccc(S(=O)(=O)[O-])c6F)c6ccc3[nH]6)C=C5)C=C4)cc1)[C@@H](C(F)(F)F)O2
REMARK SMILES IDX 16 1 15 2 14 3 13 4 11 5 12 6 10 8 1 9 2 10 3 11 8 12 4 13
REMARK SMILES IDX 7 14 5 15 6 16 9 17 89 18 84 19 85 20 86 21 87 22 88 23
REMARK SMILES IDX 17 24 18 25 19 26 20 28 21 29 22 30 83 31 23 32 82 33 24 34
REMARK SMILES IDX 25 35 26 36 76 37 27 38 81 39 75 40 77 41 28 42 80 43 74 44
REMARK SMILES IDX 73 45 29 47 61 48 41 49 60 50 42 51 45 52 59 53 78 54 43 55
REMARK SMILES IDX 44 56 58 58 79 59 46 60 30 61 31 62 39 63 32 64 34 65 40 66
REMARK SMILES IDX 33 67 35 68 36 69 37 70 38 71 62 72 63 73 71 74 64 75 66 76
REMARK SMILES IDX 72 77 65 78 67 79 68 80 69 81 70 82 47 83 48 84 56 85 49 86
REMARK SMILES IDX 51 87 57 88 50 89 52 90 53 91 54 92 55 93
REMARK H PARENT 13 7 18 27 77 46 45 57
REMARK Flexibility Score: inf
ROOT
ATOM      1  C   UNL A   1      33.008  29.248  24.751  1.00  0.00     0.023 C 
ENDROOT
BRANCH   1   2
ATOM      2  C   UNL A   1      34.149  28.260  24.492  1.00  0.00     0.023 C 
BRANCH   2   3
ATOM      3  C   UNL A   1      33.807  26.810  24.822  1.00  0.00     0.116 C 
BRANCH   3   4
ATOM      4  N   UNL A   1      33.463  26.048  23.636  1.00  0.00    -0.352 N 
ATOM      5  C   UNL A   1      32.375  25.884  22.847  1.00  0.00     0.251 C 
ATOM      6  O   UNL A   1      32.525  25.112  21.895  1.00  0.00    -0.270 OA
ATOM      7  H   UNL A   1      34.222  25.506  23.322  1.00  0.00     0.163 HD
BRANCH   5   8
ATOM      8  C   UNL A   1      31.055  26.553  23.047  1.00  0.00     0.067 C 
ATOM      9  C   UNL A   1      28.314  32.020  22.139  1.00  0.00     0.044 C 
ATOM     10  C   UNL A   1      28.396  30.563  22.484  1.00  0.00    -0.050 A 
ATOM     11  C   UNL A   1      27.279  29.887  22.994  1.00  0.00     0.010 A 
ATOM     12  C   UNL A   1      29.608  29.873  22.344  1.00  0.00     0.015 A 
ATOM     13  C   UNL A   1      27.353  28.531  23.339  1.00  0.00    -0.008 A 
ATOM     14  C   UNL A   1      29.700  28.522  22.691  1.00  0.00     0.018 A 
ATOM     15  C   UNL A   1      26.148  27.814  23.877  1.00  0.00     0.048 C 
ATOM     16  C   UNL A   1      28.574  27.861  23.187  1.00  0.00     0.130 A 
ATOM     17  C   UNL A   1      30.944  27.784  22.511  1.00  0.00     0.025 C 
ATOM     18  O   UNL A   1      28.604  26.530  23.503  1.00  0.00    -0.475 OA
ATOM     19  C   UNL A   1      29.908  25.969  23.819  1.00  0.00     0.314 C 
BRANCH  19  20
ATOM     20  C   UNL A   1      30.125  26.025  25.343  1.00  0.00     0.429 C 
ATOM     21  F   UNL A   1      30.519  27.269  25.717  1.00  0.00    -0.167 F 
ATOM     22  F   UNL A   1      28.997  25.756  26.041  1.00  0.00    -0.167 F 
ATOM     23  F   UNL A   1      31.070  25.158  25.771  1.00  0.00    -0.167 F 
ENDBRANCH  19  20
ENDBRANCH   5   8
ENDBRANCH   3   4
ENDBRANCH   2   3
ENDBRANCH   1   2
BRANCH   1  24
ATOM     24  C   UNL A   1      32.698  29.523  26.223  1.00  0.00     0.116 C 
BRANCH  24  25
ATOM     25  N   UNL A   1      32.471  30.931  26.525  1.00  0.00    -0.352 N 
ATOM     26  C   UNL A   1      33.281  31.781  27.240  1.00  0.00     0.251 C 
ATOM     27  H   UNL A   1      31.636  31.320  26.176  1.00  0.00     0.163 HD
ATOM     28  O   UNL A   1      32.925  32.930  27.481  1.00  0.00    -0.269 OA
BRANCH  26  29
ATOM     29  C   UNL A   1      34.568  31.269  27.747  1.00  0.00     0.039 A 
ATOM     30  C   UNL A   1      35.621  32.166  27.938  1.00  0.00     0.014 A 
ATOM     31  C   UNL A   1      34.696  29.925  28.107  1.00  0.00     0.014 A 
ATOM     32  C   UNL A   1      36.788  31.727  28.563  1.00  0.00     0.010 A 
ATOM     33  C   UNL A   1      35.835  29.505  28.783  1.00  0.00     0.010 A 
ATOM     34  C   UNL A   1      36.887  30.403  29.024  1.00  0.00    -0.014 A 
BRANCH  34  35
ATOM     35  C   UNL A   1      38.078  29.939  29.776  1.00  0.00     0.031 A 
ATOM     36  C   UNL A   1      38.345  30.464  31.157  1.00  0.00     0.074 A 
ATOM     37  C   UNL A   1      38.957  29.110  29.180  1.00  0.00     0.049 A 
ATOM     38  N   UNL A   1      39.353  30.215  31.949  1.00  0.00    -0.248 NA
ATOM     39  C   UNL A   1      37.364  31.411  31.712  1.00  0.00     0.031 C 
ATOM     40  C   UNL A   1      38.840  28.593  27.815  1.00  0.00     0.029 A 
ATOM     41  N   UNL A   1      40.132  28.571  29.638  1.00  0.00    -0.354 N 
ATOM     42  C   UNL A   1      39.143  30.989  33.082  1.00  0.00     0.074 A 
ATOM     43  C   UNL A   1      37.932  31.748  32.860  1.00  0.00     0.031 C 
ATOM     44  C   UNL A   1      39.892  27.801  27.552  1.00  0.00     0.029 A 
ATOM     45  C   UNL A   1      40.769  27.770  28.719  1.00  0.00     0.049 A 
ATOM     46  H   UNL A   1      40.487  28.742  30.540  1.00  0.00     0.167 HD
ATOM     47  C   UNL A   1      39.871  31.035  34.223  1.00  0.00     0.034 A 
ATOM     48  C   UNL A   1      41.923  27.081  28.810  1.00  0.00     0.034 A 
ATOM     49  C   UNL A   1      41.044  30.240  34.458  1.00  0.00     0.049 A 
ATOM     50  C   UNL A   1      42.695  27.121  30.102  1.00  0.00     0.074 A 
ATOM     51  C   UNL A   1      41.809  30.159  35.608  1.00  0.00     0.029 A 
ATOM     52  N   UNL A   1      41.619  29.384  33.531  1.00  0.00    -0.354 N 
ATOM     53  N   UNL A   1      42.402  27.746  31.217  1.00  0.00    -0.248 NA
ATOM     54  C   UNL A   1      43.937  26.336  30.163  1.00  0.00     0.031 C 
ATOM     55  C   UNL A   1      42.851  29.256  35.374  1.00  0.00     0.029 A 
ATOM     56  C   UNL A   1      42.731  28.770  34.081  1.00  0.00     0.049 A 
ATOM     57  H   UNL A   1      41.286  29.236  32.616  1.00  0.00     0.167 HD
ATOM     58  C   UNL A   1      43.407  27.412  32.118  1.00  0.00     0.074 A 
ATOM     59  C   UNL A   1      44.304  26.509  31.426  1.00  0.00     0.031 C 
ATOM     60  C   UNL A   1      43.582  27.831  33.396  1.00  0.00     0.034 A 
BRANCH  47  61
ATOM     61  C   UNL A   1      39.367  31.912  35.336  1.00  0.00     0.023 A 
ATOM     62  C   UNL A   1      38.445  31.381  36.261  1.00  0.00     0.012 A 
ATOM     63  C   UNL A   1      39.842  33.227  35.508  1.00  0.00     0.148 A 
ATOM     64  C   UNL A   1      37.981  32.151  37.325  1.00  0.00     0.002 A 
ATOM     65  C   UNL A   1      39.404  33.976  36.595  1.00  0.00     0.091 A 
ATOM     66  F   UNL A   1      40.698  33.722  34.605  1.00  0.00    -0.205 F 
ATOM     67  C   UNL A   1      38.469  33.443  37.498  1.00  0.00     0.022 A 
BRANCH  65  68
ATOM     68  S   UNL A   1      40.025  35.624  36.947  1.00  0.00     0.127 S 
ATOM     69  O   UNL A   1      39.335  35.939  38.198  1.00  0.00    -0.237 OA
ATOM     70  O   UNL A   1      41.463  35.390  37.088  1.00  0.00    -0.237 OA
ATOM     71  O   UNL A   1      39.653  36.445  35.803  1.00  0.00    -0.744 OA
ENDBRANCH  65  68
ENDBRANCH  47  61
BRANCH  48  72
ATOM     72  C   UNL A   1      42.358  26.214  27.678  1.00  0.00     0.023 A 
ATOM     73  C   UNL A   1      43.302  26.714  26.760  1.00  0.00     0.012 A 
ATOM     74  C   UNL A   1      41.900  24.889  27.537  1.00  0.00     0.148 A 
ATOM     75  C   UNL A   1      43.769  25.920  25.713  1.00  0.00     0.002 A 
ATOM     76  C   UNL A   1      42.409  24.086  26.523  1.00  0.00     0.091 A 
ATOM     77  F   UNL A   1      40.992  24.436  28.411  1.00  0.00    -0.205 F 
ATOM     78  C   UNL A   1      43.333  24.604  25.601  1.00  0.00     0.022 A 
BRANCH  76  79
ATOM     79  S   UNL A   1      42.010  22.339  26.386  1.00  0.00     0.127 S 
ATOM     80  O   UNL A   1      42.857  21.924  25.271  1.00  0.00    -0.237 OA
ATOM     81  O   UNL A   1      42.420  21.829  27.695  1.00  0.00    -0.237 OA
ATOM     82  O   UNL A   1      40.574  22.284  26.147  1.00  0.00    -0.744 OA
ENDBRANCH  76  79
ENDBRANCH  48  72
BRANCH  60  83
ATOM     83  C   UNL A   1      44.783  27.322  34.146  1.00  0.00     0.023 A 
ATOM     84  C   UNL A   1      45.978  28.068  34.121  1.00  0.00     0.012 A 
ATOM     85  C   UNL A   1      44.695  26.181  34.967  1.00  0.00     0.148 A 
ATOM     86  C   UNL A   1      47.072  27.678  34.890  1.00  0.00     0.002 A 
ATOM     87  C   UNL A   1      45.777  25.823  35.764  1.00  0.00     0.091 A 
ATOM     88  F   UNL A   1      43.556  25.473  34.961  1.00  0.00    -0.205 F 
ATOM     89  C   UNL A   1      46.967  26.565  35.722  1.00  0.00     0.022 A 
BRANCH  87  90
ATOM     90  S   UNL A   1      45.693  24.464  36.939  1.00  0.00     0.127 S 
ATOM     91  O   UNL A   1      44.569  24.870  37.782  1.00  0.00    -0.237 OA
ATOM     92  O   UNL A   1      45.421  23.316  36.072  1.00  0.00    -0.237 OA
ATOM     93  O   UNL A   1      46.991  24.427  37.597  1.00  0.00    -0.744 OA
ENDBRANCH  87  90
ENDBRANCH  60  83
ENDBRANCH  34  35
ENDBRANCH  26  29
ENDBRANCH  24  25
ENDBRANCH   1  24
TORSDOF 15
ENDMDL
MODEL 3
REMARK VINA RESULT:     -13.1      5.248      7.643
REMARK SMILES Cc1cc(C)c2c(c1)C=C(C(=O)NCCCCNC(=O)c1ccc(-c3c4nc(c(-c5cccc(S(=O)(=O)[O-])c5F)c5ccc([nH]5)c(-c5cccc(S(=O)(=O)[O-])c5F)c5nc(c(-c6cccc(S(=O)(=O)[O-])c6F)c6ccc3[nH]6)C=C5)C=C4)cc1)[C@@H](C(F)(F)F)O2
REMARK SMILES IDX 16 1 15 2 14 3 13 4 11 5 12 6 10 8 1 9 2 10 3 11 8 12 4 13
REMARK SMILES IDX 7 14 5 15 6 16 9 17 89 18 84 19 85 20 86 21 87 22 88 23
REMARK SMILES IDX 17 24 18 25 19 26 20 28 21 29 22 30 83 31 23 32 82 33 24 34
REMARK SMILES IDX 25 35 26 36 76 37 27 38 81 39 75 40 77 41 28 42 80 43 74 44
REMARK SMILES IDX 73 45 29 47 61 48 41 49 60 50 42 51 45 52 59 53 78 54 43 55
REMARK SMILES IDX 44 56 58 58 79 59 46 60 30 61 31 62 39 63 32 64 34 65 40 66
REMARK SMILES IDX 33 67 35 68 36 69 37 70 38 71 62 72 63 73 71 74 64 75 66 76
REMARK SMILES IDX 72 77 65 78 67 79 68 80 69 81 70 82 47 83 48 84 56 85 49 86
REMARK SMILES IDX 51 87 57 88 50 89 52 90 53 91 54 92 55 93
REMARK H PARENT 13 7 18 27 77 46 45 57
REMARK Flexibility Score: inf
ROOT
ATOM      1  C   UNL A   1      33.112  29.066  24.082  1.00  0.00     0.023 C 
ENDROOT
BRANCH   1   2
ATOM      2  C   UNL A   1      31.920  29.002  23.123  1.00  0.00     0.023 C 
BRANCH   2   3
ATOM      3  C   UNL A   1      31.358  27.599  22.919  1.00  0.00     0.116 C 
BRANCH   3   4
ATOM      4  N   UNL A   1      32.082  26.865  21.898  1.00  0.00    -0.352 N 
ATOM      5  C   UNL A   1      32.838  25.743  21.836  1.00  0.00     0.251 C 
ATOM      6  O   UNL A   1      33.276  25.463  20.715  1.00  0.00    -0.270 OA
ATOM      7  H   UNL A   1      32.002  27.296  21.017  1.00  0.00     0.163 HD
BRANCH   5   8
ATOM      8  C   UNL A   1      33.163  24.856  22.992  1.00  0.00     0.067 C 
ATOM      9  C   UNL A   1      37.490  20.842  24.832  1.00  0.00     0.044 C 
ATOM     10  C   UNL A   1      36.279  21.716  24.966  1.00  0.00    -0.050 A 
ATOM     11  C   UNL A   1      35.489  21.667  26.123  1.00  0.00     0.010 A 
ATOM     12  C   UNL A   1      35.899  22.559  23.913  1.00  0.00     0.015 A 
ATOM     13  C   UNL A   1      34.344  22.466  26.247  1.00  0.00    -0.008 A 
ATOM     14  C   UNL A   1      34.755  23.356  24.018  1.00  0.00     0.018 A 
ATOM     15  C   UNL A   1      33.508  22.411  27.493  1.00  0.00     0.048 C 
ATOM     16  C   UNL A   1      33.985  23.303  25.183  1.00  0.00     0.130 A 
ATOM     17  C   UNL A   1      34.373  24.266  22.946  1.00  0.00     0.025 C 
ATOM     18  O   UNL A   1      32.880  24.092  25.349  1.00  0.00    -0.475 OA
ATOM     19  C   UNL A   1      32.234  24.565  24.135  1.00  0.00     0.314 C 
BRANCH  19  20
ATOM     20  C   UNL A   1      31.105  23.589  23.752  1.00  0.00     0.429 C 
ATOM     21  F   UNL A   1      30.637  22.953  24.856  1.00  0.00    -0.167 F 
ATOM     22  F   UNL A   1      30.044  24.213  23.191  1.00  0.00    -0.167 F 
ATOM     23  F   UNL A   1      31.509  22.637  22.880  1.00  0.00    -0.167 F 
ENDBRANCH  19  20
ENDBRANCH   5   8
ENDBRANCH   3   4
ENDBRANCH   2   3
ENDBRANCH   1   2
BRANCH   1  24
ATOM     24  C   UNL A   1      32.758  29.120  25.569  1.00  0.00     0.116 C 
BRANCH  24  25
ATOM     25  N   UNL A   1      32.273  30.420  26.013  1.00  0.00    -0.352 N 
ATOM     26  C   UNL A   1      32.872  31.286  26.897  1.00  0.00     0.251 C 
ATOM     27  H   UNL A   1      31.412  30.713  25.637  1.00  0.00     0.163 HD
ATOM     28  O   UNL A   1      32.309  32.321  27.239  1.00  0.00    -0.269 OA
BRANCH  26  29
ATOM     29  C   UNL A   1      34.188  30.924  27.457  1.00  0.00     0.039 A 
ATOM     30  C   UNL A   1      35.134  31.931  27.658  1.00  0.00     0.014 A 
ATOM     31  C   UNL A   1      34.444  29.610  27.855  1.00  0.00     0.014 A 
ATOM     32  C   UNL A   1      36.318  31.631  28.332  1.00  0.00     0.010 A 
ATOM     33  C   UNL A   1      35.596  29.327  28.578  1.00  0.00     0.010 A 
ATOM     34  C   UNL A   1      36.540  30.336  28.829  1.00  0.00    -0.014 A 
BRANCH  34  35
ATOM     35  C   UNL A   1      37.746  30.017  29.630  1.00  0.00     0.031 A 
ATOM     36  C   UNL A   1      38.794  29.096  29.076  1.00  0.00     0.074 A 
ATOM     37  C   UNL A   1      37.852  30.494  30.886  1.00  0.00     0.049 A 
ATOM     38  N   UNL A   1      39.889  28.663  29.642  1.00  0.00    -0.248 NA
ATOM     39  C   UNL A   1      38.572  28.574  27.717  1.00  0.00     0.031 C 
ATOM     40  C   UNL A   1      36.861  31.338  31.557  1.00  0.00     0.029 A 
ATOM     41  N   UNL A   1      38.833  30.322  31.830  1.00  0.00    -0.354 N 
ATOM     42  C   UNL A   1      40.473  27.801  28.724  1.00  0.00     0.074 A 
ATOM     43  C   UNL A   1      39.592  27.740  27.577  1.00  0.00     0.031 C 
ATOM     44  C   UNL A   1      37.292  31.621  32.796  1.00  0.00     0.029 A 
ATOM     45  C   UNL A   1      38.576  30.963  33.019  1.00  0.00     0.049 A 
ATOM     46  H   UNL A   1      39.645  29.788  31.671  1.00  0.00     0.167 HD
ATOM     47  C   UNL A   1      41.657  27.150  28.809  1.00  0.00     0.034 A 
ATOM     48  C   UNL A   1      39.298  31.022  34.155  1.00  0.00     0.034 A 
ATOM     49  C   UNL A   1      42.553  27.256  29.926  1.00  0.00     0.049 A 
ATOM     50  C   UNL A   1      40.627  30.318  34.210  1.00  0.00     0.074 A 
ATOM     51  C   UNL A   1      43.808  26.695  30.077  1.00  0.00     0.029 A 
ATOM     52  N   UNL A   1      42.292  27.974  31.084  1.00  0.00    -0.354 N 
ATOM     53  N   UNL A   1      41.232  29.626  33.275  1.00  0.00    -0.248 NA
ATOM     54  C   UNL A   1      41.390  30.430  35.462  1.00  0.00     0.031 C 
ATOM     55  C   UNL A   1      44.305  27.071  31.329  1.00  0.00     0.029 A 
ATOM     56  C   UNL A   1      43.362  27.871  31.955  1.00  0.00     0.049 A 
ATOM     57  H   UNL A   1      41.466  28.482  31.260  1.00  0.00     0.167 HD
ATOM     58  C   UNL A   1      42.454  29.240  33.813  1.00  0.00     0.074 A 
ATOM     59  C   UNL A   1      42.514  29.797  35.150  1.00  0.00     0.031 C 
ATOM     60  C   UNL A   1      43.428  28.477  33.260  1.00  0.00     0.034 A 
BRANCH  47  61
ATOM     61  C   UNL A   1      42.090  26.335  27.620  1.00  0.00     0.023 A 
ATOM     62  C   UNL A   1      42.894  26.940  26.633  1.00  0.00     0.012 A 
ATOM     63  C   UNL A   1      41.763  24.970  27.507  1.00  0.00     0.148 A 
ATOM     64  C   UNL A   1      43.343  26.209  25.535  1.00  0.00     0.002 A 
ATOM     65  C   UNL A   1      42.248  24.237  26.430  1.00  0.00     0.091 A 
ATOM     66  F   UNL A   1      40.978  24.419  28.443  1.00  0.00    -0.205 F 
ATOM     67  C   UNL A   1      43.030  24.856  25.440  1.00  0.00     0.022 A 
BRANCH  65  68
ATOM     68  S   UNL A   1      41.960  22.473  26.252  1.00  0.00     0.127 S 
ATOM     69  O   UNL A   1      42.661  22.184  25.000  1.00  0.00    -0.237 OA
ATOM     70  O   UNL A   1      42.606  21.932  27.449  1.00  0.00    -0.237 OA
ATOM     71  O   UNL A   1      40.514  22.305  26.214  1.00  0.00    -0.744 OA
ENDBRANCH  65  68
ENDBRANCH  47  61
BRANCH  48  72
ATOM     72  C   UNL A   1      38.822  31.864  35.289  1.00  0.00     0.023 A 
ATOM     73  C   UNL A   1      38.850  33.266  35.156  1.00  0.00     0.012 A 
ATOM     74  C   UNL A   1      38.287  31.297  36.463  1.00  0.00     0.148 A 
ATOM     75  C   UNL A   1      38.373  34.089  36.177  1.00  0.00     0.002 A 
ATOM     76  C   UNL A   1      37.765  32.122  37.453  1.00  0.00     0.091 A 
ATOM     77  F   UNL A   1      38.282  29.962  36.577  1.00  0.00    -0.205 F 
ATOM     78  C   UNL A   1      37.819  33.518  37.318  1.00  0.00     0.022 A 
BRANCH  76  79
ATOM     79  S   UNL A   1      36.908  31.472  38.894  1.00  0.00     0.127 S 
ATOM     80  O   UNL A   1      35.728  32.330  38.953  1.00  0.00    -0.237 OA
ATOM     81  O   UNL A   1      36.645  30.089  38.494  1.00  0.00    -0.237 OA
ATOM     82  O   UNL A   1      37.847  31.607  40.000  1.00  0.00    -0.744 OA
ENDBRANCH  76  79
ENDBRANCH  48  72
BRANCH  60  83
ATOM     83  C   UNL A   1      44.655  28.193  34.085  1.00  0.00     0.023 A 
ATOM     84  C   UNL A   1      45.727  29.106  34.062  1.00  0.00     0.012 A 
ATOM     85  C   UNL A   1      44.697  27.097  34.968  1.00  0.00     0.148 A 
ATOM     86  C   UNL A   1      46.830  28.925  34.894  1.00  0.00     0.002 A 
ATOM     87  C   UNL A   1      45.781  26.946  35.826  1.00  0.00     0.091 A 
ATOM     88  F   UNL A   1      43.675  26.228  34.960  1.00  0.00    -0.205 F 
ATOM     89  C   UNL A   1      46.851  27.855  35.785  1.00  0.00     0.022 A 
BRANCH  87  90
ATOM     90  S   UNL A   1      45.843  25.654  37.074  1.00  0.00     0.127 S 
ATOM     91  O   UNL A   1      46.063  24.462  36.258  1.00  0.00    -0.237 OA
ATOM     92  O   UNL A   1      46.992  26.057  37.886  1.00  0.00    -0.237 OA
ATOM     93  O   UNL A   1      44.565  25.713  37.771  1.00  0.00    -0.744 OA
ENDBRANCH  87  90
ENDBRANCH  60  83
ENDBRANCH  34  35
ENDBRANCH  26  29
ENDBRANCH  24  25
ENDBRANCH   1  24
TORSDOF 15
ENDMDL
