MODEL 1
REMARK VINA RESULT:     -13.5      0.000      0.000
REMARK SMILES Cc1ccc2[nH]cc([C@@H](C(=O)NCCCCNC(=O)c3ccc(-c4c5nc(c(-c6cccc(S(=O)(=O)[O-])c6F)c6ccc([nH]6)c(-c6cccc(S(=O)(=O)[O-])c6F)c6nc(c(-c7cccc(S(=O)(=O)[O-])c7F)c7ccc4[nH]7)C=C6)C=C5)cc3)[NH+]3CCN(c4ccc(F)cc4)CC3)c2c1
REMARK SMILES IDX 15 1 14 2 13 3 12 4 10 5 11 6 9 8 8 9 1 10 2 11 3 12 97 13
REMARK SMILES IDX 4 14 96 15 5 16 6 17 7 18 83 20 84 21 95 22 85 24 94 25
REMARK SMILES IDX 86 26 87 27 88 28 93 29 89 30 92 31 90 32 91 33 16 34 17 35
REMARK SMILES IDX 18 36 19 38 20 39 21 40 82 41 22 42 81 43 23 44 24 45 25 46
REMARK SMILES IDX 75 47 26 48 80 49 74 50 76 51 27 52 79 53 73 54 72 55 28 57
REMARK SMILES IDX 60 58 40 59 59 60 41 61 44 62 58 63 77 64 42 65 43 66 57 68
REMARK SMILES IDX 78 69 45 70 29 71 30 72 38 73 31 74 33 75 39 76 32 77 34 78
REMARK SMILES IDX 35 79 36 80 37 81 61 82 62 83 70 84 63 85 65 86 71 87 64 88
REMARK SMILES IDX 66 89 67 90 68 91 69 92 46 93 47 94 55 95 48 96 50 97 56 98
REMARK SMILES IDX 49 99 51 100 52 101 53 102 54 103
REMARK H PARENT 12 7 6 19 83 23 17 37 76 56 44 67
REMARK Flexibility Score: inf
ROOT
ATOM      1  C   UNL A   1      31.868  31.564  26.604  1.00  0.00     0.023 C 
ENDROOT
BRANCH   1   2
ATOM      2  C   UNL A   1      31.801  30.074  26.921  1.00  0.00     0.023 C 
BRANCH   2   3
ATOM      3  C   UNL A   1      32.948  29.241  26.352  1.00  0.00     0.116 C 
BRANCH   3   4
ATOM      4  N   UNL A   1      32.747  27.823  26.561  1.00  0.00    -0.351 N 
ATOM      5  C   UNL A   1      32.215  26.885  25.711  1.00  0.00     0.283 C 
ATOM      6  O   UNL A   1      32.142  25.736  26.158  1.00  0.00    -0.268 OA
ATOM      7  H   UNL A   1      33.034  27.482  27.439  1.00  0.00     0.163 HD
BRANCH   5   8
ATOM      8  C   UNL A   1      31.816  27.289  24.249  1.00  0.00     0.307 C 
BRANCH   8   9
ATOM      9  C   UNL A   1      30.328  27.233  24.001  1.00  0.00     0.044 A 
ATOM     10  C   UNL A   1      28.910  32.052  22.943  1.00  0.00     0.044 C 
ATOM     11  C   UNL A   1      28.662  30.576  23.065  1.00  0.00    -0.050 A 
ATOM     12  C   UNL A   1      27.371  30.057  22.946  1.00  0.00     0.005 A 
ATOM     13  C   UNL A   1      29.732  29.716  23.360  1.00  0.00     0.014 A 
ATOM     14  C   UNL A   1      27.110  28.698  23.151  1.00  0.00     0.027 A 
ATOM     15  C   UNL A   1      29.494  28.343  23.602  1.00  0.00     0.009 A 
ATOM     16  C   UNL A   1      28.185  27.876  23.506  1.00  0.00     0.046 A 
ATOM     17  N   UNL A   1      28.203  26.545  23.847  1.00  0.00    -0.361 N 
ATOM     18  C   UNL A   1      29.467  26.169  24.210  1.00  0.00     0.094 A 
ATOM     19  H   UNL A   1      27.419  25.949  23.833  1.00  0.00     0.166 HD
ENDBRANCH   8   9
BRANCH   8  20
ATOM     20  N   UNL A   1      32.615  26.583  23.217  1.00  0.00    -0.318 N 
ATOM     21  C   UNL A   1      33.978  26.147  23.562  1.00  0.00     0.284 C 
ATOM     22  C   UNL A   1      31.904  25.516  22.497  1.00  0.00     0.284 C 
ATOM     23  H   UNL A   1      32.756  27.369  22.582  1.00  0.00     0.349 HD
ATOM     24  C   UNL A   1      34.156  24.731  24.148  1.00  0.00     0.178 C 
ATOM     25  C   UNL A   1      31.965  24.102  23.119  1.00  0.00     0.178 C 
ATOM     26  N   UNL A   1      33.345  23.720  23.456  1.00  0.00    -0.360 N 
BRANCH  26  27
ATOM     27  C   UNL A   1      33.501  22.400  23.881  1.00  0.00     0.037 A 
ATOM     28  C   UNL A   1      34.612  21.968  24.624  1.00  0.00     0.029 A 
ATOM     29  C   UNL A   1      32.512  21.463  23.556  1.00  0.00     0.029 A 
ATOM     30  C   UNL A   1      34.751  20.629  24.996  1.00  0.00     0.041 A 
ATOM     31  C   UNL A   1      32.647  20.123  23.922  1.00  0.00     0.041 A 
ATOM     32  C   UNL A   1      33.769  19.718  24.633  1.00  0.00     0.123 A 
ATOM     33  F   UNL A   1      33.907  18.429  24.973  1.00  0.00    -0.207 F 
ENDBRANCH  26  27
ENDBRANCH   8  20
ENDBRANCH   5   8
ENDBRANCH   3   4
ENDBRANCH   2   3
ENDBRANCH   1   2
BRANCH   1  34
ATOM     34  C   UNL A   1      32.967  32.314  27.336  1.00  0.00     0.116 C 
BRANCH  34  35
ATOM     35  N   UNL A   1      32.621  33.700  27.614  1.00  0.00    -0.352 N 
ATOM     36  C   UNL A   1      33.154  34.537  28.564  1.00  0.00     0.251 C 
ATOM     37  H   UNL A   1      31.914  34.087  27.048  1.00  0.00     0.163 HD
ATOM     38  O   UNL A   1      32.674  35.644  28.758  1.00  0.00    -0.269 OA
BRANCH  36  39
ATOM     39  C   UNL A   1      34.296  34.057  29.370  1.00  0.00     0.039 A 
ATOM     40  C   UNL A   1      34.043  33.268  30.493  1.00  0.00     0.014 A 
ATOM     41  C   UNL A   1      35.608  34.341  28.981  1.00  0.00     0.014 A 
ATOM     42  C   UNL A   1      35.114  32.722  31.201  1.00  0.00     0.010 A 
ATOM     43  C   UNL A   1      36.667  33.724  29.632  1.00  0.00     0.010 A 
ATOM     44  C   UNL A   1      36.433  32.922  30.759  1.00  0.00    -0.014 A 
BRANCH  44  45
ATOM     45  C   UNL A   1      37.583  32.316  31.472  1.00  0.00     0.031 A 
ATOM     46  C   UNL A   1      38.352  31.190  30.835  1.00  0.00     0.074 A 
ATOM     47  C   UNL A   1      37.882  32.721  32.721  1.00  0.00     0.049 A 
ATOM     48  N   UNL A   1      39.363  30.511  31.309  1.00  0.00    -0.248 NA
ATOM     49  C   UNL A   1      37.907  30.745  29.502  1.00  0.00     0.031 C 
ATOM     50  C   UNL A   1      37.149  33.737  33.481  1.00  0.00     0.029 A 
ATOM     51  N   UNL A   1      38.870  32.312  33.581  1.00  0.00    -0.354 N 
ATOM     52  C   UNL A   1      39.648  29.541  30.357  1.00  0.00     0.074 A 
ATOM     53  C   UNL A   1      38.678  29.689  29.295  1.00  0.00     0.031 C 
ATOM     54  C   UNL A   1      37.718  33.877  34.690  1.00  0.00     0.029 A 
ATOM     55  C   UNL A   1      38.841  32.951  34.799  1.00  0.00     0.049 A 
ATOM     56  H   UNL A   1      39.535  31.626  33.349  1.00  0.00     0.167 HD
ATOM     57  C   UNL A   1      40.651  28.631  30.348  1.00  0.00     0.034 A 
ATOM     58  C   UNL A   1      39.632  32.807  35.879  1.00  0.00     0.034 A 
ATOM     59  C   UNL A   1      41.647  28.526  31.379  1.00  0.00     0.049 A 
ATOM     60  C   UNL A   1      40.784  31.839  35.812  1.00  0.00     0.074 A 
ATOM     61  C   UNL A   1      42.759  27.705  31.420  1.00  0.00     0.029 A 
ATOM     62  N   UNL A   1      41.649  29.265  32.550  1.00  0.00    -0.354 N 
ATOM     63  N   UNL A   1      41.141  31.049  34.830  1.00  0.00    -0.248 NA
ATOM     64  C   UNL A   1      41.667  31.775  36.986  1.00  0.00     0.031 C 
ATOM     65  C   UNL A   1      43.427  27.938  32.627  1.00  0.00     0.029 A 
ATOM     66  C   UNL A   1      42.742  28.920  33.326  1.00  0.00     0.049 A 
ATOM     67  H   UNL A   1      40.973  29.936  32.796  1.00  0.00     0.167 HD
ATOM     68  C   UNL A   1      42.310  30.423  35.248  1.00  0.00     0.074 A 
ATOM     69  C   UNL A   1      42.611  30.945  36.567  1.00  0.00     0.031 C 
ATOM     70  C   UNL A   1      43.059  29.491  34.609  1.00  0.00     0.034 A 
BRANCH  57  71
ATOM     71  C   UNL A   1      40.756  27.721  29.152  1.00  0.00     0.023 A 
ATOM     72  C   UNL A   1      39.928  26.582  29.070  1.00  0.00     0.012 A 
ATOM     73  C   UNL A   1      41.632  28.014  28.089  1.00  0.00     0.148 A 
ATOM     74  C   UNL A   1      39.996  25.730  27.970  1.00  0.00     0.002 A 
ATOM     75  C   UNL A   1      41.662  27.185  26.974  1.00  0.00     0.091 A 
ATOM     76  F   UNL A   1      42.429  29.087  28.194  1.00  0.00    -0.205 F 
ATOM     77  C   UNL A   1      40.854  26.036  26.918  1.00  0.00     0.022 A 
BRANCH  75  78
ATOM     78  S   UNL A   1      42.673  27.536  25.532  1.00  0.00     0.127 S 
ATOM     79  O   UNL A   1      42.054  28.761  25.029  1.00  0.00    -0.237 OA
ATOM     80  O   UNL A   1      43.999  27.722  26.124  1.00  0.00    -0.237 OA
ATOM     81  O   UNL A   1      42.554  26.372  24.666  1.00  0.00    -0.744 OA
ENDBRANCH  75  78
ENDBRANCH  57  71
BRANCH  58  82
ATOM     82  C   UNL A   1      39.417  33.662  37.080  1.00  0.00     0.023 A 
ATOM     83  C   UNL A   1      39.863  34.999  37.064  1.00  0.00     0.012 A 
ATOM     84  C   UNL A   1      38.749  33.174  38.220  1.00  0.00     0.148 A 
ATOM     85  C   UNL A   1      39.680  35.823  38.175  1.00  0.00     0.002 A 
ATOM     86  C   UNL A   1      38.522  34.018  39.302  1.00  0.00     0.091 A 
ATOM     87  F   UNL A   1      38.342  31.897  38.220  1.00  0.00    -0.205 F 
ATOM     88  C   UNL A   1      39.003  35.337  39.289  1.00  0.00     0.022 A 
BRANCH  86  89
ATOM     89  S   UNL A   1      37.543  33.517  40.723  1.00  0.00     0.127 S 
ATOM     90  O   UNL A   1      38.441  32.578  41.389  1.00  0.00    -0.237 OA
ATOM     91  O   UNL A   1      37.352  34.789  41.422  1.00  0.00    -0.237 OA
ATOM     92  O   UNL A   1      36.321  32.947  40.174  1.00  0.00    -0.744 OA
ENDBRANCH  86  89
ENDBRANCH  58  82
BRANCH  70  93
ATOM     93  C   UNL A   1      44.301  28.998  35.303  1.00  0.00     0.023 A 
ATOM     94  C   UNL A   1      45.543  29.606  35.034  1.00  0.00     0.012 A 
ATOM     95  C   UNL A   1      44.224  27.981  36.274  1.00  0.00     0.148 A 
ATOM     96  C   UNL A   1      46.695  29.184  35.695  1.00  0.00     0.002 A 
ATOM     97  C   UNL A   1      45.368  27.600  36.965  1.00  0.00     0.091 A 
ATOM     98  F   UNL A   1      43.037  27.400  36.501  1.00  0.00    -0.205 F 
ATOM     99  C   UNL A   1      46.606  28.191  36.669  1.00  0.00     0.022 A 
BRANCH  97 100
ATOM    100  S   UNL A   1      45.323  26.400  38.300  1.00  0.00     0.127 S 
ATOM    101  O   UNL A   1      44.911  25.186  37.598  1.00  0.00    -0.237 OA
ATOM    102  O   UNL A   1      46.713  26.396  38.763  1.00  0.00    -0.237 OA
ATOM    103  O   UNL A   1      44.370  26.919  39.272  1.00  0.00    -0.744 OA
ENDBRANCH  97 100
ENDBRANCH  70  93
ENDBRANCH  44  45
ENDBRANCH  36  39
ENDBRANCH  34  35
ENDBRANCH   1  34
TORSDOF 17
ENDMDL
MODEL 2
REMARK VINA RESULT:     -13.5      2.081      7.740
REMARK SMILES Cc1ccc2[nH]cc([C@@H](C(=O)NCCCCNC(=O)c3ccc(-c4c5nc(c(-c6cccc(S(=O)(=O)[O-])c6F)c6ccc([nH]6)c(-c6cccc(S(=O)(=O)[O-])c6F)c6nc(c(-c7cccc(S(=O)(=O)[O-])c7F)c7ccc4[nH]7)C=C6)C=C5)cc3)[NH+]3CCN(c4ccc(F)cc4)CC3)c2c1
REMARK SMILES IDX 15 1 14 2 13 3 12 4 10 5 11 6 9 8 8 9 1 10 2 11 3 12 97 13
REMARK SMILES IDX 4 14 96 15 5 16 6 17 7 18 83 20 84 21 95 22 85 24 94 25
REMARK SMILES IDX 86 26 87 27 88 28 93 29 89 30 92 31 90 32 91 33 16 34 17 35
REMARK SMILES IDX 18 36 19 38 20 39 21 40 82 41 22 42 81 43 23 44 24 45 25 46
REMARK SMILES IDX 75 47 26 48 80 49 74 50 76 51 27 52 79 53 73 54 72 55 28 57
REMARK SMILES IDX 60 58 40 59 59 60 41 61 44 62 58 63 77 64 42 65 43 66 57 68
REMARK SMILES IDX 78 69 45 70 29 71 30 72 38 73 31 74 33 75 39 76 32 77 34 78
REMARK SMILES IDX 35 79 36 80 37 81 61 82 62 83 70 84 63 85 65 86 71 87 64 88
REMARK SMILES IDX 66 89 67 90 68 91 69 92 46 93 47 94 55 95 48 96 50 97 56 98
REMARK SMILES IDX 49 99 51 100 52 101 53 102 54 103
REMARK H PARENT 12 7 6 19 83 23 17 37 76 56 44 67
REMARK Flexibility Score: inf
ROOT
ATOM      1  C   UNL A   1      33.021  29.724  25.926  1.00  0.00     0.023 C 
ENDROOT
BRANCH   1   2
ATOM      2  C   UNL A   1      34.276  28.861  26.004  1.00  0.00     0.023 C 
BRANCH   2   3
ATOM      3  C   UNL A   1      34.020  27.360  26.128  1.00  0.00     0.116 C 
BRANCH   3   4
ATOM      4  N   UNL A   1      32.671  27.073  26.567  1.00  0.00    -0.351 N 
ATOM      5  C   UNL A   1      31.585  26.666  25.832  1.00  0.00     0.283 C 
ATOM      6  O   UNL A   1      30.536  26.510  26.465  1.00  0.00    -0.268 OA
ATOM      7  H   UNL A   1      32.509  27.185  27.531  1.00  0.00     0.163 HD
BRANCH   5   8
ATOM      8  C   UNL A   1      31.746  26.356  24.302  1.00  0.00     0.307 C 
BRANCH   8   9
ATOM      9  C   UNL A   1      31.521  27.563  23.424  1.00  0.00     0.044 A 
ATOM     10  C   UNL A   1      26.446  28.334  23.385  1.00  0.00     0.044 C 
ATOM     11  C   UNL A   1      27.863  28.708  23.058  1.00  0.00    -0.050 A 
ATOM     12  C   UNL A   1      28.140  29.780  22.206  1.00  0.00     0.005 A 
ATOM     13  C   UNL A   1      28.920  27.935  23.567  1.00  0.00     0.014 A 
ATOM     14  C   UNL A   1      29.449  30.082  21.817  1.00  0.00     0.027 A 
ATOM     15  C   UNL A   1      30.250  28.198  23.166  1.00  0.00     0.009 A 
ATOM     16  C   UNL A   1      30.474  29.257  22.288  1.00  0.00     0.046 A 
ATOM     17  N   UNL A   1      31.818  29.266  22.000  1.00  0.00    -0.361 N 
ATOM     18  C   UNL A   1      32.440  28.217  22.620  1.00  0.00     0.094 A 
ATOM     19  H   UNL A   1      32.267  29.931  21.430  1.00  0.00     0.166 HD
ENDBRANCH   8   9
BRANCH   8  20
ATOM     20  N   UNL A   1      30.978  25.161  23.872  1.00  0.00    -0.318 N 
ATOM     21  C   UNL A   1      31.431  24.429  22.678  1.00  0.00     0.284 C 
ATOM     22  C   UNL A   1      30.633  24.219  24.948  1.00  0.00     0.284 C 
ATOM     23  H   UNL A   1      30.129  25.638  23.569  1.00  0.00     0.349 HD
ATOM     24  C   UNL A   1      32.428  23.268  22.877  1.00  0.00     0.178 C 
ATOM     25  C   UNL A   1      31.664  23.108  25.254  1.00  0.00     0.178 C 
ATOM     26  N   UNL A   1      32.092  22.418  24.028  1.00  0.00    -0.360 N 
BRANCH  26  27
ATOM     27  C   UNL A   1      32.906  21.303  24.236  1.00  0.00     0.037 A 
ATOM     28  C   UNL A   1      34.215  21.402  24.733  1.00  0.00     0.029 A 
ATOM     29  C   UNL A   1      32.400  20.031  23.939  1.00  0.00     0.029 A 
ATOM     30  C   UNL A   1      35.012  20.266  24.890  1.00  0.00     0.041 A 
ATOM     31  C   UNL A   1      33.193  18.893  24.090  1.00  0.00     0.041 A 
ATOM     32  C   UNL A   1      34.493  19.021  24.558  1.00  0.00     0.123 A 
ATOM     33  F   UNL A   1      35.260  17.931  24.691  1.00  0.00    -0.207 F 
ENDBRANCH  26  27
ENDBRANCH   8  20
ENDBRANCH   5   8
ENDBRANCH   3   4
ENDBRANCH   2   3
ENDBRANCH   1   2
BRANCH   1  34
ATOM     34  C   UNL A   1      32.627  30.381  27.236  1.00  0.00     0.116 C 
BRANCH  34  35
ATOM     35  N   UNL A   1      32.709  31.833  27.192  1.00  0.00    -0.352 N 
ATOM     36  C   UNL A   1      33.722  32.644  27.648  1.00  0.00     0.251 C 
ATOM     37  H   UNL A   1      31.942  32.294  26.782  1.00  0.00     0.163 HD
ATOM     38  O   UNL A   1      33.593  33.858  27.650  1.00  0.00    -0.269 OA
BRANCH  36  39
ATOM     39  C   UNL A   1      34.952  32.013  28.171  1.00  0.00     0.039 A 
ATOM     40  C   UNL A   1      36.145  32.735  28.136  1.00  0.00     0.014 A 
ATOM     41  C   UNL A   1      34.908  30.737  28.739  1.00  0.00     0.014 A 
ATOM     42  C   UNL A   1      37.290  32.192  28.721  1.00  0.00     0.010 A 
ATOM     43  C   UNL A   1      36.024  30.239  29.397  1.00  0.00     0.010 A 
ATOM     44  C   UNL A   1      37.231  30.953  29.380  1.00  0.00    -0.014 A 
BRANCH  44  45
ATOM     45  C   UNL A   1      38.426  30.377  30.044  1.00  0.00     0.031 A 
ATOM     46  C   UNL A   1      38.805  30.829  31.429  1.00  0.00     0.074 A 
ATOM     47  C   UNL A   1      39.210  29.513  29.373  1.00  0.00     0.049 A 
ATOM     48  N   UNL A   1      39.827  30.470  32.161  1.00  0.00    -0.248 NA
ATOM     49  C   UNL A   1      37.943  31.843  32.063  1.00  0.00     0.031 C 
ATOM     50  C   UNL A   1      38.999  29.074  27.991  1.00  0.00     0.029 A 
ATOM     51  N   UNL A   1      40.359  28.867  29.754  1.00  0.00    -0.354 N 
ATOM     52  C   UNL A   1      39.753  31.236  33.317  1.00  0.00     0.074 A 
ATOM     53  C   UNL A   1      38.610  32.112  33.174  1.00  0.00     0.031 C 
ATOM     54  C   UNL A   1      39.980  28.223  27.645  1.00  0.00     0.029 A 
ATOM     55  C   UNL A   1      40.898  28.072  28.769  1.00  0.00     0.049 A 
ATOM     56  H   UNL A   1      40.759  28.962  30.648  1.00  0.00     0.167 HD
ATOM     57  C   UNL A   1      40.540  31.191  34.417  1.00  0.00     0.034 A 
ATOM     58  C   UNL A   1      42.006  27.307  28.775  1.00  0.00     0.034 A 
ATOM     59  C   UNL A   1      41.639  30.278  34.577  1.00  0.00     0.049 A 
ATOM     60  C   UNL A   1      42.823  27.219  30.036  1.00  0.00     0.074 A 
ATOM     61  C   UNL A   1      42.440  30.083  35.688  1.00  0.00     0.029 A 
ATOM     62  N   UNL A   1      42.091  29.409  33.598  1.00  0.00    -0.354 N 
ATOM     63  N   UNL A   1      42.636  27.824  31.184  1.00  0.00    -0.248 NA
ATOM     64  C   UNL A   1      43.978  26.309  30.019  1.00  0.00     0.031 C 
ATOM     65  C   UNL A   1      43.389  29.105  35.373  1.00  0.00     0.029 A 
ATOM     66  C   UNL A   1      43.163  28.675  34.074  1.00  0.00     0.049 A 
ATOM     67  H   UNL A   1      41.708  29.326  32.695  1.00  0.00     0.167 HD
ATOM     68  C   UNL A   1      43.622  27.342  32.036  1.00  0.00     0.074 A 
ATOM     69  C   UNL A   1      44.391  26.376  31.276  1.00  0.00     0.031 C 
ATOM     70  C   UNL A   1      43.880  27.676  33.325  1.00  0.00     0.034 A 
BRANCH  57  71
ATOM     71  C   UNL A   1      40.198  32.111  35.559  1.00  0.00     0.023 A 
ATOM     72  C   UNL A   1      40.918  33.313  35.722  1.00  0.00     0.012 A 
ATOM     73  C   UNL A   1      39.139  31.817  36.439  1.00  0.00     0.148 A 
ATOM     74  C   UNL A   1      40.616  34.189  36.763  1.00  0.00     0.002 A 
ATOM     75  C   UNL A   1      38.813  32.718  37.447  1.00  0.00     0.091 A 
ATOM     76  F   UNL A   1      38.480  30.660  36.284  1.00  0.00    -0.205 F 
ATOM     77  C   UNL A   1      39.558  33.897  37.618  1.00  0.00     0.022 A 
BRANCH  75  78
ATOM     78  S   UNL A   1      37.416  32.473  38.549  1.00  0.00     0.127 S 
ATOM     79  O   UNL A   1      37.758  33.360  39.660  1.00  0.00    -0.237 OA
ATOM     80  O   UNL A   1      36.293  32.929  37.729  1.00  0.00    -0.237 OA
ATOM     81  O   UNL A   1      37.399  31.052  38.865  1.00  0.00    -0.744 OA
ENDBRANCH  75  78
ENDBRANCH  57  71
BRANCH  58  82
ATOM     82  C   UNL A   1      42.356  26.495  27.575  1.00  0.00     0.023 A 
ATOM     83  C   UNL A   1      43.060  27.099  26.515  1.00  0.00     0.012 A 
ATOM     84  C   UNL A   1      42.027  25.128  27.490  1.00  0.00     0.148 A 
ATOM     85  C   UNL A   1      43.398  26.367  25.376  1.00  0.00     0.002 A 
ATOM     86  C   UNL A   1      42.416  24.392  26.376  1.00  0.00     0.091 A 
ATOM     87  F   UNL A   1      41.349  24.574  28.504  1.00  0.00    -0.205 F 
ATOM     88  C   UNL A   1      43.085  25.013  25.310  1.00  0.00     0.022 A 
BRANCH  86  89
ATOM     89  S   UNL A   1      42.172  22.615  26.266  1.00  0.00     0.127 S 
ATOM     90  O   UNL A   1      40.725  22.501  26.420  1.00  0.00    -0.237 OA
ATOM     91  O   UNL A   1      42.674  22.324  24.922  1.00  0.00    -0.237 OA
ATOM     92  O   UNL A   1      42.973  22.043  27.340  1.00  0.00    -0.744 OA
ENDBRANCH  86  89
ENDBRANCH  58  82
BRANCH  70  93
ATOM     93  C   UNL A   1      45.016  26.969  34.015  1.00  0.00     0.023 A 
ATOM     94  C   UNL A   1      46.319  27.499  33.944  1.00  0.00     0.012 A 
ATOM     95  C   UNL A   1      44.777  25.820  34.794  1.00  0.00     0.148 A 
ATOM     96  C   UNL A   1      47.374  26.875  34.607  1.00  0.00     0.002 A 
ATOM     97  C   UNL A   1      45.824  25.232  35.494  1.00  0.00     0.091 A 
ATOM     98  F   UNL A   1      43.534  25.320  34.834  1.00  0.00    -0.205 F 
ATOM     99  C   UNL A   1      47.125  25.750  35.392  1.00  0.00     0.022 A 
BRANCH  97 100
ATOM    100  S   UNL A   1      45.573  23.842  36.603  1.00  0.00     0.127 S 
ATOM    101  O   UNL A   1      46.934  23.579  37.066  1.00  0.00    -0.237 OA
ATOM    102  O   UNL A   1      44.682  24.409  37.617  1.00  0.00    -0.237 OA
ATOM    103  O   UNL A   1      44.969  22.791  35.794  1.00  0.00    -0.744 OA
ENDBRANCH  97 100
ENDBRANCH  70  93
ENDBRANCH  44  45
ENDBRANCH  36  39
ENDBRANCH  34  35
ENDBRANCH   1  34
TORSDOF 17
ENDMDL
MODEL 3
REMARK VINA RESULT:     -13.4      6.244     11.736
REMARK SMILES Cc1ccc2[nH]cc([C@@H](C(=O)NCCCCNC(=O)c3ccc(-c4c5nc(c(-c6cccc(S(=O)(=O)[O-])c6F)c6ccc([nH]6)c(-c6cccc(S(=O)(=O)[O-])c6F)c6nc(c(-c7cccc(S(=O)(=O)[O-])c7F)c7ccc4[nH]7)C=C6)C=C5)cc3)[NH+]3CCN(c4ccc(F)cc4)CC3)c2c1
REMARK SMILES IDX 15 1 14 2 13 3 12 4 10 5 11 6 9 8 8 9 1 10 2 11 3 12 97 13
REMARK SMILES IDX 4 14 96 15 5 16 6 17 7 18 83 20 84 21 95 22 85 24 94 25
REMARK SMILES IDX 86 26 87 27 88 28 93 29 89 30 92 31 90 32 91 33 16 34 17 35
REMARK SMILES IDX 18 36 19 38 20 39 21 40 82 41 22 42 81 43 23 44 24 45 25 46
REMARK SMILES IDX 75 47 26 48 80 49 74 50 76 51 27 52 79 53 73 54 72 55 28 57
REMARK SMILES IDX 60 58 40 59 59 60 41 61 44 62 58 63 77 64 42 65 43 66 57 68
REMARK SMILES IDX 78 69 45 70 29 71 30 72 38 73 31 74 33 75 39 76 32 77 34 78
REMARK SMILES IDX 35 79 36 80 37 81 61 82 62 83 70 84 63 85 65 86 71 87 64 88
REMARK SMILES IDX 66 89 67 90 68 91 69 92 46 93 47 94 55 95 48 96 50 97 56 98
REMARK SMILES IDX 49 99 51 100 52 101 53 102 54 103
REMARK H PARENT 12 7 6 19 83 23 17 37 76 56 44 67
REMARK Flexibility Score: inf
ROOT
ATOM      1  C   UNL A   1      37.682  19.998  25.000  1.00  0.00     0.023 C 
ENDROOT
BRANCH   1   2
ATOM      2  C   UNL A   1      36.954  21.131  24.284  1.00  0.00     0.023 C 
BRANCH   2   3
ATOM      3  C   UNL A   1      36.557  22.307  25.175  1.00  0.00     0.116 C 
BRANCH   3   4
ATOM      4  N   UNL A   1      35.802  23.307  24.451  1.00  0.00    -0.351 N 
ATOM      5  C   UNL A   1      34.449  23.381  24.226  1.00  0.00     0.283 C 
ATOM      6  O   UNL A   1      34.069  24.344  23.551  1.00  0.00    -0.268 OA
ATOM      7  H   UNL A   1      36.334  24.039  24.064  1.00  0.00     0.163 HD
BRANCH   5   8
ATOM      8  C   UNL A   1      33.487  22.327  24.877  1.00  0.00     0.307 C 
BRANCH   8   9
ATOM      9  C   UNL A   1      32.887  21.370  23.875  1.00  0.00     0.044 A 
ATOM     10  C   UNL A   1      34.874  16.768  24.983  1.00  0.00     0.044 C 
ATOM     11  C   UNL A   1      33.943  17.685  24.243  1.00  0.00    -0.050 A 
ATOM     12  C   UNL A   1      33.189  17.218  23.165  1.00  0.00     0.005 A 
ATOM     13  C   UNL A   1      33.877  19.042  24.602  1.00  0.00     0.014 A 
ATOM     14  C   UNL A   1      32.390  18.081  22.406  1.00  0.00     0.027 A 
ATOM     15  C   UNL A   1      33.102  19.942  23.835  1.00  0.00     0.009 A 
ATOM     16  C   UNL A   1      32.392  19.437  22.747  1.00  0.00     0.046 A 
ATOM     17  N   UNL A   1      31.782  20.503  22.131  1.00  0.00    -0.361 N 
ATOM     18  C   UNL A   1      32.127  21.669  22.757  1.00  0.00     0.094 A 
ATOM     19  H   UNL A   1      31.185  20.437  21.351  1.00  0.00     0.166 HD
ENDBRANCH   8   9
BRANCH   8  20
ATOM     20  N   UNL A   1      32.484  22.942  25.781  1.00  0.00    -0.318 N 
ATOM     21  C   UNL A   1      32.867  24.144  26.539  1.00  0.00     0.284 C 
ATOM     22  C   UNL A   1      31.141  23.107  25.205  1.00  0.00     0.284 C 
ATOM     23  H   UNL A   1      32.452  22.202  26.483  1.00  0.00     0.349 HD
ATOM     24  C   UNL A   1      32.595  25.520  25.895  1.00  0.00     0.178 C 
ATOM     25  C   UNL A   1      30.868  24.429  24.452  1.00  0.00     0.178 C 
ATOM     26  N   UNL A   1      31.279  25.597  25.246  1.00  0.00    -0.360 N 
BRANCH  26  27
ATOM     27  C   UNL A   1      30.926  26.831  24.699  1.00  0.00     0.037 A 
ATOM     28  C   UNL A   1      31.446  28.047  25.172  1.00  0.00     0.029 A 
ATOM     29  C   UNL A   1      30.016  26.865  23.635  1.00  0.00     0.029 A 
ATOM     30  C   UNL A   1      31.037  29.265  24.623  1.00  0.00     0.041 A 
ATOM     31  C   UNL A   1      29.601  28.079  23.085  1.00  0.00     0.041 A 
ATOM     32  C   UNL A   1      30.111  29.268  23.589  1.00  0.00     0.123 A 
ATOM     33  F   UNL A   1      29.703  30.435  23.072  1.00  0.00    -0.207 F 
ENDBRANCH  26  27
ENDBRANCH   8  20
ENDBRANCH   5   8
ENDBRANCH   3   4
ENDBRANCH   2   3
ENDBRANCH   1   2
BRANCH   1  34
ATOM     34  C   UNL A   1      38.917  20.431  25.769  1.00  0.00     0.116 C 
BRANCH  34  35
ATOM     35  N   UNL A   1      39.888  19.360  25.934  1.00  0.00    -0.352 N 
ATOM     36  C   UNL A   1      41.236  19.463  26.186  1.00  0.00     0.251 C 
ATOM     37  H   UNL A   1      39.535  18.445  25.855  1.00  0.00     0.163 HD
ATOM     38  O   UNL A   1      41.948  18.471  26.178  1.00  0.00    -0.269 OA
BRANCH  36  39
ATOM     39  C   UNL A   1      41.810  20.803  26.429  1.00  0.00     0.039 A 
ATOM     40  C   UNL A   1      42.187  21.583  25.335  1.00  0.00     0.014 A 
ATOM     41  C   UNL A   1      41.920  21.301  27.730  1.00  0.00     0.014 A 
ATOM     42  C   UNL A   1      42.631  22.889  25.547  1.00  0.00     0.010 A 
ATOM     43  C   UNL A   1      42.276  22.628  27.930  1.00  0.00     0.010 A 
ATOM     44  C   UNL A   1      42.652  23.430  26.843  1.00  0.00    -0.014 A 
BRANCH  44  45
ATOM     45  C   UNL A   1      43.081  24.829  27.085  1.00  0.00     0.031 A 
ATOM     46  C   UNL A   1      42.140  25.798  27.748  1.00  0.00     0.074 A 
ATOM     47  C   UNL A   1      44.280  25.246  26.637  1.00  0.00     0.049 A 
ATOM     48  N   UNL A   1      42.317  27.065  28.016  1.00  0.00    -0.248 NA
ATOM     49  C   UNL A   1      40.812  25.287  28.131  1.00  0.00     0.031 C 
ATOM     50  C   UNL A   1      45.240  24.424  25.894  1.00  0.00     0.029 A 
ATOM     51  N   UNL A   1      44.889  26.473  26.720  1.00  0.00    -0.354 N 
ATOM     52  C   UNL A   1      41.118  27.509  28.560  1.00  0.00     0.074 A 
ATOM     53  C   UNL A   1      40.205  26.388  28.546  1.00  0.00     0.031 C 
ATOM     54  C   UNL A   1      46.320  25.168  25.599  1.00  0.00     0.029 A 
ATOM     55  C   UNL A   1      46.122  26.520  26.111  1.00  0.00     0.049 A 
ATOM     56  H   UNL A   1      44.481  27.246  27.172  1.00  0.00     0.167 HD
ATOM     57  C   UNL A   1      40.814  28.729  29.062  1.00  0.00     0.034 A 
ATOM     58  C   UNL A   1      46.993  27.539  25.984  1.00  0.00     0.034 A 
ATOM     59  C   UNL A   1      41.744  29.822  29.126  1.00  0.00     0.049 A 
ATOM     60  C   UNL A   1      46.660  28.864  26.616  1.00  0.00     0.074 A 
ATOM     61  C   UNL A   1      41.569  31.068  29.701  1.00  0.00     0.029 A 
ATOM     62  N   UNL A   1      43.024  29.800  28.596  1.00  0.00    -0.354 N 
ATOM     63  N   UNL A   1      45.585  29.215  27.279  1.00  0.00    -0.248 NA
ATOM     64  C   UNL A   1      47.677  29.921  26.519  1.00  0.00     0.031 C 
ATOM     65  C   UNL A   1      42.741  31.806  29.504  1.00  0.00     0.029 A 
ATOM     66  C   UNL A   1      43.653  31.011  28.827  1.00  0.00     0.049 A 
ATOM     67  H   UNL A   1      43.427  29.037  28.124  1.00  0.00     0.167 HD
ATOM     68  C   UNL A   1      45.811  30.516  27.713  1.00  0.00     0.074 A 
ATOM     69  C   UNL A   1      47.136  30.882  27.254  1.00  0.00     0.031 C 
ATOM     70  C   UNL A   1      44.993  31.339  28.414  1.00  0.00     0.034 A 
BRANCH  57  71
ATOM     71  C   UNL A   1      39.437  28.922  29.641  1.00  0.00     0.023 A 
ATOM     72  C   UNL A   1      39.187  28.548  30.978  1.00  0.00     0.012 A 
ATOM     73  C   UNL A   1      38.407  29.514  28.887  1.00  0.00     0.148 A 
ATOM     74  C   UNL A   1      37.926  28.725  31.543  1.00  0.00     0.002 A 
ATOM     75  C   UNL A   1      37.164  29.730  29.472  1.00  0.00     0.091 A 
ATOM     76  F   UNL A   1      38.654  29.841  27.610  1.00  0.00    -0.205 F 
ATOM     77  C   UNL A   1      36.918  29.326  30.795  1.00  0.00     0.022 A 
BRANCH  75  78
ATOM     78  S   UNL A   1      35.825  30.569  28.618  1.00  0.00     0.127 S 
ATOM     79  O   UNL A   1      35.121  29.448  27.999  1.00  0.00    -0.237 OA
ATOM     80  O   UNL A   1      35.104  31.204  29.724  1.00  0.00    -0.237 OA
ATOM     81  O   UNL A   1      36.458  31.499  27.695  1.00  0.00    -0.744 OA
ENDBRANCH  75  78
ENDBRANCH  57  71
BRANCH  58  82
ATOM     82  C   UNL A   1      48.302  27.319  25.306  1.00  0.00     0.023 A 
ATOM     83  C   UNL A   1      49.410  26.895  26.066  1.00  0.00     0.012 A 
ATOM     84  C   UNL A   1      48.450  27.496  23.917  1.00  0.00     0.148 A 
ATOM     85  C   UNL A   1      50.650  26.686  25.462  1.00  0.00     0.002 A 
ATOM     86  C   UNL A   1      49.674  27.232  23.313  1.00  0.00     0.091 A 
ATOM     87  F   UNL A   1      47.387  27.909  23.213  1.00  0.00    -0.205 F 
ATOM     88  C   UNL A   1      50.780  26.845  24.085  1.00  0.00     0.022 A 
BRANCH  86  89
ATOM     89  S   UNL A   1      49.897  27.282  21.531  1.00  0.00     0.127 S 
ATOM     90  O   UNL A   1      49.725  28.704  21.247  1.00  0.00    -0.237 OA
ATOM     91  O   UNL A   1      51.265  26.784  21.383  1.00  0.00    -0.237 OA
ATOM     92  O   UNL A   1      48.877  26.397  20.984  1.00  0.00    -0.744 OA
ENDBRANCH  86  89
ENDBRANCH  58  82
BRANCH  70  93
ATOM     93  C   UNL A   1      45.514  32.707  28.766  1.00  0.00     0.023 A 
ATOM     94  C   UNL A   1      46.183  32.910  29.989  1.00  0.00     0.012 A 
ATOM     95  C   UNL A   1      45.405  33.773  27.852  1.00  0.00     0.148 A 
ATOM     96  C   UNL A   1      46.703  34.161  30.312  1.00  0.00     0.002 A 
ATOM     97  C   UNL A   1      45.969  35.006  28.160  1.00  0.00     0.091 A 
ATOM     98  F   UNL A   1      44.747  33.566  26.702  1.00  0.00    -0.205 F 
ATOM     99  C   UNL A   1      46.608  35.205  29.394  1.00  0.00     0.022 A 
BRANCH  97 100
ATOM    100  S   UNL A   1      45.977  36.372  26.994  1.00  0.00     0.127 S 
ATOM    101  O   UNL A   1      46.939  37.284  27.609  1.00  0.00    -0.237 OA
ATOM    102  O   UNL A   1      46.445  35.731  25.764  1.00  0.00    -0.237 OA
ATOM    103  O   UNL A   1      44.602  36.852  26.935  1.00  0.00    -0.744 OA
ENDBRANCH  97 100
ENDBRANCH  70  93
ENDBRANCH  44  45
ENDBRANCH  36  39
ENDBRANCH  34  35
ENDBRANCH   1  34
TORSDOF 17
ENDMDL
