MODEL 1
REMARK VINA RESULT:     -13.4      0.000      0.000
REMARK SMILES Cc1cccc2c1[C@H]1c3c(C)cccc3[C@H](CC(=O)NCCCCNC(=O)c3ccc(-c4c5nc(c(-c6cccc(S(=O)(=O)[O-])c6F)c6ccc([nH]6)c(-c6cccc(S(=O)(=O)[O-])c6F)c6nc(c(-c7cccc(S(=O)(=O)[O-])c7F)c7ccc4[nH]7)C=C6)C=C5)cc3)C[C@H]1CC2
REMARK SMILES IDX 23 1 22 2 21 3 20 4 18 5 19 6 17 8 16 9 1 10 2 11 3 12 7 13
REMARK SMILES IDX 4 14 6 15 8 16 5 17 94 18 9 19 92 20 93 21 10 22 15 23 91 24
REMARK SMILES IDX 12 25 11 26 14 27 13 28 24 29 25 30 26 31 27 33 28 34 29 35
REMARK SMILES IDX 90 36 30 37 89 38 31 39 32 40 33 41 83 42 34 43 88 44 82 45
REMARK SMILES IDX 84 46 35 47 87 48 81 49 80 50 36 52 68 53 48 54 67 55 49 56
REMARK SMILES IDX 52 57 66 58 85 59 50 60 51 61 65 63 86 64 53 65 37 66 38 67
REMARK SMILES IDX 46 68 39 69 41 70 47 71 40 72 42 73 43 74 44 75 45 76 69 77
REMARK SMILES IDX 70 78 78 79 71 80 73 81 79 82 72 83 74 84 75 85 76 86 77 87
REMARK SMILES IDX 54 88 55 89 63 90 56 91 58 92 64 93 57 94 59 95 60 96 61 97
REMARK SMILES IDX 62 98
REMARK H PARENT 20 7 25 32 84 51 52 62
REMARK Flexibility Score: inf
ROOT
ATOM      1  C   UNL A   1      31.691  31.551  26.654  1.00  0.00     0.023 C 
ENDROOT
BRANCH   1   2
ATOM      2  C   UNL A   1      31.901  30.053  26.414  1.00  0.00     0.023 C 
BRANCH   2   3
ATOM      3  C   UNL A   1      31.593  29.606  24.983  1.00  0.00     0.116 C 
BRANCH   3   4
ATOM      4  N   UNL A   1      32.769  29.705  24.142  1.00  0.00    -0.356 N 
ATOM      5  C   UNL A   1      33.355  28.781  23.338  1.00  0.00     0.220 C 
ATOM      6  O   UNL A   1      34.418  29.068  22.787  1.00  0.00    -0.275 OA
ATOM      7  H   UNL A   1      33.214  30.584  24.155  1.00  0.00     0.163 HD
BRANCH   5   8
ATOM      8  C   UNL A   1      32.676  27.457  23.066  1.00  0.00     0.108 C 
BRANCH   8   9
ATOM      9  C   UNL A   1      33.284  26.206  23.733  1.00  0.00     0.029 C 
ATOM     10  C   UNL A   1      31.709  20.758  22.206  1.00  0.00     0.044 C 
ATOM     11  C   UNL A   1      32.727  20.659  23.313  1.00  0.00    -0.047 A 
ATOM     12  C   UNL A   1      33.000  19.368  23.804  1.00  0.00     0.004 A 
ATOM     13  C   UNL A   1      33.393  21.770  23.887  1.00  0.00    -0.034 A 
ATOM     14  C   UNL A   1      33.968  19.158  24.779  1.00  0.00     0.001 A 
ATOM     15  C   UNL A   1      34.477  21.528  24.766  1.00  0.00    -0.044 A 
ATOM     16  C   UNL A   1      33.012  23.214  23.565  1.00  0.00     0.053 C 
ATOM     17  C   UNL A   1      34.729  20.228  25.230  1.00  0.00     0.004 A 
ATOM     18  C   UNL A   1      35.490  22.598  25.116  1.00  0.00     0.036 C 
ATOM     19  C   UNL A   1      32.122  24.013  24.559  1.00  0.00    -0.034 A 
ATOM     20  C   UNL A   1      34.340  23.952  23.290  1.00  0.00     0.002 C 
ATOM     21  C   UNL A   1      35.203  23.994  24.566  1.00  0.00     0.009 C 
ATOM     22  C   UNL A   1      31.126  23.435  25.398  1.00  0.00    -0.047 A 
ATOM     23  C   UNL A   1      32.247  25.442  24.574  1.00  0.00    -0.040 A 
ATOM     24  C   UNL A   1      33.997  25.320  22.711  1.00  0.00     0.013 C 
ATOM     25  C   UNL A   1      30.320  24.258  26.214  1.00  0.00     0.004 A 
ATOM     26  C   UNL A   1      30.822  21.966  25.501  1.00  0.00     0.044 C 
ATOM     27  C   UNL A   1      31.454  26.210  25.455  1.00  0.00     0.004 A 
ATOM     28  C   UNL A   1      30.486  25.629  26.252  1.00  0.00     0.001 A 
ENDBRANCH   8   9
ENDBRANCH   5   8
ENDBRANCH   3   4
ENDBRANCH   2   3
ENDBRANCH   1   2
BRANCH   1  29
ATOM     29  C   UNL A   1      32.882  32.237  27.307  1.00  0.00     0.116 C 
BRANCH  29  30
ATOM     30  N   UNL A   1      32.595  33.633  27.598  1.00  0.00    -0.352 N 
ATOM     31  C   UNL A   1      33.153  34.424  28.572  1.00  0.00     0.251 C 
ATOM     32  H   UNL A   1      31.917  34.063  27.028  1.00  0.00     0.163 HD
ATOM     33  O   UNL A   1      32.664  35.506  28.856  1.00  0.00    -0.269 OA
BRANCH  31  34
ATOM     34  C   UNL A   1      34.356  33.928  29.264  1.00  0.00     0.039 A 
ATOM     35  C   UNL A   1      35.610  34.412  28.885  1.00  0.00     0.014 A 
ATOM     36  C   UNL A   1      34.222  32.999  30.300  1.00  0.00     0.014 A 
ATOM     37  C   UNL A   1      36.743  33.974  29.569  1.00  0.00     0.010 A 
ATOM     38  C   UNL A   1      35.345  32.606  31.014  1.00  0.00     0.010 A 
ATOM     39  C   UNL A   1      36.614  33.072  30.636  1.00  0.00    -0.014 A 
BRANCH  39  40
ATOM     40  C   UNL A   1      37.797  32.511  31.322  1.00  0.00     0.031 A 
ATOM     41  C   UNL A   1      38.509  31.348  30.695  1.00  0.00     0.074 A 
ATOM     42  C   UNL A   1      38.173  32.985  32.522  1.00  0.00     0.049 A 
ATOM     43  N   UNL A   1      39.484  30.625  31.175  1.00  0.00    -0.248 NA
ATOM     44  C   UNL A   1      38.045  30.927  29.360  1.00  0.00     0.031 C 
ATOM     45  C   UNL A   1      37.533  34.088  33.240  1.00  0.00     0.029 A 
ATOM     46  N   UNL A   1      39.174  32.573  33.364  1.00  0.00    -0.354 N 
ATOM     47  C   UNL A   1      39.729  29.647  30.220  1.00  0.00     0.074 A 
ATOM     48  C   UNL A   1      38.788  29.852  29.143  1.00  0.00     0.031 C 
ATOM     49  C   UNL A   1      38.154  34.261  34.419  1.00  0.00     0.029 A 
ATOM     50  C   UNL A   1      39.215  33.266  34.550  1.00  0.00     0.049 A 
ATOM     51  H   UNL A   1      39.803  31.848  33.140  1.00  0.00     0.167 HD
ATOM     52  C   UNL A   1      40.676  28.682  30.226  1.00  0.00     0.034 A 
ATOM     53  C   UNL A   1      40.012  33.105  35.623  1.00  0.00     0.034 A 
ATOM     54  C   UNL A   1      41.639  28.510  31.276  1.00  0.00     0.049 A 
ATOM     55  C   UNL A   1      41.062  32.029  35.603  1.00  0.00     0.074 A 
ATOM     56  C   UNL A   1      42.678  27.601  31.345  1.00  0.00     0.029 A 
ATOM     57  N   UNL A   1      41.683  29.265  32.437  1.00  0.00    -0.354 N 
ATOM     58  N   UNL A   1      41.346  31.173  34.651  1.00  0.00    -0.248 NA
ATOM     59  C   UNL A   1      41.915  31.909  36.794  1.00  0.00     0.031 C 
ATOM     60  C   UNL A   1      43.348  27.801  32.557  1.00  0.00     0.029 A 
ATOM     61  C   UNL A   1      42.731  28.840  33.234  1.00  0.00     0.049 A 
ATOM     62  H   UNL A   1      41.061  29.994  32.662  1.00  0.00     0.167 HD
ATOM     63  C   UNL A   1      42.418  30.424  35.119  1.00  0.00     0.074 A 
ATOM     64  C   UNL A   1      42.748  30.941  36.432  1.00  0.00     0.031 C 
ATOM     65  C   UNL A   1      43.064  29.391  34.522  1.00  0.00     0.034 A 
BRANCH  52  66
ATOM     66  C   UNL A   1      40.755  27.775  29.032  1.00  0.00     0.023 A 
ATOM     67  C   UNL A   1      39.843  26.708  28.921  1.00  0.00     0.012 A 
ATOM     68  C   UNL A   1      41.676  28.018  27.996  1.00  0.00     0.148 A 
ATOM     69  C   UNL A   1      39.854  25.883  27.798  1.00  0.00     0.002 A 
ATOM     70  C   UNL A   1      41.659  27.211  26.865  1.00  0.00     0.091 A 
ATOM     71  F   UNL A   1      42.546  29.028  28.139  1.00  0.00    -0.205 F 
ATOM     72  C   UNL A   1      40.754  26.141  26.767  1.00  0.00     0.022 A 
BRANCH  70  73
ATOM     73  S   UNL A   1      42.742  27.484  25.458  1.00  0.00     0.127 S 
ATOM     74  O   UNL A   1      42.633  26.207  24.751  1.00  0.00    -0.237 OA
ATOM     75  O   UNL A   1      42.092  28.610  24.789  1.00  0.00    -0.237 OA
ATOM     76  O   UNL A   1      44.058  27.773  26.010  1.00  0.00    -0.744 OA
ENDBRANCH  70  73
ENDBRANCH  52  66
BRANCH  53  77
ATOM     77  C   UNL A   1      39.882  34.033  36.777  1.00  0.00     0.023 A 
ATOM     78  C   UNL A   1      40.255  35.380  36.614  1.00  0.00     0.012 A 
ATOM     79  C   UNL A   1      39.338  33.608  38.005  1.00  0.00     0.148 A 
ATOM     80  C   UNL A   1      40.098  36.291  37.659  1.00  0.00     0.002 A 
ATOM     81  C   UNL A   1      39.150  34.529  39.029  1.00  0.00     0.091 A 
ATOM     82  F   UNL A   1      38.990  32.321  38.130  1.00  0.00    -0.205 F 
ATOM     83  C   UNL A   1      39.539  35.868  38.862  1.00  0.00     0.022 A 
BRANCH  81  84
ATOM     84  S   UNL A   1      38.354  34.106  40.583  1.00  0.00     0.127 S 
ATOM     85  O   UNL A   1      39.352  33.238  41.203  1.00  0.00    -0.237 OA
ATOM     86  O   UNL A   1      38.208  35.422  41.206  1.00  0.00    -0.237 OA
ATOM     87  O   UNL A   1      37.100  33.459  40.225  1.00  0.00    -0.744 OA
ENDBRANCH  81  84
ENDBRANCH  53  77
BRANCH  65  88
ATOM     88  C   UNL A   1      44.191  28.743  35.274  1.00  0.00     0.023 A 
ATOM     89  C   UNL A   1      45.500  29.242  35.121  1.00  0.00     0.012 A 
ATOM     90  C   UNL A   1      43.944  27.714  36.204  1.00  0.00     0.148 A 
ATOM     91  C   UNL A   1      46.549  28.717  35.871  1.00  0.00     0.002 A 
ATOM     92  C   UNL A   1      44.988  27.219  36.975  1.00  0.00     0.091 A 
ATOM     93  F   UNL A   1      42.692  27.250  36.324  1.00  0.00    -0.205 F 
ATOM     94  C   UNL A   1      46.292  27.714  36.805  1.00  0.00     0.022 A 
BRANCH  92  95
ATOM     95  S   UNL A   1      44.742  25.983  38.255  1.00  0.00     0.127 S 
ATOM     96  O   UNL A   1      43.808  26.665  39.149  1.00  0.00    -0.237 OA
ATOM     97  O   UNL A   1      44.165  24.870  37.503  1.00  0.00    -0.237 OA
ATOM     98  O   UNL A   1      46.060  25.717  38.815  1.00  0.00    -0.744 OA
ENDBRANCH  92  95
ENDBRANCH  65  88
ENDBRANCH  39  40
ENDBRANCH  31  34
ENDBRANCH  29  30
ENDBRANCH   1  29
TORSDOF 15
ENDMDL
MODEL 2
REMARK VINA RESULT:     -13.4      0.912      2.001
REMARK SMILES Cc1cccc2c1[C@H]1c3c(C)cccc3[C@H](CC(=O)NCCCCNC(=O)c3ccc(-c4c5nc(c(-c6cccc(S(=O)(=O)[O-])c6F)c6ccc([nH]6)c(-c6cccc(S(=O)(=O)[O-])c6F)c6nc(c(-c7cccc(S(=O)(=O)[O-])c7F)c7ccc4[nH]7)C=C6)C=C5)cc3)C[C@H]1CC2
REMARK SMILES IDX 23 1 22 2 21 3 20 4 18 5 19 6 17 8 16 9 1 10 2 11 3 12 7 13
REMARK SMILES IDX 4 14 6 15 8 16 5 17 94 18 9 19 92 20 93 21 10 22 15 23 91 24
REMARK SMILES IDX 12 25 11 26 14 27 13 28 24 29 25 30 26 31 27 33 28 34 29 35
REMARK SMILES IDX 90 36 30 37 89 38 31 39 32 40 33 41 83 42 34 43 88 44 82 45
REMARK SMILES IDX 84 46 35 47 87 48 81 49 80 50 36 52 68 53 48 54 67 55 49 56
REMARK SMILES IDX 52 57 66 58 85 59 50 60 51 61 65 63 86 64 53 65 37 66 38 67
REMARK SMILES IDX 46 68 39 69 41 70 47 71 40 72 42 73 43 74 44 75 45 76 69 77
REMARK SMILES IDX 70 78 78 79 71 80 73 81 79 82 72 83 74 84 75 85 76 86 77 87
REMARK SMILES IDX 54 88 55 89 63 90 56 91 58 92 64 93 57 94 59 95 60 96 61 97
REMARK SMILES IDX 62 98
REMARK H PARENT 20 7 25 32 84 51 52 62
REMARK Flexibility Score: inf
ROOT
ATOM      1  C   UNL A   1      31.743  32.705  26.591  1.00  0.00     0.023 C 
ENDROOT
BRANCH   1   2
ATOM      2  C   UNL A   1      31.421  31.209  26.652  1.00  0.00     0.023 C 
BRANCH   2   3
ATOM      3  C   UNL A   1      32.656  30.315  26.793  1.00  0.00     0.116 C 
BRANCH   3   4
ATOM      4  N   UNL A   1      33.271  30.070  25.504  1.00  0.00    -0.356 N 
ATOM      5  C   UNL A   1      32.853  29.304  24.463  1.00  0.00     0.220 C 
ATOM      6  O   UNL A   1      33.600  29.169  23.494  1.00  0.00    -0.275 OA
ATOM      7  H   UNL A   1      34.127  30.534  25.359  1.00  0.00     0.163 HD
BRANCH   5   8
ATOM      8  C   UNL A   1      31.470  28.693  24.463  1.00  0.00     0.108 C 
BRANCH   8   9
ATOM      9  C   UNL A   1      31.369  27.184  24.768  1.00  0.00     0.029 C 
ATOM     10  C   UNL A   1      36.107  23.848  25.722  1.00  0.00     0.044 C 
ATOM     11  C   UNL A   1      34.887  22.966  25.810  1.00  0.00    -0.047 A 
ATOM     12  C   UNL A   1      35.118  21.589  25.983  1.00  0.00     0.004 A 
ATOM     13  C   UNL A   1      33.554  23.436  25.708  1.00  0.00    -0.034 A 
ATOM     14  C   UNL A   1      34.063  20.697  26.139  1.00  0.00     0.001 A 
ATOM     15  C   UNL A   1      32.498  22.544  26.018  1.00  0.00    -0.044 A 
ATOM     16  C   UNL A   1      33.215  24.872  25.314  1.00  0.00     0.053 C 
ATOM     17  C   UNL A   1      32.763  21.177  26.195  1.00  0.00     0.004 A 
ATOM     18  C   UNL A   1      31.097  23.025  26.325  1.00  0.00     0.036 C 
ATOM     19  C   UNL A   1      32.789  25.187  23.852  1.00  0.00    -0.034 A 
ATOM     20  C   UNL A   1      32.145  25.347  26.321  1.00  0.00     0.002 C 
ATOM     21  C   UNL A   1      30.853  24.524  26.156  1.00  0.00     0.009 C 
ATOM     22  C   UNL A   1      33.244  24.476  22.705  1.00  0.00    -0.047 A 
ATOM     23  C   UNL A   1      31.946  26.327  23.629  1.00  0.00    -0.040 A 
ATOM     24  C   UNL A   1      31.968  26.849  26.134  1.00  0.00     0.013 C 
ATOM     25  C   UNL A   1      32.854  24.888  21.413  1.00  0.00     0.004 A 
ATOM     26  C   UNL A   1      34.153  23.278  22.729  1.00  0.00     0.044 C 
ATOM     27  C   UNL A   1      31.539  26.657  22.317  1.00  0.00     0.004 A 
ATOM     28  C   UNL A   1      32.003  25.959  21.218  1.00  0.00     0.001 A 
ENDBRANCH   8   9
ENDBRANCH   5   8
ENDBRANCH   3   4
ENDBRANCH   2   3
ENDBRANCH   1   2
BRANCH   1  29
ATOM     29  C   UNL A   1      32.803  33.143  27.591  1.00  0.00     0.116 C 
BRANCH  29  30
ATOM     30  N   UNL A   1      32.626  34.535  27.975  1.00  0.00    -0.352 N 
ATOM     31  C   UNL A   1      33.228  35.207  29.009  1.00  0.00     0.251 C 
ATOM     32  H   UNL A   1      31.997  35.058  27.427  1.00  0.00     0.163 HD
ATOM     33  O   UNL A   1      32.825  36.304  29.362  1.00  0.00    -0.269 OA
BRANCH  31  34
ATOM     34  C   UNL A   1      34.373  34.567  29.681  1.00  0.00     0.039 A 
ATOM     35  C   UNL A   1      34.166  33.881  30.880  1.00  0.00     0.014 A 
ATOM     36  C   UNL A   1      35.643  34.639  29.098  1.00  0.00     0.014 A 
ATOM     37  C   UNL A   1      35.243  33.240  31.491  1.00  0.00     0.010 A 
ATOM     38  C   UNL A   1      36.700  33.955  29.680  1.00  0.00     0.010 A 
ATOM     39  C   UNL A   1      36.512  33.274  30.892  1.00  0.00    -0.014 A 
BRANCH  39  40
ATOM     40  C   UNL A   1      37.696  32.690  31.557  1.00  0.00     0.031 A 
ATOM     41  C   UNL A   1      38.385  31.525  30.907  1.00  0.00     0.074 A 
ATOM     42  C   UNL A   1      38.092  33.143  32.759  1.00  0.00     0.049 A 
ATOM     43  N   UNL A   1      39.357  30.784  31.366  1.00  0.00    -0.248 NA
ATOM     44  C   UNL A   1      37.901  31.127  29.573  1.00  0.00     0.031 C 
ATOM     45  C   UNL A   1      37.475  34.245  33.497  1.00  0.00     0.029 A 
ATOM     46  N   UNL A   1      39.097  32.707  33.583  1.00  0.00    -0.354 N 
ATOM     47  C   UNL A   1      39.577  29.815  30.396  1.00  0.00     0.074 A 
ATOM     48  C   UNL A   1      38.627  30.045  29.333  1.00  0.00     0.031 C 
ATOM     49  C   UNL A   1      38.112  34.395  34.671  1.00  0.00     0.029 A 
ATOM     50  C   UNL A   1      39.161  33.385  34.777  1.00  0.00     0.049 A 
ATOM     51  H   UNL A   1      39.714  31.978  33.343  1.00  0.00     0.167 HD
ATOM     52  C   UNL A   1      40.512  28.838  30.379  1.00  0.00     0.034 A 
ATOM     53  C   UNL A   1      39.969  33.200  35.838  1.00  0.00     0.034 A 
ATOM     54  C   UNL A   1      41.485  28.640  31.415  1.00  0.00     0.049 A 
ATOM     55  C   UNL A   1      41.004  32.111  35.792  1.00  0.00     0.074 A 
ATOM     56  C   UNL A   1      42.513  27.717  31.461  1.00  0.00     0.029 A 
ATOM     57  N   UNL A   1      41.552  29.379  32.585  1.00  0.00    -0.354 N 
ATOM     58  N   UNL A   1      41.266  31.264  34.826  1.00  0.00    -0.248 NA
ATOM     59  C   UNL A   1      41.870  31.965  36.971  1.00  0.00     0.031 C 
ATOM     60  C   UNL A   1      43.200  27.893  32.667  1.00  0.00     0.029 A 
ATOM     61  C   UNL A   1      42.604  28.931  33.364  1.00  0.00     0.049 A 
ATOM     62  H   UNL A   1      40.943  30.113  32.827  1.00  0.00     0.167 HD
ATOM     63  C   UNL A   1      42.334  30.495  35.272  1.00  0.00     0.074 A 
ATOM     64  C   UNL A   1      42.686  30.991  36.588  1.00  0.00     0.031 C 
ATOM     65  C   UNL A   1      42.959  29.462  34.655  1.00  0.00     0.034 A 
BRANCH  52  66
ATOM     66  C   UNL A   1      40.565  27.945  29.173  1.00  0.00     0.023 A 
ATOM     67  C   UNL A   1      39.633  26.896  29.055  1.00  0.00     0.012 A 
ATOM     68  C   UNL A   1      41.482  28.184  28.132  1.00  0.00     0.148 A 
ATOM     69  C   UNL A   1      39.620  26.085  27.922  1.00  0.00     0.002 A 
ATOM     70  C   UNL A   1      41.442  27.392  26.992  1.00  0.00     0.091 A 
ATOM     71  F   UNL A   1      42.372  29.176  28.282  1.00  0.00    -0.205 F 
ATOM     72  C   UNL A   1      40.517  26.341  26.887  1.00  0.00     0.022 A 
BRANCH  70  73
ATOM     73  S   UNL A   1      42.519  27.664  25.580  1.00  0.00     0.127 S 
ATOM     74  O   UNL A   1      42.004  28.931  25.057  1.00  0.00    -0.237 OA
ATOM     75  O   UNL A   1      43.833  27.755  26.213  1.00  0.00    -0.237 OA
ATOM     76  O   UNL A   1      42.336  26.516  24.704  1.00  0.00    -0.744 OA
ENDBRANCH  70  73
ENDBRANCH  52  66
BRANCH  53  77
ATOM     77  C   UNL A   1      39.865  34.115  37.005  1.00  0.00     0.023 A 
ATOM     78  C   UNL A   1      40.315  35.442  36.874  1.00  0.00     0.012 A 
ATOM     79  C   UNL A   1      39.271  33.702  38.213  1.00  0.00     0.148 A 
ATOM     80  C   UNL A   1      40.185  36.344  37.931  1.00  0.00     0.002 A 
ATOM     81  C   UNL A   1      39.111  34.614  39.250  1.00  0.00     0.091 A 
ATOM     82  F   UNL A   1      38.849  32.433  38.309  1.00  0.00    -0.205 F 
ATOM     83  C   UNL A   1      39.577  35.932  39.114  1.00  0.00     0.022 A 
BRANCH  81  84
ATOM     84  S   UNL A   1      38.259  34.211  40.778  1.00  0.00     0.127 S 
ATOM     85  O   UNL A   1      39.232  33.350  41.445  1.00  0.00    -0.237 OA
ATOM     86  O   UNL A   1      38.092  35.535  41.380  1.00  0.00    -0.237 OA
ATOM     87  O   UNL A   1      37.018  33.561  40.383  1.00  0.00    -0.744 OA
ENDBRANCH  81  84
ENDBRANCH  53  77
BRANCH  65  88
ATOM     88  C   UNL A   1      44.087  28.789  35.385  1.00  0.00     0.023 A 
ATOM     89  C   UNL A   1      45.398  29.282  35.233  1.00  0.00     0.012 A 
ATOM     90  C   UNL A   1      43.838  27.744  36.295  1.00  0.00     0.148 A 
ATOM     91  C   UNL A   1      46.448  28.734  35.965  1.00  0.00     0.002 A 
ATOM     92  C   UNL A   1      44.884  27.225  37.048  1.00  0.00     0.091 A 
ATOM     93  F   UNL A   1      42.583  27.286  36.414  1.00  0.00    -0.205 F 
ATOM     94  C   UNL A   1      46.190  27.714  36.879  1.00  0.00     0.022 A 
BRANCH  92  95
ATOM     95  S   UNL A   1      44.637  25.964  38.303  1.00  0.00     0.127 S 
ATOM     96  O   UNL A   1      46.008  25.717  38.749  1.00  0.00    -0.237 OA
ATOM     97  O   UNL A   1      43.794  26.658  39.277  1.00  0.00    -0.237 OA
ATOM     98  O   UNL A   1      43.990  24.847  37.629  1.00  0.00    -0.744 OA
ENDBRANCH  92  95
ENDBRANCH  65  88
ENDBRANCH  39  40
ENDBRANCH  31  34
ENDBRANCH  29  30
ENDBRANCH   1  29
TORSDOF 15
ENDMDL
MODEL 3
REMARK VINA RESULT:     -13.4      5.932      9.600
REMARK SMILES Cc1cccc2c1[C@H]1c3c(C)cccc3[C@H](CC(=O)NCCCCNC(=O)c3ccc(-c4c5nc(c(-c6cccc(S(=O)(=O)[O-])c6F)c6ccc([nH]6)c(-c6cccc(S(=O)(=O)[O-])c6F)c6nc(c(-c7cccc(S(=O)(=O)[O-])c7F)c7ccc4[nH]7)C=C6)C=C5)cc3)C[C@H]1CC2
REMARK SMILES IDX 23 1 22 2 21 3 20 4 18 5 19 6 17 8 16 9 1 10 2 11 3 12 7 13
REMARK SMILES IDX 4 14 6 15 8 16 5 17 94 18 9 19 92 20 93 21 10 22 15 23 91 24
REMARK SMILES IDX 12 25 11 26 14 27 13 28 24 29 25 30 26 31 27 33 28 34 29 35
REMARK SMILES IDX 90 36 30 37 89 38 31 39 32 40 33 41 83 42 34 43 88 44 82 45
REMARK SMILES IDX 84 46 35 47 87 48 81 49 80 50 36 52 68 53 48 54 67 55 49 56
REMARK SMILES IDX 52 57 66 58 85 59 50 60 51 61 65 63 86 64 53 65 37 66 38 67
REMARK SMILES IDX 46 68 39 69 41 70 47 71 40 72 42 73 43 74 44 75 45 76 69 77
REMARK SMILES IDX 70 78 78 79 71 80 73 81 79 82 72 83 74 84 75 85 76 86 77 87
REMARK SMILES IDX 54 88 55 89 63 90 56 91 58 92 64 93 57 94 59 95 60 96 61 97
REMARK SMILES IDX 62 98
REMARK H PARENT 20 7 25 32 84 51 52 62
REMARK Flexibility Score: inf
ROOT
ATOM      1  C   UNL A   1      38.433  19.211  25.169  1.00  0.00     0.023 C 
ENDROOT
BRANCH   1   2
ATOM      2  C   UNL A   1      37.236  20.028  24.675  1.00  0.00     0.023 C 
BRANCH   2   3
ATOM      3  C   UNL A   1      37.201  21.462  25.209  1.00  0.00     0.116 C 
BRANCH   3   4
ATOM      4  N   UNL A   1      36.279  21.581  26.320  1.00  0.00    -0.356 N 
ATOM      5  C   UNL A   1      34.921  21.563  26.341  1.00  0.00     0.220 C 
ATOM      6  O   UNL A   1      34.346  21.783  27.406  1.00  0.00    -0.275 OA
ATOM      7  H   UNL A   1      36.705  21.692  27.201  1.00  0.00     0.163 HD
BRANCH   5   8
ATOM      8  C   UNL A   1      34.138  21.204  25.099  1.00  0.00     0.108 C 
BRANCH   8   9
ATOM      9  C   UNL A   1      33.491  22.365  24.316  1.00  0.00     0.029 C 
ATOM     10  C   UNL A   1      33.914  27.954  26.073  1.00  0.00     0.044 C 
ATOM     11  C   UNL A   1      33.084  27.919  24.815  1.00  0.00    -0.047 A 
ATOM     12  C   UNL A   1      32.521  29.140  24.399  1.00  0.00     0.004 A 
ATOM     13  C   UNL A   1      32.829  26.748  24.059  1.00  0.00    -0.034 A 
ATOM     14  C   UNL A   1      31.792  29.232  23.219  1.00  0.00     0.001 A 
ATOM     15  C   UNL A   1      32.217  26.884  22.789  1.00  0.00    -0.044 A 
ATOM     16  C   UNL A   1      33.222  25.353  24.543  1.00  0.00     0.053 C 
ATOM     17  C   UNL A   1      31.673  28.118  22.399  1.00  0.00     0.004 A 
ATOM     18  C   UNL A   1      32.256  25.784  21.750  1.00  0.00     0.036 C 
ATOM     19  C   UNL A   1      32.146  24.433  25.188  1.00  0.00    -0.034 A 
ATOM     20  C   UNL A   1      33.899  24.662  23.340  1.00  0.00     0.002 C 
ATOM     21  C   UNL A   1      32.886  24.466  22.197  1.00  0.00     0.009 C 
ATOM     22  C   UNL A   1      31.027  24.898  25.936  1.00  0.00    -0.047 A 
ATOM     23  C   UNL A   1      32.337  23.014  25.099  1.00  0.00    -0.040 A 
ATOM     24  C   UNL A   1      34.539  23.375  23.848  1.00  0.00     0.013 C 
ATOM     25  C   UNL A   1      30.147  23.976  26.543  1.00  0.00     0.004 A 
ATOM     26  C   UNL A   1      30.675  26.341  26.169  1.00  0.00     0.044 C 
ATOM     27  C   UNL A   1      31.390  22.138  25.675  1.00  0.00     0.004 A 
ATOM     28  C   UNL A   1      30.317  22.611  26.407  1.00  0.00     0.001 A 
ENDBRANCH   8   9
ENDBRANCH   5   8
ENDBRANCH   3   4
ENDBRANCH   2   3
ENDBRANCH   1   2
BRANCH   1  29
ATOM     29  C   UNL A   1      39.507  20.050  25.846  1.00  0.00     0.116 C 
BRANCH  29  30
ATOM     30  N   UNL A   1      40.620  19.226  26.292  1.00  0.00    -0.352 N 
ATOM     31  C   UNL A   1      41.890  19.631  26.622  1.00  0.00     0.251 C 
ATOM     32  H   UNL A   1      40.441  18.261  26.366  1.00  0.00     0.163 HD
ATOM     33  O   UNL A   1      42.789  18.818  26.762  1.00  0.00    -0.269 OA
BRANCH  31  34
ATOM     34  C   UNL A   1      42.134  21.074  26.801  1.00  0.00     0.039 A 
ATOM     35  C   UNL A   1      42.130  21.911  25.683  1.00  0.00     0.014 A 
ATOM     36  C   UNL A   1      42.346  21.583  28.086  1.00  0.00     0.014 A 
ATOM     37  C   UNL A   1      42.319  23.281  25.859  1.00  0.00     0.010 A 
ATOM     38  C   UNL A   1      42.480  22.952  28.264  1.00  0.00     0.010 A 
ATOM     39  C   UNL A   1      42.493  23.805  27.150  1.00  0.00    -0.014 A 
BRANCH  39  40
ATOM     40  C   UNL A   1      42.792  25.236  27.368  1.00  0.00     0.031 A 
ATOM     41  C   UNL A   1      44.143  25.758  26.975  1.00  0.00     0.074 A 
ATOM     42  C   UNL A   1      41.898  26.030  27.983  1.00  0.00     0.049 A 
ATOM     43  N   UNL A   1      44.663  26.937  27.184  1.00  0.00    -0.248 NA
ATOM     44  C   UNL A   1      45.038  24.820  26.272  1.00  0.00     0.031 C 
ATOM     45  C   UNL A   1      40.570  25.620  28.439  1.00  0.00     0.029 A 
ATOM     46  N   UNL A   1      41.990  27.346  28.355  1.00  0.00    -0.354 N 
ATOM     47  C   UNL A   1      45.951  26.874  26.671  1.00  0.00     0.074 A 
ATOM     48  C   UNL A   1      46.147  25.537  26.160  1.00  0.00     0.031 C 
ATOM     49  C   UNL A   1      39.972  26.664  29.038  1.00  0.00     0.029 A 
ATOM     50  C   UNL A   1      40.884  27.805  29.030  1.00  0.00     0.049 A 
ATOM     51  H   UNL A   1      42.774  27.909  28.159  1.00  0.00     0.167 HD
ATOM     52  C   UNL A   1      46.881  27.855  26.604  1.00  0.00     0.034 A 
ATOM     53  C   UNL A   1      40.643  29.007  29.587  1.00  0.00     0.034 A 
ATOM     54  C   UNL A   1      46.667  29.195  27.070  1.00  0.00     0.049 A 
ATOM     55  C   UNL A   1      41.689  30.083  29.493  1.00  0.00     0.074 A 
ATOM     56  C   UNL A   1      47.524  30.277  26.991  1.00  0.00     0.029 A 
ATOM     57  N   UNL A   1      45.515  29.636  27.700  1.00  0.00    -0.354 N 
ATOM     58  N   UNL A   1      42.867  30.038  28.918  1.00  0.00    -0.248 NA
ATOM     59  C   UNL A   1      41.367  31.380  30.104  1.00  0.00     0.031 C 
ATOM     60  C   UNL A   1      46.892  31.375  27.582  1.00  0.00     0.029 A 
ATOM     61  C   UNL A   1      45.639  30.976  28.020  1.00  0.00     0.049 A 
ATOM     62  H   UNL A   1      44.726  29.080  27.893  1.00  0.00     0.167 HD
ATOM     63  C   UNL A   1      43.420  31.302  29.084  1.00  0.00     0.074 A 
ATOM     64  C   UNL A   1      42.439  32.098  29.794  1.00  0.00     0.031 C 
ATOM     65  C   UNL A   1      44.636  31.759  28.696  1.00  0.00     0.034 A 
BRANCH  52  66
ATOM     66  C   UNL A   1      48.191  27.529  25.948  1.00  0.00     0.023 A 
ATOM     67  C   UNL A   1      49.259  27.066  26.742  1.00  0.00     0.012 A 
ATOM     68  C   UNL A   1      48.345  27.613  24.552  1.00  0.00     0.148 A 
ATOM     69  C   UNL A   1      50.469  26.702  26.156  1.00  0.00     0.002 A 
ATOM     70  C   UNL A   1      49.545  27.218  23.972  1.00  0.00     0.091 A 
ATOM     71  F   UNL A   1      47.320  28.078  23.824  1.00  0.00    -0.205 F 
ATOM     72  C   UNL A   1      50.608  26.768  24.772  1.00  0.00     0.022 A 
BRANCH  70  73
ATOM     73  S   UNL A   1      49.813  27.218  22.197  1.00  0.00     0.127 S 
ATOM     74  O   UNL A   1      49.600  28.628  21.866  1.00  0.00    -0.237 OA
ATOM     75  O   UNL A   1      51.202  26.772  22.099  1.00  0.00    -0.237 OA
ATOM     76  O   UNL A   1      48.831  26.299  21.638  1.00  0.00    -0.744 OA
ENDBRANCH  70  73
ENDBRANCH  52  66
BRANCH  53  77
ATOM     77  C   UNL A   1      39.326  29.267  30.226  1.00  0.00     0.023 A 
ATOM     78  C   UNL A   1      39.081  28.757  31.514  1.00  0.00     0.012 A 
ATOM     79  C   UNL A   1      38.348  30.060  29.596  1.00  0.00     0.148 A 
ATOM     80  C   UNL A   1      37.877  29.025  32.166  1.00  0.00     0.002 A 
ATOM     81  C   UNL A   1      37.165  30.354  30.265  1.00  0.00     0.091 A 
ATOM     82  F   UNL A   1      38.609  30.533  28.370  1.00  0.00    -0.205 F 
ATOM     83  C   UNL A   1      36.924  29.829  31.546  1.00  0.00     0.022 A 
BRANCH  81  84
ATOM     84  S   UNL A   1      35.914  31.453  29.594  1.00  0.00     0.127 S 
ATOM     85  O   UNL A   1      35.270  30.599  28.598  1.00  0.00    -0.237 OA
ATOM     86  O   UNL A   1      35.105  31.738  30.779  1.00  0.00    -0.237 OA
ATOM     87  O   UNL A   1      36.636  32.599  29.060  1.00  0.00    -0.744 OA
ENDBRANCH  81  84
ENDBRANCH  53  77
BRANCH  65  88
ATOM     88  C   UNL A   1      44.987  33.182  29.026  1.00  0.00     0.023 A 
ATOM     89  C   UNL A   1      45.584  33.475  30.268  1.00  0.00     0.012 A 
ATOM     90  C   UNL A   1      44.824  34.208  28.074  1.00  0.00     0.148 A 
ATOM     91  C   UNL A   1      45.999  34.771  30.564  1.00  0.00     0.002 A 
ATOM     92  C   UNL A   1      45.272  35.491  28.362  1.00  0.00     0.091 A 
ATOM     93  F   UNL A   1      44.244  33.905  26.904  1.00  0.00    -0.205 F 
ATOM     94  C   UNL A   1      45.853  35.776  29.609  1.00  0.00     0.022 A 
BRANCH  92  95
ATOM     95  S   UNL A   1      45.197  36.831  27.169  1.00  0.00     0.127 S 
ATOM     96  O   UNL A   1      46.036  36.313  26.089  1.00  0.00    -0.237 OA
ATOM     97  O   UNL A   1      43.769  36.889  26.858  1.00  0.00    -0.237 OA
ATOM     98  O   UNL A   1      45.716  38.008  27.852  1.00  0.00    -0.744 OA
ENDBRANCH  92  95
ENDBRANCH  65  88
ENDBRANCH  39  40
ENDBRANCH  31  34
ENDBRANCH  29  30
ENDBRANCH   1  29
TORSDOF 15
ENDMDL
