MODEL 1
REMARK VINA RESULT:     -10.8      0.000      0.000
REMARK SMILES COc1ccc(-c2ccc(C#N)c(S[C@@H](C)C(=O)NCCCCNC(=O)c3ccc(-c4c5nc(c(-c6cccc(S(=O)(=O)[O-])c6F)c6ccc([nH]6)c(-c6cccc(S(=O)(=O)[O-])c6F)c6nc(c(-c7cccc(S(=O)(=O)[O-])c7F)c7ccc4[nH]7)C=C6)C=C5)cc3)n2)cc1
REMARK SMILES IDX 21 1 20 2 19 3 17 4 18 5 15 7 16 8 14 9 13 10 7 11 8 12
REMARK SMILES IDX 90 13 9 14 10 15 6 16 3 17 4 18 92 19 5 20 91 21 2 22 1 23
REMARK SMILES IDX 11 24 12 25 22 26 23 27 24 28 25 29 26 31 27 32 28 33 89 34
REMARK SMILES IDX 29 35 88 36 30 37 31 38 32 39 82 40 33 41 87 42 81 43 83 44
REMARK SMILES IDX 34 45 86 46 80 47 79 48 35 50 67 51 47 52 66 53 48 54 51 55
REMARK SMILES IDX 65 56 84 57 49 58 50 59 64 61 85 62 52 63 36 64 37 65 45 66
REMARK SMILES IDX 38 67 40 68 46 69 39 70 41 71 42 72 43 73 44 74 68 75 69 76
REMARK SMILES IDX 77 77 70 78 72 79 78 80 71 81 73 82 74 83 75 84 76 85 53 86
REMARK SMILES IDX 54 87 62 88 55 89 57 90 63 91 56 92 58 93 59 94 60 95 61 96
REMARK H PARENT 19 6 24 30 83 49 51 60
REMARK Flexibility Score: inf
ROOT
ATOM      1  C   UNL A   1      34.931  30.810  27.989  1.00  0.00     0.023 C 
ENDROOT
BRANCH   1   2
ATOM      2  C   UNL A   1      34.595  29.387  27.543  1.00  0.00     0.116 C 
BRANCH   2   3
ATOM      3  N   UNL A   1      33.236  29.009  27.822  1.00  0.00    -0.355 N 
ATOM      4  C   UNL A   1      32.294  28.375  27.090  1.00  0.00     0.233 C 
ATOM      5  O   UNL A   1      31.386  27.855  27.758  1.00  0.00    -0.274 OA
ATOM      6  H   UNL A   1      32.932  29.261  28.724  1.00  0.00     0.163 HD
BRANCH   4   7
ATOM      7  C   UNL A   1      32.267  28.198  25.571  1.00  0.00     0.139 C 
ATOM      8  C   UNL A   1      31.053  28.766  24.851  1.00  0.00     0.030 C 
BRANCH   7   9
ATOM      9  S   UNL A   1      33.197  26.855  24.760  1.00  0.00    -0.092 SA
BRANCH   9  10
ATOM     10  C   UNL A   1      33.112  25.291  25.591  1.00  0.00     0.115 A 
ATOM     11  C   UNL A   1      34.598  23.545  26.199  1.00  0.00     0.072 A 
ATOM     12  C   UNL A   1      33.591  22.881  26.878  1.00  0.00     0.030 A 
ATOM     13  N   UNL A   1      34.368  24.740  25.603  1.00  0.00    -0.240 NA
ATOM     14  C   UNL A   1      32.307  23.397  26.835  1.00  0.00     0.024 A 
ATOM     15  C   UNL A   1      32.042  24.592  26.149  1.00  0.00     0.084 A 
BRANCH  11  16
ATOM     16  C   UNL A   1      35.926  22.936  26.013  1.00  0.00     0.000 A 
ATOM     17  C   UNL A   1      38.523  21.844  25.738  1.00  0.00     0.118 A 
ATOM     18  C   UNL A   1      37.396  21.076  25.438  1.00  0.00     0.047 A 
ATOM     19  C   UNL A   1      38.362  23.166  26.135  1.00  0.00     0.047 A 
ATOM     20  C   UNL A   1      36.107  21.611  25.590  1.00  0.00     0.014 A 
ATOM     21  C   UNL A   1      37.080  23.697  26.279  1.00  0.00     0.014 A 
BRANCH  17  22
ATOM     22  O   UNL A   1      39.741  21.239  25.586  1.00  0.00    -0.497 OA
ATOM     23  C   UNL A   1      40.454  21.055  26.808  1.00  0.00     0.278 C 
ENDBRANCH  17  22
ENDBRANCH  11  16
BRANCH  15  24
ATOM     24  C   UNL A   1      30.679  24.996  26.147  1.00  0.00     0.102 C 
ATOM     25  N   UNL A   1      29.540  25.233  26.222  1.00  0.00    -0.192 NA
ENDBRANCH  15  24
ENDBRANCH   9  10
ENDBRANCH   7   9
ENDBRANCH   4   7
ENDBRANCH   2   3
ENDBRANCH   1   2
BRANCH   1  26
ATOM     26  C   UNL A   1      33.802  31.812  27.761  1.00  0.00     0.023 C 
BRANCH  26  27
ATOM     27  C   UNL A   1      34.212  33.278  27.689  1.00  0.00     0.116 C 
BRANCH  27  28
ATOM     28  N   UNL A   1      33.293  34.199  28.343  1.00  0.00    -0.352 N 
ATOM     29  C   UNL A   1      33.361  34.696  29.629  1.00  0.00     0.251 C 
ATOM     30  H   UNL A   1      32.531  34.506  27.801  1.00  0.00     0.163 HD
ATOM     31  O   UNL A   1      32.506  35.471  30.047  1.00  0.00    -0.269 OA
BRANCH  29  32
ATOM     32  C   UNL A   1      34.451  34.212  30.508  1.00  0.00     0.039 A 
ATOM     33  C   UNL A   1      34.193  33.154  31.385  1.00  0.00     0.014 A 
ATOM     34  C   UNL A   1      35.753  34.681  30.326  1.00  0.00     0.014 A 
ATOM     35  C   UNL A   1      35.263  32.488  31.990  1.00  0.00     0.010 A 
ATOM     36  C   UNL A   1      36.815  33.949  30.844  1.00  0.00     0.010 A 
ATOM     37  C   UNL A   1      36.584  32.838  31.672  1.00  0.00    -0.014 A 
BRANCH  37  38
ATOM     38  C   UNL A   1      37.747  32.054  32.171  1.00  0.00     0.031 A 
ATOM     39  C   UNL A   1      38.393  32.432  33.477  1.00  0.00     0.074 A 
ATOM     40  C   UNL A   1      38.291  31.085  31.405  1.00  0.00     0.049 A 
ATOM     41  N   UNL A   1      39.480  31.959  34.029  1.00  0.00    -0.248 NA
ATOM     42  C   UNL A   1      37.754  33.513  34.246  1.00  0.00     0.031 C 
ATOM     43  C   UNL A   1      37.808  30.674  30.084  1.00  0.00     0.029 A 
ATOM     44  N   UNL A   1      39.392  30.289  31.612  1.00  0.00    -0.354 N 
ATOM     45  C   UNL A   1      39.677  32.713  35.180  1.00  0.00     0.074 A 
ATOM     46  C   UNL A   1      38.625  33.702  35.225  1.00  0.00     0.031 C 
ATOM     47  C   UNL A   1      38.602  29.702  29.604  1.00  0.00     0.029 A 
ATOM     48  C   UNL A   1      39.675  29.446  30.560  1.00  0.00     0.049 A 
ATOM     49  H   UNL A   1      39.930  30.318  32.436  1.00  0.00     0.167 HD
ATOM     50  C   UNL A   1      40.631  32.576  36.131  1.00  0.00     0.034 A 
ATOM     51  C   UNL A   1      40.690  28.577  30.377  1.00  0.00     0.034 A 
ATOM     52  C   UNL A   1      41.650  31.565  36.103  1.00  0.00     0.049 A 
ATOM     53  C   UNL A   1      41.719  28.421  31.465  1.00  0.00     0.074 A 
ATOM     54  C   UNL A   1      42.611  31.287  37.058  1.00  0.00     0.029 A 
ATOM     55  N   UNL A   1      41.847  30.671  35.063  1.00  0.00    -0.354 N 
ATOM     56  N   UNL A   1      41.805  29.047  32.615  1.00  0.00    -0.248 NA
ATOM     57  C   UNL A   1      42.771  27.416  31.250  1.00  0.00     0.031 C 
ATOM     58  C   UNL A   1      43.412  30.246  36.579  1.00  0.00     0.029 A 
ATOM     59  C   UNL A   1      42.920  29.844  35.347  1.00  0.00     0.049 A 
ATOM     60  H   UNL A   1      41.304  30.629  34.243  1.00  0.00     0.167 HD
ATOM     61  C   UNL A   1      42.888  28.481  33.277  1.00  0.00     0.074 A 
ATOM     62  C   UNL A   1      43.421  27.454  32.406  1.00  0.00     0.031 C 
ATOM     63  C   UNL A   1      43.400  28.787  34.494  1.00  0.00     0.034 A 
BRANCH  50  64
ATOM     64  C   UNL A   1      40.590  33.523  37.304  1.00  0.00     0.023 A 
ATOM     65  C   UNL A   1      41.399  34.677  37.302  1.00  0.00     0.012 A 
ATOM     66  C   UNL A   1      39.720  33.292  38.386  1.00  0.00     0.148 A 
ATOM     67  C   UNL A   1      41.375  35.565  38.376  1.00  0.00     0.002 A 
ATOM     68  C   UNL A   1      39.663  34.208  39.429  1.00  0.00     0.091 A 
ATOM     69  F   UNL A   1      38.974  32.178  38.382  1.00  0.00    -0.205 F 
ATOM     70  C   UNL A   1      40.500  35.336  39.434  1.00  0.00     0.022 A 
BRANCH  68  71
ATOM     71  S   UNL A   1      38.510  34.050  40.797  1.00  0.00     0.127 S 
ATOM     72  O   UNL A   1      39.301  33.291  41.764  1.00  0.00    -0.237 OA
ATOM     73  O   UNL A   1      38.275  35.447  41.163  1.00  0.00    -0.237 OA
ATOM     74  O   UNL A   1      37.344  33.357  40.264  1.00  0.00    -0.744 OA
ENDBRANCH  68  71
ENDBRANCH  50  64
BRANCH  51  75
ATOM     75  C   UNL A   1      40.757  27.746  29.139  1.00  0.00     0.023 A 
ATOM     76  C   UNL A   1      39.910  26.628  29.007  1.00  0.00     0.012 A 
ATOM     77  C   UNL A   1      41.642  28.063  28.091  1.00  0.00     0.148 A 
ATOM     78  C   UNL A   1      39.970  25.819  27.870  1.00  0.00     0.002 A 
ATOM     79  C   UNL A   1      41.656  27.286  26.937  1.00  0.00     0.091 A 
ATOM     80  F   UNL A   1      42.446  29.125  28.239  1.00  0.00    -0.205 F 
ATOM     81  C   UNL A   1      40.835  26.153  26.833  1.00  0.00     0.022 A 
BRANCH  79  82
ATOM     82  S   UNL A   1      42.643  27.713  25.498  1.00  0.00     0.127 S 
ATOM     83  O   UNL A   1      42.410  26.566  24.625  1.00  0.00    -0.237 OA
ATOM     84  O   UNL A   1      42.013  28.960  25.062  1.00  0.00    -0.237 OA
ATOM     85  O   UNL A   1      44.007  27.867  25.988  1.00  0.00    -0.744 OA
ENDBRANCH  79  82
ENDBRANCH  51  75
BRANCH  63  86
ATOM     86  C   UNL A   1      44.555  27.965  35.001  1.00  0.00     0.023 A 
ATOM     87  C   UNL A   1      45.872  28.452  34.905  1.00  0.00     0.012 A 
ATOM     88  C   UNL A   1      44.314  26.743  35.661  1.00  0.00     0.148 A 
ATOM     89  C   UNL A   1      46.935  27.721  35.433  1.00  0.00     0.002 A 
ATOM     90  C   UNL A   1      45.370  26.048  36.233  1.00  0.00     0.091 A 
ATOM     91  F   UNL A   1      43.053  26.290  35.725  1.00  0.00    -0.205 F 
ATOM     92  C   UNL A   1      46.684  26.528  36.108  1.00  0.00     0.022 A 
BRANCH  90  93
ATOM     93  S   UNL A   1      45.129  24.561  37.211  1.00  0.00     0.127 S 
ATOM     94  O   UNL A   1      44.475  23.675  36.248  1.00  0.00    -0.237 OA
ATOM     95  O   UNL A   1      46.503  24.188  37.548  1.00  0.00    -0.237 OA
ATOM     96  O   UNL A   1      44.311  24.954  38.349  1.00  0.00    -0.744 OA
ENDBRANCH  90  93
ENDBRANCH  63  86
ENDBRANCH  37  38
ENDBRANCH  29  32
ENDBRANCH  27  28
ENDBRANCH  26  27
ENDBRANCH   1  26
TORSDOF 19
ENDMDL
MODEL 2
REMARK VINA RESULT:     -10.4      2.213      3.102
REMARK SMILES COc1ccc(-c2ccc(C#N)c(S[C@@H](C)C(=O)NCCCCNC(=O)c3ccc(-c4c5nc(c(-c6cccc(S(=O)(=O)[O-])c6F)c6ccc([nH]6)c(-c6cccc(S(=O)(=O)[O-])c6F)c6nc(c(-c7cccc(S(=O)(=O)[O-])c7F)c7ccc4[nH]7)C=C6)C=C5)cc3)n2)cc1
REMARK SMILES IDX 21 1 20 2 19 3 17 4 18 5 15 7 16 8 14 9 13 10 7 11 8 12
REMARK SMILES IDX 90 13 9 14 10 15 6 16 3 17 4 18 92 19 5 20 91 21 2 22 1 23
REMARK SMILES IDX 11 24 12 25 22 26 23 27 24 28 25 29 26 31 27 32 28 33 89 34
REMARK SMILES IDX 29 35 88 36 30 37 31 38 32 39 82 40 33 41 87 42 81 43 83 44
REMARK SMILES IDX 34 45 86 46 80 47 79 48 35 50 67 51 47 52 66 53 48 54 51 55
REMARK SMILES IDX 65 56 84 57 49 58 50 59 64 61 85 62 52 63 36 64 37 65 45 66
REMARK SMILES IDX 38 67 40 68 46 69 39 70 41 71 42 72 43 73 44 74 68 75 69 76
REMARK SMILES IDX 77 77 70 78 72 79 78 80 71 81 73 82 74 83 75 84 76 85 53 86
REMARK SMILES IDX 54 87 62 88 55 89 57 90 63 91 56 92 58 93 59 94 60 95 61 96
REMARK H PARENT 19 6 24 30 83 49 51 60
REMARK Flexibility Score: inf
ROOT
ATOM      1  C   UNL A   1      34.410  32.452  28.921  1.00  0.00     0.023 C 
ENDROOT
BRANCH   1   2
ATOM      2  C   UNL A   1      34.878  31.530  27.796  1.00  0.00     0.116 C 
BRANCH   2   3
ATOM      3  N   UNL A   1      34.337  30.201  27.887  1.00  0.00    -0.355 N 
ATOM      4  C   UNL A   1      33.601  29.454  27.036  1.00  0.00     0.233 C 
ATOM      5  O   UNL A   1      33.649  28.232  27.249  1.00  0.00    -0.274 OA
ATOM      6  H   UNL A   1      34.545  29.746  28.735  1.00  0.00     0.163 HD
BRANCH   4   7
ATOM      7  C   UNL A   1      32.780  29.947  25.843  1.00  0.00     0.139 C 
ATOM      8  C   UNL A   1      31.602  30.853  26.169  1.00  0.00     0.030 C 
BRANCH   7   9
ATOM      9  S   UNL A   1      32.743  29.019  24.274  1.00  0.00    -0.092 SA
BRANCH   9  10
ATOM     10  C   UNL A   1      31.262  28.081  24.004  1.00  0.00     0.115 A 
ATOM     11  C   UNL A   1      30.517  25.851  24.314  1.00  0.00     0.072 A 
ATOM     12  C   UNL A   1      29.236  26.189  23.912  1.00  0.00     0.030 A 
ATOM     13  N   UNL A   1      31.494  26.787  24.392  1.00  0.00    -0.240 NA
ATOM     14  C   UNL A   1      28.996  27.479  23.470  1.00  0.00     0.024 A 
ATOM     15  C   UNL A   1      30.024  28.435  23.468  1.00  0.00     0.084 A 
BRANCH  11  16
ATOM     16  C   UNL A   1      30.893  24.452  24.576  1.00  0.00     0.000 A 
ATOM     17  C   UNL A   1      31.701  21.771  24.991  1.00  0.00     0.118 A 
ATOM     18  C   UNL A   1      31.074  22.488  26.012  1.00  0.00     0.047 A 
ATOM     19  C   UNL A   1      31.890  22.371  23.753  1.00  0.00     0.047 A 
ATOM     20  C   UNL A   1      30.688  23.823  25.813  1.00  0.00     0.014 A 
ATOM     21  C   UNL A   1      31.500  23.696  23.555  1.00  0.00     0.014 A 
BRANCH  17  22
ATOM     22  O   UNL A   1      32.068  20.484  25.276  1.00  0.00    -0.497 OA
ATOM     23  C   UNL A   1      32.478  19.731  24.135  1.00  0.00     0.278 C 
ENDBRANCH  17  22
ENDBRANCH  11  16
BRANCH  15  24
ATOM     24  C   UNL A   1      29.660  29.710  22.956  1.00  0.00     0.102 C 
ATOM     25  N   UNL A   1      29.420  30.723  22.432  1.00  0.00    -0.192 NA
ENDBRANCH  15  24
ENDBRANCH   9  10
ENDBRANCH   7   9
ENDBRANCH   4   7
ENDBRANCH   2   3
ENDBRANCH   1   2
BRANCH   1  26
ATOM     26  C   UNL A   1      33.627  33.671  28.437  1.00  0.00     0.023 C 
BRANCH  26  27
ATOM     27  C   UNL A   1      34.012  35.005  29.063  1.00  0.00     0.116 C 
BRANCH  27  28
ATOM     28  N   UNL A   1      32.975  35.613  29.885  1.00  0.00    -0.352 N 
ATOM     29  C   UNL A   1      32.904  35.662  31.263  1.00  0.00     0.251 C 
ATOM     30  H   UNL A   1      32.235  36.042  29.399  1.00  0.00     0.163 HD
ATOM     31  O   UNL A   1      31.960  36.213  31.822  1.00  0.00    -0.269 OA
BRANCH  29  32
ATOM     32  C   UNL A   1      33.957  34.971  32.042  1.00  0.00     0.039 A 
ATOM     33  C   UNL A   1      33.789  33.620  32.357  1.00  0.00     0.014 A 
ATOM     34  C   UNL A   1      35.173  35.612  32.289  1.00  0.00     0.014 A 
ATOM     35  C   UNL A   1      34.884  32.881  32.814  1.00  0.00     0.010 A 
ATOM     36  C   UNL A   1      36.281  34.849  32.639  1.00  0.00     0.010 A 
ATOM     37  C   UNL A   1      36.153  33.473  32.894  1.00  0.00    -0.014 A 
BRANCH  37  38
ATOM     38  C   UNL A   1      37.371  32.683  33.223  1.00  0.00     0.031 A 
ATOM     39  C   UNL A   1      38.080  32.918  34.529  1.00  0.00     0.074 A 
ATOM     40  C   UNL A   1      37.903  31.844  32.308  1.00  0.00     0.049 A 
ATOM     41  N   UNL A   1      39.213  32.426  34.955  1.00  0.00    -0.248 NA
ATOM     42  C   UNL A   1      37.450  33.864  35.466  1.00  0.00     0.031 C 
ATOM     43  C   UNL A   1      37.357  31.585  30.973  1.00  0.00     0.029 A 
ATOM     44  N   UNL A   1      39.042  31.075  32.350  1.00  0.00    -0.354 N 
ATOM     45  C   UNL A   1      39.452  33.034  36.182  1.00  0.00     0.074 A 
ATOM     46  C   UNL A   1      38.370  33.963  36.413  1.00  0.00     0.031 C 
ATOM     47  C   UNL A   1      38.155  30.717  30.328  1.00  0.00     0.029 A 
ATOM     48  C   UNL A   1      39.291  30.388  31.183  1.00  0.00     0.049 A 
ATOM     49  H   UNL A   1      39.627  31.023  33.140  1.00  0.00     0.167 HD
ATOM     50  C   UNL A   1      40.466  32.817  37.053  1.00  0.00     0.034 A 
ATOM     51  C   UNL A   1      40.323  29.593  30.834  1.00  0.00     0.034 A 
ATOM     52  C   UNL A   1      41.516  31.863  36.839  1.00  0.00     0.049 A 
ATOM     53  C   UNL A   1      41.420  29.344  31.834  1.00  0.00     0.074 A 
ATOM     54  C   UNL A   1      42.542  31.506  37.695  1.00  0.00     0.029 A 
ATOM     55  N   UNL A   1      41.683  31.118  35.682  1.00  0.00    -0.354 N 
ATOM     56  N   UNL A   1      41.553  29.821  33.049  1.00  0.00    -0.248 NA
ATOM     57  C   UNL A   1      42.493  28.421  31.433  1.00  0.00     0.031 C 
ATOM     58  C   UNL A   1      43.349  30.571  37.042  1.00  0.00     0.029 A 
ATOM     59  C   UNL A   1      42.799  30.309  35.797  1.00  0.00     0.049 A 
ATOM     60  H   UNL A   1      41.093  31.158  34.894  1.00  0.00     0.167 HD
ATOM     61  C   UNL A   1      42.693  29.222  33.572  1.00  0.00     0.074 A 
ATOM     62  C   UNL A   1      43.208  28.339  32.547  1.00  0.00     0.031 C 
ATOM     63  C   UNL A   1      43.264  29.391  34.789  1.00  0.00     0.034 A 
BRANCH  50  64
ATOM     64  C   UNL A   1      40.461  33.603  38.340  1.00  0.00     0.023 A 
ATOM     65  C   UNL A   1      41.299  34.729  38.477  1.00  0.00     0.012 A 
ATOM     66  C   UNL A   1      39.597  33.254  39.395  1.00  0.00     0.148 A 
ATOM     67  C   UNL A   1      41.309  35.469  39.658  1.00  0.00     0.002 A 
ATOM     68  C   UNL A   1      39.574  34.028  40.549  1.00  0.00     0.091 A 
ATOM     69  F   UNL A   1      38.822  32.169  39.256  1.00  0.00    -0.205 F 
ATOM     70  C   UNL A   1      40.439  35.125  40.689  1.00  0.00     0.022 A 
BRANCH  68  71
ATOM     71  S   UNL A   1      38.431  33.720  41.900  1.00  0.00     0.127 S 
ATOM     72  O   UNL A   1      38.859  32.397  42.352  1.00  0.00    -0.237 OA
ATOM     73  O   UNL A   1      38.747  34.811  42.822  1.00  0.00    -0.237 OA
ATOM     74  O   UNL A   1      37.096  33.779  41.321  1.00  0.00    -0.744 OA
ENDBRANCH  68  71
ENDBRANCH  50  64
BRANCH  51  75
ATOM     75  C   UNL A   1      40.346  28.931  29.496  1.00  0.00     0.023 A 
ATOM     76  C   UNL A   1      40.723  29.675  28.360  1.00  0.00     0.012 A 
ATOM     77  C   UNL A   1      40.009  27.573  29.344  1.00  0.00     0.148 A 
ATOM     78  C   UNL A   1      40.729  29.088  27.094  1.00  0.00     0.002 A 
ATOM     79  C   UNL A   1      40.071  26.980  28.087  1.00  0.00     0.091 A 
ATOM     80  F   UNL A   1      39.643  26.884  30.434  1.00  0.00    -0.205 F 
ATOM     81  C   UNL A   1      40.412  27.740  26.958  1.00  0.00     0.022 A 
BRANCH  79  82
ATOM     82  S   UNL A   1      39.806  25.220  27.837  1.00  0.00     0.127 S 
ATOM     83  O   UNL A   1      40.984  24.646  28.480  1.00  0.00    -0.237 OA
ATOM     84  O   UNL A   1      38.546  25.003  28.549  1.00  0.00    -0.237 OA
ATOM     85  O   UNL A   1      39.721  25.037  26.393  1.00  0.00    -0.744 OA
ENDBRANCH  79  82
ENDBRANCH  51  75
BRANCH  63  86
ATOM     86  C   UNL A   1      44.477  28.561  35.121  1.00  0.00     0.023 A 
ATOM     87  C   UNL A   1      45.770  29.074  34.910  1.00  0.00     0.012 A 
ATOM     88  C   UNL A   1      44.321  27.302  35.734  1.00  0.00     0.148 A 
ATOM     89  C   UNL A   1      46.892  28.333  35.278  1.00  0.00     0.002 A 
ATOM     90  C   UNL A   1      45.440  26.593  36.148  1.00  0.00     0.091 A 
ATOM     91  F   UNL A   1      43.079  26.825  35.909  1.00  0.00    -0.205 F 
ATOM     92  C   UNL A   1      46.727  27.101  35.909  1.00  0.00     0.022 A 
BRANCH  90  93
ATOM     93  S   UNL A   1      45.322  25.051  37.061  1.00  0.00     0.127 S 
ATOM     94  O   UNL A   1      44.632  24.190  36.102  1.00  0.00    -0.237 OA
ATOM     95  O   UNL A   1      46.729  24.716  37.281  1.00  0.00    -0.237 OA
ATOM     96  O   UNL A   1      44.575  25.356  38.273  1.00  0.00    -0.744 OA
ENDBRANCH  90  93
ENDBRANCH  63  86
ENDBRANCH  37  38
ENDBRANCH  29  32
ENDBRANCH  27  28
ENDBRANCH  26  27
ENDBRANCH   1  26
TORSDOF 19
ENDMDL
MODEL 3
REMARK VINA RESULT:     -10.3      3.438      4.681
REMARK SMILES COc1ccc(-c2ccc(C#N)c(S[C@@H](C)C(=O)NCCCCNC(=O)c3ccc(-c4c5nc(c(-c6cccc(S(=O)(=O)[O-])c6F)c6ccc([nH]6)c(-c6cccc(S(=O)(=O)[O-])c6F)c6nc(c(-c7cccc(S(=O)(=O)[O-])c7F)c7ccc4[nH]7)C=C6)C=C5)cc3)n2)cc1
REMARK SMILES IDX 21 1 20 2 19 3 17 4 18 5 15 7 16 8 14 9 13 10 7 11 8 12
REMARK SMILES IDX 90 13 9 14 10 15 6 16 3 17 4 18 92 19 5 20 91 21 2 22 1 23
REMARK SMILES IDX 11 24 12 25 22 26 23 27 24 28 25 29 26 31 27 32 28 33 89 34
REMARK SMILES IDX 29 35 88 36 30 37 31 38 32 39 82 40 33 41 87 42 81 43 83 44
REMARK SMILES IDX 34 45 86 46 80 47 79 48 35 50 67 51 47 52 66 53 48 54 51 55
REMARK SMILES IDX 65 56 84 57 49 58 50 59 64 61 85 62 52 63 36 64 37 65 45 66
REMARK SMILES IDX 38 67 40 68 46 69 39 70 41 71 42 72 43 73 44 74 68 75 69 76
REMARK SMILES IDX 77 77 70 78 72 79 78 80 71 81 73 82 74 83 75 84 76 85 53 86
REMARK SMILES IDX 54 87 62 88 55 89 57 90 63 91 56 92 58 93 59 94 60 95 61 96
REMARK H PARENT 19 6 24 30 83 49 51 60
REMARK Flexibility Score: inf
ROOT
ATOM      1  C   UNL A   1      34.185  28.284  26.808  1.00  0.00     0.023 C 
ENDROOT
BRANCH   1   2
ATOM      2  C   UNL A   1      33.536  27.439  25.713  1.00  0.00     0.116 C 
BRANCH   2   3
ATOM      3  N   UNL A   1      32.561  28.160  24.940  1.00  0.00    -0.355 N 
ATOM      4  C   UNL A   1      31.264  27.919  24.651  1.00  0.00     0.233 C 
ATOM      5  O   UNL A   1      30.617  28.923  24.310  1.00  0.00    -0.274 OA
ATOM      6  H   UNL A   1      32.906  28.993  24.544  1.00  0.00     0.163 HD
BRANCH   4   7
ATOM      7  C   UNL A   1      30.526  26.583  24.749  1.00  0.00     0.139 C 
ATOM      8  C   UNL A   1      30.255  26.068  26.155  1.00  0.00     0.030 C 
BRANCH   7   9
ATOM      9  S   UNL A   1      30.580  25.372  23.386  1.00  0.00    -0.092 SA
BRANCH   9  10
ATOM     10  C   UNL A   1      32.157  24.598  23.147  1.00  0.00     0.115 A 
ATOM     11  C   UNL A   1      33.124  22.454  23.455  1.00  0.00     0.072 A 
ATOM     12  C   UNL A   1      34.313  22.872  22.882  1.00  0.00     0.030 A 
ATOM     13  N   UNL A   1      32.062  23.291  23.549  1.00  0.00    -0.240 NA
ATOM     14  C   UNL A   1      34.443  24.201  22.515  1.00  0.00     0.024 A 
ATOM     15  C   UNL A   1      33.376  25.096  22.686  1.00  0.00     0.084 A 
BRANCH  11  16
ATOM     16  C   UNL A   1      33.000  21.123  24.073  1.00  0.00     0.000 A 
ATOM     17  C   UNL A   1      32.760  18.619  25.371  1.00  0.00     0.118 A 
ATOM     18  C   UNL A   1      32.308  18.783  24.061  1.00  0.00     0.047 A 
ATOM     19  C   UNL A   1      33.367  19.686  26.022  1.00  0.00     0.047 A 
ATOM     20  C   UNL A   1      32.411  20.029  23.421  1.00  0.00     0.014 A 
ATOM     21  C   UNL A   1      33.474  20.921  25.383  1.00  0.00     0.014 A 
BRANCH  17  22
ATOM     22  O   UNL A   1      32.599  17.380  25.929  1.00  0.00    -0.497 OA
ATOM     23  C   UNL A   1      33.253  16.332  25.213  1.00  0.00     0.278 C 
ENDBRANCH  17  22
ENDBRANCH  11  16
BRANCH  15  24
ATOM     24  C   UNL A   1      33.648  26.438  22.306  1.00  0.00     0.102 C 
ATOM     25  N   UNL A   1      33.771  27.532  21.923  1.00  0.00    -0.192 NA
ENDBRANCH  15  24
ENDBRANCH   9  10
ENDBRANCH   7   9
ENDBRANCH   4   7
ENDBRANCH   2   3
ENDBRANCH   1   2
BRANCH   1  26
ATOM     26  C   UNL A   1      33.346  29.484  27.242  1.00  0.00     0.023 C 
BRANCH  26  27
ATOM     27  C   UNL A   1      33.965  30.855  27.002  1.00  0.00     0.116 C 
BRANCH  27  28
ATOM     28  N   UNL A   1      33.872  31.770  28.130  1.00  0.00    -0.352 N 
ATOM     29  C   UNL A   1      34.779  31.948  29.156  1.00  0.00     0.251 C 
ATOM     30  H   UNL A   1      33.063  32.331  28.167  1.00  0.00     0.163 HD
ATOM     31  O   UNL A   1      34.563  32.763  30.048  1.00  0.00    -0.269 OA
BRANCH  29  32
ATOM     32  C   UNL A   1      35.978  31.080  29.187  1.00  0.00     0.039 A 
ATOM     33  C   UNL A   1      37.195  31.591  28.726  1.00  0.00     0.014 A 
ATOM     34  C   UNL A   1      35.927  29.845  29.836  1.00  0.00     0.014 A 
ATOM     35  C   UNL A   1      38.380  30.913  29.024  1.00  0.00     0.010 A 
ATOM     36  C   UNL A   1      37.114  29.233  30.221  1.00  0.00     0.010 A 
ATOM     37  C   UNL A   1      38.355  29.765  29.831  1.00  0.00    -0.014 A 
BRANCH  37  38
ATOM     38  C   UNL A   1      39.604  29.106  30.301  1.00  0.00     0.031 A 
ATOM     39  C   UNL A   1      40.308  29.633  31.522  1.00  0.00     0.074 A 
ATOM     40  C   UNL A   1      40.165  28.118  29.573  1.00  0.00     0.049 A 
ATOM     41  N   UNL A   1      41.462  29.282  32.028  1.00  0.00    -0.248 NA
ATOM     42  C   UNL A   1      39.645  30.726  32.253  1.00  0.00     0.031 C 
ATOM     43  C   UNL A   1      39.625  27.569  28.326  1.00  0.00     0.029 A 
ATOM     44  N   UNL A   1      41.334  27.418  29.758  1.00  0.00    -0.354 N 
ATOM     45  C   UNL A   1      41.681  30.139  33.100  1.00  0.00     0.074 A 
ATOM     46  C   UNL A   1      40.564  31.054  33.147  1.00  0.00     0.031 C 
ATOM     47  C   UNL A   1      40.454  26.618  27.864  1.00  0.00     0.029 A 
ATOM     48  C   UNL A   1      41.606  26.515  28.755  1.00  0.00     0.049 A 
ATOM     49  H   UNL A   1      41.924  27.552  30.535  1.00  0.00     0.167 HD
ATOM     50  C   UNL A   1      42.706  30.146  33.985  1.00  0.00     0.034 A 
ATOM     51  C   UNL A   1      42.667  25.705  28.565  1.00  0.00     0.034 A 
ATOM     52  C   UNL A   1      43.793  29.208  33.959  1.00  0.00     0.049 A 
ATOM     53  C   UNL A   1      43.777  25.709  29.582  1.00  0.00     0.074 A 
ATOM     54  C   UNL A   1      44.835  29.075  34.858  1.00  0.00     0.029 A 
ATOM     55  N   UNL A   1      43.984  28.248  32.978  1.00  0.00    -0.354 N 
ATOM     56  N   UNL A   1      43.896  26.432  30.670  1.00  0.00    -0.248 NA
ATOM     57  C   UNL A   1      44.884  24.765  29.367  1.00  0.00     0.031 C 
ATOM     58  C   UNL A   1      45.676  28.056  34.402  1.00  0.00     0.029 A 
ATOM     59  C   UNL A   1      45.132  27.523  33.244  1.00  0.00     0.049 A 
ATOM     60  H   UNL A   1      43.390  28.102  32.206  1.00  0.00     0.167 HD
ATOM     61  C   UNL A   1      45.061  25.997  31.292  1.00  0.00     0.074 A 
ATOM     62  C   UNL A   1      45.607  24.942  30.464  1.00  0.00     0.031 C 
ATOM     63  C   UNL A   1      45.630  26.436  32.441  1.00  0.00     0.034 A 
BRANCH  50  64
ATOM     64  C   UNL A   1      42.675  31.179  35.082  1.00  0.00     0.023 A 
ATOM     65  C   UNL A   1      42.095  30.863  36.328  1.00  0.00     0.012 A 
ATOM     66  C   UNL A   1      43.259  32.447  34.895  1.00  0.00     0.148 A 
ATOM     67  C   UNL A   1      42.057  31.804  37.355  1.00  0.00     0.002 A 
ATOM     68  C   UNL A   1      43.263  33.362  35.941  1.00  0.00     0.091 A 
ATOM     69  F   UNL A   1      43.787  32.738  33.698  1.00  0.00    -0.205 F 
ATOM     70  C   UNL A   1      42.651  33.049  37.165  1.00  0.00     0.022 A 
BRANCH  68  71
ATOM     71  S   UNL A   1      44.076  34.960  35.827  1.00  0.00     0.127 S 
ATOM     72  O   UNL A   1      43.243  35.645  34.840  1.00  0.00    -0.237 OA
ATOM     73  O   UNL A   1      43.946  35.467  37.193  1.00  0.00    -0.237 OA
ATOM     74  O   UNL A   1      45.444  34.688  35.407  1.00  0.00    -0.744 OA
ENDBRANCH  68  71
ENDBRANCH  50  64
BRANCH  51  75
ATOM     75  C   UNL A   1      42.711  24.783  27.392  1.00  0.00     0.023 A 
ATOM     76  C   UNL A   1      43.302  25.219  26.188  1.00  0.00     0.012 A 
ATOM     77  C   UNL A   1      42.184  23.480  27.463  1.00  0.00     0.148 A 
ATOM     78  C   UNL A   1      43.334  24.386  25.068  1.00  0.00     0.002 A 
ATOM     79  C   UNL A   1      42.271  22.636  26.361  1.00  0.00     0.091 A 
ATOM     80  F   UNL A   1      41.618  23.087  28.612  1.00  0.00    -0.205 F 
ATOM     81  C   UNL A   1      42.827  23.093  25.157  1.00  0.00     0.022 A 
BRANCH  79  82
ATOM     82  S   UNL A   1      41.761  20.914  26.422  1.00  0.00     0.127 S 
ATOM     83  O   UNL A   1      42.157  20.533  27.775  1.00  0.00    -0.237 OA
ATOM     84  O   UNL A   1      40.318  21.021  26.207  1.00  0.00    -0.237 OA
ATOM     85  O   UNL A   1      42.483  20.251  25.343  1.00  0.00    -0.744 OA
ENDBRANCH  79  82
ENDBRANCH  51  75
BRANCH  63  86
ATOM     86  C   UNL A   1      46.875  25.738  32.922  1.00  0.00     0.023 A 
ATOM     87  C   UNL A   1      48.146  26.239  32.584  1.00  0.00     0.012 A 
ATOM     88  C   UNL A   1      46.772  24.635  33.793  1.00  0.00     0.148 A 
ATOM     89  C   UNL A   1      49.299  25.633  33.083  1.00  0.00     0.002 A 
ATOM     90  C   UNL A   1      47.921  24.072  34.330  1.00  0.00     0.091 A 
ATOM     91  F   UNL A   1      45.551  24.165  34.087  1.00  0.00    -0.205 F 
ATOM     92  C   UNL A   1      49.186  24.560  33.966  1.00  0.00     0.022 A 
BRANCH  90  93
ATOM     93  S   UNL A   1      47.870  22.758  35.554  1.00  0.00     0.127 S 
ATOM     94  O   UNL A   1      46.950  21.808  34.932  1.00  0.00    -0.237 OA
ATOM     95  O   UNL A   1      49.266  22.321  35.595  1.00  0.00    -0.237 OA
ATOM     96  O   UNL A   1      47.391  23.372  36.785  1.00  0.00    -0.744 OA
ENDBRANCH  90  93
ENDBRANCH  63  86
ENDBRANCH  37  38
ENDBRANCH  29  32
ENDBRANCH  27  28
ENDBRANCH  26  27
ENDBRANCH   1  26
TORSDOF 19
ENDMDL
