MODEL 1
REMARK VINA RESULT:     -11.4      0.000      0.000
REMARK SMILES C[C@@H](NC(=O)CCCNC(=O)c1ccco1)C(=O)NCCCCNC(=O)c1ccc(-c2c3nc(c(-c4cccc(S(=O)(=O)[O-])c4F)c4ccc([nH]4)c(-c4cccc(S(=O)(=O)[O-])c4F)c4nc(c(-c5cccc(S(=O)(=O)[O-])c5F)c5ccc2[nH]5)C=C4)C=C3)cc1
REMARK SMILES IDX 20 1 19 2 17 3 18 4 2 6 1 7 3 8 4 9 5 11 6 12 7 13 8 14 9 15
REMARK SMILES IDX 10 16 11 18 12 19 13 20 16 21 14 22 15 23 21 24 22 25 23 26
REMARK SMILES IDX 24 27 25 28 26 30 27 31 28 32 89 33 29 34 88 35 30 36 31 37
REMARK SMILES IDX 32 38 82 39 33 40 87 41 81 42 83 43 34 44 86 45 80 46 79 47
REMARK SMILES IDX 35 49 67 50 47 51 66 52 48 53 51 54 65 55 84 56 49 57 50 58
REMARK SMILES IDX 64 60 85 61 52 62 36 63 37 64 45 65 38 66 40 67 46 68 39 69
REMARK SMILES IDX 41 70 42 71 43 72 44 73 68 74 69 75 77 76 70 77 72 78 78 79
REMARK SMILES IDX 71 80 73 81 74 82 75 83 76 84 53 85 54 86 62 87 55 88 57 89
REMARK SMILES IDX 63 90 56 91 58 92 59 93 60 94 61 95
REMARK H PARENT 19 5 3 10 9 17 24 29 83 48 51 59
REMARK Flexibility Score: inf
ROOT
ATOM      1  C   UNL A   1      32.704  29.132  23.515  1.00  0.00     0.116 C 
ENDROOT
BRANCH   1   2
ATOM      2  N   UNL A   1      33.084  27.785  22.854  1.00  0.00    -0.354 N 
ATOM      3  C   UNL A   1      32.794  26.520  22.401  1.00  0.00     0.242 C 
ATOM      4  O   UNL A   1      33.656  26.191  21.550  1.00  0.00    -0.273 OA
ATOM      5  H   UNL A   1      34.041  27.890  22.648  1.00  0.00     0.163 HD
BRANCH   3   6
ATOM      6  C   UNL A   1      31.698  25.260  22.682  1.00  0.00     0.168 C 
ATOM      7  C   UNL A   1      32.329  23.831  22.861  1.00  0.00     0.041 C 
BRANCH   6   8
ATOM      8  N   UNL A   1      30.488  25.112  23.496  1.00  0.00    -0.345 N 
ATOM      9  C   UNL A   1      30.248  25.651  24.706  1.00  0.00     0.220 C 
ATOM     10  H   UNL A   1      29.770  24.556  23.116  1.00  0.00     0.164 HD
ATOM     11  O   UNL A   1      29.127  25.985  25.050  1.00  0.00    -0.275 OA
BRANCH   9  12
ATOM     12  C   UNL A   1      31.441  25.645  25.582  1.00  0.00     0.102 C 
BRANCH  12  13
ATOM     13  C   UNL A   1      31.392  24.461  26.593  1.00  0.00     0.031 C 
BRANCH  13  14
ATOM     14  C   UNL A   1      30.706  22.999  26.541  1.00  0.00     0.117 C 
BRANCH  14  15
ATOM     15  N   UNL A   1      31.257  21.774  25.925  1.00  0.00    -0.349 N 
ATOM     16  C   UNL A   1      32.360  21.052  25.497  1.00  0.00     0.286 C 
ATOM     17  H   UNL A   1      30.478  21.206  25.727  1.00  0.00     0.163 HD
ATOM     18  O   UNL A   1      32.068  19.931  25.067  1.00  0.00    -0.266 OA
BRANCH  16  19
ATOM     19  C   UNL A   1      33.744  21.448  25.515  1.00  0.00     0.191 A 
ATOM     20  C   UNL A   1      34.610  21.878  26.495  1.00  0.00     0.056 A 
ATOM     21  O   UNL A   1      34.464  21.258  24.347  1.00  0.00    -0.459 OA
ATOM     22  C   UNL A   1      35.889  22.021  25.889  1.00  0.00     0.043 A 
ATOM     23  C   UNL A   1      35.741  21.658  24.572  1.00  0.00     0.196 A 
ENDBRANCH  16  19
ENDBRANCH  14  15
ENDBRANCH  13  14
ENDBRANCH  12  13
ENDBRANCH   9  12
ENDBRANCH   6   8
ENDBRANCH   3   6
ENDBRANCH   1   2
BRANCH   1  24
ATOM     24  C   UNL A   1      31.528  29.176  24.534  1.00  0.00     0.023 C 
BRANCH  24  25
ATOM     25  C   UNL A   1      31.773  29.318  26.043  1.00  0.00     0.023 C 
BRANCH  25  26
ATOM     26  C   UNL A   1      33.013  30.072  26.447  1.00  0.00     0.116 C 
BRANCH  26  27
ATOM     27  N   UNL A   1      32.789  31.400  27.004  1.00  0.00    -0.352 N 
ATOM     28  C   UNL A   1      33.729  32.144  27.703  1.00  0.00     0.251 C 
ATOM     29  H   UNL A   1      31.900  31.801  26.872  1.00  0.00     0.163 HD
ATOM     30  O   UNL A   1      33.476  33.238  28.172  1.00  0.00    -0.269 OA
BRANCH  28  31
ATOM     31  C   UNL A   1      35.053  31.505  27.895  1.00  0.00     0.039 A 
ATOM     32  C   UNL A   1      36.185  32.315  28.006  1.00  0.00     0.014 A 
ATOM     33  C   UNL A   1      35.094  30.157  28.251  1.00  0.00     0.014 A 
ATOM     34  C   UNL A   1      37.346  31.783  28.569  1.00  0.00     0.010 A 
ATOM     35  C   UNL A   1      36.209  29.670  28.917  1.00  0.00     0.010 A 
ATOM     36  C   UNL A   1      37.350  30.473  29.080  1.00  0.00    -0.014 A 
BRANCH  36  37
ATOM     37  C   UNL A   1      38.540  29.918  29.777  1.00  0.00     0.031 A 
ATOM     38  C   UNL A   1      38.896  30.424  31.149  1.00  0.00     0.074 A 
ATOM     39  C   UNL A   1      39.339  29.026  29.157  1.00  0.00     0.049 A 
ATOM     40  N   UNL A   1      39.906  30.099  31.910  1.00  0.00    -0.248 NA
ATOM     41  C   UNL A   1      38.020  31.458  31.727  1.00  0.00     0.031 C 
ATOM     42  C   UNL A   1      39.159  28.526  27.791  1.00  0.00     0.029 A 
ATOM     43  N   UNL A   1      40.480  28.394  29.590  1.00  0.00    -0.354 N 
ATOM     44  C   UNL A   1      39.804  30.908  33.035  1.00  0.00     0.074 A 
ATOM     45  C   UNL A   1      38.672  31.782  32.831  1.00  0.00     0.031 C 
ATOM     46  C   UNL A   1      40.141  27.655  27.507  1.00  0.00     0.029 A 
ATOM     47  C   UNL A   1      41.040  27.555  28.653  1.00  0.00     0.049 A 
ATOM     48  H   UNL A   1      40.862  28.528  30.487  1.00  0.00     0.167 HD
ATOM     49  C   UNL A   1      40.556  30.900  34.160  1.00  0.00     0.034 A 
ATOM     50  C   UNL A   1      42.153  26.795  28.711  1.00  0.00     0.034 A 
ATOM     51  C   UNL A   1      41.657  30.005  34.377  1.00  0.00     0.049 A 
ATOM     52  C   UNL A   1      42.956  26.776  29.985  1.00  0.00     0.074 A 
ATOM     53  C   UNL A   1      42.433  29.856  35.512  1.00  0.00     0.029 A 
ATOM     54  N   UNL A   1      42.145  29.113  33.436  1.00  0.00    -0.354 N 
ATOM     55  N   UNL A   1      42.748  27.433  31.101  1.00  0.00    -0.248 NA
ATOM     56  C   UNL A   1      44.126  25.886  30.023  1.00  0.00     0.031 C 
ATOM     57  C   UNL A   1      43.414  28.897  35.245  1.00  0.00     0.029 A 
ATOM     58  C   UNL A   1      43.221  28.418  33.958  1.00  0.00     0.049 A 
ATOM     59  H   UNL A   1      41.781  28.992  32.530  1.00  0.00     0.167 HD
ATOM     60  C   UNL A   1      43.734  27.009  31.984  1.00  0.00     0.074 A 
ATOM     61  C   UNL A   1      44.528  26.022  31.279  1.00  0.00     0.031 C 
ATOM     62  C   UNL A   1      43.970  27.406  33.258  1.00  0.00     0.034 A 
BRANCH  49  63
ATOM     63  C   UNL A   1      40.176  31.860  35.256  1.00  0.00     0.023 A 
ATOM     64  C   UNL A   1      40.834  33.105  35.356  1.00  0.00     0.012 A 
ATOM     65  C   UNL A   1      39.150  31.548  36.167  1.00  0.00     0.148 A 
ATOM     66  C   UNL A   1      40.509  34.003  36.371  1.00  0.00     0.002 A 
ATOM     67  C   UNL A   1      38.794  32.471  37.144  1.00  0.00     0.091 A 
ATOM     68  F   UNL A   1      38.552  30.351  36.073  1.00  0.00    -0.205 F 
ATOM     69  C   UNL A   1      39.482  33.690  37.257  1.00  0.00     0.022 A 
BRANCH  67  70
ATOM     70  S   UNL A   1      37.430  32.201  38.280  1.00  0.00     0.127 S 
ATOM     71  O   UNL A   1      37.970  32.752  39.522  1.00  0.00    -0.237 OA
ATOM     72  O   UNL A   1      36.365  32.998  37.671  1.00  0.00    -0.237 OA
ATOM     73  O   UNL A   1      37.189  30.766  38.287  1.00  0.00    -0.744 OA
ENDBRANCH  67  70
ENDBRANCH  49  63
BRANCH  50  74
ATOM     74  C   UNL A   1      42.544  25.946  27.548  1.00  0.00     0.023 A 
ATOM     75  C   UNL A   1      43.390  26.471  26.550  1.00  0.00     0.012 A 
ATOM     76  C   UNL A   1      42.097  24.615  27.435  1.00  0.00     0.148 A 
ATOM     77  C   UNL A   1      43.752  25.701  25.444  1.00  0.00     0.002 A 
ATOM     78  C   UNL A   1      42.510  23.835  26.360  1.00  0.00     0.091 A 
ATOM     79  F   UNL A   1      41.286  24.136  28.387  1.00  0.00    -0.205 F 
ATOM     80  C   UNL A   1      43.321  24.381  25.353  1.00  0.00     0.022 A 
BRANCH  78  81
ATOM     81  S   UNL A   1      42.116  22.086  26.232  1.00  0.00     0.127 S 
ATOM     82  O   UNL A   1      40.675  22.121  25.995  1.00  0.00    -0.237 OA
ATOM     83  O   UNL A   1      42.923  21.682  25.080  1.00  0.00    -0.237 OA
ATOM     84  O   UNL A   1      42.535  21.494  27.495  1.00  0.00    -0.744 OA
ENDBRANCH  78  81
ENDBRANCH  50  74
BRANCH  62  85
ATOM     85  C   UNL A   1      45.103  26.747  34.000  1.00  0.00     0.023 A 
ATOM     86  C   UNL A   1      46.369  27.362  34.049  1.00  0.00     0.012 A 
ATOM     87  C   UNL A   1      44.885  25.553  34.719  1.00  0.00     0.148 A 
ATOM     88  C   UNL A   1      47.411  26.782  34.773  1.00  0.00     0.002 A 
ATOM     89  C   UNL A   1      45.911  25.012  35.481  1.00  0.00     0.091 A 
ATOM     90  F   UNL A   1      43.677  24.976  34.646  1.00  0.00    -0.205 F 
ATOM     91  C   UNL A   1      47.178  25.615  35.498  1.00  0.00     0.022 A 
BRANCH  89  92
ATOM     92  S   UNL A   1      45.675  23.570  36.527  1.00  0.00     0.127 S 
ATOM     93  O   UNL A   1      44.670  22.820  35.777  1.00  0.00    -0.237 OA
ATOM     94  O   UNL A   1      47.010  22.969  36.529  1.00  0.00    -0.237 OA
ATOM     95  O   UNL A   1      45.238  24.078  37.820  1.00  0.00    -0.744 OA
ENDBRANCH  89  92
ENDBRANCH  62  85
ENDBRANCH  36  37
ENDBRANCH  28  31
ENDBRANCH  26  27
ENDBRANCH  25  26
ENDBRANCH  24  25
ENDBRANCH   1  24
TORSDOF 20
ENDMDL
MODEL 2
REMARK VINA RESULT:     -11.1      1.771      3.609
REMARK SMILES C[C@@H](NC(=O)CCCNC(=O)c1ccco1)C(=O)NCCCCNC(=O)c1ccc(-c2c3nc(c(-c4cccc(S(=O)(=O)[O-])c4F)c4ccc([nH]4)c(-c4cccc(S(=O)(=O)[O-])c4F)c4nc(c(-c5cccc(S(=O)(=O)[O-])c5F)c5ccc2[nH]5)C=C4)C=C3)cc1
REMARK SMILES IDX 20 1 19 2 17 3 18 4 2 6 1 7 3 8 4 9 5 11 6 12 7 13 8 14 9 15
REMARK SMILES IDX 10 16 11 18 12 19 13 20 16 21 14 22 15 23 21 24 22 25 23 26
REMARK SMILES IDX 24 27 25 28 26 30 27 31 28 32 89 33 29 34 88 35 30 36 31 37
REMARK SMILES IDX 32 38 82 39 33 40 87 41 81 42 83 43 34 44 86 45 80 46 79 47
REMARK SMILES IDX 35 49 67 50 47 51 66 52 48 53 51 54 65 55 84 56 49 57 50 58
REMARK SMILES IDX 64 60 85 61 52 62 36 63 37 64 45 65 38 66 40 67 46 68 39 69
REMARK SMILES IDX 41 70 42 71 43 72 44 73 68 74 69 75 77 76 70 77 72 78 78 79
REMARK SMILES IDX 71 80 73 81 74 82 75 83 76 84 53 85 54 86 62 87 55 88 57 89
REMARK SMILES IDX 63 90 56 91 58 92 59 93 60 94 61 95
REMARK H PARENT 19 5 3 10 9 17 24 29 83 48 51 59
REMARK Flexibility Score: inf
ROOT
ATOM      1  C   UNL A   1      33.218  26.854  26.000  1.00  0.00     0.116 C 
ENDROOT
BRANCH   1   2
ATOM      2  N   UNL A   1      33.310  25.352  26.363  1.00  0.00    -0.354 N 
ATOM      3  C   UNL A   1      33.275  24.015  26.049  1.00  0.00     0.242 C 
ATOM      4  O   UNL A   1      33.895  23.378  26.937  1.00  0.00    -0.273 OA
ATOM      5  H   UNL A   1      33.488  25.358  27.331  1.00  0.00     0.163 HD
BRANCH   3   6
ATOM      6  C   UNL A   1      32.606  22.967  24.899  1.00  0.00     0.168 C 
ATOM      7  C   UNL A   1      31.075  22.651  25.070  1.00  0.00     0.041 C 
BRANCH   6   8
ATOM      8  N   UNL A   1      32.742  22.811  23.448  1.00  0.00    -0.345 N 
ATOM      9  C   UNL A   1      33.025  23.771  22.548  1.00  0.00     0.220 C 
ATOM     10  H   UNL A   1      32.611  21.902  23.092  1.00  0.00     0.164 HD
ATOM     11  O   UNL A   1      33.670  23.536  21.540  1.00  0.00    -0.275 OA
BRANCH   9  12
ATOM     12  C   UNL A   1      32.354  25.055  22.850  1.00  0.00     0.102 C 
BRANCH  12  13
ATOM     13  C   UNL A   1      33.162  26.259  22.280  1.00  0.00     0.031 C 
BRANCH  13  14
ATOM     14  C   UNL A   1      33.041  27.858  22.481  1.00  0.00     0.117 C 
BRANCH  14  15
ATOM     15  N   UNL A   1      31.895  28.720  22.124  1.00  0.00    -0.349 N 
ATOM     16  C   UNL A   1      30.533  28.969  22.179  1.00  0.00     0.286 C 
ATOM     17  H   UNL A   1      32.277  29.463  21.604  1.00  0.00     0.163 HD
ATOM     18  O   UNL A   1      30.213  30.035  21.641  1.00  0.00    -0.266 OA
BRANCH  16  19
ATOM     19  C   UNL A   1      29.505  28.164  22.785  1.00  0.00     0.191 A 
ATOM     20  C   UNL A   1      29.497  26.977  23.483  1.00  0.00     0.056 A 
ATOM     21  O   UNL A   1      28.230  28.702  22.823  1.00  0.00    -0.459 OA
ATOM     22  C   UNL A   1      28.158  26.749  23.904  1.00  0.00     0.043 A 
ATOM     23  C   UNL A   1      27.418  27.816  23.453  1.00  0.00     0.196 A 
ENDBRANCH  16  19
ENDBRANCH  14  15
ENDBRANCH  13  14
ENDBRANCH  12  13
ENDBRANCH   9  12
ENDBRANCH   6   8
ENDBRANCH   3   6
ENDBRANCH   1   2
BRANCH   1  24
ATOM     24  C   UNL A   1      31.893  27.624  26.269  1.00  0.00     0.023 C 
BRANCH  24  25
ATOM     25  C   UNL A   1      31.880  28.982  26.986  1.00  0.00     0.023 C 
BRANCH  25  26
ATOM     26  C   UNL A   1      32.709  30.072  26.360  1.00  0.00     0.116 C 
BRANCH  26  27
ATOM     27  N   UNL A   1      32.451  31.420  26.852  1.00  0.00    -0.352 N 
ATOM     28  C   UNL A   1      33.370  32.216  27.522  1.00  0.00     0.251 C 
ATOM     29  H   UNL A   1      31.554  31.795  26.696  1.00  0.00     0.163 HD
ATOM     30  O   UNL A   1      33.090  33.325  27.938  1.00  0.00    -0.269 OA
BRANCH  28  31
ATOM     31  C   UNL A   1      34.706  31.617  27.752  1.00  0.00     0.039 A 
ATOM     32  C   UNL A   1      35.810  32.460  27.892  1.00  0.00     0.014 A 
ATOM     33  C   UNL A   1      34.776  30.271  28.113  1.00  0.00     0.014 A 
ATOM     34  C   UNL A   1      36.970  31.963  28.488  1.00  0.00     0.010 A 
ATOM     35  C   UNL A   1      35.886  29.818  28.811  1.00  0.00     0.010 A 
ATOM     36  C   UNL A   1      36.998  30.654  29.003  1.00  0.00    -0.014 A 
BRANCH  36  37
ATOM     37  C   UNL A   1      38.184  30.135  29.733  1.00  0.00     0.031 A 
ATOM     38  C   UNL A   1      38.434  30.582  31.148  1.00  0.00     0.074 A 
ATOM     39  C   UNL A   1      39.071  29.332  29.112  1.00  0.00     0.049 A 
ATOM     40  N   UNL A   1      39.422  30.279  31.946  1.00  0.00    -0.248 NA
ATOM     41  C   UNL A   1      37.463  31.526  31.732  1.00  0.00     0.031 C 
ATOM     42  C   UNL A   1      38.995  28.900  27.713  1.00  0.00     0.029 A 
ATOM     43  N   UNL A   1      40.226  28.748  29.573  1.00  0.00    -0.354 N 
ATOM     44  C   UNL A   1      39.210  31.014  33.106  1.00  0.00     0.074 A 
ATOM     45  C   UNL A   1      38.035  31.826  32.886  1.00  0.00     0.031 C 
ATOM     46  C   UNL A   1      40.045  28.110  27.437  1.00  0.00     0.029 A 
ATOM     47  C   UNL A   1      40.888  28.001  28.625  1.00  0.00     0.049 A 
ATOM     48  H   UNL A   1      40.552  28.854  30.495  1.00  0.00     0.167 HD
ATOM     49  C   UNL A   1      39.901  30.988  34.269  1.00  0.00     0.034 A 
ATOM     50  C   UNL A   1      42.044  27.310  28.703  1.00  0.00     0.034 A 
ATOM     51  C   UNL A   1      41.045  30.152  34.498  1.00  0.00     0.049 A 
ATOM     52  C   UNL A   1      42.779  27.268  30.017  1.00  0.00     0.074 A 
ATOM     53  C   UNL A   1      41.769  29.987  35.665  1.00  0.00     0.029 A 
ATOM     54  N   UNL A   1      41.639  29.348  33.539  1.00  0.00    -0.354 N 
ATOM     55  N   UNL A   1      42.471  27.845  31.154  1.00  0.00    -0.248 NA
ATOM     56  C   UNL A   1      44.001  26.451  30.072  1.00  0.00     0.031 C 
ATOM     57  C   UNL A   1      42.823  29.109  35.401  1.00  0.00     0.029 A 
ATOM     58  C   UNL A   1      42.730  28.693  34.081  1.00  0.00     0.049 A 
ATOM     59  H   UNL A   1      41.331  29.256  32.608  1.00  0.00     0.167 HD
ATOM     60  C   UNL A   1      43.436  27.433  32.066  1.00  0.00     0.074 A 
ATOM     61  C   UNL A   1      44.327  26.540  31.354  1.00  0.00     0.031 C 
ATOM     62  C   UNL A   1      43.578  27.770  33.371  1.00  0.00     0.034 A 
BRANCH  49  63
ATOM     63  C   UNL A   1      39.403  31.859  35.392  1.00  0.00     0.023 A 
ATOM     64  C   UNL A   1      38.458  31.349  36.307  1.00  0.00     0.012 A 
ATOM     65  C   UNL A   1      39.890  33.168  35.563  1.00  0.00     0.148 A 
ATOM     66  C   UNL A   1      37.971  32.141  37.344  1.00  0.00     0.002 A 
ATOM     67  C   UNL A   1      39.441  33.935  36.631  1.00  0.00     0.091 A 
ATOM     68  F   UNL A   1      40.770  33.645  34.669  1.00  0.00    -0.205 F 
ATOM     69  C   UNL A   1      38.471  33.429  37.513  1.00  0.00     0.022 A 
BRANCH  67  70
ATOM     70  S   UNL A   1      40.083  35.573  36.986  1.00  0.00     0.127 S 
ATOM     71  O   UNL A   1      39.653  36.319  35.804  1.00  0.00    -0.237 OA
ATOM     72  O   UNL A   1      39.373  35.919  38.217  1.00  0.00    -0.237 OA
ATOM     73  O   UNL A   1      41.523  35.418  37.135  1.00  0.00    -0.744 OA
ENDBRANCH  67  70
ENDBRANCH  49  63
BRANCH  50  74
ATOM     74  C   UNL A   1      42.549  26.555  27.520  1.00  0.00     0.023 A 
ATOM     75  C   UNL A   1      43.337  27.212  26.554  1.00  0.00     0.012 A 
ATOM     76  C   UNL A   1      42.269  25.184  27.356  1.00  0.00     0.148 A 
ATOM     77  C   UNL A   1      43.803  26.530  25.429  1.00  0.00     0.002 A 
ATOM     78  C   UNL A   1      42.786  24.496  26.264  1.00  0.00     0.091 A 
ATOM     79  F   UNL A   1      41.511  24.577  28.279  1.00  0.00    -0.205 F 
ATOM     80  C   UNL A   1      43.537  25.171  25.288  1.00  0.00     0.022 A 
BRANCH  78  81
ATOM     81  S   UNL A   1      42.610  22.718  26.073  1.00  0.00     0.127 S 
ATOM     82  O   UNL A   1      43.239  22.222  27.295  1.00  0.00    -0.237 OA
ATOM     83  O   UNL A   1      41.155  22.566  26.021  1.00  0.00    -0.237 OA
ATOM     84  O   UNL A   1      43.293  22.385  24.831  1.00  0.00    -0.744 OA
ENDBRANCH  78  81
ENDBRANCH  50  74
BRANCH  62  85
ATOM     85  C   UNL A   1      44.712  27.142  34.138  1.00  0.00     0.023 A 
ATOM     86  C   UNL A   1      46.025  27.627  33.983  1.00  0.00     0.012 A 
ATOM     87  C   UNL A   1      44.457  26.121  35.077  1.00  0.00     0.148 A 
ATOM     88  C   UNL A   1      47.073  27.082  34.724  1.00  0.00     0.002 A 
ATOM     89  C   UNL A   1      45.496  25.622  35.850  1.00  0.00     0.091 A 
ATOM     90  F   UNL A   1      43.202  25.664  35.197  1.00  0.00    -0.205 F 
ATOM     91  C   UNL A   1      46.807  26.089  35.665  1.00  0.00     0.022 A 
BRANCH  89  92
ATOM     92  S   UNL A   1      45.231  24.417  37.157  1.00  0.00     0.127 S 
ATOM     93  O   UNL A   1      46.440  24.581  37.961  1.00  0.00    -0.237 OA
ATOM     94  O   UNL A   1      44.006  24.912  37.787  1.00  0.00    -0.237 OA
ATOM     95  O   UNL A   1      45.093  23.128  36.494  1.00  0.00    -0.744 OA
ENDBRANCH  89  92
ENDBRANCH  62  85
ENDBRANCH  36  37
ENDBRANCH  28  31
ENDBRANCH  26  27
ENDBRANCH  25  26
ENDBRANCH  24  25
ENDBRANCH   1  24
TORSDOF 20
ENDMDL
MODEL 3
REMARK VINA RESULT:     -11.1      5.416      8.323
REMARK SMILES C[C@@H](NC(=O)CCCNC(=O)c1ccco1)C(=O)NCCCCNC(=O)c1ccc(-c2c3nc(c(-c4cccc(S(=O)(=O)[O-])c4F)c4ccc([nH]4)c(-c4cccc(S(=O)(=O)[O-])c4F)c4nc(c(-c5cccc(S(=O)(=O)[O-])c5F)c5ccc2[nH]5)C=C4)C=C3)cc1
REMARK SMILES IDX 20 1 19 2 17 3 18 4 2 6 1 7 3 8 4 9 5 11 6 12 7 13 8 14 9 15
REMARK SMILES IDX 10 16 11 18 12 19 13 20 16 21 14 22 15 23 21 24 22 25 23 26
REMARK SMILES IDX 24 27 25 28 26 30 27 31 28 32 89 33 29 34 88 35 30 36 31 37
REMARK SMILES IDX 32 38 82 39 33 40 87 41 81 42 83 43 34 44 86 45 80 46 79 47
REMARK SMILES IDX 35 49 67 50 47 51 66 52 48 53 51 54 65 55 84 56 49 57 50 58
REMARK SMILES IDX 64 60 85 61 52 62 36 63 37 64 45 65 38 66 40 67 46 68 39 69
REMARK SMILES IDX 41 70 42 71 43 72 44 73 68 74 69 75 77 76 70 77 72 78 78 79
REMARK SMILES IDX 71 80 73 81 74 82 75 83 76 84 53 85 54 86 62 87 55 88 57 89
REMARK SMILES IDX 63 90 56 91 58 92 59 93 60 94 61 95
REMARK H PARENT 19 5 3 10 9 17 24 29 83 48 51 59
REMARK Flexibility Score: inf
ROOT
ATOM      1  C   UNL A   1      34.756  22.097  26.803  1.00  0.00     0.116 C 
ENDROOT
BRANCH   1   2
ATOM      2  N   UNL A   1      33.418  22.801  27.135  1.00  0.00    -0.354 N 
ATOM      3  C   UNL A   1      32.331  23.576  26.810  1.00  0.00     0.242 C 
ATOM      4  O   UNL A   1      31.406  23.331  27.623  1.00  0.00    -0.273 OA
ATOM      5  H   UNL A   1      33.265  22.574  28.081  1.00  0.00     0.163 HD
BRANCH   3   6
ATOM      6  C   UNL A   1      31.882  24.791  25.719  1.00  0.00     0.168 C 
ATOM      7  C   UNL A   1      31.770  26.241  26.317  1.00  0.00     0.041 C 
BRANCH   6   8
ATOM      8  N   UNL A   1      32.235  25.110  24.332  1.00  0.00    -0.345 N 
ATOM      9  C   UNL A   1      31.591  24.719  23.217  1.00  0.00     0.220 C 
ATOM     10  H   UNL A   1      33.031  25.674  24.202  1.00  0.00     0.164 HD
ATOM     11  O   UNL A   1      31.543  25.423  22.222  1.00  0.00    -0.275 OA
BRANCH   9  12
ATOM     12  C   UNL A   1      31.100  23.326  23.298  1.00  0.00     0.102 C 
BRANCH  12  13
ATOM     13  C   UNL A   1      32.279  22.308  23.225  1.00  0.00     0.031 C 
BRANCH  13  14
ATOM     14  C   UNL A   1      32.477  20.812  23.803  1.00  0.00     0.117 C 
BRANCH  14  15
ATOM     15  N   UNL A   1      32.329  19.542  23.064  1.00  0.00    -0.349 N 
ATOM     16  C   UNL A   1      32.616  18.190  22.954  1.00  0.00     0.286 C 
ATOM     17  H   UNL A   1      31.763  19.754  22.287  1.00  0.00     0.163 HD
ATOM     18  O   UNL A   1      32.054  17.652  21.994  1.00  0.00    -0.266 OA
BRANCH  16  19
ATOM     19  C   UNL A   1      33.447  17.385  23.810  1.00  0.00     0.191 A 
ATOM     20  C   UNL A   1      34.724  17.510  24.310  1.00  0.00     0.056 A 
ATOM     21  O   UNL A   1      32.851  16.285  24.405  1.00  0.00    -0.459 OA
ATOM     22  C   UNL A   1      34.938  16.412  25.188  1.00  0.00     0.043 A 
ATOM     23  C   UNL A   1      33.777  15.679  25.190  1.00  0.00     0.196 A 
ENDBRANCH  16  19
ENDBRANCH  14  15
ENDBRANCH  13  14
ENDBRANCH  12  13
ENDBRANCH   9  12
ENDBRANCH   6   8
ENDBRANCH   3   6
ENDBRANCH   1   2
BRANCH   1  24
ATOM     24  C   UNL A   1      35.792  22.817  25.893  1.00  0.00     0.023 C 
BRANCH  24  25
ATOM     25  C   UNL A   1      36.751  22.033  24.986  1.00  0.00     0.023 C 
BRANCH  25  26
ATOM     26  C   UNL A   1      38.151  21.841  25.507  1.00  0.00     0.116 C 
BRANCH  26  27
ATOM     27  N   UNL A   1      38.641  20.468  25.502  1.00  0.00    -0.352 N 
ATOM     28  C   UNL A   1      39.896  20.064  25.937  1.00  0.00     0.251 C 
ATOM     29  H   UNL A   1      38.033  19.771  25.164  1.00  0.00     0.163 HD
ATOM     30  O   UNL A   1      40.263  18.905  25.882  1.00  0.00    -0.269 OA
BRANCH  28  31
ATOM     31  C   UNL A   1      40.792  21.139  26.428  1.00  0.00     0.039 A 
ATOM     32  C   UNL A   1      41.810  21.603  25.594  1.00  0.00     0.014 A 
ATOM     33  C   UNL A   1      40.414  21.848  27.569  1.00  0.00     0.014 A 
ATOM     34  C   UNL A   1      42.392  22.844  25.862  1.00  0.00     0.010 A 
ATOM     35  C   UNL A   1      40.911  23.129  27.760  1.00  0.00     0.010 A 
ATOM     36  C   UNL A   1      41.909  23.641  26.915  1.00  0.00    -0.014 A 
BRANCH  36  37
ATOM     37  C   UNL A   1      42.440  25.007  27.158  1.00  0.00     0.031 A 
ATOM     38  C   UNL A   1      41.568  26.029  27.839  1.00  0.00     0.074 A 
ATOM     39  C   UNL A   1      43.661  25.356  26.706  1.00  0.00     0.049 A 
ATOM     40  N   UNL A   1      41.825  27.279  28.113  1.00  0.00    -0.248 NA
ATOM     41  C   UNL A   1      40.215  25.596  28.232  1.00  0.00     0.031 C 
ATOM     42  C   UNL A   1      44.568  24.489  25.947  1.00  0.00     0.029 A 
ATOM     43  N   UNL A   1      44.346  26.543  26.800  1.00  0.00    -0.354 N 
ATOM     44  C   UNL A   1      40.661  27.788  28.677  1.00  0.00     0.074 A 
ATOM     45  C   UNL A   1      39.677  26.730  28.649  1.00  0.00     0.031 C 
ATOM     46  C   UNL A   1      45.692  25.167  25.663  1.00  0.00     0.029 A 
ATOM     47  C   UNL A   1      45.578  26.525  26.187  1.00  0.00     0.049 A 
ATOM     48  H   UNL A   1      43.989  27.335  27.264  1.00  0.00     0.167 HD
ATOM     49  C   UNL A   1      40.438  29.011  29.211  1.00  0.00     0.034 A 
ATOM     50  C   UNL A   1      46.509  27.493  26.060  1.00  0.00     0.034 A 
ATOM     51  C   UNL A   1      41.428  30.047  29.273  1.00  0.00     0.049 A 
ATOM     52  C   UNL A   1      46.253  28.837  26.692  1.00  0.00     0.074 A 
ATOM     53  C   UNL A   1      41.334  31.293  29.866  1.00  0.00     0.029 A 
ATOM     54  N   UNL A   1      42.693  29.964  28.712  1.00  0.00    -0.354 N 
ATOM     55  N   UNL A   1      45.204  29.245  27.364  1.00  0.00    -0.248 NA
ATOM     56  C   UNL A   1      47.322  29.840  26.580  1.00  0.00     0.031 C 
ATOM     57  C   UNL A   1      42.530  31.977  29.633  1.00  0.00     0.029 A 
ATOM     58  C   UNL A   1      43.386  31.140  28.932  1.00  0.00     0.049 A 
ATOM     59  H   UNL A   1      43.046  29.183  28.227  1.00  0.00     0.167 HD
ATOM     60  C   UNL A   1      45.500  30.536  27.786  1.00  0.00     0.074 A 
ATOM     61  C   UNL A   1      46.836  30.833  27.312  1.00  0.00     0.031 C 
ATOM     62  C   UNL A   1      44.733  31.402  28.494  1.00  0.00     0.034 A 
BRANCH  49  63
ATOM     63  C   UNL A   1      39.081  29.268  29.813  1.00  0.00     0.023 A 
ATOM     64  C   UNL A   1      38.806  28.841  31.129  1.00  0.00     0.012 A 
ATOM     65  C   UNL A   1      38.089  29.958  29.091  1.00  0.00     0.148 A 
ATOM     66  C   UNL A   1      37.553  29.054  31.700  1.00  0.00     0.002 A 
ATOM     67  C   UNL A   1      36.860  30.215  29.686  1.00  0.00     0.091 A 
ATOM     68  F   UNL A   1      38.360  30.335  27.832  1.00  0.00    -0.205 F 
ATOM     69  C   UNL A   1      36.585  29.751  30.983  1.00  0.00     0.022 A 
BRANCH  67  70
ATOM     70  S   UNL A   1      35.577  31.177  28.880  1.00  0.00     0.127 S 
ATOM     71  O   UNL A   1      34.853  31.722  30.028  1.00  0.00    -0.237 OA
ATOM     72  O   UNL A   1      36.358  32.160  28.130  1.00  0.00    -0.237 OA
ATOM     73  O   UNL A   1      34.826  30.240  28.058  1.00  0.00    -0.744 OA
ENDBRANCH  67  70
ENDBRANCH  49  63
BRANCH  50  74
ATOM     74  C   UNL A   1      47.792  27.213  25.353  1.00  0.00     0.023 A 
ATOM     75  C   UNL A   1      48.860  26.612  26.050  1.00  0.00     0.012 A 
ATOM     76  C   UNL A   1      47.955  27.523  23.988  1.00  0.00     0.148 A 
ATOM     77  C   UNL A   1      50.075  26.359  25.413  1.00  0.00     0.002 A 
ATOM     78  C   UNL A   1      49.149  27.214  23.345  1.00  0.00     0.091 A 
ATOM     79  F   UNL A   1      46.934  28.102  23.343  1.00  0.00    -0.205 F 
ATOM     80  C   UNL A   1      50.218  26.651  24.059  1.00  0.00     0.022 A 
BRANCH  78  81
ATOM     81  S   UNL A   1      49.373  27.427  21.574  1.00  0.00     0.127 S 
ATOM     82  O   UNL A   1      49.378  28.883  21.447  1.00  0.00    -0.237 OA
ATOM     83  O   UNL A   1      50.669  26.783  21.358  1.00  0.00    -0.237 OA
ATOM     84  O   UNL A   1      48.250  26.742  20.950  1.00  0.00    -0.744 OA
ENDBRANCH  78  81
ENDBRANCH  50  74
BRANCH  62  85
ATOM     85  C   UNL A   1      45.327  32.741  28.843  1.00  0.00     0.023 A 
ATOM     86  C   UNL A   1      46.050  32.902  30.041  1.00  0.00     0.012 A 
ATOM     87  C   UNL A   1      45.235  33.819  27.939  1.00  0.00     0.148 A 
ATOM     88  C   UNL A   1      46.643  34.126  30.350  1.00  0.00     0.002 A 
ATOM     89  C   UNL A   1      45.874  35.016  28.229  1.00  0.00     0.091 A 
ATOM     90  F   UNL A   1      44.529  33.648  26.812  1.00  0.00    -0.205 F 
ATOM     91  C   UNL A   1      46.565  35.178  29.439  1.00  0.00     0.022 A 
BRANCH  89  92
ATOM     92  S   UNL A   1      45.914  36.390  27.071  1.00  0.00     0.127 S 
ATOM     93  O   UNL A   1      44.500  36.749  26.986  1.00  0.00    -0.237 OA
ATOM     94  O   UNL A   1      46.750  37.362  27.776  1.00  0.00    -0.237 OA
ATOM     95  O   UNL A   1      46.499  35.866  25.844  1.00  0.00    -0.744 OA
ENDBRANCH  89  92
ENDBRANCH  62  85
ENDBRANCH  36  37
ENDBRANCH  28  31
ENDBRANCH  26  27
ENDBRANCH  25  26
ENDBRANCH  24  25
ENDBRANCH   1  24
TORSDOF 20
ENDMDL
