MODEL 1
REMARK VINA RESULT:     -12.2      0.000      0.000
REMARK SMILES Cc1cc(C[N@@H+]2CC[C@@H](C(=O)NCCCCNC(=O)c3ccc(-c4c5nc(c(-c6cccc(S(=O)(=O)[O-])c6F)c6ccc([nH]6)c(-c6cccc(S(=O)(=O)[O-])c6F)c6nc(c(-c7cccc(S(=O)(=O)[O-])c7F)c7ccc4[nH]7)C=C6)C=C5)cc3)C2)ccc1Br
REMARK SMILES IDX 15 1 14 2 13 3 12 4 10 5 11 6 9 8 6 9 7 10 83 11 8 13 5 14
REMARK SMILES IDX 4 15 1 16 2 17 3 18 86 19 85 20 87 21 84 22 16 23 17 24
REMARK SMILES IDX 18 25 19 27 20 28 21 29 82 30 22 31 81 32 23 33 24 34 25 35
REMARK SMILES IDX 75 36 26 37 80 38 74 39 76 40 27 41 79 42 73 43 72 44 28 46
REMARK SMILES IDX 60 47 40 48 59 49 41 50 44 51 58 52 77 53 42 54 43 55 57 57
REMARK SMILES IDX 78 58 45 59 29 60 30 61 38 62 31 63 33 64 39 65 32 66 34 67
REMARK SMILES IDX 35 68 36 69 37 70 61 71 62 72 70 73 63 74 65 75 71 76 64 77
REMARK SMILES IDX 66 78 67 79 68 80 69 81 46 82 47 83 55 84 48 85 50 86 56 87
REMARK SMILES IDX 49 88 51 89 52 90 53 91 54 92
REMARK H PARENT 12 7 6 12 17 26 76 45 44 56
REMARK Flexibility Score: inf
ROOT
ATOM      1  C   UNL A   1      31.463  29.686  25.263  1.00  0.00     0.023 C 
ENDROOT
BRANCH   1   2
ATOM      2  C   UNL A   1      31.946  29.043  23.968  1.00  0.00     0.023 C 
BRANCH   2   3
ATOM      3  C   UNL A   1      30.857  28.348  23.163  1.00  0.00     0.116 C 
BRANCH   3   4
ATOM      4  N   UNL A   1      31.345  27.599  22.028  1.00  0.00    -0.356 N 
ATOM      5  C   UNL A   1      31.787  26.313  21.945  1.00  0.00     0.229 C 
ATOM      6  O   UNL A   1      32.045  25.882  20.815  1.00  0.00    -0.275 OA
ATOM      7  H   UNL A   1      31.361  28.097  21.180  1.00  0.00     0.163 HD
BRANCH   5   8
ATOM      8  C   UNL A   1      32.056  25.428  23.162  1.00  0.00     0.139 C 
ATOM      9  N   UNL A   1      32.805  23.167  23.529  1.00  0.00    -0.330 N 
ATOM     10  C   UNL A   1      33.968  24.030  23.693  1.00  0.00     0.263 C 
ATOM     11  C   UNL A   1      31.764  23.961  22.868  1.00  0.00     0.276 C 
ATOM     12  H   UNL A   1      33.050  22.380  22.929  1.00  0.00     0.348 HD
ATOM     13  C   UNL A   1      33.437  25.459  23.805  1.00  0.00     0.081 C 
BRANCH   9  14
ATOM     14  C   UNL A   1      32.393  22.413  24.717  1.00  0.00     0.299 C 
BRANCH  14  15
ATOM     15  C   UNL A   1      32.584  20.911  24.699  1.00  0.00     0.007 A 
ATOM     16  C   UNL A   1      32.397  18.050  22.190  1.00  0.00     0.045 C 
ATOM     17  C   UNL A   1      32.553  18.779  23.493  1.00  0.00    -0.036 A 
ATOM     18  C   UNL A   1      32.387  20.176  23.521  1.00  0.00     0.014 A 
ATOM     19  C   UNL A   1      32.848  18.112  24.692  1.00  0.00     0.020 A 
ATOM     20  C   UNL A   1      33.077  18.832  25.862  1.00  0.00     0.016 A 
ATOM     21  Br  UNL A   1      32.954  16.219  24.800  1.00  0.00    -0.051 Br
ATOM     22  C   UNL A   1      32.989  20.223  25.851  1.00  0.00     0.011 A 
ENDBRANCH  14  15
ENDBRANCH   9  14
ENDBRANCH   5   8
ENDBRANCH   3   4
ENDBRANCH   2   3
ENDBRANCH   1   2
BRANCH   1  23
ATOM     23  C   UNL A   1      32.554  30.202  26.197  1.00  0.00     0.116 C 
BRANCH  23  24
ATOM     24  N   UNL A   1      32.367  31.576  26.654  1.00  0.00    -0.352 N 
ATOM     25  C   UNL A   1      33.247  32.332  27.398  1.00  0.00     0.251 C 
ATOM     26  H   UNL A   1      31.520  32.009  26.403  1.00  0.00     0.163 HD
ATOM     27  O   UNL A   1      32.957  33.467  27.765  1.00  0.00    -0.269 OA
BRANCH  25  28
ATOM     28  C   UNL A   1      34.534  31.720  27.786  1.00  0.00     0.039 A 
ATOM     29  C   UNL A   1      35.657  32.537  27.935  1.00  0.00     0.014 A 
ATOM     30  C   UNL A   1      34.578  30.370  28.141  1.00  0.00     0.014 A 
ATOM     31  C   UNL A   1      36.807  32.015  28.531  1.00  0.00     0.010 A 
ATOM     32  C   UNL A   1      35.695  29.878  28.806  1.00  0.00     0.010 A 
ATOM     33  C   UNL A   1      36.817  30.697  29.015  1.00  0.00    -0.014 A 
BRANCH  33  34
ATOM     34  C   UNL A   1      37.979  30.149  29.763  1.00  0.00     0.031 A 
ATOM     35  C   UNL A   1      38.243  30.603  31.172  1.00  0.00     0.074 A 
ATOM     36  C   UNL A   1      38.857  29.337  29.140  1.00  0.00     0.049 A 
ATOM     37  N   UNL A   1      39.251  30.320  31.954  1.00  0.00    -0.248 NA
ATOM     38  C   UNL A   1      37.263  31.530  31.767  1.00  0.00     0.031 C 
ATOM     39  C   UNL A   1      38.765  28.898  27.744  1.00  0.00     0.029 A 
ATOM     40  N   UNL A   1      40.020  28.761  29.589  1.00  0.00    -0.354 N 
ATOM     41  C   UNL A   1      39.053  31.066  33.109  1.00  0.00     0.074 A 
ATOM     42  C   UNL A   1      37.848  31.842  32.914  1.00  0.00     0.031 C 
ATOM     43  C   UNL A   1      39.822  28.121  27.456  1.00  0.00     0.029 A 
ATOM     44  C   UNL A   1      40.681  28.026  28.632  1.00  0.00     0.049 A 
ATOM     45  H   UNL A   1      40.350  28.866  30.511  1.00  0.00     0.167 HD
ATOM     46  C   UNL A   1      39.787  31.078  34.247  1.00  0.00     0.034 A 
ATOM     47  C   UNL A   1      41.846  27.351  28.697  1.00  0.00     0.034 A 
ATOM     48  C   UNL A   1      40.943  30.254  34.466  1.00  0.00     0.049 A 
ATOM     49  C   UNL A   1      42.602  27.321  29.999  1.00  0.00     0.074 A 
ATOM     50  C   UNL A   1      41.693  30.115  35.619  1.00  0.00     0.029 A 
ATOM     51  N   UNL A   1      41.515  29.428  33.513  1.00  0.00    -0.354 N 
ATOM     52  N   UNL A   1      42.305  27.898  31.137  1.00  0.00    -0.248 NA
ATOM     53  C   UNL A   1      43.831  26.515  30.037  1.00  0.00     0.031 C 
ATOM     54  C   UNL A   1      42.726  29.208  35.360  1.00  0.00     0.029 A 
ATOM     55  C   UNL A   1      42.609  28.773  34.049  1.00  0.00     0.049 A 
ATOM     56  H   UNL A   1      41.191  29.322  32.589  1.00  0.00     0.167 HD
ATOM     57  C   UNL A   1      43.287  27.497  32.036  1.00  0.00     0.074 A 
ATOM     58  C   UNL A   1      44.177  26.611  31.314  1.00  0.00     0.031 C 
ATOM     59  C   UNL A   1      43.447  27.842  33.337  1.00  0.00     0.034 A 
BRANCH  46  60
ATOM     60  C   UNL A   1      39.313  31.961  35.372  1.00  0.00     0.023 A 
ATOM     61  C   UNL A   1      38.406  31.446  36.320  1.00  0.00     0.012 A 
ATOM     62  C   UNL A   1      39.796  33.275  35.520  1.00  0.00     0.148 A 
ATOM     63  C   UNL A   1      37.957  32.234  37.377  1.00  0.00     0.002 A 
ATOM     64  C   UNL A   1      39.379  34.042  36.601  1.00  0.00     0.091 A 
ATOM     65  F   UNL A   1      40.640  33.756  34.595  1.00  0.00    -0.205 F 
ATOM     66  C   UNL A   1      38.451  33.528  37.523  1.00  0.00     0.022 A 
BRANCH  64  67
ATOM     67  S   UNL A   1      40.015  35.690  36.920  1.00  0.00     0.127 S 
ATOM     68  O   UNL A   1      39.351  36.025  38.179  1.00  0.00    -0.237 OA
ATOM     69  O   UNL A   1      41.455  35.450  37.036  1.00  0.00    -0.237 OA
ATOM     70  O   UNL A   1      39.628  36.497  35.771  1.00  0.00    -0.744 OA
ENDBRANCH  64  67
ENDBRANCH  46  60
BRANCH  47  71
ATOM     71  C   UNL A   1      42.325  26.577  27.516  1.00  0.00     0.023 A 
ATOM     72  C   UNL A   1      43.100  27.228  26.537  1.00  0.00     0.012 A 
ATOM     73  C   UNL A   1      42.047  25.204  27.369  1.00  0.00     0.148 A 
ATOM     74  C   UNL A   1      43.564  26.536  25.418  1.00  0.00     0.002 A 
ATOM     75  C   UNL A   1      42.556  24.508  26.278  1.00  0.00     0.091 A 
ATOM     76  F   UNL A   1      41.297  24.603  28.303  1.00  0.00    -0.205 F 
ATOM     77  C   UNL A   1      43.301  25.175  25.292  1.00  0.00     0.022 A 
BRANCH  75  78
ATOM     78  S   UNL A   1      42.377  22.728  26.104  1.00  0.00     0.127 S 
ATOM     79  O   UNL A   1      43.077  22.240  27.289  1.00  0.00    -0.237 OA
ATOM     80  O   UNL A   1      40.923  22.564  26.137  1.00  0.00    -0.237 OA
ATOM     81  O   UNL A   1      42.986  22.400  24.822  1.00  0.00    -0.744 OA
ENDBRANCH  75  78
ENDBRANCH  47  71
BRANCH  59  82
ATOM     82  C   UNL A   1      44.602  27.239  34.088  1.00  0.00     0.023 A 
ATOM     83  C   UNL A   1      45.844  27.904  34.110  1.00  0.00     0.012 A 
ATOM     84  C   UNL A   1      44.431  26.064  34.847  1.00  0.00     0.148 A 
ATOM     85  C   UNL A   1      46.905  27.395  34.857  1.00  0.00     0.002 A 
ATOM     86  C   UNL A   1      45.479  25.589  35.626  1.00  0.00     0.091 A 
ATOM     87  F   UNL A   1      43.247  25.437  34.796  1.00  0.00    -0.205 F 
ATOM     88  C   UNL A   1      46.720  26.247  35.625  1.00  0.00     0.022 A 
BRANCH  86  89
ATOM     89  S   UNL A   1      45.297  24.173  36.717  1.00  0.00     0.127 S 
ATOM     90  O   UNL A   1      44.719  23.176  35.819  1.00  0.00    -0.237 OA
ATOM     91  O   UNL A   1      46.680  23.907  37.116  1.00  0.00    -0.237 OA
ATOM     92  O   UNL A   1      44.434  24.616  37.804  1.00  0.00    -0.744 OA
ENDBRANCH  86  89
ENDBRANCH  59  82
ENDBRANCH  33  34
ENDBRANCH  25  28
ENDBRANCH  23  24
ENDBRANCH   1  23
TORSDOF 16
ENDMDL
MODEL 2
REMARK VINA RESULT:     -12.0      2.399      8.089
REMARK SMILES Cc1cc(C[N@@H+]2CC[C@@H](C(=O)NCCCCNC(=O)c3ccc(-c4c5nc(c(-c6cccc(S(=O)(=O)[O-])c6F)c6ccc([nH]6)c(-c6cccc(S(=O)(=O)[O-])c6F)c6nc(c(-c7cccc(S(=O)(=O)[O-])c7F)c7ccc4[nH]7)C=C6)C=C5)cc3)C2)ccc1Br
REMARK SMILES IDX 15 1 14 2 13 3 12 4 10 5 11 6 9 8 6 9 7 10 83 11 8 13 5 14
REMARK SMILES IDX 4 15 1 16 2 17 3 18 86 19 85 20 87 21 84 22 16 23 17 24
REMARK SMILES IDX 18 25 19 27 20 28 21 29 82 30 22 31 81 32 23 33 24 34 25 35
REMARK SMILES IDX 75 36 26 37 80 38 74 39 76 40 27 41 79 42 73 43 72 44 28 46
REMARK SMILES IDX 60 47 40 48 59 49 41 50 44 51 58 52 77 53 42 54 43 55 57 57
REMARK SMILES IDX 78 58 45 59 29 60 30 61 38 62 31 63 33 64 39 65 32 66 34 67
REMARK SMILES IDX 35 68 36 69 37 70 61 71 62 72 70 73 63 74 65 75 71 76 64 77
REMARK SMILES IDX 66 78 67 79 68 80 69 81 46 82 47 83 55 84 48 85 50 86 56 87
REMARK SMILES IDX 49 88 51 89 52 90 53 91 54 92
REMARK H PARENT 12 7 6 12 17 26 76 45 44 56
REMARK Flexibility Score: inf
ROOT
ATOM      1  C   UNL A   1      32.294  31.002  26.913  1.00  0.00     0.023 C 
ENDROOT
BRANCH   1   2
ATOM      2  C   UNL A   1      32.617  29.545  27.225  1.00  0.00     0.023 C 
BRANCH   2   3
ATOM      3  C   UNL A   1      33.987  29.085  26.747  1.00  0.00     0.116 C 
BRANCH   3   4
ATOM      4  N   UNL A   1      34.122  29.019  25.311  1.00  0.00    -0.356 N 
ATOM      5  C   UNL A   1      33.772  28.033  24.437  1.00  0.00     0.229 C 
ATOM      6  O   UNL A   1      33.896  28.283  23.233  1.00  0.00    -0.275 OA
ATOM      7  H   UNL A   1      34.532  29.812  24.896  1.00  0.00     0.163 HD
BRANCH   5   8
ATOM      8  C   UNL A   1      33.325  26.636  24.868  1.00  0.00     0.139 C 
ATOM      9  N   UNL A   1      32.828  24.556  23.759  1.00  0.00    -0.330 N 
ATOM     10  C   UNL A   1      34.194  24.454  24.256  1.00  0.00     0.263 C 
ATOM     11  C   UNL A   1      32.450  25.972  23.812  1.00  0.00     0.276 C 
ATOM     12  H   UNL A   1      32.797  24.243  22.788  1.00  0.00     0.348 HD
ATOM     13  C   UNL A   1      34.385  25.607  25.240  1.00  0.00     0.081 C 
BRANCH   9  14
ATOM     14  C   UNL A   1      31.867  23.604  24.323  1.00  0.00     0.299 C 
BRANCH  14  15
ATOM     15  C   UNL A   1      32.056  22.136  24.000  1.00  0.00     0.007 A 
ATOM     16  C   UNL A   1      32.834  18.896  25.846  1.00  0.00     0.045 C 
ATOM     17  C   UNL A   1      32.562  19.850  24.720  1.00  0.00    -0.036 A 
ATOM     18  C   UNL A   1      32.375  21.215  25.008  1.00  0.00     0.014 A 
ATOM     19  C   UNL A   1      32.498  19.430  23.382  1.00  0.00     0.020 A 
ATOM     20  C   UNL A   1      32.152  20.328  22.377  1.00  0.00     0.016 A 
ATOM     21  Br  UNL A   1      32.872  17.642  22.863  1.00  0.00    -0.051 Br
ATOM     22  C   UNL A   1      31.890  21.660  22.692  1.00  0.00     0.011 A 
ENDBRANCH  14  15
ENDBRANCH   9  14
ENDBRANCH   5   8
ENDBRANCH   3   4
ENDBRANCH   2   3
ENDBRANCH   1   2
BRANCH   1  23
ATOM     23  C   UNL A   1      33.252  32.036  27.497  1.00  0.00     0.116 C 
BRANCH  23  24
ATOM     24  N   UNL A   1      32.713  33.390  27.581  1.00  0.00    -0.352 N 
ATOM     25  C   UNL A   1      33.144  34.407  28.405  1.00  0.00     0.251 C 
ATOM     26  H   UNL A   1      31.958  33.598  26.985  1.00  0.00     0.163 HD
ATOM     27  O   UNL A   1      32.577  35.496  28.420  1.00  0.00    -0.269 OA
BRANCH  25  28
ATOM     28  C   UNL A   1      34.281  34.136  29.307  1.00  0.00     0.039 A 
ATOM     29  C   UNL A   1      34.045  33.486  30.521  1.00  0.00     0.014 A 
ATOM     30  C   UNL A   1      35.583  34.394  28.875  1.00  0.00     0.014 A 
ATOM     31  C   UNL A   1      35.128  33.011  31.263  1.00  0.00     0.010 A 
ATOM     32  C   UNL A   1      36.653  33.850  29.575  1.00  0.00     0.010 A 
ATOM     33  C   UNL A   1      36.436  33.146  30.771  1.00  0.00    -0.014 A 
BRANCH  33  34
ATOM     34  C   UNL A   1      37.600  32.545  31.474  1.00  0.00     0.031 A 
ATOM     35  C   UNL A   1      38.352  31.408  30.839  1.00  0.00     0.074 A 
ATOM     36  C   UNL A   1      37.907  32.941  32.726  1.00  0.00     0.049 A 
ATOM     37  N   UNL A   1      39.327  30.689  31.328  1.00  0.00    -0.248 NA
ATOM     38  C   UNL A   1      37.925  31.000  29.488  1.00  0.00     0.031 C 
ATOM     39  C   UNL A   1      37.195  33.969  33.491  1.00  0.00     0.029 A 
ATOM     40  N   UNL A   1      38.879  32.502  33.592  1.00  0.00    -0.354 N 
ATOM     41  C   UNL A   1      39.597  29.718  30.371  1.00  0.00     0.074 A 
ATOM     42  C   UNL A   1      38.660  29.917  29.287  1.00  0.00     0.031 C 
ATOM     43  C   UNL A   1      37.756  34.083  34.705  1.00  0.00     0.029 A 
ATOM     44  C   UNL A   1      38.849  33.122  34.819  1.00  0.00     0.049 A 
ATOM     45  H   UNL A   1      39.536  31.808  33.355  1.00  0.00     0.167 HD
ATOM     46  C   UNL A   1      40.562  28.769  30.375  1.00  0.00     0.034 A 
ATOM     47  C   UNL A   1      39.616  32.938  35.913  1.00  0.00     0.034 A 
ATOM     48  C   UNL A   1      41.536  28.617  31.421  1.00  0.00     0.049 A 
ATOM     49  C   UNL A   1      40.730  31.926  35.861  1.00  0.00     0.074 A 
ATOM     50  C   UNL A   1      42.617  27.757  31.470  1.00  0.00     0.029 A 
ATOM     51  N   UNL A   1      41.548  29.346  32.599  1.00  0.00    -0.354 N 
ATOM     52  N   UNL A   1      41.079  31.134  34.877  1.00  0.00    -0.248 NA
ATOM     53  C   UNL A   1      41.581  31.811  37.054  1.00  0.00     0.031 C 
ATOM     54  C   UNL A   1      43.280  27.960  32.685  1.00  0.00     0.029 A 
ATOM     55  C   UNL A   1      42.619  28.957  33.384  1.00  0.00     0.049 A 
ATOM     56  H   UNL A   1      40.892  30.039  32.842  1.00  0.00     0.167 HD
ATOM     57  C   UNL A   1      42.209  30.454  35.316  1.00  0.00     0.074 A 
ATOM     58  C   UNL A   1      42.498  30.942  36.648  1.00  0.00     0.031 C 
ATOM     59  C   UNL A   1      42.933  29.500  34.680  1.00  0.00     0.034 A 
BRANCH  46  60
ATOM     60  C   UNL A   1      40.655  27.865  29.174  1.00  0.00     0.023 A 
ATOM     61  C   UNL A   1      39.829  26.725  29.102  1.00  0.00     0.012 A 
ATOM     62  C   UNL A   1      41.517  28.164  28.101  1.00  0.00     0.148 A 
ATOM     63  C   UNL A   1      39.884  25.876  27.999  1.00  0.00     0.002 A 
ATOM     64  C   UNL A   1      41.535  27.336  26.985  1.00  0.00     0.091 A 
ATOM     65  F   UNL A   1      42.312  29.239  28.199  1.00  0.00    -0.205 F 
ATOM     66  C   UNL A   1      40.729  26.187  26.937  1.00  0.00     0.022 A 
BRANCH  64  67
ATOM     67  S   UNL A   1      42.532  27.693  25.534  1.00  0.00     0.127 S 
ATOM     68  O   UNL A   1      42.240  26.540  24.685  1.00  0.00    -0.237 OA
ATOM     69  O   UNL A   1      41.957  28.956  25.066  1.00  0.00    -0.237 OA
ATOM     70  O   UNL A   1      43.905  27.793  26.008  1.00  0.00    -0.744 OA
ENDBRANCH  64  67
ENDBRANCH  46  60
BRANCH  47  71
ATOM     71  C   UNL A   1      39.412  33.789  37.119  1.00  0.00     0.023 A 
ATOM     72  C   UNL A   1      39.861  35.124  37.101  1.00  0.00     0.012 A 
ATOM     73  C   UNL A   1      38.756  33.302  38.266  1.00  0.00     0.148 A 
ATOM     74  C   UNL A   1      39.689  35.950  38.212  1.00  0.00     0.002 A 
ATOM     75  C   UNL A   1      38.542  34.146  39.351  1.00  0.00     0.091 A 
ATOM     76  F   UNL A   1      38.347  32.026  38.272  1.00  0.00    -0.205 F 
ATOM     77  C   UNL A   1      39.021  35.465  39.334  1.00  0.00     0.022 A 
BRANCH  75  78
ATOM     78  S   UNL A   1      37.577  33.644  40.782  1.00  0.00     0.127 S 
ATOM     79  O   UNL A   1      38.465  32.675  41.417  1.00  0.00    -0.237 OA
ATOM     80  O   UNL A   1      37.425  34.907  41.506  1.00  0.00    -0.237 OA
ATOM     81  O   UNL A   1      36.332  33.112  40.244  1.00  0.00    -0.744 OA
ENDBRANCH  75  78
ENDBRANCH  47  71
BRANCH  59  82
ATOM     82  C   UNL A   1      44.134  28.939  35.391  1.00  0.00     0.023 A 
ATOM     83  C   UNL A   1      45.388  29.564  35.243  1.00  0.00     0.012 A 
ATOM     84  C   UNL A   1      44.002  27.852  36.278  1.00  0.00     0.148 A 
ATOM     85  C   UNL A   1      46.497  29.100  35.948  1.00  0.00     0.002 A 
ATOM     86  C   UNL A   1      45.101  27.425  37.012  1.00  0.00     0.091 A 
ATOM     87  F   UNL A   1      42.803  27.260  36.389  1.00  0.00    -0.205 F 
ATOM     88  C   UNL A   1      46.352  28.040  36.842  1.00  0.00     0.022 A 
BRANCH  86  89
ATOM     89  S   UNL A   1      44.981  26.131  38.254  1.00  0.00     0.127 S 
ATOM     90  O   UNL A   1      46.384  25.929  38.611  1.00  0.00    -0.237 OA
ATOM     91  O   UNL A   1      44.172  26.770  39.293  1.00  0.00    -0.237 OA
ATOM     92  O   UNL A   1      44.331  25.006  37.595  1.00  0.00    -0.744 OA
ENDBRANCH  86  89
ENDBRANCH  59  82
ENDBRANCH  33  34
ENDBRANCH  25  28
ENDBRANCH  23  24
ENDBRANCH   1  23
TORSDOF 16
ENDMDL
MODEL 3
REMARK VINA RESULT:     -11.9      1.635      7.766
REMARK SMILES Cc1cc(C[N@@H+]2CC[C@@H](C(=O)NCCCCNC(=O)c3ccc(-c4c5nc(c(-c6cccc(S(=O)(=O)[O-])c6F)c6ccc([nH]6)c(-c6cccc(S(=O)(=O)[O-])c6F)c6nc(c(-c7cccc(S(=O)(=O)[O-])c7F)c7ccc4[nH]7)C=C6)C=C5)cc3)C2)ccc1Br
REMARK SMILES IDX 15 1 14 2 13 3 12 4 10 5 11 6 9 8 6 9 7 10 83 11 8 13 5 14
REMARK SMILES IDX 4 15 1 16 2 17 3 18 86 19 85 20 87 21 84 22 16 23 17 24
REMARK SMILES IDX 18 25 19 27 20 28 21 29 82 30 22 31 81 32 23 33 24 34 25 35
REMARK SMILES IDX 75 36 26 37 80 38 74 39 76 40 27 41 79 42 73 43 72 44 28 46
REMARK SMILES IDX 60 47 40 48 59 49 41 50 44 51 58 52 77 53 42 54 43 55 57 57
REMARK SMILES IDX 78 58 45 59 29 60 30 61 38 62 31 63 33 64 39 65 32 66 34 67
REMARK SMILES IDX 35 68 36 69 37 70 61 71 62 72 70 73 63 74 65 75 71 76 64 77
REMARK SMILES IDX 66 78 67 79 68 80 69 81 46 82 47 83 55 84 48 85 50 86 56 87
REMARK SMILES IDX 49 88 51 89 52 90 53 91 54 92
REMARK H PARENT 12 7 6 12 17 26 76 45 44 56
REMARK Flexibility Score: inf
ROOT
ATOM      1  C   UNL A   1      31.334  30.292  25.374  1.00  0.00     0.023 C 
ENDROOT
BRANCH   1   2
ATOM      2  C   UNL A   1      31.637  28.908  24.809  1.00  0.00     0.023 C 
BRANCH   2   3
ATOM      3  C   UNL A   1      31.272  28.730  23.342  1.00  0.00     0.116 C 
BRANCH   3   4
ATOM      4  N   UNL A   1      32.379  28.346  22.499  1.00  0.00    -0.356 N 
ATOM      5  C   UNL A   1      33.049  27.163  22.408  1.00  0.00     0.229 C 
ATOM      6  O   UNL A   1      33.894  27.066  21.511  1.00  0.00    -0.275 OA
ATOM      7  H   UNL A   1      32.701  29.051  21.892  1.00  0.00     0.163 HD
BRANCH   5   8
ATOM      8  C   UNL A   1      32.869  26.008  23.393  1.00  0.00     0.139 C 
ATOM      9  N   UNL A   1      33.497  23.683  23.471  1.00  0.00    -0.330 N 
ATOM     10  C   UNL A   1      34.486  24.414  24.252  1.00  0.00     0.263 C 
ATOM     11  C   UNL A   1      32.754  24.668  22.677  1.00  0.00     0.276 C 
ATOM     12  H   UNL A   1      33.973  23.040  22.838  1.00  0.00     0.348 HD
ATOM     13  C   UNL A   1      33.908  25.809  24.490  1.00  0.00     0.081 C 
BRANCH   9  14
ATOM     14  C   UNL A   1      32.694  22.704  24.209  1.00  0.00     0.299 C 
BRANCH  14  15
ATOM     15  C   UNL A   1      33.129  21.254  24.158  1.00  0.00     0.007 A 
ATOM     16  C   UNL A   1      32.125  18.044  22.367  1.00  0.00     0.045 C 
ATOM     17  C   UNL A   1      32.841  18.977  23.301  1.00  0.00    -0.036 A 
ATOM     18  C   UNL A   1      32.451  20.329  23.350  1.00  0.00     0.014 A 
ATOM     19  C   UNL A   1      33.881  18.545  24.137  1.00  0.00     0.020 A 
ATOM     20  C   UNL A   1      34.582  19.458  24.920  1.00  0.00     0.016 A 
ATOM     21  Br  UNL A   1      34.394  16.720  24.257  1.00  0.00    -0.051 Br
ATOM     22  C   UNL A   1      34.236  20.807  24.894  1.00  0.00     0.011 A 
ENDBRANCH  14  15
ENDBRANCH   9  14
ENDBRANCH   5   8
ENDBRANCH   3   4
ENDBRANCH   2   3
ENDBRANCH   1   2
BRANCH   1  23
ATOM     23  C   UNL A   1      32.315  30.813  26.419  1.00  0.00     0.116 C 
BRANCH  23  24
ATOM     24  N   UNL A   1      32.075  32.187  26.852  1.00  0.00    -0.352 N 
ATOM     25  C   UNL A   1      32.923  32.990  27.582  1.00  0.00     0.251 C 
ATOM     26  H   UNL A   1      31.211  32.582  26.594  1.00  0.00     0.163 HD
ATOM     27  O   UNL A   1      32.589  34.119  27.929  1.00  0.00    -0.269 OA
BRANCH  25  28
ATOM     28  C   UNL A   1      34.233  32.437  27.980  1.00  0.00     0.039 A 
ATOM     29  C   UNL A   1      35.340  33.287  28.040  1.00  0.00     0.014 A 
ATOM     30  C   UNL A   1      34.318  31.118  28.433  1.00  0.00     0.014 A 
ATOM     31  C   UNL A   1      36.516  32.835  28.642  1.00  0.00     0.010 A 
ATOM     32  C   UNL A   1      35.462  30.701  29.103  1.00  0.00     0.010 A 
ATOM     33  C   UNL A   1      36.569  31.557  29.222  1.00  0.00    -0.014 A 
BRANCH  33  34
ATOM     34  C   UNL A   1      37.761  31.092  29.978  1.00  0.00     0.031 A 
ATOM     35  C   UNL A   1      38.706  30.104  29.351  1.00  0.00     0.074 A 
ATOM     36  C   UNL A   1      37.929  31.465  31.262  1.00  0.00     0.049 A 
ATOM     37  N   UNL A   1      39.741  29.506  29.877  1.00  0.00    -0.248 NA
ATOM     38  C   UNL A   1      38.426  29.707  27.959  1.00  0.00     0.031 C 
ATOM     39  C   UNL A   1      37.032  32.344  32.017  1.00  0.00     0.029 A 
ATOM     40  N   UNL A   1      38.899  31.126  32.175  1.00  0.00    -0.354 N 
ATOM     41  C   UNL A   1      40.207  28.630  28.904  1.00  0.00     0.074 A 
ATOM     42  C   UNL A   1      39.321  28.749  27.767  1.00  0.00     0.031 C 
ATOM     43  C   UNL A   1      37.494  32.476  33.271  1.00  0.00     0.029 A 
ATOM     44  C   UNL A   1      38.704  31.674  33.421  1.00  0.00     0.049 A 
ATOM     45  H   UNL A   1      39.662  30.543  31.956  1.00  0.00     0.167 HD
ATOM     46  C   UNL A   1      41.296  27.827  28.936  1.00  0.00     0.034 A 
ATOM     47  C   UNL A   1      39.420  31.546  34.556  1.00  0.00     0.034 A 
ATOM     48  C   UNL A   1      42.214  27.763  30.039  1.00  0.00     0.049 A 
ATOM     49  C   UNL A   1      40.669  30.705  34.541  1.00  0.00     0.074 A 
ATOM     50  C   UNL A   1      43.403  27.061  30.128  1.00  0.00     0.029 A 
ATOM     51  N   UNL A   1      42.049  28.428  31.243  1.00  0.00    -0.354 N 
ATOM     52  N   UNL A   1      41.188  30.018  33.553  1.00  0.00    -0.248 NA
ATOM     53  C   UNL A   1      41.452  30.652  35.784  1.00  0.00     0.031 C 
ATOM     54  C   UNL A   1      43.953  27.296  31.392  1.00  0.00     0.029 A 
ATOM     55  C   UNL A   1      43.113  28.155  32.083  1.00  0.00     0.049 A 
ATOM     56  H   UNL A   1      41.287  29.008  31.467  1.00  0.00     0.167 HD
ATOM     57  C   UNL A   1      42.374  29.483  34.040  1.00  0.00     0.074 A 
ATOM     58  C   UNL A   1      42.508  29.942  35.408  1.00  0.00     0.031 C 
ATOM     59  C   UNL A   1      43.266  28.673  33.419  1.00  0.00     0.034 A 
BRANCH  46  60
ATOM     60  C   UNL A   1      41.592  27.005  27.709  1.00  0.00     0.023 A 
ATOM     61  C   UNL A   1      42.134  27.635  26.570  1.00  0.00     0.012 A 
ATOM     62  C   UNL A   1      41.380  25.613  27.695  1.00  0.00     0.148 A 
ATOM     63  C   UNL A   1      42.428  26.900  25.424  1.00  0.00     0.002 A 
ATOM     64  C   UNL A   1      41.716  24.880  26.563  1.00  0.00     0.091 A 
ATOM     65  F   UNL A   1      40.840  25.036  28.778  1.00  0.00    -0.205 F 
ATOM     66  C   UNL A   1      42.229  25.522  25.424  1.00  0.00     0.022 A 
BRANCH  64  67
ATOM     67  S   UNL A   1      41.569  23.091  26.493  1.00  0.00     0.127 S 
ATOM     68  O   UNL A   1      40.134  22.922  26.271  1.00  0.00    -0.237 OA
ATOM     69  O   UNL A   1      42.407  22.756  25.340  1.00  0.00    -0.237 OA
ATOM     70  O   UNL A   1      42.070  22.599  27.768  1.00  0.00    -0.744 OA
ENDBRANCH  64  67
ENDBRANCH  46  60
BRANCH  47  71
ATOM     71  C   UNL A   1      39.022  32.301  35.778  1.00  0.00     0.023 A 
ATOM     72  C   UNL A   1      39.363  33.663  35.886  1.00  0.00     0.012 A 
ATOM     73  C   UNL A   1      38.289  31.694  36.816  1.00  0.00     0.148 A 
ATOM     74  C   UNL A   1      39.008  34.401  37.016  1.00  0.00     0.002 A 
ATOM     75  C   UNL A   1      37.894  32.448  37.917  1.00  0.00     0.091 A 
ATOM     76  F   UNL A   1      37.985  30.393  36.705  1.00  0.00    -0.205 F 
ATOM     77  C   UNL A   1      38.266  33.797  38.027  1.00  0.00     0.022 A 
BRANCH  75  78
ATOM     78  S   UNL A   1      36.825  31.785  39.201  1.00  0.00     0.127 S 
ATOM     79  O   UNL A   1      37.559  32.140  40.413  1.00  0.00    -0.237 OA
ATOM     80  O   UNL A   1      35.588  32.537  38.987  1.00  0.00    -0.237 OA
ATOM     81  O   UNL A   1      36.714  30.360  38.917  1.00  0.00    -0.744 OA
ENDBRANCH  75  78
ENDBRANCH  47  71
BRANCH  59  82
ATOM     82  C   UNL A   1      44.489  28.252  34.187  1.00  0.00     0.023 A 
ATOM     83  C   UNL A   1      45.626  29.083  34.200  1.00  0.00     0.012 A 
ATOM     84  C   UNL A   1      44.477  27.081  34.971  1.00  0.00     0.148 A 
ATOM     85  C   UNL A   1      46.742  28.743  34.963  1.00  0.00     0.002 A 
ATOM     86  C   UNL A   1      45.575  26.773  35.764  1.00  0.00     0.091 A 
ATOM     87  F   UNL A   1      43.392  26.294  34.929  1.00  0.00    -0.205 F 
ATOM     88  C   UNL A   1      46.713  27.597  35.754  1.00  0.00     0.022 A 
BRANCH  86  89
ATOM     89  S   UNL A   1      45.585  25.368  36.885  1.00  0.00     0.127 S 
ATOM     90  O   UNL A   1      44.418  25.645  37.721  1.00  0.00    -0.237 OA
ATOM     91  O   UNL A   1      45.427  24.237  35.970  1.00  0.00    -0.237 OA
ATOM     92  O   UNL A   1      46.872  25.412  37.567  1.00  0.00    -0.744 OA
ENDBRANCH  86  89
ENDBRANCH  59  82
ENDBRANCH  33  34
ENDBRANCH  25  28
ENDBRANCH  23  24
ENDBRANCH   1  23
TORSDOF 16
ENDMDL
