MODEL 1
REMARK VINA RESULT:     -13.9      0.000      0.000
REMARK SMILES Cc1ccc(-c2nn(-c3ccccc3)cc2[C@@H]2[NH2+][C@H](C(=O)NCCCCNC(=O)c3ccc(-c4c5nc(c(-c6cccc(S(=O)(=O)[O-])c6F)c6ccc([nH]6)c(-c6cccc(S(=O)(=O)[O-])c6F)c6nc(c(-c7cccc(S(=O)(=O)[O-])c7F)c7ccc4[nH]7)C=C6)C=C5)cc3)CS2)cc1
REMARK SMILES IDX 25 1 24 2 23 3 22 4 20 5 21 6 19 8 17 9 18 10 94 11 93 14
REMARK SMILES IDX 16 15 6 16 7 17 8 18 15 19 5 20 1 21 2 22 3 23 96 24 4 25
REMARK SMILES IDX 95 26 9 27 10 28 14 29 11 30 13 31 12 32 26 33 27 34 28 35
REMARK SMILES IDX 29 37 30 38 31 39 92 40 32 41 91 42 33 43 34 44 35 45 85 46
REMARK SMILES IDX 36 47 90 48 84 49 86 50 37 51 89 52 83 53 82 54 38 56 70 57
REMARK SMILES IDX 50 58 69 59 51 60 54 61 68 62 87 63 52 64 53 65 67 67 88 68
REMARK SMILES IDX 55 69 39 70 40 71 48 72 41 73 43 74 49 75 42 76 44 77 45 78
REMARK SMILES IDX 46 79 47 80 71 81 72 82 80 83 73 84 75 85 81 86 74 87 76 88
REMARK SMILES IDX 77 89 78 90 79 91 56 92 57 93 65 94 58 95 60 96 66 97 59 98
REMARK SMILES IDX 61 99 62 100 63 101 64 102
REMARK H PARENT 22 7 18 12 18 13 27 36 86 55 54 66
REMARK Flexibility Score: inf
ROOT
ATOM      1  C   UNL A   1      33.127  28.312  27.036  1.00  0.00     0.023 C 
ENDROOT
BRANCH   1   2
ATOM      2  C   UNL A   1      32.498  27.019  26.348  1.00  0.00     0.023 C 
BRANCH   2   3
ATOM      3  C   UNL A   1      33.128  25.606  26.230  1.00  0.00     0.116 C 
BRANCH   3   4
ATOM      4  N   UNL A   1      32.470  24.378  26.650  1.00  0.00    -0.351 N 
ATOM      5  C   UNL A   1      33.043  23.296  27.297  1.00  0.00     0.279 C 
ATOM      6  O   UNL A   1      32.265  22.610  27.982  1.00  0.00    -0.268 OA
ATOM      7  H   UNL A   1      31.509  24.308  26.449  1.00  0.00     0.163 HD
BRANCH   5   8
ATOM      8  C   UNL A   1      34.517  22.770  27.160  1.00  0.00     0.283 C 
ATOM      9  C   UNL A   1      35.514  21.237  25.544  1.00  0.00     0.278 C 
ATOM     10  N   UNL A   1      34.719  21.340  26.786  1.00  0.00    -0.320 N 
ATOM     11  S   UNL A   1      36.687  22.600  25.640  1.00  0.00    -0.087 SA
ATOM     12  H   UNL A   1      35.211  20.861  27.540  1.00  0.00     0.348 HD
ATOM     13  H   UNL A   1      33.808  20.907  26.631  1.00  0.00     0.348 HD
ATOM     14  C   UNL A   1      35.426  23.705  26.342  1.00  0.00     0.151 C 
BRANCH   9  15
ATOM     15  C   UNL A   1      34.560  21.328  24.401  1.00  0.00     0.067 A 
ATOM     16  C   UNL A   1      33.544  20.391  24.037  1.00  0.00     0.103 A 
ATOM     17  N   UNL A   1      32.590  21.051  23.333  1.00  0.00    -0.167 NA
ATOM     18  N   UNL A   1      33.029  22.359  23.240  1.00  0.00    -0.240 N 
ATOM     19  C   UNL A   1      34.380  22.377  23.509  1.00  0.00     0.126 A 
BRANCH  16  20
ATOM     20  C   UNL A   1      33.436  18.965  24.479  1.00  0.00     0.003 A 
ATOM     21  C   UNL A   1      32.702  14.773  25.495  1.00  0.00     0.044 C 
ATOM     22  C   UNL A   1      32.964  16.217  25.174  1.00  0.00    -0.051 A 
ATOM     23  C   UNL A   1      33.755  16.548  24.079  1.00  0.00     0.004 A 
ATOM     24  C   UNL A   1      32.438  17.262  25.940  1.00  0.00     0.004 A 
ATOM     25  C   UNL A   1      33.963  17.894  23.732  1.00  0.00     0.011 A 
ATOM     26  C   UNL A   1      32.680  18.615  25.603  1.00  0.00     0.011 A 
ENDBRANCH  16  20
BRANCH  18  27
ATOM     27  C   UNL A   1      32.223  23.577  23.186  1.00  0.00     0.065 A 
ATOM     28  C   UNL A   1      30.923  23.700  23.704  1.00  0.00     0.028 A 
ATOM     29  C   UNL A   1      32.775  24.751  22.674  1.00  0.00     0.028 A 
ATOM     30  C   UNL A   1      30.159  24.878  23.609  1.00  0.00     0.002 A 
ATOM     31  C   UNL A   1      32.009  25.926  22.543  1.00  0.00     0.002 A 
ATOM     32  C   UNL A   1      30.690  25.983  22.975  1.00  0.00     0.000 A 
ENDBRANCH  18  27
ENDBRANCH   9  15
ENDBRANCH   5   8
ENDBRANCH   3   4
ENDBRANCH   2   3
ENDBRANCH   1   2
BRANCH   1  33
ATOM     33  C   UNL A   1      34.075  29.307  26.325  1.00  0.00     0.116 C 
BRANCH  33  34
ATOM     34  N   UNL A   1      34.425  30.616  26.905  1.00  0.00    -0.352 N 
ATOM     35  C   UNL A   1      35.461  30.982  27.802  1.00  0.00     0.251 C 
ATOM     36  H   UNL A   1      33.844  31.359  26.622  1.00  0.00     0.163 HD
ATOM     37  O   UNL A   1      35.488  32.151  28.189  1.00  0.00    -0.269 OA
BRANCH  35  38
ATOM     38  C   UNL A   1      36.511  30.014  28.291  1.00  0.00     0.039 A 
ATOM     39  C   UNL A   1      36.578  29.371  29.538  1.00  0.00     0.014 A 
ATOM     40  C   UNL A   1      37.586  29.795  27.479  1.00  0.00     0.014 A 
ATOM     41  C   UNL A   1      37.763  28.665  29.919  1.00  0.00     0.010 A 
ATOM     42  C   UNL A   1      38.446  28.759  27.680  1.00  0.00     0.010 A 
ATOM     43  C   UNL A   1      38.752  28.442  28.972  1.00  0.00    -0.014 A 
BRANCH  43  44
ATOM     44  C   UNL A   1      40.150  27.986  29.062  1.00  0.00     0.031 A 
ATOM     45  C   UNL A   1      40.510  26.591  28.781  1.00  0.00     0.074 A 
ATOM     46  C   UNL A   1      41.133  28.930  28.985  1.00  0.00     0.049 A 
ATOM     47  N   UNL A   1      41.671  26.074  28.988  1.00  0.00    -0.248 NA
ATOM     48  C   UNL A   1      39.553  25.663  28.206  1.00  0.00     0.031 C 
ATOM     49  C   UNL A   1      42.528  28.782  28.567  1.00  0.00     0.029 A 
ATOM     50  N   UNL A   1      41.057  30.283  29.331  1.00  0.00    -0.354 N 
ATOM     51  C   UNL A   1      41.711  24.859  28.337  1.00  0.00     0.074 A 
ATOM     52  C   UNL A   1      40.335  24.604  27.979  1.00  0.00     0.031 C 
ATOM     53  C   UNL A   1      43.219  29.889  28.901  1.00  0.00     0.029 A 
ATOM     54  C   UNL A   1      42.338  30.681  29.738  1.00  0.00     0.049 A 
ATOM     55  H   UNL A   1      40.254  30.851  29.294  1.00  0.00     0.167 HD
ATOM     56  C   UNL A   1      42.927  24.297  28.060  1.00  0.00     0.034 A 
ATOM     57  C   UNL A   1      42.613  31.058  31.025  1.00  0.00     0.034 A 
ATOM     58  C   UNL A   1      44.019  25.131  28.620  1.00  0.00     0.049 A 
ATOM     59  C   UNL A   1      43.572  30.070  31.669  1.00  0.00     0.074 A 
ATOM     60  C   UNL A   1      44.904  26.029  28.041  1.00  0.00     0.029 A 
ATOM     61  N   UNL A   1      44.112  25.337  30.000  1.00  0.00    -0.354 N 
ATOM     62  N   UNL A   1      43.896  28.928  31.125  1.00  0.00    -0.248 NA
ATOM     63  C   UNL A   1      44.257  30.279  32.939  1.00  0.00     0.031 C 
ATOM     64  C   UNL A   1      45.418  26.866  29.073  1.00  0.00     0.029 A 
ATOM     65  C   UNL A   1      44.889  26.454  30.288  1.00  0.00     0.049 A 
ATOM     66  H   UNL A   1      43.684  24.766  30.678  1.00  0.00     0.167 HD
ATOM     67  C   UNL A   1      44.713  28.217  31.943  1.00  0.00     0.074 A 
ATOM     68  C   UNL A   1      44.957  29.134  33.050  1.00  0.00     0.031 C 
ATOM     69  C   UNL A   1      45.074  26.926  31.666  1.00  0.00     0.034 A 
BRANCH  56  70
ATOM     70  C   UNL A   1      43.195  23.155  27.067  1.00  0.00     0.023 A 
ATOM     71  C   UNL A   1      43.930  23.472  25.899  1.00  0.00     0.012 A 
ATOM     72  C   UNL A   1      42.755  21.808  27.148  1.00  0.00     0.148 A 
ATOM     73  C   UNL A   1      44.150  22.554  24.860  1.00  0.00     0.002 A 
ATOM     74  C   UNL A   1      42.952  20.894  26.104  1.00  0.00     0.091 A 
ATOM     75  F   UNL A   1      42.177  21.357  28.257  1.00  0.00    -0.205 F 
ATOM     76  C   UNL A   1      43.644  21.268  24.952  1.00  0.00     0.022 A 
BRANCH  74  77
ATOM     77  S   UNL A   1      42.318  19.202  26.148  1.00  0.00     0.127 S 
ATOM     78  O   UNL A   1      42.545  18.828  27.545  1.00  0.00    -0.237 OA
ATOM     79  O   UNL A   1      40.913  19.385  25.789  1.00  0.00    -0.237 OA
ATOM     80  O   UNL A   1      43.106  18.439  25.188  1.00  0.00    -0.744 OA
ENDBRANCH  74  77
ENDBRANCH  56  70
BRANCH  57  81
ATOM     81  C   UNL A   1      41.436  31.725  31.669  1.00  0.00     0.023 A 
ATOM     82  C   UNL A   1      40.893  32.822  30.953  1.00  0.00     0.012 A 
ATOM     83  C   UNL A   1      40.598  30.999  32.534  1.00  0.00     0.148 A 
ATOM     84  C   UNL A   1      39.512  33.024  30.911  1.00  0.00     0.002 A 
ATOM     85  C   UNL A   1      39.220  31.229  32.504  1.00  0.00     0.091 A 
ATOM     86  F   UNL A   1      41.131  30.021  33.276  1.00  0.00    -0.205 F 
ATOM     87  C   UNL A   1      38.671  32.196  31.647  1.00  0.00     0.022 A 
BRANCH  85  88
ATOM     88  S   UNL A   1      38.110  30.187  33.460  1.00  0.00     0.127 S 
ATOM     89  O   UNL A   1      38.347  30.682  34.817  1.00  0.00    -0.237 OA
ATOM     90  O   UNL A   1      36.790  30.525  32.921  1.00  0.00    -0.237 OA
ATOM     91  O   UNL A   1      38.545  28.835  33.177  1.00  0.00    -0.744 OA
ENDBRANCH  85  88
ENDBRANCH  57  81
BRANCH  69  92
ATOM     92  C   UNL A   1      45.680  26.021  32.709  1.00  0.00     0.023 A 
ATOM     93  C   UNL A   1      47.080  25.897  32.841  1.00  0.00     0.012 A 
ATOM     94  C   UNL A   1      44.883  25.365  33.676  1.00  0.00     0.148 A 
ATOM     95  C   UNL A   1      47.663  25.062  33.793  1.00  0.00     0.002 A 
ATOM     96  C   UNL A   1      45.474  24.629  34.698  1.00  0.00     0.091 A 
ATOM     97  F   UNL A   1      43.548  25.440  33.598  1.00  0.00    -0.205 F 
ATOM     98  C   UNL A   1      46.858  24.435  34.730  1.00  0.00     0.022 A 
BRANCH  96  99
ATOM     99  S   UNL A   1      44.520  24.019  36.092  1.00  0.00     0.127 S 
ATOM    100  O   UNL A   1      44.043  25.263  36.696  1.00  0.00    -0.237 OA
ATOM    101  O   UNL A   1      43.482  23.226  35.431  1.00  0.00    -0.237 OA
ATOM    102  O   UNL A   1      45.450  23.238  36.892  1.00  0.00    -0.744 OA
ENDBRANCH  96  99
ENDBRANCH  69  92
ENDBRANCH  43  44
ENDBRANCH  35  38
ENDBRANCH  33  34
ENDBRANCH   1  33
TORSDOF 17
ENDMDL
MODEL 2
REMARK VINA RESULT:     -13.4      1.522      2.146
REMARK SMILES Cc1ccc(-c2nn(-c3ccccc3)cc2[C@@H]2[NH2+][C@H](C(=O)NCCCCNC(=O)c3ccc(-c4c5nc(c(-c6cccc(S(=O)(=O)[O-])c6F)c6ccc([nH]6)c(-c6cccc(S(=O)(=O)[O-])c6F)c6nc(c(-c7cccc(S(=O)(=O)[O-])c7F)c7ccc4[nH]7)C=C6)C=C5)cc3)CS2)cc1
REMARK SMILES IDX 25 1 24 2 23 3 22 4 20 5 21 6 19 8 17 9 18 10 94 11 93 14
REMARK SMILES IDX 16 15 6 16 7 17 8 18 15 19 5 20 1 21 2 22 3 23 96 24 4 25
REMARK SMILES IDX 95 26 9 27 10 28 14 29 11 30 13 31 12 32 26 33 27 34 28 35
REMARK SMILES IDX 29 37 30 38 31 39 92 40 32 41 91 42 33 43 34 44 35 45 85 46
REMARK SMILES IDX 36 47 90 48 84 49 86 50 37 51 89 52 83 53 82 54 38 56 70 57
REMARK SMILES IDX 50 58 69 59 51 60 54 61 68 62 87 63 52 64 53 65 67 67 88 68
REMARK SMILES IDX 55 69 39 70 40 71 48 72 41 73 43 74 49 75 42 76 44 77 45 78
REMARK SMILES IDX 46 79 47 80 71 81 72 82 80 83 73 84 75 85 81 86 74 87 76 88
REMARK SMILES IDX 77 89 78 90 79 91 56 92 57 93 65 94 58 95 60 96 66 97 59 98
REMARK SMILES IDX 61 99 62 100 63 101 64 102
REMARK H PARENT 22 7 18 12 18 13 27 36 86 55 54 66
REMARK Flexibility Score: inf
ROOT
ATOM      1  C   UNL A   1      33.472  28.351  26.004  1.00  0.00     0.023 C 
ENDROOT
BRANCH   1   2
ATOM      2  C   UNL A   1      32.703  26.958  25.919  1.00  0.00     0.023 C 
BRANCH   2   3
ATOM      3  C   UNL A   1      33.292  25.536  26.112  1.00  0.00     0.116 C 
BRANCH   3   4
ATOM      4  N   UNL A   1      32.511  24.371  26.500  1.00  0.00    -0.351 N 
ATOM      5  C   UNL A   1      32.966  23.227  27.135  1.00  0.00     0.279 C 
ATOM      6  O   UNL A   1      32.115  22.609  27.798  1.00  0.00    -0.268 OA
ATOM      7  H   UNL A   1      31.550  24.399  26.286  1.00  0.00     0.163 HD
BRANCH   5   8
ATOM      8  C   UNL A   1      34.384  22.562  27.008  1.00  0.00     0.283 C 
ATOM      9  C   UNL A   1      35.248  20.962  25.380  1.00  0.00     0.278 C 
ATOM     10  N   UNL A   1      34.450  21.124  26.613  1.00  0.00    -0.320 N 
ATOM     11  S   UNL A   1      36.547  22.204  25.512  1.00  0.00    -0.087 SA
ATOM     12  H   UNL A   1      34.883  20.589  27.367  1.00  0.00     0.348 HD
ATOM     13  H   UNL A   1      33.503  20.785  26.441  1.00  0.00     0.348 HD
ATOM     14  C   UNL A   1      35.390  23.415  26.216  1.00  0.00     0.151 C 
BRANCH   9  15
ATOM     15  C   UNL A   1      34.324  21.163  24.228  1.00  0.00     0.067 A 
ATOM     16  C   UNL A   1      33.262  20.306  23.802  1.00  0.00     0.103 A 
ATOM     17  N   UNL A   1      32.361  21.053  23.115  1.00  0.00    -0.167 NA
ATOM     18  N   UNL A   1      32.878  22.336  23.092  1.00  0.00    -0.240 N 
ATOM     19  C   UNL A   1      34.222  22.261  23.384  1.00  0.00     0.126 A 
BRANCH  16  20
ATOM     20  C   UNL A   1      33.062  18.870  24.174  1.00  0.00     0.003 A 
ATOM     21  C   UNL A   1      32.925  14.698  25.490  1.00  0.00     0.044 C 
ATOM     22  C   UNL A   1      32.958  16.123  25.013  1.00  0.00    -0.051 A 
ATOM     23  C   UNL A   1      32.411  17.129  25.802  1.00  0.00     0.004 A 
ATOM     24  C   UNL A   1      33.527  16.489  23.788  1.00  0.00     0.004 A 
ATOM     25  C   UNL A   1      32.485  18.472  25.396  1.00  0.00     0.011 A 
ATOM     26  C   UNL A   1      33.568  17.840  23.372  1.00  0.00     0.011 A 
ENDBRANCH  16  20
BRANCH  18  27
ATOM     27  C   UNL A   1      32.145  23.599  23.082  1.00  0.00     0.065 A 
ATOM     28  C   UNL A   1      32.599  24.783  22.477  1.00  0.00     0.028 A 
ATOM     29  C   UNL A   1      30.861  23.660  23.622  1.00  0.00     0.028 A 
ATOM     30  C   UNL A   1      31.885  25.995  22.511  1.00  0.00     0.002 A 
ATOM     31  C   UNL A   1      30.150  24.875  23.692  1.00  0.00     0.002 A 
ATOM     32  C   UNL A   1      30.674  26.051  23.172  1.00  0.00     0.000 A 
ENDBRANCH  18  27
ENDBRANCH   9  15
ENDBRANCH   5   8
ENDBRANCH   3   4
ENDBRANCH   2   3
ENDBRANCH   1   2
BRANCH   1  33
ATOM     33  C   UNL A   1      34.695  28.621  26.912  1.00  0.00     0.116 C 
BRANCH  33  34
ATOM     34  N   UNL A   1      34.720  29.715  27.899  1.00  0.00    -0.352 N 
ATOM     35  C   UNL A   1      35.796  30.263  28.644  1.00  0.00     0.251 C 
ATOM     36  H   UNL A   1      33.846  30.134  28.070  1.00  0.00     0.163 HD
ATOM     37  O   UNL A   1      35.525  31.140  29.466  1.00  0.00    -0.269 OA
BRANCH  35  38
ATOM     38  C   UNL A   1      37.229  29.823  28.473  1.00  0.00     0.039 A 
ATOM     39  C   UNL A   1      37.977  29.760  27.285  1.00  0.00     0.014 A 
ATOM     40  C   UNL A   1      37.868  29.331  29.574  1.00  0.00     0.014 A 
ATOM     41  C   UNL A   1      39.247  29.101  27.270  1.00  0.00     0.010 A 
ATOM     42  C   UNL A   1      39.218  29.160  29.611  1.00  0.00     0.010 A 
ATOM     43  C   UNL A   1      39.825  28.718  28.471  1.00  0.00    -0.014 A 
BRANCH  43  44
ATOM     44  C   UNL A   1      40.958  27.840  28.811  1.00  0.00     0.031 A 
ATOM     45  C   UNL A   1      40.881  26.390  28.599  1.00  0.00     0.074 A 
ATOM     46  C   UNL A   1      42.195  28.409  28.911  1.00  0.00     0.049 A 
ATOM     47  N   UNL A   1      41.755  25.538  29.011  1.00  0.00    -0.248 NA
ATOM     48  C   UNL A   1      39.785  25.789  27.861  1.00  0.00     0.031 C 
ATOM     49  C   UNL A   1      43.513  27.793  28.751  1.00  0.00     0.029 A 
ATOM     50  N   UNL A   1      42.512  29.732  29.238  1.00  0.00    -0.354 N 
ATOM     51  C   UNL A   1      41.502  24.339  28.378  1.00  0.00     0.074 A 
ATOM     52  C   UNL A   1      40.201  24.523  27.778  1.00  0.00     0.031 C 
ATOM     53  C   UNL A   1      44.462  28.634  29.204  1.00  0.00     0.029 A 
ATOM     54  C   UNL A   1      43.763  29.717  29.869  1.00  0.00     0.049 A 
ATOM     55  H   UNL A   1      41.959  30.526  29.057  1.00  0.00     0.167 HD
ATOM     56  C   UNL A   1      42.493  23.399  28.324  1.00  0.00     0.034 A 
ATOM     57  C   UNL A   1      43.924  30.059  31.184  1.00  0.00     0.034 A 
ATOM     58  C   UNL A   1      43.688  23.865  29.071  1.00  0.00     0.049 A 
ATOM     59  C   UNL A   1      44.380  28.854  31.990  1.00  0.00     0.074 A 
ATOM     60  C   UNL A   1      44.903  24.393  28.660  1.00  0.00     0.029 A 
ATOM     61  N   UNL A   1      43.607  24.112  30.445  1.00  0.00    -0.354 N 
ATOM     62  N   UNL A   1      44.398  27.638  31.513  1.00  0.00    -0.248 NA
ATOM     63  C   UNL A   1      44.870  28.905  33.362  1.00  0.00     0.031 C 
ATOM     64  C   UNL A   1      45.481  25.077  29.768  1.00  0.00     0.029 A 
ATOM     65  C   UNL A   1      44.648  24.931  30.868  1.00  0.00     0.049 A 
ATOM     66  H   UNL A   1      42.907  23.751  31.035  1.00  0.00     0.167 HD
ATOM     67  C   UNL A   1      44.784  26.751  32.464  1.00  0.00     0.074 A 
ATOM     68  C   UNL A   1      45.124  27.603  33.597  1.00  0.00     0.031 C 
ATOM     69  C   UNL A   1      44.741  25.399  32.257  1.00  0.00     0.034 A 
BRANCH  56  70
ATOM     70  C   UNL A   1      42.535  22.175  27.395  1.00  0.00     0.023 A 
ATOM     71  C   UNL A   1      41.527  21.196  27.567  1.00  0.00     0.012 A 
ATOM     72  C   UNL A   1      43.498  21.870  26.399  1.00  0.00     0.148 A 
ATOM     73  C   UNL A   1      41.512  19.980  26.866  1.00  0.00     0.002 A 
ATOM     74  C   UNL A   1      43.501  20.648  25.711  1.00  0.00     0.091 A 
ATOM     75  F   UNL A   1      44.411  22.771  26.050  1.00  0.00    -0.205 F 
ATOM     76  C   UNL A   1      42.510  19.695  25.949  1.00  0.00     0.022 A 
BRANCH  74  77
ATOM     77  S   UNL A   1      44.772  20.202  24.506  1.00  0.00     0.127 S 
ATOM     78  O   UNL A   1      44.585  21.223  23.473  1.00  0.00    -0.237 OA
ATOM     79  O   UNL A   1      46.002  20.344  25.283  1.00  0.00    -0.237 OA
ATOM     80  O   UNL A   1      44.471  18.844  24.068  1.00  0.00    -0.744 OA
ENDBRANCH  74  77
ENDBRANCH  56  70
BRANCH  57  81
ATOM     81  C   UNL A   1      42.941  31.109  31.606  1.00  0.00     0.023 A 
ATOM     82  C   UNL A   1      42.824  32.218  30.731  1.00  0.00     0.012 A 
ATOM     83  C   UNL A   1      41.842  30.764  32.414  1.00  0.00     0.148 A 
ATOM     84  C   UNL A   1      41.577  32.799  30.490  1.00  0.00     0.002 A 
ATOM     85  C   UNL A   1      40.606  31.372  32.182  1.00  0.00     0.091 A 
ATOM     86  F   UNL A   1      41.983  29.774  33.303  1.00  0.00    -0.205 F 
ATOM     87  C   UNL A   1      40.459  32.343  31.179  1.00  0.00     0.022 A 
BRANCH  85  88
ATOM     88  S   UNL A   1      39.146  30.816  33.072  1.00  0.00     0.127 S 
ATOM     89  O   UNL A   1      38.074  31.391  32.256  1.00  0.00    -0.237 OA
ATOM     90  O   UNL A   1      39.242  29.356  32.992  1.00  0.00    -0.237 OA
ATOM     91  O   UNL A   1      39.305  31.355  34.407  1.00  0.00    -0.744 OA
ENDBRANCH  85  88
ENDBRANCH  57  81
BRANCH  69  92
ATOM     92  C   UNL A   1      44.830  24.409  33.392  1.00  0.00     0.023 A 
ATOM     93  C   UNL A   1      43.668  23.828  33.943  1.00  0.00     0.012 A 
ATOM     94  C   UNL A   1      46.074  23.927  33.859  1.00  0.00     0.148 A 
ATOM     95  C   UNL A   1      43.724  22.916  34.997  1.00  0.00     0.002 A 
ATOM     96  C   UNL A   1      46.126  22.928  34.827  1.00  0.00     0.091 A 
ATOM     97  F   UNL A   1      47.212  24.445  33.379  1.00  0.00    -0.205 F 
ATOM     98  C   UNL A   1      44.957  22.457  35.432  1.00  0.00     0.022 A 
BRANCH  96  99
ATOM     99  S   UNL A   1      47.664  22.098  35.242  1.00  0.00     0.127 S 
ATOM    100  O   UNL A   1      48.653  23.133  34.942  1.00  0.00    -0.237 OA
ATOM    101  O   UNL A   1      47.488  21.820  36.670  1.00  0.00    -0.237 OA
ATOM    102  O   UNL A   1      47.708  20.911  34.404  1.00  0.00    -0.744 OA
ENDBRANCH  96  99
ENDBRANCH  69  92
ENDBRANCH  43  44
ENDBRANCH  35  38
ENDBRANCH  33  34
ENDBRANCH   1  33
TORSDOF 17
ENDMDL
MODEL 3
REMARK VINA RESULT:     -12.7      2.960      4.686
REMARK SMILES Cc1ccc(-c2nn(-c3ccccc3)cc2[C@@H]2[NH2+][C@H](C(=O)NCCCCNC(=O)c3ccc(-c4c5nc(c(-c6cccc(S(=O)(=O)[O-])c6F)c6ccc([nH]6)c(-c6cccc(S(=O)(=O)[O-])c6F)c6nc(c(-c7cccc(S(=O)(=O)[O-])c7F)c7ccc4[nH]7)C=C6)C=C5)cc3)CS2)cc1
REMARK SMILES IDX 25 1 24 2 23 3 22 4 20 5 21 6 19 8 17 9 18 10 94 11 93 14
REMARK SMILES IDX 16 15 6 16 7 17 8 18 15 19 5 20 1 21 2 22 3 23 96 24 4 25
REMARK SMILES IDX 95 26 9 27 10 28 14 29 11 30 13 31 12 32 26 33 27 34 28 35
REMARK SMILES IDX 29 37 30 38 31 39 92 40 32 41 91 42 33 43 34 44 35 45 85 46
REMARK SMILES IDX 36 47 90 48 84 49 86 50 37 51 89 52 83 53 82 54 38 56 70 57
REMARK SMILES IDX 50 58 69 59 51 60 54 61 68 62 87 63 52 64 53 65 67 67 88 68
REMARK SMILES IDX 55 69 39 70 40 71 48 72 41 73 43 74 49 75 42 76 44 77 45 78
REMARK SMILES IDX 46 79 47 80 71 81 72 82 80 83 73 84 75 85 81 86 74 87 76 88
REMARK SMILES IDX 77 89 78 90 79 91 56 92 57 93 65 94 58 95 60 96 66 97 59 98
REMARK SMILES IDX 61 99 62 100 63 101 64 102
REMARK H PARENT 22 7 18 12 18 13 27 36 86 55 54 66
REMARK Flexibility Score: inf
ROOT
ATOM      1  C   UNL A   1      35.344  32.344  27.657  1.00  0.00     0.023 C 
ENDROOT
BRANCH   1   2
ATOM      2  C   UNL A   1      35.092  30.919  28.325  1.00  0.00     0.023 C 
BRANCH   2   3
ATOM      3  C   UNL A   1      34.603  29.619  27.633  1.00  0.00     0.116 C 
BRANCH   3   4
ATOM      4  N   UNL A   1      33.283  29.452  27.042  1.00  0.00    -0.351 N 
ATOM      5  C   UNL A   1      32.936  28.636  25.979  1.00  0.00     0.279 C 
ATOM      6  O   UNL A   1      31.750  28.266  25.954  1.00  0.00    -0.268 OA
ATOM      7  H   UNL A   1      32.556  29.980  27.443  1.00  0.00     0.163 HD
BRANCH   5   8
ATOM      8  C   UNL A   1      33.828  28.236  24.748  1.00  0.00     0.283 C 
ATOM      9  C   UNL A   1      33.447  26.606  22.972  1.00  0.00     0.278 C 
ATOM     10  N   UNL A   1      33.893  26.795  24.368  1.00  0.00    -0.320 N 
ATOM     11  S   UNL A   1      34.028  28.074  22.106  1.00  0.00    -0.087 SA
ATOM     12  H   UNL A   1      34.855  26.467  24.461  1.00  0.00     0.348 HD
ATOM     13  H   UNL A   1      33.280  26.262  24.986  1.00  0.00     0.348 HD
ATOM     14  C   UNL A   1      33.611  29.137  23.519  1.00  0.00     0.151 C 
BRANCH   9  15
ATOM     15  C   UNL A   1      31.964  26.458  23.000  1.00  0.00     0.067 A 
ATOM     16  C   UNL A   1      31.184  25.660  23.894  1.00  0.00     0.103 A 
ATOM     17  N   UNL A   1      29.936  26.189  23.958  1.00  0.00    -0.167 NA
ATOM     18  N   UNL A   1      29.942  27.270  23.095  1.00  0.00    -0.240 N 
ATOM     19  C   UNL A   1      31.015  27.131  22.242  1.00  0.00     0.126 A 
BRANCH  16  20
ATOM     20  C   UNL A   1      31.671  24.535  24.753  1.00  0.00     0.003 A 
ATOM     21  C   UNL A   1      33.542  21.473  27.257  1.00  0.00     0.044 C 
ATOM     22  C   UNL A   1      32.883  22.503  26.384  1.00  0.00    -0.051 A 
ATOM     23  C   UNL A   1      32.251  23.597  26.964  1.00  0.00     0.004 A 
ATOM     24  C   UNL A   1      32.878  22.409  24.988  1.00  0.00     0.004 A 
ATOM     25  C   UNL A   1      31.679  24.598  26.160  1.00  0.00     0.011 A 
ATOM     26  C   UNL A   1      32.272  23.405  24.186  1.00  0.00     0.011 A 
ENDBRANCH  16  20
BRANCH  18  27
ATOM     27  C   UNL A   1      29.185  28.515  23.208  1.00  0.00     0.065 A 
ATOM     28  C   UNL A   1      29.758  29.788  23.365  1.00  0.00     0.028 A 
ATOM     29  C   UNL A   1      27.798  28.497  23.064  1.00  0.00     0.028 A 
ATOM     30  C   UNL A   1      29.001  30.967  23.502  1.00  0.00     0.002 A 
ATOM     31  C   UNL A   1      27.028  29.665  23.233  1.00  0.00     0.002 A 
ATOM     32  C   UNL A   1      27.622  30.894  23.489  1.00  0.00     0.000 A 
ENDBRANCH  18  27
ENDBRANCH   9  15
ENDBRANCH   5   8
ENDBRANCH   3   4
ENDBRANCH   2   3
ENDBRANCH   1   2
BRANCH   1  33
ATOM     33  C   UNL A   1      34.554  33.627  28.010  1.00  0.00     0.116 C 
BRANCH  33  34
ATOM     34  N   UNL A   1      34.072  33.907  29.374  1.00  0.00    -0.352 N 
ATOM     35  C   UNL A   1      34.743  33.846  30.623  1.00  0.00     0.251 C 
ATOM     36  H   UNL A   1      33.128  34.183  29.428  1.00  0.00     0.163 HD
ATOM     37  O   UNL A   1      34.077  34.066  31.635  1.00  0.00    -0.269 OA
BRANCH  35  38
ATOM     38  C   UNL A   1      36.212  33.528  30.756  1.00  0.00     0.039 A 
ATOM     39  C   UNL A   1      37.292  34.145  30.102  1.00  0.00     0.014 A 
ATOM     40  C   UNL A   1      36.551  32.452  31.525  1.00  0.00     0.014 A 
ATOM     41  C   UNL A   1      38.599  33.565  30.171  1.00  0.00     0.010 A 
ATOM     42  C   UNL A   1      37.831  32.231  31.936  1.00  0.00     0.010 A 
ATOM     43  C   UNL A   1      38.831  32.521  31.054  1.00  0.00    -0.014 A 
BRANCH  43  44
ATOM     44  C   UNL A   1      39.938  31.561  31.213  1.00  0.00     0.031 A 
ATOM     45  C   UNL A   1      39.977  30.317  30.438  1.00  0.00     0.074 A 
ATOM     46  C   UNL A   1      41.107  32.023  31.746  1.00  0.00     0.049 A 
ATOM     47  N   UNL A   1      40.815  29.356  30.627  1.00  0.00    -0.248 NA
ATOM     48  C   UNL A   1      39.055  30.077  29.342  1.00  0.00     0.031 C 
ATOM     49  C   UNL A   1      42.465  31.499  31.590  1.00  0.00     0.029 A 
ATOM     50  N   UNL A   1      41.291  33.101  32.617  1.00  0.00    -0.354 N 
ATOM     51  C   UNL A   1      40.738  28.513  29.539  1.00  0.00     0.074 A 
ATOM     52  C   UNL A   1      39.548  28.942  28.841  1.00  0.00     0.031 C 
ATOM     53  C   UNL A   1      43.277  32.076  32.497  1.00  0.00     0.029 A 
ATOM     54  C   UNL A   1      42.417  32.816  33.401  1.00  0.00     0.049 A 
ATOM     55  H   UNL A   1      40.733  33.911  32.670  1.00  0.00     0.167 HD
ATOM     56  C   UNL A   1      41.775  27.655  29.294  1.00  0.00     0.034 A 
ATOM     57  C   UNL A   1      42.337  32.605  34.750  1.00  0.00     0.034 A 
ATOM     58  C   UNL A   1      42.799  27.766  30.362  1.00  0.00     0.049 A 
ATOM     59  C   UNL A   1      42.716  31.171  35.083  1.00  0.00     0.074 A 
ATOM     60  C   UNL A   1      44.035  28.393  30.413  1.00  0.00     0.029 A 
ATOM     61  N   UNL A   1      42.476  27.447  31.684  1.00  0.00    -0.354 N 
ATOM     62  N   UNL A   1      42.881  30.245  34.177  1.00  0.00    -0.248 NA
ATOM     63  C   UNL A   1      42.965  30.664  36.427  1.00  0.00     0.031 C 
ATOM     64  C   UNL A   1      44.380  28.571  31.784  1.00  0.00     0.029 A 
ATOM     65  C   UNL A   1      43.384  28.014  32.572  1.00  0.00     0.049 A 
ATOM     66  H   UNL A   1      41.707  26.894  31.952  1.00  0.00     0.167 HD
ATOM     67  C   UNL A   1      43.150  29.047  34.753  1.00  0.00     0.074 A 
ATOM     68  C   UNL A   1      43.248  29.373  36.170  1.00  0.00     0.031 C 
ATOM     69  C   UNL A   1      43.217  27.889  34.026  1.00  0.00     0.034 A 
BRANCH  56  70
ATOM     70  C   UNL A   1      42.039  26.901  27.981  1.00  0.00     0.023 A 
ATOM     71  C   UNL A   1      42.072  27.665  26.790  1.00  0.00     0.012 A 
ATOM     72  C   UNL A   1      42.213  25.504  27.799  1.00  0.00     0.148 A 
ATOM     73  C   UNL A   1      42.193  27.091  25.515  1.00  0.00     0.002 A 
ATOM     74  C   UNL A   1      42.311  24.923  26.526  1.00  0.00     0.091 A 
ATOM     75  F   UNL A   1      42.339  24.701  28.850  1.00  0.00    -0.205 F 
ATOM     76  C   UNL A   1      42.294  25.716  25.379  1.00  0.00     0.022 A 
BRANCH  74  77
ATOM     77  S   UNL A   1      42.440  23.139  26.269  1.00  0.00     0.127 S 
ATOM     78  O   UNL A   1      43.549  22.782  27.156  1.00  0.00    -0.237 OA
ATOM     79  O   UNL A   1      41.130  22.664  26.713  1.00  0.00    -0.237 OA
ATOM     80  O   UNL A   1      42.719  22.943  24.851  1.00  0.00    -0.744 OA
ENDBRANCH  74  77
ENDBRANCH  56  70
BRANCH  57  81
ATOM     81  C   UNL A   1      41.240  33.416  35.372  1.00  0.00     0.023 A 
ATOM     82  C   UNL A   1      41.260  34.800  35.065  1.00  0.00     0.012 A 
ATOM     83  C   UNL A   1      40.013  32.813  35.699  1.00  0.00     0.148 A 
ATOM     84  C   UNL A   1      40.068  35.493  34.847  1.00  0.00     0.002 A 
ATOM     85  C   UNL A   1      38.827  33.525  35.503  1.00  0.00     0.091 A 
ATOM     86  F   UNL A   1      40.007  31.528  36.075  1.00  0.00    -0.205 F 
ATOM     87  C   UNL A   1      38.851  34.842  35.017  1.00  0.00     0.022 A 
BRANCH  85  88
ATOM     88  S   UNL A   1      37.239  32.715  35.734  1.00  0.00     0.127 S 
ATOM     89  O   UNL A   1      37.136  32.691  37.194  1.00  0.00    -0.237 OA
ATOM     90  O   UNL A   1      36.299  33.631  35.082  1.00  0.00    -0.237 OA
ATOM     91  O   UNL A   1      37.383  31.434  35.073  1.00  0.00    -0.744 OA
ENDBRANCH  85  88
ENDBRANCH  57  81
BRANCH  69  92
ATOM     92  C   UNL A   1      43.168  26.529  34.675  1.00  0.00     0.023 A 
ATOM     93  C   UNL A   1      41.948  25.981  35.125  1.00  0.00     0.012 A 
ATOM     94  C   UNL A   1      44.310  25.697  34.741  1.00  0.00     0.148 A 
ATOM     95  C   UNL A   1      41.879  24.728  35.734  1.00  0.00     0.002 A 
ATOM     96  C   UNL A   1      44.213  24.401  35.239  1.00  0.00     0.091 A 
ATOM     97  F   UNL A   1      45.498  26.165  34.335  1.00  0.00    -0.205 F 
ATOM     98  C   UNL A   1      43.012  23.933  35.781  1.00  0.00     0.022 A 
BRANCH  96  99
ATOM     99  S   UNL A   1      45.564  23.229  35.084  1.00  0.00     0.127 S 
ATOM    100  O   UNL A   1      44.983  22.023  35.672  1.00  0.00    -0.237 OA
ATOM    101  O   UNL A   1      45.754  23.168  33.632  1.00  0.00    -0.237 OA
ATOM    102  O   UNL A   1      46.679  23.818  35.808  1.00  0.00    -0.744 OA
ENDBRANCH  96  99
ENDBRANCH  69  92
ENDBRANCH  43  44
ENDBRANCH  35  38
ENDBRANCH  33  34
ENDBRANCH   1  33
TORSDOF 17
ENDMDL
