MODEL 1
REMARK VINA RESULT:     -11.9      0.000      0.000
REMARK SMILES CCC([NH3+])(CC)C(=O)N1Cc2nc[nH]c2C[C@H]1C(=O)NCCCCNC(=O)c1ccc(-c2c3nc(c(-c4cccc(S(=O)(=O)[O-])c4F)c4ccc([nH]4)c(-c4cccc(S(=O)(=O)[O-])c4F)c4nc(c(-c5cccc(S(=O)(=O)[O-])c5F)c5ccc2[nH]5)C=C4)C=C3)cc1
REMARK SMILES IDX 22 1 21 2 20 3 18 4 19 5 17 7 9 8 10 9 11 10 16 11 12 12
REMARK SMILES IDX 15 13 13 14 14 15 7 17 8 18 3 19 2 20 1 21 4 22 5 26 6 27
REMARK SMILES IDX 23 28 24 29 25 30 26 31 27 33 28 34 29 35 90 36 30 37 89 38
REMARK SMILES IDX 31 39 32 40 33 41 83 42 34 43 88 44 82 45 84 46 35 47 87 48
REMARK SMILES IDX 81 49 80 50 36 52 68 53 48 54 67 55 49 56 52 57 66 58 85 59
REMARK SMILES IDX 50 60 51 61 65 63 86 64 53 65 37 66 38 67 46 68 39 69 41 70
REMARK SMILES IDX 47 71 40 72 42 73 43 74 44 75 45 76 69 77 70 78 78 79 71 80
REMARK SMILES IDX 73 81 79 82 72 83 74 84 75 85 76 86 77 87 54 88 55 89 63 90
REMARK SMILES IDX 56 91 58 92 64 93 57 94 59 95 60 96 61 97 62 98
REMARK H PARENT 20 6 14 16 4 23 4 24 4 25 25 32 84 51 52 62
REMARK Flexibility Score: inf
ROOT
ATOM      1  C   UNL A   1      37.252  21.172  24.465  1.00  0.00     0.023 C 
ENDROOT
BRANCH   1   2
ATOM      2  C   UNL A   1      37.316  22.446  25.319  1.00  0.00     0.116 C 
BRANCH   2   3
ATOM      3  N   UNL A   1      36.533  23.520  24.737  1.00  0.00    -0.354 N 
ATOM      4  C   UNL A   1      35.264  23.963  24.917  1.00  0.00     0.243 C 
ATOM      5  O   UNL A   1      34.847  24.742  24.045  1.00  0.00    -0.273 OA
ATOM      6  H   UNL A   1      37.031  24.041  24.066  1.00  0.00     0.163 HD
BRANCH   4   7
ATOM      7  C   UNL A   1      34.274  23.506  26.017  1.00  0.00     0.181 C 
ATOM      8  N   UNL A   1      32.827  23.810  25.783  1.00  0.00    -0.319 N 
ATOM      9  C   UNL A   1      32.036  22.812  25.026  1.00  0.00     0.178 C 
ATOM     10  C   UNL A   1      32.481  21.429  25.343  1.00  0.00     0.081 A 
ATOM     11  C   UNL A   1      34.535  22.110  26.653  1.00  0.00     0.091 C 
ATOM     12  N   UNL A   1      31.947  20.290  24.800  1.00  0.00    -0.240 NA
ATOM     13  C   UNL A   1      33.598  21.123  26.082  1.00  0.00     0.042 A 
ATOM     14  C   UNL A   1      32.711  19.310  25.238  1.00  0.00     0.197 A 
ATOM     15  N   UNL A   1      33.713  19.765  26.056  1.00  0.00    -0.348 N 
ATOM     16  H   UNL A   1      34.381  19.221  26.531  1.00  0.00     0.167 HD
BRANCH   8  17
ATOM     17  C   UNL A   1      32.101  24.857  26.343  1.00  0.00     0.284 C 
ATOM     18  O   UNL A   1      31.279  24.596  27.235  1.00  0.00    -0.268 OA
BRANCH  17  19
ATOM     19  C   UNL A   1      32.225  26.356  25.849  1.00  0.00     0.173 C 
BRANCH  19  20
ATOM     20  C   UNL A   1      31.054  27.192  26.479  1.00  0.00     0.075 C 
ATOM     21  C   UNL A   1      31.434  28.171  27.592  1.00  0.00     0.011 C 
ENDBRANCH  19  20
BRANCH  19  22
ATOM     22  N   UNL A   1      32.052  26.428  24.380  1.00  0.00    -0.345 N 
ATOM     23  H   UNL A   1      31.167  25.992  24.121  1.00  0.00     0.345 HD
ATOM     24  H   UNL A   1      32.820  25.937  23.923  1.00  0.00     0.345 HD
ATOM     25  H   UNL A   1      32.050  27.404  24.086  1.00  0.00     0.345 HD
ENDBRANCH  19  22
BRANCH  19  26
ATOM     26  C   UNL A   1      33.550  27.066  26.224  1.00  0.00     0.075 C 
ATOM     27  C   UNL A   1      34.059  28.053  25.181  1.00  0.00     0.011 C 
ENDBRANCH  19  26
ENDBRANCH  17  19
ENDBRANCH   8  17
ENDBRANCH   4   7
ENDBRANCH   2   3
ENDBRANCH   1   2
BRANCH   1  28
ATOM     28  C   UNL A   1      37.994  19.960  25.042  1.00  0.00     0.023 C 
BRANCH  28  29
ATOM     29  C   UNL A   1      39.241  20.304  25.851  1.00  0.00     0.116 C 
BRANCH  29  30
ATOM     30  N   UNL A   1      40.262  19.256  25.821  1.00  0.00    -0.352 N 
ATOM     31  C   UNL A   1      41.629  19.429  25.921  1.00  0.00     0.251 C 
ATOM     32  H   UNL A   1      39.941  18.330  25.720  1.00  0.00     0.163 HD
ATOM     33  O   UNL A   1      42.422  18.586  25.514  1.00  0.00    -0.269 OA
BRANCH  31  34
ATOM     34  C   UNL A   1      42.110  20.671  26.544  1.00  0.00     0.039 A 
ATOM     35  C   UNL A   1      42.506  21.762  25.766  1.00  0.00     0.014 A 
ATOM     36  C   UNL A   1      42.023  20.757  27.932  1.00  0.00     0.014 A 
ATOM     37  C   UNL A   1      42.716  22.987  26.394  1.00  0.00     0.010 A 
ATOM     38  C   UNL A   1      42.119  21.992  28.530  1.00  0.00     0.010 A 
ATOM     39  C   UNL A   1      42.488  23.107  27.775  1.00  0.00    -0.014 A 
BRANCH  39  40
ATOM     40  C   UNL A   1      42.496  24.425  28.408  1.00  0.00     0.031 A 
ATOM     41  C   UNL A   1      41.267  25.251  28.210  1.00  0.00     0.074 A 
ATOM     42  C   UNL A   1      43.427  24.796  29.313  1.00  0.00     0.049 A 
ATOM     43  N   UNL A   1      41.165  26.382  27.590  1.00  0.00    -0.248 NA
ATOM     44  C   UNL A   1      39.978  24.706  28.665  1.00  0.00     0.031 C 
ATOM     45  C   UNL A   1      44.515  23.980  29.868  1.00  0.00     0.029 A 
ATOM     46  N   UNL A   1      43.498  25.936  30.054  1.00  0.00    -0.354 N 
ATOM     47  C   UNL A   1      39.848  26.806  27.780  1.00  0.00     0.074 A 
ATOM     48  C   UNL A   1      39.130  25.660  28.272  1.00  0.00     0.031 C 
ATOM     49  C   UNL A   1      44.944  24.531  31.023  1.00  0.00     0.029 A 
ATOM     50  C   UNL A   1      44.302  25.820  31.184  1.00  0.00     0.049 A 
ATOM     51  H   UNL A   1      43.025  26.766  29.813  1.00  0.00     0.167 HD
ATOM     52  C   UNL A   1      39.513  28.128  27.748  1.00  0.00     0.034 A 
ATOM     53  C   UNL A   1      44.403  26.701  32.206  1.00  0.00     0.034 A 
ATOM     54  C   UNL A   1      40.573  28.923  27.180  1.00  0.00     0.049 A 
ATOM     55  C   UNL A   1      43.941  28.011  31.702  1.00  0.00     0.074 A 
ATOM     56  C   UNL A   1      41.256  28.949  25.982  1.00  0.00     0.029 A 
ATOM     57  N   UNL A   1      41.327  29.662  28.059  1.00  0.00    -0.354 N 
ATOM     58  N   UNL A   1      44.568  28.688  30.780  1.00  0.00    -0.248 NA
ATOM     59  C   UNL A   1      42.562  28.397  31.935  1.00  0.00     0.031 C 
ATOM     60  C   UNL A   1      42.598  29.285  26.334  1.00  0.00     0.029 A 
ATOM     61  C   UNL A   1      42.638  29.500  27.714  1.00  0.00     0.049 A 
ATOM     62  H   UNL A   1      40.984  30.209  28.803  1.00  0.00     0.167 HD
ATOM     63  C   UNL A   1      43.554  29.244  30.015  1.00  0.00     0.074 A 
ATOM     64  C   UNL A   1      42.359  29.152  30.851  1.00  0.00     0.031 C 
ATOM     65  C   UNL A   1      43.719  29.453  28.675  1.00  0.00     0.034 A 
BRANCH  52  66
ATOM     66  C   UNL A   1      38.418  28.788  28.569  1.00  0.00     0.023 A 
ATOM     67  C   UNL A   1      37.517  29.637  27.876  1.00  0.00     0.012 A 
ATOM     68  C   UNL A   1      38.402  28.869  29.979  1.00  0.00     0.148 A 
ATOM     69  C   UNL A   1      36.719  30.573  28.542  1.00  0.00     0.002 A 
ATOM     70  C   UNL A   1      37.548  29.748  30.641  1.00  0.00     0.091 A 
ATOM     71  F   UNL A   1      39.302  28.200  30.701  1.00  0.00    -0.205 F 
ATOM     72  C   UNL A   1      36.734  30.629  29.927  1.00  0.00     0.022 A 
BRANCH  70  73
ATOM     73  S   UNL A   1      37.492  29.823  32.436  1.00  0.00     0.127 S 
ATOM     74  O   UNL A   1      38.773  30.452  32.740  1.00  0.00    -0.237 OA
ATOM     75  O   UNL A   1      36.316  30.665  32.665  1.00  0.00    -0.237 OA
ATOM     76  O   UNL A   1      37.330  28.443  32.875  1.00  0.00    -0.744 OA
ENDBRANCH  70  73
ENDBRANCH  52  66
BRANCH  53  77
ATOM     77  C   UNL A   1      44.686  26.455  33.636  1.00  0.00     0.023 A 
ATOM     78  C   UNL A   1      45.996  26.615  34.125  1.00  0.00     0.012 A 
ATOM     79  C   UNL A   1      43.632  26.332  34.567  1.00  0.00     0.148 A 
ATOM     80  C   UNL A   1      46.245  26.688  35.500  1.00  0.00     0.002 A 
ATOM     81  C   UNL A   1      43.884  26.397  35.934  1.00  0.00     0.091 A 
ATOM     82  F   UNL A   1      42.375  26.241  34.113  1.00  0.00    -0.205 F 
ATOM     83  C   UNL A   1      45.189  26.589  36.405  1.00  0.00     0.022 A 
BRANCH  81  84
ATOM     84  S   UNL A   1      42.566  26.290  37.152  1.00  0.00     0.127 S 
ATOM     85  O   UNL A   1      43.294  26.483  38.407  1.00  0.00    -0.237 OA
ATOM     86  O   UNL A   1      41.704  27.402  36.765  1.00  0.00    -0.237 OA
ATOM     87  O   UNL A   1      41.991  24.958  37.000  1.00  0.00    -0.744 OA
ENDBRANCH  81  84
ENDBRANCH  53  77
BRANCH  65  88
ATOM     88  C   UNL A   1      45.110  29.349  28.102  1.00  0.00     0.023 A 
ATOM     89  C   UNL A   1      46.042  30.404  28.186  1.00  0.00     0.012 A 
ATOM     90  C   UNL A   1      45.542  28.099  27.628  1.00  0.00     0.148 A 
ATOM     91  C   UNL A   1      47.368  30.222  27.784  1.00  0.00     0.002 A 
ATOM     92  C   UNL A   1      46.871  27.907  27.276  1.00  0.00     0.091 A 
ATOM     93  F   UNL A   1      44.645  27.102  27.559  1.00  0.00    -0.205 F 
ATOM     94  C   UNL A   1      47.786  28.970  27.342  1.00  0.00     0.022 A 
BRANCH  92  95
ATOM     95  S   UNL A   1      47.497  26.287  26.827  1.00  0.00     0.127 S 
ATOM     96  O   UNL A   1      48.931  26.538  26.697  1.00  0.00    -0.237 OA
ATOM     97  O   UNL A   1      47.121  25.471  27.983  1.00  0.00    -0.237 OA
ATOM     98  O   UNL A   1      46.808  25.920  25.596  1.00  0.00    -0.744 OA
ENDBRANCH  92  95
ENDBRANCH  65  88
ENDBRANCH  39  40
ENDBRANCH  31  34
ENDBRANCH  29  30
ENDBRANCH  28  29
ENDBRANCH   1  28
TORSDOF 19
ENDMDL
MODEL 2
REMARK VINA RESULT:     -10.8      1.935      2.296
REMARK SMILES CCC([NH3+])(CC)C(=O)N1Cc2nc[nH]c2C[C@H]1C(=O)NCCCCNC(=O)c1ccc(-c2c3nc(c(-c4cccc(S(=O)(=O)[O-])c4F)c4ccc([nH]4)c(-c4cccc(S(=O)(=O)[O-])c4F)c4nc(c(-c5cccc(S(=O)(=O)[O-])c5F)c5ccc2[nH]5)C=C4)C=C3)cc1
REMARK SMILES IDX 22 1 21 2 20 3 18 4 19 5 17 7 9 8 10 9 11 10 16 11 12 12
REMARK SMILES IDX 15 13 13 14 14 15 7 17 8 18 3 19 2 20 1 21 4 22 5 26 6 27
REMARK SMILES IDX 23 28 24 29 25 30 26 31 27 33 28 34 29 35 90 36 30 37 89 38
REMARK SMILES IDX 31 39 32 40 33 41 83 42 34 43 88 44 82 45 84 46 35 47 87 48
REMARK SMILES IDX 81 49 80 50 36 52 68 53 48 54 67 55 49 56 52 57 66 58 85 59
REMARK SMILES IDX 50 60 51 61 65 63 86 64 53 65 37 66 38 67 46 68 39 69 41 70
REMARK SMILES IDX 47 71 40 72 42 73 43 74 44 75 45 76 69 77 70 78 78 79 71 80
REMARK SMILES IDX 73 81 79 82 72 83 74 84 75 85 76 86 77 87 54 88 55 89 63 90
REMARK SMILES IDX 56 91 58 92 64 93 57 94 59 95 60 96 61 97 62 98
REMARK H PARENT 20 6 14 16 4 23 4 24 4 25 25 32 84 51 52 62
REMARK Flexibility Score: inf
ROOT
ATOM      1  C   UNL A   1      38.295  21.970  25.943  1.00  0.00     0.023 C 
ENDROOT
BRANCH   1   2
ATOM      2  C   UNL A   1      36.843  21.904  25.452  1.00  0.00     0.116 C 
BRANCH   2   3
ATOM      3  N   UNL A   1      36.290  23.229  25.235  1.00  0.00    -0.354 N 
ATOM      4  C   UNL A   1      35.091  23.803  25.503  1.00  0.00     0.243 C 
ATOM      5  O   UNL A   1      34.882  24.883  24.928  1.00  0.00    -0.273 OA
ATOM      6  H   UNL A   1      36.923  23.844  24.798  1.00  0.00     0.163 HD
BRANCH   4   7
ATOM      7  C   UNL A   1      33.945  23.193  26.347  1.00  0.00     0.181 C 
ATOM      8  N   UNL A   1      32.550  23.459  25.870  1.00  0.00    -0.319 N 
ATOM      9  C   UNL A   1      31.976  22.511  24.886  1.00  0.00     0.178 C 
ATOM     10  C   UNL A   1      32.438  21.123  25.151  1.00  0.00     0.081 A 
ATOM     11  C   UNL A   1      34.167  21.752  26.888  1.00  0.00     0.091 C 
ATOM     12  N   UNL A   1      32.085  20.026  24.412  1.00  0.00    -0.240 NA
ATOM     13  C   UNL A   1      33.415  20.790  26.058  1.00  0.00     0.042 A 
ATOM     14  C   UNL A   1      32.812  19.038  24.894  1.00  0.00     0.197 A 
ATOM     15  N   UNL A   1      33.615  19.448  25.928  1.00  0.00    -0.348 N 
ATOM     16  H   UNL A   1      34.215  18.886  26.469  1.00  0.00     0.167 HD
BRANCH   8  17
ATOM     17  C   UNL A   1      31.670  24.410  26.376  1.00  0.00     0.284 C 
ATOM     18  O   UNL A   1      30.903  24.078  27.293  1.00  0.00    -0.268 OA
BRANCH  17  19
ATOM     19  C   UNL A   1      31.554  25.878  25.792  1.00  0.00     0.173 C 
BRANCH  19  20
ATOM     20  C   UNL A   1      30.047  26.170  25.462  1.00  0.00     0.075 C 
ATOM     21  C   UNL A   1      29.665  26.203  23.980  1.00  0.00     0.011 C 
ENDBRANCH  19  20
BRANCH  19  22
ATOM     22  N   UNL A   1      32.294  25.981  24.514  1.00  0.00    -0.345 N 
ATOM     23  H   UNL A   1      33.249  26.291  24.698  1.00  0.00     0.345 HD
ATOM     24  H   UNL A   1      31.830  26.656  23.906  1.00  0.00     0.345 HD
ATOM     25  H   UNL A   1      32.313  25.070  24.057  1.00  0.00     0.345 HD
ENDBRANCH  19  22
BRANCH  19  26
ATOM     26  C   UNL A   1      32.044  27.004  26.737  1.00  0.00     0.075 C 
ATOM     27  C   UNL A   1      33.298  27.728  26.265  1.00  0.00     0.011 C 
ENDBRANCH  19  26
ENDBRANCH  17  19
ENDBRANCH   8  17
ENDBRANCH   4   7
ENDBRANCH   2   3
ENDBRANCH   1   2
BRANCH   1  28
ATOM     28  C   UNL A   1      39.231  20.903  25.362  1.00  0.00     0.023 C 
BRANCH  28  29
ATOM     29  C   UNL A   1      39.752  19.893  26.380  1.00  0.00     0.116 C 
BRANCH  29  30
ATOM     30  N   UNL A   1      40.904  19.126  25.902  1.00  0.00    -0.352 N 
ATOM     31  C   UNL A   1      42.179  19.605  25.669  1.00  0.00     0.251 C 
ATOM     32  H   UNL A   1      40.755  18.168  25.728  1.00  0.00     0.163 HD
ATOM     33  O   UNL A   1      42.966  19.024  24.929  1.00  0.00    -0.269 OA
BRANCH  31  34
ATOM     34  C   UNL A   1      42.570  20.848  26.352  1.00  0.00     0.039 A 
ATOM     35  C   UNL A   1      42.899  21.996  25.628  1.00  0.00     0.014 A 
ATOM     36  C   UNL A   1      42.464  20.866  27.741  1.00  0.00     0.014 A 
ATOM     37  C   UNL A   1      43.021  23.203  26.311  1.00  0.00     0.010 A 
ATOM     38  C   UNL A   1      42.471  22.076  28.394  1.00  0.00     0.010 A 
ATOM     39  C   UNL A   1      42.772  23.246  27.692  1.00  0.00    -0.014 A 
BRANCH  39  40
ATOM     40  C   UNL A   1      42.686  24.533  28.383  1.00  0.00     0.031 A 
ATOM     41  C   UNL A   1      41.450  25.331  28.121  1.00  0.00     0.074 A 
ATOM     42  C   UNL A   1      43.529  24.887  29.377  1.00  0.00     0.049 A 
ATOM     43  N   UNL A   1      41.361  26.487  27.547  1.00  0.00    -0.248 NA
ATOM     44  C   UNL A   1      40.148  24.728  28.445  1.00  0.00     0.031 C 
ATOM     45  C   UNL A   1      44.595  24.078  29.981  1.00  0.00     0.029 A 
ATOM     46  N   UNL A   1      43.502  25.993  30.171  1.00  0.00    -0.354 N 
ATOM     47  C   UNL A   1      40.020  26.862  27.647  1.00  0.00     0.074 A 
ATOM     48  C   UNL A   1      39.303  25.674  28.027  1.00  0.00     0.031 C 
ATOM     49  C   UNL A   1      44.911  24.586  31.191  1.00  0.00     0.029 A 
ATOM     50  C   UNL A   1      44.216  25.847  31.356  1.00  0.00     0.049 A 
ATOM     51  H   UNL A   1      43.023  26.818  29.930  1.00  0.00     0.167 HD
ATOM     52  C   UNL A   1      39.645  28.174  27.647  1.00  0.00     0.034 A 
ATOM     53  C   UNL A   1      44.206  26.681  32.421  1.00  0.00     0.034 A 
ATOM     54  C   UNL A   1      40.721  29.025  27.204  1.00  0.00     0.049 A 
ATOM     55  C   UNL A   1      43.743  27.999  31.940  1.00  0.00     0.074 A 
ATOM     56  C   UNL A   1      41.497  29.128  26.068  1.00  0.00     0.029 A 
ATOM     57  N   UNL A   1      41.376  29.743  28.173  1.00  0.00    -0.354 N 
ATOM     58  N   UNL A   1      44.419  28.737  31.104  1.00  0.00    -0.248 NA
ATOM     59  C   UNL A   1      42.337  28.334  32.077  1.00  0.00     0.031 C 
ATOM     60  C   UNL A   1      42.794  29.486  26.543  1.00  0.00     0.029 A 
ATOM     61  C   UNL A   1      42.716  29.636  27.930  1.00  0.00     0.049 A 
ATOM     62  H   UNL A   1      40.957  30.245  28.910  1.00  0.00     0.167 HD
ATOM     63  C   UNL A   1      43.452  29.299  30.285  1.00  0.00     0.074 A 
ATOM     64  C   UNL A   1      42.197  29.132  31.015  1.00  0.00     0.031 C 
ATOM     65  C   UNL A   1      43.717  29.576  28.973  1.00  0.00     0.034 A 
BRANCH  52  66
ATOM     66  C   UNL A   1      38.466  28.762  28.404  1.00  0.00     0.023 A 
ATOM     67  C   UNL A   1      37.531  29.517  27.652  1.00  0.00     0.012 A 
ATOM     68  C   UNL A   1      38.384  28.876  29.810  1.00  0.00     0.148 A 
ATOM     69  C   UNL A   1      36.633  30.401  28.259  1.00  0.00     0.002 A 
ATOM     70  C   UNL A   1      37.435  29.698  30.412  1.00  0.00     0.091 A 
ATOM     71  F   UNL A   1      39.304  28.300  30.586  1.00  0.00    -0.205 F 
ATOM     72  C   UNL A   1      36.583  30.492  29.642  1.00  0.00     0.022 A 
BRANCH  70  73
ATOM     73  S   UNL A   1      37.297  29.813  32.201  1.00  0.00     0.127 S 
ATOM     74  O   UNL A   1      36.046  30.549  32.348  1.00  0.00    -0.237 OA
ATOM     75  O   UNL A   1      37.239  28.402  32.588  1.00  0.00    -0.237 OA
ATOM     76  O   UNL A   1      38.505  30.500  32.638  1.00  0.00    -0.744 OA
ENDBRANCH  70  73
ENDBRANCH  52  66
BRANCH  53  77
ATOM     77  C   UNL A   1      44.381  26.377  33.857  1.00  0.00     0.023 A 
ATOM     78  C   UNL A   1      43.321  25.803  34.584  1.00  0.00     0.012 A 
ATOM     79  C   UNL A   1      45.665  26.396  34.446  1.00  0.00     0.148 A 
ATOM     80  C   UNL A   1      43.539  25.230  35.842  1.00  0.00     0.002 A 
ATOM     81  C   UNL A   1      45.876  25.832  35.700  1.00  0.00     0.091 A 
ATOM     82  F   UNL A   1      46.693  26.884  33.739  1.00  0.00    -0.205 F 
ATOM     83  C   UNL A   1      44.818  25.235  36.396  1.00  0.00     0.022 A 
BRANCH  81  84
ATOM     84  S   UNL A   1      47.503  25.793  36.465  1.00  0.00     0.127 S 
ATOM     85  O   UNL A   1      47.192  25.338  37.820  1.00  0.00    -0.237 OA
ATOM     86  O   UNL A   1      48.206  24.819  35.636  1.00  0.00    -0.237 OA
ATOM     87  O   UNL A   1      48.006  27.161  36.400  1.00  0.00    -0.744 OA
ENDBRANCH  81  84
ENDBRANCH  53  77
BRANCH  65  88
ATOM     88  C   UNL A   1      45.153  29.539  28.511  1.00  0.00     0.023 A 
ATOM     89  C   UNL A   1      45.811  28.334  28.189  1.00  0.00     0.012 A 
ATOM     90  C   UNL A   1      45.791  30.758  28.227  1.00  0.00     0.148 A 
ATOM     91  C   UNL A   1      47.086  28.345  27.618  1.00  0.00     0.002 A 
ATOM     92  C   UNL A   1      47.037  30.766  27.614  1.00  0.00     0.091 A 
ATOM     93  F   UNL A   1      45.150  31.897  28.533  1.00  0.00    -0.205 F 
ATOM     94  C   UNL A   1      47.694  29.561  27.318  1.00  0.00     0.022 A 
BRANCH  92  95
ATOM     95  S   UNL A   1      47.809  32.296  27.084  1.00  0.00     0.127 S 
ATOM     96  O   UNL A   1      46.819  32.830  26.151  1.00  0.00    -0.237 OA
ATOM     97  O   UNL A   1      47.931  33.041  28.338  1.00  0.00    -0.237 OA
ATOM     98  O   UNL A   1      49.087  31.915  26.495  1.00  0.00    -0.744 OA
ENDBRANCH  92  95
ENDBRANCH  65  88
ENDBRANCH  39  40
ENDBRANCH  31  34
ENDBRANCH  29  30
ENDBRANCH  28  29
ENDBRANCH   1  28
TORSDOF 19
ENDMDL
MODEL 3
REMARK VINA RESULT:     -10.7      3.712      7.260
REMARK SMILES CCC([NH3+])(CC)C(=O)N1Cc2nc[nH]c2C[C@H]1C(=O)NCCCCNC(=O)c1ccc(-c2c3nc(c(-c4cccc(S(=O)(=O)[O-])c4F)c4ccc([nH]4)c(-c4cccc(S(=O)(=O)[O-])c4F)c4nc(c(-c5cccc(S(=O)(=O)[O-])c5F)c5ccc2[nH]5)C=C4)C=C3)cc1
REMARK SMILES IDX 22 1 21 2 20 3 18 4 19 5 17 7 9 8 10 9 11 10 16 11 12 12
REMARK SMILES IDX 15 13 13 14 14 15 7 17 8 18 3 19 2 20 1 21 4 22 5 26 6 27
REMARK SMILES IDX 23 28 24 29 25 30 26 31 27 33 28 34 29 35 90 36 30 37 89 38
REMARK SMILES IDX 31 39 32 40 33 41 83 42 34 43 88 44 82 45 84 46 35 47 87 48
REMARK SMILES IDX 81 49 80 50 36 52 68 53 48 54 67 55 49 56 52 57 66 58 85 59
REMARK SMILES IDX 50 60 51 61 65 63 86 64 53 65 37 66 38 67 46 68 39 69 41 70
REMARK SMILES IDX 47 71 40 72 42 73 43 74 44 75 45 76 69 77 70 78 78 79 71 80
REMARK SMILES IDX 73 81 79 82 72 83 74 84 75 85 76 86 77 87 54 88 55 89 63 90
REMARK SMILES IDX 56 91 58 92 64 93 57 94 59 95 60 96 61 97 62 98
REMARK H PARENT 20 6 14 16 4 23 4 24 4 25 25 32 84 51 52 62
REMARK Flexibility Score: inf
ROOT
ATOM      1  C   UNL A   1      38.106  21.977  25.778  1.00  0.00     0.023 C 
ENDROOT
BRANCH   1   2
ATOM      2  C   UNL A   1      37.562  23.391  26.027  1.00  0.00     0.116 C 
BRANCH   2   3
ATOM      3  N   UNL A   1      36.618  23.791  24.999  1.00  0.00    -0.354 N 
ATOM      4  C   UNL A   1      35.275  23.670  24.859  1.00  0.00     0.243 C 
ATOM      5  O   UNL A   1      34.841  23.891  23.716  1.00  0.00    -0.273 OA
ATOM      6  H   UNL A   1      37.046  24.248  24.240  1.00  0.00     0.163 HD
BRANCH   4   7
ATOM      7  C   UNL A   1      34.274  23.182  25.935  1.00  0.00     0.181 C 
ATOM      8  N   UNL A   1      32.830  23.499  25.698  1.00  0.00    -0.319 N 
ATOM      9  C   UNL A   1      32.043  22.527  24.904  1.00  0.00     0.178 C 
ATOM     10  C   UNL A   1      32.481  21.133  25.181  1.00  0.00     0.081 A 
ATOM     11  C   UNL A   1      34.525  21.767  26.530  1.00  0.00     0.091 C 
ATOM     12  N   UNL A   1      31.948  20.014  24.598  1.00  0.00    -0.240 NA
ATOM     13  C   UNL A   1      33.590  20.801  25.919  1.00  0.00     0.042 A 
ATOM     14  C   UNL A   1      32.705  19.018  25.012  1.00  0.00     0.197 A 
ATOM     15  N   UNL A   1      33.701  19.444  25.853  1.00  0.00    -0.348 N 
ATOM     16  H   UNL A   1      34.364  18.883  26.317  1.00  0.00     0.167 HD
BRANCH   8  17
ATOM     17  C   UNL A   1      32.102  24.530  26.284  1.00  0.00     0.284 C 
ATOM     18  O   UNL A   1      31.444  24.282  27.305  1.00  0.00    -0.268 OA
BRANCH  17  19
ATOM     19  C   UNL A   1      32.020  25.987  25.670  1.00  0.00     0.173 C 
BRANCH  19  20
ATOM     20  C   UNL A   1      30.511  26.413  25.586  1.00  0.00     0.075 C 
ATOM     21  C   UNL A   1      29.804  26.169  24.251  1.00  0.00     0.011 C 
ENDBRANCH  19  20
BRANCH  19  22
ATOM     22  N   UNL A   1      32.537  25.989  24.282  1.00  0.00    -0.345 N 
ATOM     23  H   UNL A   1      32.510  26.940  23.912  1.00  0.00     0.345 HD
ATOM     24  H   UNL A   1      31.958  25.382  23.703  1.00  0.00     0.345 HD
ATOM     25  H   UNL A   1      33.498  25.649  24.277  1.00  0.00     0.345 HD
ENDBRANCH  19  22
BRANCH  19  26
ATOM     26  C   UNL A   1      32.763  27.084  26.474  1.00  0.00     0.075 C 
ATOM     27  C   UNL A   1      32.707  28.474  25.853  1.00  0.00     0.011 C 
ENDBRANCH  19  26
ENDBRANCH  17  19
ENDBRANCH   8  17
ENDBRANCH   4   7
ENDBRANCH   2   3
ENDBRANCH   1   2
BRANCH   1  28
ATOM     28  C   UNL A   1      39.556  21.747  26.217  1.00  0.00     0.023 C 
BRANCH  28  29
ATOM     29  C   UNL A   1      40.307  23.013  26.617  1.00  0.00     0.116 C 
BRANCH  29  30
ATOM     30  N   UNL A   1      41.645  23.107  26.030  1.00  0.00    -0.352 N 
ATOM     31  C   UNL A   1      42.426  24.242  25.928  1.00  0.00     0.251 C 
ATOM     32  H   UNL A   1      42.029  22.274  25.671  1.00  0.00     0.163 HD
ATOM     33  O   UNL A   1      43.337  24.333  25.110  1.00  0.00    -0.269 OA
BRANCH  31  34
ATOM     34  C   UNL A   1      42.132  25.351  26.846  1.00  0.00     0.039 A 
ATOM     35  C   UNL A   1      42.789  25.466  28.074  1.00  0.00     0.014 A 
ATOM     36  C   UNL A   1      41.276  26.348  26.381  1.00  0.00     0.014 A 
ATOM     37  C   UNL A   1      42.659  26.652  28.791  1.00  0.00     0.010 A 
ATOM     38  C   UNL A   1      41.244  27.557  27.034  1.00  0.00     0.010 A 
ATOM     39  C   UNL A   1      41.912  27.711  28.251  1.00  0.00    -0.014 A 
BRANCH  39  40
ATOM     40  C   UNL A   1      41.942  29.029  28.886  1.00  0.00     0.031 A 
ATOM     41  C   UNL A   1      43.023  29.951  28.423  1.00  0.00     0.074 A 
ATOM     42  C   UNL A   1      40.933  29.493  29.655  1.00  0.00     0.049 A 
ATOM     43  N   UNL A   1      44.006  30.429  29.115  1.00  0.00    -0.248 NA
ATOM     44  C   UNL A   1      43.077  30.303  26.995  1.00  0.00     0.031 C 
ATOM     45  C   UNL A   1      39.648  28.842  29.940  1.00  0.00     0.029 A 
ATOM     46  N   UNL A   1      40.778  30.724  30.216  1.00  0.00    -0.354 N 
ATOM     47  C   UNL A   1      44.667  31.326  28.274  1.00  0.00     0.074 A 
ATOM     48  C   UNL A   1      44.175  31.061  26.947  1.00  0.00     0.031 C 
ATOM     49  C   UNL A   1      38.762  29.767  30.363  1.00  0.00     0.029 A 
ATOM     50  C   UNL A   1      39.463  31.020  30.560  1.00  0.00     0.049 A 
ATOM     51  H   UNL A   1      41.526  31.347  30.365  1.00  0.00     0.167 HD
ATOM     52  C   UNL A   1      45.381  32.375  28.772  1.00  0.00     0.034 A 
ATOM     53  C   UNL A   1      38.971  32.222  30.940  1.00  0.00     0.034 A 
ATOM     54  C   UNL A   1      45.626  32.218  30.184  1.00  0.00     0.049 A 
ATOM     55  C   UNL A   1      40.110  33.027  31.425  1.00  0.00     0.074 A 
ATOM     56  C   UNL A   1      46.237  31.274  30.983  1.00  0.00     0.029 A 
ATOM     57  N   UNL A   1      44.872  32.995  31.029  1.00  0.00    -0.354 N 
ATOM     58  N   UNL A   1      40.793  32.734  32.497  1.00  0.00    -0.248 NA
ATOM     59  C   UNL A   1      40.753  33.947  30.504  1.00  0.00     0.031 C 
ATOM     60  C   UNL A   1      45.445  31.234  32.170  1.00  0.00     0.029 A 
ATOM     61  C   UNL A   1      44.439  32.195  32.047  1.00  0.00     0.049 A 
ATOM     62  H   UNL A   1      44.678  33.955  30.921  1.00  0.00     0.167 HD
ATOM     63  C   UNL A   1      42.102  33.048  32.164  1.00  0.00     0.074 A 
ATOM     64  C   UNL A   1      41.995  33.916  30.994  1.00  0.00     0.031 C 
ATOM     65  C   UNL A   1      43.147  32.339  32.685  1.00  0.00     0.034 A 
BRANCH  52  66
ATOM     66  C   UNL A   1      45.539  33.736  28.115  1.00  0.00     0.023 A 
ATOM     67  C   UNL A   1      46.858  34.241  27.988  1.00  0.00     0.012 A 
ATOM     68  C   UNL A   1      44.488  34.656  27.901  1.00  0.00     0.148 A 
ATOM     69  C   UNL A   1      47.114  35.596  27.754  1.00  0.00     0.002 A 
ATOM     70  C   UNL A   1      44.750  35.988  27.590  1.00  0.00     0.091 A 
ATOM     71  F   UNL A   1      43.224  34.296  28.124  1.00  0.00    -0.205 F 
ATOM     72  C   UNL A   1      46.058  36.472  27.554  1.00  0.00     0.022 A 
BRANCH  70  73
ATOM     73  S   UNL A   1      43.417  37.153  27.272  1.00  0.00     0.127 S 
ATOM     74  O   UNL A   1      44.160  38.331  26.837  1.00  0.00    -0.237 OA
ATOM     75  O   UNL A   1      42.665  36.468  26.220  1.00  0.00    -0.237 OA
ATOM     76  O   UNL A   1      42.699  37.272  28.534  1.00  0.00    -0.744 OA
ENDBRANCH  70  73
ENDBRANCH  52  66
BRANCH  53  77
ATOM     77  C   UNL A   1      37.623  32.794  30.735  1.00  0.00     0.023 A 
ATOM     78  C   UNL A   1      36.933  32.544  29.535  1.00  0.00     0.012 A 
ATOM     79  C   UNL A   1      36.907  33.354  31.817  1.00  0.00     0.148 A 
ATOM     80  C   UNL A   1      35.563  32.806  29.426  1.00  0.00     0.002 A 
ATOM     81  C   UNL A   1      35.547  33.620  31.702  1.00  0.00     0.091 A 
ATOM     82  F   UNL A   1      37.539  33.539  32.984  1.00  0.00    -0.205 F 
ATOM     83  C   UNL A   1      34.867  33.335  30.511  1.00  0.00     0.022 A 
BRANCH  81  84
ATOM     84  S   UNL A   1      34.588  34.289  33.068  1.00  0.00     0.127 S 
ATOM     85  O   UNL A   1      34.728  33.242  34.081  1.00  0.00    -0.237 OA
ATOM     86  O   UNL A   1      35.303  35.528  33.362  1.00  0.00    -0.237 OA
ATOM     87  O   UNL A   1      33.230  34.446  32.562  1.00  0.00    -0.744 OA
ENDBRANCH  81  84
ENDBRANCH  53  77
BRANCH  65  88
ATOM     88  C   UNL A   1      42.876  31.414  33.846  1.00  0.00     0.023 A 
ATOM     89  C   UNL A   1      42.783  31.879  35.174  1.00  0.00     0.012 A 
ATOM     90  C   UNL A   1      42.533  30.081  33.567  1.00  0.00     0.148 A 
ATOM     91  C   UNL A   1      42.379  31.025  36.205  1.00  0.00     0.002 A 
ATOM     92  C   UNL A   1      42.085  29.249  34.585  1.00  0.00     0.091 A 
ATOM     93  F   UNL A   1      42.621  29.654  32.298  1.00  0.00    -0.205 F 
ATOM     94  C   UNL A   1      42.016  29.714  35.908  1.00  0.00     0.022 A 
BRANCH  92  95
ATOM     95  S   UNL A   1      41.479  27.595  34.244  1.00  0.00     0.127 S 
ATOM     96  O   UNL A   1      42.596  27.006  33.508  1.00  0.00    -0.237 OA
ATOM     97  O   UNL A   1      41.275  27.049  35.587  1.00  0.00    -0.237 OA
ATOM     98  O   UNL A   1      40.247  27.771  33.484  1.00  0.00    -0.744 OA
ENDBRANCH  92  95
ENDBRANCH  65  88
ENDBRANCH  39  40
ENDBRANCH  31  34
ENDBRANCH  29  30
ENDBRANCH  28  29
ENDBRANCH   1  28
TORSDOF 19
ENDMDL
