MODEL 1
REMARK VINA RESULT:     -13.2      0.000      0.000
REMARK SMILES COc1cccc(-c2c(C(=O)NCCCCNC(=O)c3ccc(-c4c5nc(c(-c6cccc(S(=O)(=O)[O-])c6F)c6ccc([nH]6)c(-c6cccc(S(=O)(=O)[O-])c6F)c6nc(c(-c7cccc(S(=O)(=O)[O-])c7F)c7ccc4[nH]7)C=C6)C=C5)cc3)nnn2Cc2ccc(OC(F)(F)F)cc2)c1
REMARK SMILES IDX 14 1 13 2 12 3 10 4 11 5 9 7 8 8 85 9 83 10 84 11 7 12 3 13
REMARK SMILES IDX 4 14 98 15 5 16 6 17 2 18 1 19 86 20 87 21 88 22 97 23 89 24
REMARK SMILES IDX 96 25 90 26 91 27 92 28 93 29 94 30 95 31 15 32 16 33 17 34
REMARK SMILES IDX 18 35 19 37 20 38 21 39 82 40 22 41 81 42 23 43 24 44 25 45
REMARK SMILES IDX 75 46 26 47 80 48 74 49 76 50 27 51 79 52 73 53 72 54 28 56
REMARK SMILES IDX 60 57 40 58 59 59 41 60 44 61 58 62 77 63 42 64 43 65 57 67
REMARK SMILES IDX 78 68 45 69 29 70 30 71 38 72 31 73 33 74 39 75 32 76 34 77
REMARK SMILES IDX 35 78 36 79 37 80 61 81 62 82 70 83 63 84 65 85 71 86 64 87
REMARK SMILES IDX 66 88 67 89 68 90 69 91 46 92 47 93 55 94 48 95 50 96 56 97
REMARK SMILES IDX 49 98 51 99 52 100 53 101 54 102
REMARK H PARENT 12 6 17 36 76 55 44 66
REMARK Flexibility Score: inf
ROOT
ATOM      1  C   UNL A   1      34.041  28.632  24.698  1.00  0.00     0.023 C 
ENDROOT
BRANCH   1   2
ATOM      2  C   UNL A   1      33.285  28.958  23.416  1.00  0.00     0.116 C 
BRANCH   2   3
ATOM      3  N   UNL A   1      33.412  27.993  22.361  1.00  0.00    -0.351 N 
ATOM      4  C   UNL A   1      33.218  26.632  22.298  1.00  0.00     0.274 C 
ATOM      5  O   UNL A   1      33.469  26.153  21.186  1.00  0.00    -0.267 OA
ATOM      6  H   UNL A   1      33.699  28.387  21.505  1.00  0.00     0.163 HD
BRANCH   4   7
ATOM      7  C   UNL A   1      32.834  25.737  23.409  1.00  0.00     0.178 A 
ATOM      8  C   UNL A   1      33.438  24.767  24.222  1.00  0.00     0.102 A 
ATOM      9  N   UNL A   1      32.412  24.351  25.053  1.00  0.00    -0.239 N 
ATOM     10  N   UNL A   1      31.492  25.799  23.776  1.00  0.00    -0.124 NA
ATOM     11  N   UNL A   1      31.244  24.911  24.715  1.00  0.00    -0.066 NA
BRANCH   8  12
ATOM     12  C   UNL A   1      34.752  24.136  24.287  1.00  0.00     0.006 A 
ATOM     13  C   UNL A   1      36.738  23.652  25.617  1.00  0.00     0.119 A 
ATOM     14  C   UNL A   1      37.175  22.788  24.611  1.00  0.00     0.046 A 
ATOM     15  C   UNL A   1      35.524  24.315  25.454  1.00  0.00     0.056 A 
ATOM     16  C   UNL A   1      36.424  22.609  23.445  1.00  0.00     0.005 A 
ATOM     17  C   UNL A   1      35.222  23.299  23.268  1.00  0.00     0.011 A 
BRANCH  13  18
ATOM     18  O   UNL A   1      37.574  23.770  26.691  1.00  0.00    -0.497 OA
ATOM     19  C   UNL A   1      38.625  24.725  26.596  1.00  0.00     0.278 C 
ENDBRANCH  13  18
ENDBRANCH   8  12
BRANCH   9  20
ATOM     20  C   UNL A   1      32.404  23.273  26.032  1.00  0.00     0.182 C 
BRANCH  20  21
ATOM     21  C   UNL A   1      32.772  21.926  25.461  1.00  0.00    -0.026 A 
ATOM     22  C   UNL A   1      33.815  21.177  26.020  1.00  0.00     0.009 A 
ATOM     23  C   UNL A   1      32.122  21.425  24.326  1.00  0.00     0.009 A 
ATOM     24  C   UNL A   1      34.199  19.963  25.442  1.00  0.00     0.047 A 
ATOM     25  C   UNL A   1      32.499  20.205  23.759  1.00  0.00     0.047 A 
ATOM     26  C   UNL A   1      33.548  19.471  24.306  1.00  0.00     0.129 A 
BRANCH  26  27
ATOM     27  O   UNL A   1      34.036  18.286  23.837  1.00  0.00    -0.406 OA
BRANCH  27  28
ATOM     28  C   UNL A   1      33.101  17.253  23.581  1.00  0.00     0.573 C 
ATOM     29  F   UNL A   1      32.253  17.082  24.614  1.00  0.00    -0.132 F 
ATOM     30  F   UNL A   1      32.396  17.500  22.452  1.00  0.00    -0.132 F 
ATOM     31  F   UNL A   1      33.777  16.095  23.393  1.00  0.00    -0.132 F 
ENDBRANCH  27  28
ENDBRANCH  26  27
ENDBRANCH  20  21
ENDBRANCH   9  20
ENDBRANCH   4   7
ENDBRANCH   2   3
ENDBRANCH   1   2
BRANCH   1  32
ATOM     32  C   UNL A   1      33.188  28.477  25.957  1.00  0.00     0.023 C 
BRANCH  32  33
ATOM     33  C   UNL A   1      33.694  29.231  27.186  1.00  0.00     0.116 C 
BRANCH  33  34
ATOM     34  N   UNL A   1      33.906  30.663  26.958  1.00  0.00    -0.352 N 
ATOM     35  C   UNL A   1      34.882  31.462  27.527  1.00  0.00     0.251 C 
ATOM     36  H   UNL A   1      33.287  31.105  26.332  1.00  0.00     0.163 HD
ATOM     37  O   UNL A   1      34.754  32.682  27.590  1.00  0.00    -0.269 OA
BRANCH  35  38
ATOM     38  C   UNL A   1      36.099  30.812  28.038  1.00  0.00     0.039 A 
ATOM     39  C   UNL A   1      36.395  29.471  27.772  1.00  0.00     0.014 A 
ATOM     40  C   UNL A   1      36.987  31.618  28.745  1.00  0.00     0.014 A 
ATOM     41  C   UNL A   1      37.642  28.974  28.143  1.00  0.00     0.010 A 
ATOM     42  C   UNL A   1      38.262  31.170  28.976  1.00  0.00     0.010 A 
ATOM     43  C   UNL A   1      38.582  29.838  28.725  1.00  0.00    -0.014 A 
BRANCH  43  44
ATOM     44  C   UNL A   1      39.962  29.417  28.950  1.00  0.00     0.031 A 
ATOM     45  C   UNL A   1      40.335  29.267  30.384  1.00  0.00     0.074 A 
ATOM     46  C   UNL A   1      40.733  28.927  27.954  1.00  0.00     0.049 A 
ATOM     47  N   UNL A   1      41.152  29.995  31.072  1.00  0.00    -0.248 NA
ATOM     48  C   UNL A   1      39.583  28.295  31.194  1.00  0.00     0.031 C 
ATOM     49  C   UNL A   1      40.338  28.703  26.556  1.00  0.00     0.029 A 
ATOM     50  N   UNL A   1      41.968  28.357  28.011  1.00  0.00    -0.354 N 
ATOM     51  C   UNL A   1      41.224  29.383  32.325  1.00  0.00     0.074 A 
ATOM     52  C   UNL A   1      40.058  28.550  32.416  1.00  0.00     0.031 C 
ATOM     53  C   UNL A   1      41.178  27.812  25.989  1.00  0.00     0.029 A 
ATOM     54  C   UNL A   1      42.261  27.545  26.914  1.00  0.00     0.049 A 
ATOM     55  H   UNL A   1      42.596  28.503  28.755  1.00  0.00     0.167 HD
ATOM     56  C   UNL A   1      42.396  29.360  33.025  1.00  0.00     0.034 A 
ATOM     57  C   UNL A   1      43.291  26.672  26.797  1.00  0.00     0.034 A 
ATOM     58  C   UNL A   1      43.344  30.297  32.458  1.00  0.00     0.049 A 
ATOM     59  C   UNL A   1      44.309  27.068  27.791  1.00  0.00     0.074 A 
ATOM     60  C   UNL A   1      43.361  31.649  32.178  1.00  0.00     0.029 A 
ATOM     61  N   UNL A   1      44.372  29.749  31.729  1.00  0.00    -0.354 N 
ATOM     62  N   UNL A   1      44.978  28.185  27.731  1.00  0.00    -0.248 NA
ATOM     63  C   UNL A   1      44.298  26.412  29.087  1.00  0.00     0.031 C 
ATOM     64  C   UNL A   1      44.100  31.766  30.962  1.00  0.00     0.029 A 
ATOM     65  C   UNL A   1      44.555  30.496  30.604  1.00  0.00     0.049 A 
ATOM     66  H   UNL A   1      44.889  28.948  31.978  1.00  0.00     0.167 HD
ATOM     67  C   UNL A   1      45.046  28.608  29.051  1.00  0.00     0.074 A 
ATOM     68  C   UNL A   1      44.747  27.417  29.843  1.00  0.00     0.031 C 
ATOM     69  C   UNL A   1      45.029  29.940  29.355  1.00  0.00     0.034 A 
BRANCH  56  70
ATOM     70  C   UNL A   1      42.899  28.198  33.886  1.00  0.00     0.023 A 
ATOM     71  C   UNL A   1      43.703  27.233  33.228  1.00  0.00     0.012 A 
ATOM     72  C   UNL A   1      42.386  27.823  35.149  1.00  0.00     0.148 A 
ATOM     73  C   UNL A   1      43.846  25.929  33.713  1.00  0.00     0.002 A 
ATOM     74  C   UNL A   1      42.575  26.540  35.656  1.00  0.00     0.091 A 
ATOM     75  F   UNL A   1      41.629  28.661  35.853  1.00  0.00    -0.205 F 
ATOM     76  C   UNL A   1      43.265  25.576  34.921  1.00  0.00     0.022 A 
BRANCH  74  77
ATOM     77  S   UNL A   1      41.874  26.033  37.235  1.00  0.00     0.127 S 
ATOM     78  O   UNL A   1      41.651  24.609  37.003  1.00  0.00    -0.237 OA
ATOM     79  O   UNL A   1      42.965  26.352  38.156  1.00  0.00    -0.237 OA
ATOM     80  O   UNL A   1      40.678  26.843  37.419  1.00  0.00    -0.744 OA
ENDBRANCH  74  77
ENDBRANCH  56  70
BRANCH  57  81
ATOM     81  C   UNL A   1      43.385  25.400  26.046  1.00  0.00     0.023 A 
ATOM     82  C   UNL A   1      44.446  25.203  25.139  1.00  0.00     0.012 A 
ATOM     83  C   UNL A   1      42.610  24.279  26.418  1.00  0.00     0.148 A 
ATOM     84  C   UNL A   1      44.753  23.927  24.653  1.00  0.00     0.002 A 
ATOM     85  C   UNL A   1      42.913  23.013  25.924  1.00  0.00     0.091 A 
ATOM     86  F   UNL A   1      41.640  24.438  27.327  1.00  0.00    -0.205 F 
ATOM     87  C   UNL A   1      43.994  22.831  25.052  1.00  0.00     0.022 A 
BRANCH  85  88
ATOM     88  S   UNL A   1      41.985  21.553  26.408  1.00  0.00     0.127 S 
ATOM     89  O   UNL A   1      42.586  20.521  25.562  1.00  0.00    -0.237 OA
ATOM     90  O   UNL A   1      42.308  21.449  27.827  1.00  0.00    -0.237 OA
ATOM     91  O   UNL A   1      40.593  21.852  26.091  1.00  0.00    -0.744 OA
ENDBRANCH  85  88
ENDBRANCH  57  81
BRANCH  69  92
ATOM     92  C   UNL A   1      45.284  30.926  28.244  1.00  0.00     0.023 A 
ATOM     93  C   UNL A   1      44.245  31.574  27.545  1.00  0.00     0.012 A 
ATOM     94  C   UNL A   1      46.611  31.324  28.013  1.00  0.00     0.148 A 
ATOM     95  C   UNL A   1      44.529  32.580  26.617  1.00  0.00     0.002 A 
ATOM     96  C   UNL A   1      46.885  32.356  27.128  1.00  0.00     0.091 A 
ATOM     97  F   UNL A   1      47.587  30.697  28.690  1.00  0.00    -0.205 F 
ATOM     98  C   UNL A   1      45.848  32.982  26.419  1.00  0.00     0.022 A 
BRANCH  96  99
ATOM     99  S   UNL A   1      48.549  32.996  26.928  1.00  0.00     0.127 S 
ATOM    100  O   UNL A   1      48.876  33.428  28.285  1.00  0.00    -0.237 OA
ATOM    101  O   UNL A   1      49.286  31.819  26.464  1.00  0.00    -0.237 OA
ATOM    102  O   UNL A   1      48.450  34.061  25.936  1.00  0.00    -0.744 OA
ENDBRANCH  96  99
ENDBRANCH  69  92
ENDBRANCH  43  44
ENDBRANCH  35  38
ENDBRANCH  33  34
ENDBRANCH  32  33
ENDBRANCH   1  32
TORSDOF 20
ENDMDL
MODEL 2
REMARK VINA RESULT:     -12.2      2.112      2.680
REMARK SMILES COc1cccc(-c2c(C(=O)NCCCCNC(=O)c3ccc(-c4c5nc(c(-c6cccc(S(=O)(=O)[O-])c6F)c6ccc([nH]6)c(-c6cccc(S(=O)(=O)[O-])c6F)c6nc(c(-c7cccc(S(=O)(=O)[O-])c7F)c7ccc4[nH]7)C=C6)C=C5)cc3)nnn2Cc2ccc(OC(F)(F)F)cc2)c1
REMARK SMILES IDX 14 1 13 2 12 3 10 4 11 5 9 7 8 8 85 9 83 10 84 11 7 12 3 13
REMARK SMILES IDX 4 14 98 15 5 16 6 17 2 18 1 19 86 20 87 21 88 22 97 23 89 24
REMARK SMILES IDX 96 25 90 26 91 27 92 28 93 29 94 30 95 31 15 32 16 33 17 34
REMARK SMILES IDX 18 35 19 37 20 38 21 39 82 40 22 41 81 42 23 43 24 44 25 45
REMARK SMILES IDX 75 46 26 47 80 48 74 49 76 50 27 51 79 52 73 53 72 54 28 56
REMARK SMILES IDX 60 57 40 58 59 59 41 60 44 61 58 62 77 63 42 64 43 65 57 67
REMARK SMILES IDX 78 68 45 69 29 70 30 71 38 72 31 73 33 74 39 75 32 76 34 77
REMARK SMILES IDX 35 78 36 79 37 80 61 81 62 82 70 83 63 84 65 85 71 86 64 87
REMARK SMILES IDX 66 88 67 89 68 90 69 91 46 92 47 93 55 94 48 95 50 96 56 97
REMARK SMILES IDX 49 98 51 99 52 100 53 101 54 102
REMARK H PARENT 12 6 17 36 76 55 44 66
REMARK Flexibility Score: inf
ROOT
ATOM      1  C   UNL A   1      32.982  28.787  27.022  1.00  0.00     0.023 C 
ENDROOT
BRANCH   1   2
ATOM      2  C   UNL A   1      31.871  28.801  25.980  1.00  0.00     0.116 C 
BRANCH   2   3
ATOM      3  N   UNL A   1      32.188  28.173  24.729  1.00  0.00    -0.351 N 
ATOM      4  C   UNL A   1      32.458  26.873  24.367  1.00  0.00     0.274 C 
ATOM      5  O   UNL A   1      32.721  26.744  23.166  1.00  0.00    -0.267 OA
ATOM      6  H   UNL A   1      32.221  28.804  23.973  1.00  0.00     0.163 HD
BRANCH   4   7
ATOM      7  C   UNL A   1      32.535  25.699  25.261  1.00  0.00     0.178 A 
ATOM      8  C   UNL A   1      33.428  24.652  25.531  1.00  0.00     0.102 A 
ATOM      9  N   UNL A   1      32.787  23.922  26.518  1.00  0.00    -0.239 N 
ATOM     10  N   UNL A   1      31.415  25.499  26.065  1.00  0.00    -0.124 NA
ATOM     11  N   UNL A   1      31.556  24.390  26.759  1.00  0.00    -0.066 NA
BRANCH   8  12
ATOM     12  C   UNL A   1      34.698  24.198  24.975  1.00  0.00     0.006 A 
ATOM     13  C   UNL A   1      37.027  23.603  25.385  1.00  0.00     0.119 A 
ATOM     14  C   UNL A   1      37.115  23.129  24.075  1.00  0.00     0.046 A 
ATOM     15  C   UNL A   1      35.816  24.127  25.832  1.00  0.00     0.056 A 
ATOM     16  C   UNL A   1      36.016  23.201  23.213  1.00  0.00     0.005 A 
ATOM     17  C   UNL A   1      34.811  23.758  23.651  1.00  0.00     0.011 A 
BRANCH  13  18
ATOM     18  O   UNL A   1      38.176  23.509  26.119  1.00  0.00    -0.497 OA
ATOM     19  C   UNL A   1      38.723  24.719  26.629  1.00  0.00     0.278 C 
ENDBRANCH  13  18
ENDBRANCH   8  12
BRANCH   9  20
ATOM     20  C   UNL A   1      33.173  22.652  27.117  1.00  0.00     0.182 C 
BRANCH  20  21
ATOM     21  C   UNL A   1      33.308  21.524  26.124  1.00  0.00    -0.026 A 
ATOM     22  C   UNL A   1      32.186  21.035  25.444  1.00  0.00     0.009 A 
ATOM     23  C   UNL A   1      34.544  20.902  25.908  1.00  0.00     0.009 A 
ATOM     24  C   UNL A   1      32.305  19.943  24.580  1.00  0.00     0.047 A 
ATOM     25  C   UNL A   1      34.663  19.818  25.033  1.00  0.00     0.047 A 
ATOM     26  C   UNL A   1      33.542  19.324  24.373  1.00  0.00     0.129 A 
BRANCH  26  27
ATOM     27  O   UNL A   1      33.511  18.259  23.519  1.00  0.00    -0.406 OA
BRANCH  27  28
ATOM     28  C   UNL A   1      33.512  16.964  24.093  1.00  0.00     0.573 C 
ATOM     29  F   UNL A   1      32.304  16.642  24.595  1.00  0.00    -0.132 F 
ATOM     30  F   UNL A   1      33.894  16.029  23.192  1.00  0.00    -0.132 F 
ATOM     31  F   UNL A   1      34.409  16.943  25.107  1.00  0.00    -0.132 F 
ENDBRANCH  27  28
ENDBRANCH  26  27
ENDBRANCH  20  21
ENDBRANCH   9  20
ENDBRANCH   4   7
ENDBRANCH   2   3
ENDBRANCH   1   2
BRANCH   1  32
ATOM     32  C   UNL A   1      34.398  29.022  26.494  1.00  0.00     0.023 C 
BRANCH  32  33
ATOM     33  C   UNL A   1      35.428  29.430  27.546  1.00  0.00     0.116 C 
BRANCH  33  34
ATOM     34  N   UNL A   1      35.433  30.865  27.847  1.00  0.00    -0.352 N 
ATOM     35  C   UNL A   1      36.092  31.495  28.887  1.00  0.00     0.251 C 
ATOM     36  H   UNL A   1      34.911  31.442  27.243  1.00  0.00     0.163 HD
ATOM     37  O   UNL A   1      35.741  32.602  29.290  1.00  0.00    -0.269 OA
BRANCH  35  38
ATOM     38  C   UNL A   1      37.249  30.815  29.489  1.00  0.00     0.039 A 
ATOM     39  C   UNL A   1      37.194  29.481  29.906  1.00  0.00     0.014 A 
ATOM     40  C   UNL A   1      38.434  31.542  29.562  1.00  0.00     0.014 A 
ATOM     41  C   UNL A   1      38.372  28.855  30.308  1.00  0.00     0.010 A 
ATOM     42  C   UNL A   1      39.610  30.887  29.816  1.00  0.00     0.010 A 
ATOM     43  C   UNL A   1      39.583  29.559  30.238  1.00  0.00    -0.014 A 
BRANCH  43  44
ATOM     44  C   UNL A   1      40.863  28.892  30.460  1.00  0.00     0.031 A 
ATOM     45  C   UNL A   1      41.256  28.771  31.890  1.00  0.00     0.074 A 
ATOM     46  C   UNL A   1      41.484  28.192  29.484  1.00  0.00     0.049 A 
ATOM     47  N   UNL A   1      42.226  29.369  32.500  1.00  0.00    -0.248 NA
ATOM     48  C   UNL A   1      40.362  28.024  32.791  1.00  0.00     0.031 C 
ATOM     49  C   UNL A   1      40.998  27.955  28.117  1.00  0.00     0.029 A 
ATOM     50  N   UNL A   1      42.586  27.395  29.552  1.00  0.00    -0.354 N 
ATOM     51  C   UNL A   1      42.228  28.844  33.794  1.00  0.00     0.074 A 
ATOM     52  C   UNL A   1      40.926  28.265  33.977  1.00  0.00     0.031 C 
ATOM     53  C   UNL A   1      41.626  26.879  27.598  1.00  0.00     0.029 A 
ATOM     54  C   UNL A   1      42.672  26.468  28.513  1.00  0.00     0.049 A 
ATOM     55  H   UNL A   1      43.259  27.466  30.267  1.00  0.00     0.167 HD
ATOM     56  C   UNL A   1      43.400  28.639  34.464  1.00  0.00     0.034 A 
ATOM     57  C   UNL A   1      43.507  25.404  28.435  1.00  0.00     0.034 A 
ATOM     58  C   UNL A   1      44.488  29.329  33.804  1.00  0.00     0.049 A 
ATOM     59  C   UNL A   1      44.621  25.659  29.371  1.00  0.00     0.074 A 
ATOM     60  C   UNL A   1      44.756  30.629  33.422  1.00  0.00     0.029 A 
ATOM     61  N   UNL A   1      45.360  28.541  33.092  1.00  0.00    -0.354 N 
ATOM     62  N   UNL A   1      45.492  26.616  29.210  1.00  0.00    -0.248 NA
ATOM     63  C   UNL A   1      44.534  25.109  30.713  1.00  0.00     0.031 C 
ATOM     64  C   UNL A   1      45.456  30.514  32.182  1.00  0.00     0.029 A 
ATOM     65  C   UNL A   1      45.640  29.157  31.909  1.00  0.00     0.049 A 
ATOM     66  H   UNL A   1      45.721  27.673  33.388  1.00  0.00     0.167 HD
ATOM     67  C   UNL A   1      45.693  27.108  30.492  1.00  0.00     0.074 A 
ATOM     68  C   UNL A   1      45.200  26.056  31.379  1.00  0.00     0.031 C 
ATOM     69  C   UNL A   1      45.947  28.434  30.694  1.00  0.00     0.034 A 
BRANCH  56  70
ATOM     70  C   UNL A   1      43.701  27.463  35.397  1.00  0.00     0.023 A 
ATOM     71  C   UNL A   1      44.327  27.785  36.628  1.00  0.00     0.012 A 
ATOM     72  C   UNL A   1      43.720  26.098  35.028  1.00  0.00     0.148 A 
ATOM     73  C   UNL A   1      45.066  26.845  37.355  1.00  0.00     0.002 A 
ATOM     74  C   UNL A   1      44.411  25.154  35.781  1.00  0.00     0.091 A 
ATOM     75  F   UNL A   1      43.149  25.691  33.897  1.00  0.00    -0.205 F 
ATOM     76  C   UNL A   1      45.124  25.530  36.921  1.00  0.00     0.022 A 
BRANCH  74  77
ATOM     77  S   UNL A   1      44.492  23.424  35.288  1.00  0.00     0.127 S 
ATOM     78  O   UNL A   1      45.000  22.803  36.508  1.00  0.00    -0.237 OA
ATOM     79  O   UNL A   1      43.091  23.140  34.979  1.00  0.00    -0.237 OA
ATOM     80  O   UNL A   1      45.381  23.381  34.134  1.00  0.00    -0.744 OA
ENDBRANCH  74  77
ENDBRANCH  56  70
BRANCH  57  81
ATOM     81  C   UNL A   1      43.322  24.089  27.781  1.00  0.00     0.023 A 
ATOM     82  C   UNL A   1      42.100  23.402  27.931  1.00  0.00     0.012 A 
ATOM     83  C   UNL A   1      44.222  23.639  26.790  1.00  0.00     0.148 A 
ATOM     84  C   UNL A   1      41.766  22.331  27.094  1.00  0.00     0.002 A 
ATOM     85  C   UNL A   1      43.889  22.566  25.966  1.00  0.00     0.091 A 
ATOM     86  F   UNL A   1      45.358  24.318  26.593  1.00  0.00    -0.205 F 
ATOM     87  C   UNL A   1      42.655  21.920  26.106  1.00  0.00     0.022 A 
BRANCH  85  88
ATOM     88  S   UNL A   1      44.983  21.991  24.662  1.00  0.00     0.127 S 
ATOM     89  O   UNL A   1      44.286  20.793  24.192  1.00  0.00    -0.237 OA
ATOM     90  O   UNL A   1      44.960  23.118  23.734  1.00  0.00    -0.237 OA
ATOM     91  O   UNL A   1      46.261  21.725  25.311  1.00  0.00    -0.744 OA
ENDBRANCH  85  88
ENDBRANCH  57  81
BRANCH  69  92
ATOM     92  C   UNL A   1      46.345  29.271  29.506  1.00  0.00     0.023 A 
ATOM     93  C   UNL A   1      47.632  29.219  28.932  1.00  0.00     0.012 A 
ATOM     94  C   UNL A   1      45.340  30.009  28.859  1.00  0.00     0.148 A 
ATOM     95  C   UNL A   1      47.914  29.911  27.749  1.00  0.00     0.002 A 
ATOM     96  C   UNL A   1      45.611  30.653  27.661  1.00  0.00     0.091 A 
ATOM     97  F   UNL A   1      44.120  30.045  29.419  1.00  0.00    -0.205 F 
ATOM     98  C   UNL A   1      46.900  30.616  27.106  1.00  0.00     0.022 A 
BRANCH  96  99
ATOM     99  S   UNL A   1      44.315  31.470  26.727  1.00  0.00     0.127 S 
ATOM    100  O   UNL A   1      45.044  31.965  25.561  1.00  0.00    -0.237 OA
ATOM    101  O   UNL A   1      43.387  30.373  26.450  1.00  0.00    -0.237 OA
ATOM    102  O   UNL A   1      43.773  32.495  27.611  1.00  0.00    -0.744 OA
ENDBRANCH  96  99
ENDBRANCH  69  92
ENDBRANCH  43  44
ENDBRANCH  35  38
ENDBRANCH  33  34
ENDBRANCH  32  33
ENDBRANCH   1  32
TORSDOF 20
ENDMDL
MODEL 3
REMARK VINA RESULT:     -11.8      3.826      8.729
REMARK SMILES COc1cccc(-c2c(C(=O)NCCCCNC(=O)c3ccc(-c4c5nc(c(-c6cccc(S(=O)(=O)[O-])c6F)c6ccc([nH]6)c(-c6cccc(S(=O)(=O)[O-])c6F)c6nc(c(-c7cccc(S(=O)(=O)[O-])c7F)c7ccc4[nH]7)C=C6)C=C5)cc3)nnn2Cc2ccc(OC(F)(F)F)cc2)c1
REMARK SMILES IDX 14 1 13 2 12 3 10 4 11 5 9 7 8 8 85 9 83 10 84 11 7 12 3 13
REMARK SMILES IDX 4 14 98 15 5 16 6 17 2 18 1 19 86 20 87 21 88 22 97 23 89 24
REMARK SMILES IDX 96 25 90 26 91 27 92 28 93 29 94 30 95 31 15 32 16 33 17 34
REMARK SMILES IDX 18 35 19 37 20 38 21 39 82 40 22 41 81 42 23 43 24 44 25 45
REMARK SMILES IDX 75 46 26 47 80 48 74 49 76 50 27 51 79 52 73 53 72 54 28 56
REMARK SMILES IDX 60 57 40 58 59 59 41 60 44 61 58 62 77 63 42 64 43 65 57 67
REMARK SMILES IDX 78 68 45 69 29 70 30 71 38 72 31 73 33 74 39 75 32 76 34 77
REMARK SMILES IDX 35 78 36 79 37 80 61 81 62 82 70 83 63 84 65 85 71 86 64 87
REMARK SMILES IDX 66 88 67 89 68 90 69 91 46 92 47 93 55 94 48 95 50 96 56 97
REMARK SMILES IDX 49 98 51 99 52 100 53 101 54 102
REMARK H PARENT 12 6 17 36 76 55 44 66
REMARK Flexibility Score: inf
ROOT
ATOM      1  C   UNL A   1      39.129  20.789  25.751  1.00  0.00     0.023 C 
ENDROOT
BRANCH   1   2
ATOM      2  C   UNL A   1      37.754  20.738  25.097  1.00  0.00     0.116 C 
BRANCH   2   3
ATOM      3  N   UNL A   1      37.525  21.703  24.060  1.00  0.00    -0.351 N 
ATOM      4  C   UNL A   1      36.432  22.456  23.695  1.00  0.00     0.274 C 
ATOM      5  O   UNL A   1      36.634  23.164  22.702  1.00  0.00    -0.267 OA
ATOM      6  H   UNL A   1      38.314  21.859  23.491  1.00  0.00     0.163 HD
BRANCH   4   7
ATOM      7  C   UNL A   1      35.088  22.427  24.309  1.00  0.00     0.178 A 
ATOM      8  C   UNL A   1      34.116  23.346  24.731  1.00  0.00     0.102 A 
ATOM      9  N   UNL A   1      33.099  22.544  25.220  1.00  0.00    -0.239 N 
ATOM     10  N   UNL A   1      34.608  21.156  24.614  1.00  0.00    -0.124 NA
ATOM     11  N   UNL A   1      33.446  21.251  25.223  1.00  0.00    -0.066 NA
BRANCH   8  12
ATOM     12  C   UNL A   1      34.027  24.800  24.820  1.00  0.00     0.006 A 
ATOM     13  C   UNL A   1      33.584  26.906  23.675  1.00  0.00     0.119 A 
ATOM     14  C   UNL A   1      33.610  27.558  24.910  1.00  0.00     0.046 A 
ATOM     15  C   UNL A   1      33.783  25.529  23.637  1.00  0.00     0.056 A 
ATOM     16  C   UNL A   1      33.860  26.848  26.089  1.00  0.00     0.005 A 
ATOM     17  C   UNL A   1      34.093  25.471  26.046  1.00  0.00     0.011 A 
BRANCH  13  18
ATOM     18  O   UNL A   1      33.364  27.712  22.594  1.00  0.00    -0.497 OA
ATOM     19  C   UNL A   1      33.269  29.112  22.834  1.00  0.00     0.278 C 
ENDBRANCH  13  18
ENDBRANCH   8  12
BRANCH   9  20
ATOM     20  C   UNL A   1      31.873  22.932  25.904  1.00  0.00     0.182 C 
BRANCH  20  21
ATOM     21  C   UNL A   1      31.108  24.033  25.210  1.00  0.00    -0.026 A 
ATOM     22  C   UNL A   1      30.632  25.134  25.932  1.00  0.00     0.009 A 
ATOM     23  C   UNL A   1      30.805  23.947  23.845  1.00  0.00     0.009 A 
ATOM     24  C   UNL A   1      29.863  26.114  25.299  1.00  0.00     0.047 A 
ATOM     25  C   UNL A   1      30.047  24.934  23.211  1.00  0.00     0.047 A 
ATOM     26  C   UNL A   1      29.561  26.018  23.936  1.00  0.00     0.129 A 
BRANCH  26  27
ATOM     27  O   UNL A   1      28.787  27.033  23.451  1.00  0.00    -0.406 OA
BRANCH  27  28
ATOM     28  C   UNL A   1      29.456  28.174  22.940  1.00  0.00     0.573 C 
ATOM     29  F   UNL A   1      30.071  28.868  23.917  1.00  0.00    -0.132 F 
ATOM     30  F   UNL A   1      30.357  27.828  21.992  1.00  0.00    -0.132 F 
ATOM     31  F   UNL A   1      28.542  28.985  22.358  1.00  0.00    -0.132 F 
ENDBRANCH  27  28
ENDBRANCH  26  27
ENDBRANCH  20  21
ENDBRANCH   9  20
ENDBRANCH   4   7
ENDBRANCH   2   3
ENDBRANCH   1   2
BRANCH   1  32
ATOM     32  C   UNL A   1      39.438  22.048  26.562  1.00  0.00     0.023 C 
BRANCH  32  33
ATOM     33  C   UNL A   1      40.795  22.056  27.263  1.00  0.00     0.116 C 
BRANCH  33  34
ATOM     34  N   UNL A   1      41.922  22.355  26.373  1.00  0.00    -0.352 N 
ATOM     35  C   UNL A   1      42.455  23.600  26.094  1.00  0.00     0.251 C 
ATOM     36  H   UNL A   1      42.344  21.586  25.926  1.00  0.00     0.163 HD
ATOM     37  O   UNL A   1      43.112  23.802  25.076  1.00  0.00    -0.269 OA
BRANCH  35  38
ATOM     38  C   UNL A   1      42.235  24.683  27.066  1.00  0.00     0.039 A 
ATOM     39  C   UNL A   1      42.999  24.804  28.231  1.00  0.00     0.014 A 
ATOM     40  C   UNL A   1      41.271  25.632  26.736  1.00  0.00     0.014 A 
ATOM     41  C   UNL A   1      42.850  25.946  29.014  1.00  0.00     0.010 A 
ATOM     42  C   UNL A   1      41.231  26.816  27.426  1.00  0.00     0.010 A 
ATOM     43  C   UNL A   1      41.978  26.961  28.592  1.00  0.00    -0.014 A 
BRANCH  43  44
ATOM     44  C   UNL A   1      41.933  28.254  29.271  1.00  0.00     0.031 A 
ATOM     45  C   UNL A   1      42.902  29.257  28.751  1.00  0.00     0.074 A 
ATOM     46  C   UNL A   1      40.912  28.599  30.087  1.00  0.00     0.049 A 
ATOM     47  N   UNL A   1      43.944  29.737  29.347  1.00  0.00    -0.248 NA
ATOM     48  C   UNL A   1      42.796  29.650  27.336  1.00  0.00     0.031 C 
ATOM     49  C   UNL A   1      39.714  27.803  30.393  1.00  0.00     0.029 A 
ATOM     50  N   UNL A   1      40.634  29.796  30.673  1.00  0.00    -0.354 N 
ATOM     51  C   UNL A   1      44.452  30.705  28.479  1.00  0.00     0.074 A 
ATOM     52  C   UNL A   1      43.890  30.402  27.191  1.00  0.00     0.031 C 
ATOM     53  C   UNL A   1      38.740  28.618  30.850  1.00  0.00     0.029 A 
ATOM     54  C   UNL A   1      39.295  29.943  31.039  1.00  0.00     0.049 A 
ATOM     55  H   UNL A   1      41.312  30.493  30.823  1.00  0.00     0.167 HD
ATOM     56  C   UNL A   1      45.013  31.853  28.962  1.00  0.00     0.034 A 
ATOM     57  C   UNL A   1      38.673  31.085  31.418  1.00  0.00     0.034 A 
ATOM     58  C   UNL A   1      45.284  31.727  30.378  1.00  0.00     0.049 A 
ATOM     59  C   UNL A   1      39.725  32.030  31.845  1.00  0.00     0.074 A 
ATOM     60  C   UNL A   1      45.996  30.859  31.182  1.00  0.00     0.029 A 
ATOM     61  N   UNL A   1      44.433  32.405  31.218  1.00  0.00    -0.354 N 
ATOM     62  N   UNL A   1      40.475  31.845  32.896  1.00  0.00    -0.248 NA
ATOM     63  C   UNL A   1      40.230  32.985  30.874  1.00  0.00     0.031 C 
ATOM     64  C   UNL A   1      45.224  30.744  32.379  1.00  0.00     0.029 A 
ATOM     65  C   UNL A   1      44.124  31.598  32.272  1.00  0.00     0.049 A 
ATOM     66  H   UNL A   1      44.101  33.322  31.079  1.00  0.00     0.167 HD
ATOM     67  C   UNL A   1      41.733  32.267  32.490  1.00  0.00     0.074 A 
ATOM     68  C   UNL A   1      41.489  33.087  31.305  1.00  0.00     0.031 C 
ATOM     69  C   UNL A   1      42.858  31.657  32.969  1.00  0.00     0.034 A 
BRANCH  56  70
ATOM     70  C   UNL A   1      44.883  33.242  28.333  1.00  0.00     0.023 A 
ATOM     71  C   UNL A   1      46.092  33.960  28.145  1.00  0.00     0.012 A 
ATOM     72  C   UNL A   1      43.691  33.995  28.229  1.00  0.00     0.148 A 
ATOM     73  C   UNL A   1      46.120  35.354  28.032  1.00  0.00     0.002 A 
ATOM     74  C   UNL A   1      43.719  35.377  28.062  1.00  0.00     0.091 A 
ATOM     75  F   UNL A   1      42.504  33.413  28.377  1.00  0.00    -0.205 F 
ATOM     76  C   UNL A   1      44.931  36.066  28.009  1.00  0.00     0.022 A 
BRANCH  74  77
ATOM     77  S   UNL A   1      42.208  36.352  27.990  1.00  0.00     0.127 S 
ATOM     78  O   UNL A   1      41.670  35.950  26.693  1.00  0.00    -0.237 OA
ATOM     79  O   UNL A   1      41.476  35.848  29.152  1.00  0.00    -0.237 OA
ATOM     80  O   UNL A   1      42.625  37.743  28.102  1.00  0.00    -0.744 OA
ENDBRANCH  74  77
ENDBRANCH  56  70
BRANCH  57  81
ATOM     81  C   UNL A   1      37.266  31.509  31.247  1.00  0.00     0.023 A 
ATOM     82  C   UNL A   1      36.543  31.992  32.357  1.00  0.00     0.012 A 
ATOM     83  C   UNL A   1      36.719  31.706  29.960  1.00  0.00     0.148 A 
ATOM     84  C   UNL A   1      35.340  32.687  32.189  1.00  0.00     0.002 A 
ATOM     85  C   UNL A   1      35.516  32.390  29.798  1.00  0.00     0.091 A 
ATOM     86  F   UNL A   1      37.422  31.309  28.892  1.00  0.00    -0.205 F 
ATOM     87  C   UNL A   1      34.832  32.895  30.910  1.00  0.00     0.022 A 
BRANCH  85  88
ATOM     88  S   UNL A   1      34.809  32.705  28.177  1.00  0.00     0.127 S 
ATOM     89  O   UNL A   1      35.875  33.470  27.528  1.00  0.00    -0.237 OA
ATOM     90  O   UNL A   1      34.623  31.352  27.663  1.00  0.00    -0.237 OA
ATOM     91  O   UNL A   1      33.590  33.467  28.424  1.00  0.00    -0.744 OA
ENDBRANCH  85  88
ENDBRANCH  57  81
BRANCH  69  92
ATOM     92  C   UNL A   1      42.726  30.774  34.182  1.00  0.00     0.023 A 
ATOM     93  C   UNL A   1      42.722  31.280  35.498  1.00  0.00     0.012 A 
ATOM     94  C   UNL A   1      42.437  29.415  33.975  1.00  0.00     0.148 A 
ATOM     95  C   UNL A   1      42.460  30.440  36.585  1.00  0.00     0.002 A 
ATOM     96  C   UNL A   1      42.131  28.596  35.052  1.00  0.00     0.091 A 
ATOM     97  F   UNL A   1      42.444  28.951  32.715  1.00  0.00    -0.205 F 
ATOM     98  C   UNL A   1      42.151  29.101  36.361  1.00  0.00     0.022 A 
BRANCH  96  99
ATOM     99  S   UNL A   1      41.604  26.898  34.811  1.00  0.00     0.127 S 
ATOM    100  O   UNL A   1      40.494  27.052  33.874  1.00  0.00    -0.237 OA
ATOM    101  O   UNL A   1      42.802  26.273  34.247  1.00  0.00    -0.237 OA
ATOM    102  O   UNL A   1      41.246  26.401  36.134  1.00  0.00    -0.744 OA
ENDBRANCH  96  99
ENDBRANCH  69  92
ENDBRANCH  43  44
ENDBRANCH  35  38
ENDBRANCH  33  34
ENDBRANCH  32  33
ENDBRANCH   1  32
TORSDOF 20
ENDMDL
