MODEL 1
REMARK VINA RESULT:     -11.5      0.000      0.000
REMARK SMILES O=C(CSc1ccnc(C(=O)NCCCCNC(=O)c2ccc(-c3c4nc(c(-c5cccc(S(=O)(=O)[O-])c5F)c5ccc([nH]5)c(-c5cccc(S(=O)(=O)[O-])c5F)c5nc(c(-c6cccc(S(=O)(=O)[O-])c6F)c6ccc3[nH]6)C=C5)C=C4)cc2)c1)NCC(F)(F)F
REMARK SMILES IDX 13 1 12 2 10 3 11 4 9 6 5 7 6 8 83 9 7 10 8 11 4 12 3 13
REMARK SMILES IDX 2 14 1 15 84 16 85 18 86 19 87 20 88 21 89 22 14 23 15 24
REMARK SMILES IDX 16 25 17 26 18 27 19 29 20 30 21 31 82 32 22 33 81 34 23 35
REMARK SMILES IDX 24 36 25 37 75 38 26 39 80 40 74 41 76 42 27 43 79 44 73 45
REMARK SMILES IDX 72 46 28 48 60 49 40 50 59 51 41 52 44 53 58 54 77 55 42 56
REMARK SMILES IDX 43 57 57 59 78 60 45 61 29 62 30 63 38 64 31 65 33 66 39 67
REMARK SMILES IDX 32 68 34 69 35 70 36 71 37 72 61 73 62 74 70 75 63 76 65 77
REMARK SMILES IDX 71 78 64 79 66 80 67 81 68 82 69 83 46 84 47 85 55 86 48 87
REMARK SMILES IDX 50 88 56 89 49 90 51 91 52 92 53 93 54 94
REMARK H PARENT 12 5 84 17 17 28 76 47 44 58
REMARK Flexibility Score: inf
ROOT
ATOM      1  C   UNL A   1      33.577  21.828  24.424  1.00  0.00     0.116 C 
ENDROOT
BRANCH   1   2
ATOM      2  N   UNL A   1      33.713  22.265  23.047  1.00  0.00    -0.351 N 
ATOM      3  C   UNL A   1      33.278  23.336  22.299  1.00  0.00     0.269 C 
ATOM      4  O   UNL A   1      33.641  23.332  21.117  1.00  0.00    -0.268 OA
ATOM      5  H   UNL A   1      34.253  21.637  22.514  1.00  0.00     0.163 HD
BRANCH   3   6
ATOM      6  C   UNL A   1      32.407  24.470  22.785  1.00  0.00     0.129 A 
ATOM      7  C   UNL A   1      31.774  26.769  23.099  1.00  0.00     0.012 A 
ATOM      8  C   UNL A   1      30.652  26.347  23.802  1.00  0.00     0.035 A 
ATOM      9  C   UNL A   1      32.624  25.814  22.535  1.00  0.00     0.049 A 
ATOM     10  C   UNL A   1      30.461  24.991  23.959  1.00  0.00     0.113 A 
ATOM     11  N   UNL A   1      31.315  24.062  23.491  1.00  0.00    -0.251 NA
BRANCH   7  12
ATOM     12  S   UNL A   1      32.062  28.527  22.927  1.00  0.00    -0.116 SA
BRANCH  12  13
ATOM     13  C   UNL A   1      30.734  29.234  23.972  1.00  0.00     0.174 C 
BRANCH  13  14
ATOM     14  C   UNL A   1      29.565  29.738  23.142  1.00  0.00     0.230 C 
ATOM     15  O   UNL A   1      28.404  29.454  23.420  1.00  0.00    -0.274 OA
ATOM     16  N   UNL A   1      29.905  30.567  22.099  1.00  0.00    -0.346 N 
ATOM     17  H   UNL A   1      30.858  30.742  21.924  1.00  0.00     0.163 HD
BRANCH  16  18
ATOM     18  C   UNL A   1      28.904  31.204  21.236  1.00  0.00     0.231 C 
BRANCH  18  19
ATOM     19  C   UNL A   1      28.261  32.451  21.841  1.00  0.00     0.405 C 
ATOM     20  F   UNL A   1      29.202  33.219  22.446  1.00  0.00    -0.169 F 
ATOM     21  F   UNL A   1      27.673  33.208  20.890  1.00  0.00    -0.169 F 
ATOM     22  F   UNL A   1      27.329  32.144  22.767  1.00  0.00    -0.169 F 
ENDBRANCH  18  19
ENDBRANCH  16  18
ENDBRANCH  13  14
ENDBRANCH  12  13
ENDBRANCH   7  12
ENDBRANCH   3   6
ENDBRANCH   1   2
BRANCH   1  23
ATOM     23  C   UNL A   1      34.604  22.457  25.361  1.00  0.00     0.023 C 
BRANCH  23  24
ATOM     24  C   UNL A   1      35.736  21.520  25.791  1.00  0.00     0.023 C 
BRANCH  24  25
ATOM     25  C   UNL A   1      37.070  21.703  25.067  1.00  0.00     0.116 C 
BRANCH  25  26
ATOM     26  N   UNL A   1      38.044  20.651  25.329  1.00  0.00    -0.352 N 
ATOM     27  C   UNL A   1      39.254  20.755  25.980  1.00  0.00     0.251 C 
ATOM     28  H   UNL A   1      37.808  19.754  25.000  1.00  0.00     0.163 HD
ATOM     29  O   UNL A   1      39.993  19.786  26.078  1.00  0.00    -0.269 OA
BRANCH  27  30
ATOM     30  C   UNL A   1      39.666  22.070  26.515  1.00  0.00     0.039 A 
ATOM     31  C   UNL A   1      40.724  22.124  27.426  1.00  0.00     0.014 A 
ATOM     32  C   UNL A   1      39.057  23.244  26.065  1.00  0.00     0.014 A 
ATOM     33  C   UNL A   1      41.229  23.366  27.822  1.00  0.00     0.010 A 
ATOM     34  C   UNL A   1      39.603  24.477  26.409  1.00  0.00     0.010 A 
ATOM     35  C   UNL A   1      40.700  24.550  27.283  1.00  0.00    -0.014 A 
BRANCH  35  36
ATOM     36  C   UNL A   1      41.296  25.874  27.591  1.00  0.00     0.031 A 
ATOM     37  C   UNL A   1      42.722  26.168  27.212  1.00  0.00     0.074 A 
ATOM     38  C   UNL A   1      40.588  26.773  28.305  1.00  0.00     0.049 A 
ATOM     39  N   UNL A   1      43.440  27.230  27.467  1.00  0.00    -0.248 NA
ATOM     40  C   UNL A   1      43.446  25.117  26.477  1.00  0.00     0.031 C 
ATOM     41  C   UNL A   1      39.226  26.571  28.807  1.00  0.00     0.029 A 
ATOM     42  N   UNL A   1      40.926  28.022  28.760  1.00  0.00    -0.354 N 
ATOM     43  C   UNL A   1      44.706  26.964  26.959  1.00  0.00     0.074 A 
ATOM     44  C   UNL A   1      44.667  25.628  26.408  1.00  0.00     0.031 C 
ATOM     45  C   UNL A   1      38.846  27.658  29.498  1.00  0.00     0.029 A 
ATOM     46  C   UNL A   1      39.940  28.624  29.510  1.00  0.00     0.049 A 
ATOM     47  H   UNL A   1      41.792  28.450  28.568  1.00  0.00     0.167 HD
ATOM     48  C   UNL A   1      45.791  27.773  26.923  1.00  0.00     0.034 A 
ATOM     49  C   UNL A   1      39.922  29.817  30.136  1.00  0.00     0.034 A 
ATOM     50  C   UNL A   1      45.809  29.121  27.418  1.00  0.00     0.049 A 
ATOM     51  C   UNL A   1      41.122  30.718  30.025  1.00  0.00     0.074 A 
ATOM     52  C   UNL A   1      46.832  30.050  27.348  1.00  0.00     0.029 A 
ATOM     53  N   UNL A   1      44.753  29.737  28.072  1.00  0.00    -0.354 N 
ATOM     54  N   UNL A   1      42.254  30.511  29.396  1.00  0.00    -0.248 NA
ATOM     55  C   UNL A   1      41.031  32.033  30.676  1.00  0.00     0.031 C 
ATOM     56  C   UNL A   1      46.396  31.228  27.964  1.00  0.00     0.029 A 
ATOM     57  C   UNL A   1      45.098  31.034  28.409  1.00  0.00     0.049 A 
ATOM     58  H   UNL A   1      43.887  29.314  28.268  1.00  0.00     0.167 HD
ATOM     59  C   UNL A   1      42.991  31.680  29.542  1.00  0.00     0.074 A 
ATOM     60  C   UNL A   1      42.170  32.599  30.303  1.00  0.00     0.031 C 
ATOM     61  C   UNL A   1      44.244  31.960  29.105  1.00  0.00     0.034 A 
BRANCH  48  62
ATOM     62  C   UNL A   1      47.032  27.244  26.254  1.00  0.00     0.023 A 
ATOM     63  C   UNL A   1      47.238  27.503  24.883  1.00  0.00     0.012 A 
ATOM     64  C   UNL A   1      48.021  26.556  26.983  1.00  0.00     0.148 A 
ATOM     65  C   UNL A   1      48.392  27.059  24.241  1.00  0.00     0.002 A 
ATOM     66  C   UNL A   1      49.188  26.151  26.345  1.00  0.00     0.091 A 
ATOM     67  F   UNL A   1      47.799  26.301  28.281  1.00  0.00    -0.205 F 
ATOM     68  C   UNL A   1      49.370  26.393  24.974  1.00  0.00     0.022 A 
BRANCH  66  69
ATOM     69  S   UNL A   1      50.542  25.350  27.213  1.00  0.00     0.127 S 
ATOM     70  O   UNL A   1      50.959  26.401  28.141  1.00  0.00    -0.237 OA
ATOM     71  O   UNL A   1      49.874  24.211  27.843  1.00  0.00    -0.237 OA
ATOM     72  O   UNL A   1      51.517  24.993  26.192  1.00  0.00    -0.744 OA
ENDBRANCH  66  69
ENDBRANCH  48  62
BRANCH  49  73
ATOM     73  C   UNL A   1      38.695  30.267  30.853  1.00  0.00     0.023 A 
ATOM     74  C   UNL A   1      38.559  29.978  32.225  1.00  0.00     0.012 A 
ATOM     75  C   UNL A   1      37.679  30.990  30.201  1.00  0.00     0.148 A 
ATOM     76  C   UNL A   1      37.418  30.370  32.927  1.00  0.00     0.002 A 
ATOM     77  C   UNL A   1      36.568  31.423  30.918  1.00  0.00     0.091 A 
ATOM     78  F   UNL A   1      37.816  31.242  28.892  1.00  0.00    -0.205 F 
ATOM     79  C   UNL A   1      36.427  31.101  32.276  1.00  0.00     0.022 A 
BRANCH  77  80
ATOM     80  S   UNL A   1      35.313  32.478  30.184  1.00  0.00     0.127 S 
ATOM     81  O   UNL A   1      36.085  33.665  29.831  1.00  0.00    -0.237 OA
ATOM     82  O   UNL A   1      34.862  31.675  29.046  1.00  0.00    -0.237 OA
ATOM     83  O   UNL A   1      34.305  32.654  31.222  1.00  0.00    -0.744 OA
ENDBRANCH  77  80
ENDBRANCH  49  73
BRANCH  61  84
ATOM     84  C   UNL A   1      44.798  33.327  29.403  1.00  0.00     0.023 A 
ATOM     85  C   UNL A   1      45.466  33.558  30.621  1.00  0.00     0.012 A 
ATOM     86  C   UNL A   1      44.733  34.356  28.443  1.00  0.00     0.148 A 
ATOM     87  C   UNL A   1      46.038  34.800  30.891  1.00  0.00     0.002 A 
ATOM     88  C   UNL A   1      45.344  35.578  28.700  1.00  0.00     0.091 A 
ATOM     89  F   UNL A   1      44.075  34.123  27.297  1.00  0.00    -0.205 F 
ATOM     90  C   UNL A   1      45.988  35.805  29.927  1.00  0.00     0.022 A 
BRANCH  88  91
ATOM     91  S   UNL A   1      45.407  36.893  27.478  1.00  0.00     0.127 S 
ATOM     92  O   UNL A   1      43.990  37.091  27.178  1.00  0.00    -0.237 OA
ATOM     93  O   UNL A   1      46.030  37.987  28.226  1.00  0.00    -0.237 OA
ATOM     94  O   UNL A   1      46.216  36.379  26.381  1.00  0.00    -0.744 OA
ENDBRANCH  88  91
ENDBRANCH  61  84
ENDBRANCH  35  36
ENDBRANCH  27  30
ENDBRANCH  25  26
ENDBRANCH  24  25
ENDBRANCH  23  24
ENDBRANCH   1  23
TORSDOF 19
ENDMDL
MODEL 2
REMARK VINA RESULT:     -11.4      5.754     11.350
REMARK SMILES O=C(CSc1ccnc(C(=O)NCCCCNC(=O)c2ccc(-c3c4nc(c(-c5cccc(S(=O)(=O)[O-])c5F)c5ccc([nH]5)c(-c5cccc(S(=O)(=O)[O-])c5F)c5nc(c(-c6cccc(S(=O)(=O)[O-])c6F)c6ccc3[nH]6)C=C5)C=C4)cc2)c1)NCC(F)(F)F
REMARK SMILES IDX 13 1 12 2 10 3 11 4 9 6 5 7 6 8 83 9 7 10 8 11 4 12 3 13
REMARK SMILES IDX 2 14 1 15 84 16 85 18 86 19 87 20 88 21 89 22 14 23 15 24
REMARK SMILES IDX 16 25 17 26 18 27 19 29 20 30 21 31 82 32 22 33 81 34 23 35
REMARK SMILES IDX 24 36 25 37 75 38 26 39 80 40 74 41 76 42 27 43 79 44 73 45
REMARK SMILES IDX 72 46 28 48 60 49 40 50 59 51 41 52 44 53 58 54 77 55 42 56
REMARK SMILES IDX 43 57 57 59 78 60 45 61 29 62 30 63 38 64 31 65 33 66 39 67
REMARK SMILES IDX 32 68 34 69 35 70 36 71 37 72 61 73 62 74 70 75 63 76 65 77
REMARK SMILES IDX 71 78 64 79 66 80 67 81 68 82 69 83 46 84 47 85 55 86 48 87
REMARK SMILES IDX 50 88 56 89 49 90 51 91 52 92 53 93 54 94
REMARK H PARENT 12 5 84 17 17 28 76 47 44 58
REMARK Flexibility Score: inf
ROOT
ATOM      1  C   UNL A   1      32.898  35.339  28.836  1.00  0.00     0.116 C 
ENDROOT
BRANCH   1   2
ATOM      2  N   UNL A   1      32.631  36.156  30.006  1.00  0.00    -0.351 N 
ATOM      3  C   UNL A   1      33.042  36.168  31.320  1.00  0.00     0.269 C 
ATOM      4  O   UNL A   1      32.565  37.077  32.010  1.00  0.00    -0.268 OA
ATOM      5  H   UNL A   1      31.997  36.883  29.811  1.00  0.00     0.163 HD
BRANCH   3   6
ATOM      6  C   UNL A   1      33.985  35.184  31.971  1.00  0.00     0.129 A 
ATOM      7  C   UNL A   1      36.122  34.210  32.489  1.00  0.00     0.012 A 
ATOM      8  C   UNL A   1      35.479  33.249  33.260  1.00  0.00     0.035 A 
ATOM      9  C   UNL A   1      35.366  35.221  31.890  1.00  0.00     0.049 A 
ATOM     10  C   UNL A   1      34.105  33.310  33.352  1.00  0.00     0.113 A 
ATOM     11  N   UNL A   1      33.358  34.230  32.714  1.00  0.00    -0.251 NA
BRANCH   7  12
ATOM     12  S   UNL A   1      37.901  34.117  32.321  1.00  0.00    -0.116 SA
BRANCH  12  13
ATOM     13  C   UNL A   1      38.106  33.960  30.508  1.00  0.00     0.174 C 
BRANCH  13  14
ATOM     14  C   UNL A   1      39.480  34.420  30.048  1.00  0.00     0.230 C 
ATOM     15  O   UNL A   1      39.624  35.159  29.079  1.00  0.00    -0.274 OA
ATOM     16  N   UNL A   1      40.529  33.988  30.825  1.00  0.00    -0.346 N 
ATOM     17  H   UNL A   1      40.342  33.386  31.581  1.00  0.00     0.163 HD
BRANCH  16  18
ATOM     18  C   UNL A   1      41.917  34.391  30.575  1.00  0.00     0.231 C 
BRANCH  18  19
ATOM     19  C   UNL A   1      42.757  33.328  29.868  1.00  0.00     0.405 C 
ATOM     20  F   UNL A   1      43.234  33.811  28.693  1.00  0.00    -0.169 F 
ATOM     21  F   UNL A   1      43.821  32.968  30.617  1.00  0.00    -0.169 F 
ATOM     22  F   UNL A   1      42.044  32.217  29.592  1.00  0.00    -0.169 F 
ENDBRANCH  18  19
ENDBRANCH  16  18
ENDBRANCH  13  14
ENDBRANCH  12  13
ENDBRANCH   7  12
ENDBRANCH   3   6
ENDBRANCH   1   2
BRANCH   1  23
ATOM     23  C   UNL A   1      34.348  35.411  28.368  1.00  0.00     0.023 C 
BRANCH  23  24
ATOM     24  C   UNL A   1      35.070  34.062  28.310  1.00  0.00     0.023 C 
BRANCH  24  25
ATOM     25  C   UNL A   1      34.364  32.893  29.000  1.00  0.00     0.116 C 
BRANCH  25  26
ATOM     26  N   UNL A   1      33.904  31.851  28.092  1.00  0.00    -0.352 N 
ATOM     27  C   UNL A   1      34.542  30.679  27.748  1.00  0.00     0.251 C 
ATOM     28  H   UNL A   1      33.027  32.003  27.670  1.00  0.00     0.163 HD
ATOM     29  O   UNL A   1      34.049  29.921  26.925  1.00  0.00    -0.269 OA
BRANCH  27  30
ATOM     30  C   UNL A   1      35.856  30.378  28.355  1.00  0.00     0.039 A 
ATOM     31  C   UNL A   1      35.892  29.697  29.575  1.00  0.00     0.014 A 
ATOM     32  C   UNL A   1      37.039  30.702  27.689  1.00  0.00     0.014 A 
ATOM     33  C   UNL A   1      37.119  29.266  30.087  1.00  0.00     0.010 A 
ATOM     34  C   UNL A   1      38.252  30.216  28.167  1.00  0.00     0.010 A 
ATOM     35  C   UNL A   1      38.303  29.485  29.365  1.00  0.00    -0.014 A 
BRANCH  35  36
ATOM     36  C   UNL A   1      39.602  28.932  29.824  1.00  0.00     0.031 A 
ATOM     37  C   UNL A   1      40.366  29.610  30.929  1.00  0.00     0.074 A 
ATOM     38  C   UNL A   1      40.145  27.883  29.173  1.00  0.00     0.049 A 
ATOM     39  N   UNL A   1      41.548  29.325  31.408  1.00  0.00    -0.248 NA
ATOM     40  C   UNL A   1      39.730  30.781  31.557  1.00  0.00     0.031 C 
ATOM     41  C   UNL A   1      39.543  27.193  28.029  1.00  0.00     0.029 A 
ATOM     42  N   UNL A   1      41.338  27.232  29.361  1.00  0.00    -0.354 N 
ATOM     43  C   UNL A   1      41.814  30.298  32.364  1.00  0.00     0.074 A 
ATOM     44  C   UNL A   1      40.683  31.199  32.376  1.00  0.00     0.031 C 
ATOM     45  C   UNL A   1      40.370  26.217  27.618  1.00  0.00     0.029 A 
ATOM     46  C   UNL A   1      41.568  26.224  28.451  1.00  0.00     0.049 A 
ATOM     47  H   UNL A   1      41.971  27.462  30.078  1.00  0.00     0.167 HD
ATOM     48  C   UNL A   1      42.887  30.410  33.183  1.00  0.00     0.034 A 
ATOM     49  C   UNL A   1      42.625  25.400  28.305  1.00  0.00     0.034 A 
ATOM     50  C   UNL A   1      43.981  29.479  33.210  1.00  0.00     0.049 A 
ATOM     51  C   UNL A   1      43.774  25.510  29.271  1.00  0.00     0.074 A 
ATOM     52  C   UNL A   1      45.071  29.457  34.062  1.00  0.00     0.029 A 
ATOM     53  N   UNL A   1      44.124  28.403  32.348  1.00  0.00    -0.354 N 
ATOM     54  N   UNL A   1      43.930  26.336  30.277  1.00  0.00    -0.248 NA
ATOM     55  C   UNL A   1      44.876  24.550  29.107  1.00  0.00     0.031 C 
ATOM     56  C   UNL A   1      45.876  28.367  33.713  1.00  0.00     0.029 A 
ATOM     57  C   UNL A   1      45.282  27.708  32.650  1.00  0.00     0.049 A 
ATOM     58  H   UNL A   1      43.496  28.168  31.628  1.00  0.00     0.167 HD
ATOM     59  C   UNL A   1      45.124  25.972  30.888  1.00  0.00     0.074 A 
ATOM     60  C   UNL A   1      45.642  24.838  30.151  1.00  0.00     0.031 C 
ATOM     61  C   UNL A   1      45.748  26.539  31.950  1.00  0.00     0.034 A 
BRANCH  48  62
ATOM     62  C   UNL A   1      42.891  31.541  34.176  1.00  0.00     0.023 A 
ATOM     63  C   UNL A   1      43.510  32.759  33.828  1.00  0.00     0.012 A 
ATOM     64  C   UNL A   1      42.233  31.430  35.417  1.00  0.00     0.148 A 
ATOM     65  C   UNL A   1      43.502  33.839  34.709  1.00  0.00     0.002 A 
ATOM     66  C   UNL A   1      42.195  32.524  36.274  1.00  0.00     0.091 A 
ATOM     67  F   UNL A   1      41.668  30.258  35.739  1.00  0.00    -0.205 F 
ATOM     68  C   UNL A   1      42.836  33.724  35.926  1.00  0.00     0.022 A 
BRANCH  66  69
ATOM     69  S   UNL A   1      41.302  32.505  37.833  1.00  0.00     0.127 S 
ATOM     70  O   UNL A   1      40.005  31.968  37.424  1.00  0.00    -0.237 OA
ATOM     71  O   UNL A   1      42.112  31.592  38.641  1.00  0.00    -0.237 OA
ATOM     72  O   UNL A   1      41.289  33.883  38.304  1.00  0.00    -0.744 OA
ENDBRANCH  66  69
ENDBRANCH  48  62
BRANCH  49  73
ATOM     73  C   UNL A   1      42.610  24.342  27.256  1.00  0.00     0.023 A 
ATOM     74  C   UNL A   1      43.429  24.491  26.120  1.00  0.00     0.012 A 
ATOM     75  C   UNL A   1      41.814  23.188  27.380  1.00  0.00     0.148 A 
ATOM     76  C   UNL A   1      43.430  23.529  25.110  1.00  0.00     0.002 A 
ATOM     77  C   UNL A   1      41.859  22.207  26.394  1.00  0.00     0.091 A 
ATOM     78  F   UNL A   1      41.027  23.068  28.458  1.00  0.00    -0.205 F 
ATOM     79  C   UNL A   1      42.653  22.382  25.251  1.00  0.00     0.022 A 
BRANCH  77  80
ATOM     80  S   UNL A   1      40.987  20.645  26.564  1.00  0.00     0.127 S 
ATOM     81  O   UNL A   1      39.647  20.997  26.104  1.00  0.00    -0.237 OA
ATOM     82  O   UNL A   1      41.738  19.773  25.659  1.00  0.00    -0.237 OA
ATOM     83  O   UNL A   1      41.110  20.287  27.971  1.00  0.00    -0.744 OA
ENDBRANCH  77  80
ENDBRANCH  49  73
BRANCH  61  84
ATOM     84  C   UNL A   1      47.043  25.925  32.409  1.00  0.00     0.023 A 
ATOM     85  C   UNL A   1      47.044  25.028  33.494  1.00  0.00     0.012 A 
ATOM     86  C   UNL A   1      48.244  26.171  31.713  1.00  0.00     0.148 A 
ATOM     87  C   UNL A   1      48.223  24.404  33.897  1.00  0.00     0.002 A 
ATOM     88  C   UNL A   1      49.408  25.512  32.092  1.00  0.00     0.091 A 
ATOM     89  F   UNL A   1      48.227  27.044  30.695  1.00  0.00    -0.205 F 
ATOM     90  C   UNL A   1      49.401  24.636  33.190  1.00  0.00     0.022 A 
BRANCH  88  91
ATOM     91  S   UNL A   1      50.945  25.682  31.180  1.00  0.00     0.127 S 
ATOM     92  O   UNL A   1      50.561  25.199  29.854  1.00  0.00    -0.237 OA
ATOM     93  O   UNL A   1      51.197  27.121  31.255  1.00  0.00    -0.237 OA
ATOM     94  O   UNL A   1      51.921  24.864  31.888  1.00  0.00    -0.744 OA
ENDBRANCH  88  91
ENDBRANCH  61  84
ENDBRANCH  35  36
ENDBRANCH  27  30
ENDBRANCH  25  26
ENDBRANCH  24  25
ENDBRANCH  23  24
ENDBRANCH   1  23
TORSDOF 19
ENDMDL
MODEL 3
REMARK VINA RESULT:     -11.4      6.157     11.750
REMARK SMILES O=C(CSc1ccnc(C(=O)NCCCCNC(=O)c2ccc(-c3c4nc(c(-c5cccc(S(=O)(=O)[O-])c5F)c5ccc([nH]5)c(-c5cccc(S(=O)(=O)[O-])c5F)c5nc(c(-c6cccc(S(=O)(=O)[O-])c6F)c6ccc3[nH]6)C=C5)C=C4)cc2)c1)NCC(F)(F)F
REMARK SMILES IDX 13 1 12 2 10 3 11 4 9 6 5 7 6 8 83 9 7 10 8 11 4 12 3 13
REMARK SMILES IDX 2 14 1 15 84 16 85 18 86 19 87 20 88 21 89 22 14 23 15 24
REMARK SMILES IDX 16 25 17 26 18 27 19 29 20 30 21 31 82 32 22 33 81 34 23 35
REMARK SMILES IDX 24 36 25 37 75 38 26 39 80 40 74 41 76 42 27 43 79 44 73 45
REMARK SMILES IDX 72 46 28 48 60 49 40 50 59 51 41 52 44 53 58 54 77 55 42 56
REMARK SMILES IDX 43 57 57 59 78 60 45 61 29 62 30 63 38 64 31 65 33 66 39 67
REMARK SMILES IDX 32 68 34 69 35 70 36 71 37 72 61 73 62 74 70 75 63 76 65 77
REMARK SMILES IDX 71 78 64 79 66 80 67 81 68 82 69 83 46 84 47 85 55 86 48 87
REMARK SMILES IDX 50 88 56 89 49 90 51 91 52 92 53 93 54 94
REMARK H PARENT 12 5 84 17 17 28 76 47 44 58
REMARK Flexibility Score: inf
ROOT
ATOM      1  C   UNL A   1      33.689  36.860  29.144  1.00  0.00     0.116 C 
ENDROOT
BRANCH   1   2
ATOM      2  N   UNL A   1      33.207  37.363  30.418  1.00  0.00    -0.351 N 
ATOM      3  C   UNL A   1      33.295  36.972  31.735  1.00  0.00     0.269 C 
ATOM      4  O   UNL A   1      32.729  37.717  32.542  1.00  0.00    -0.268 OA
ATOM      5  H   UNL A   1      32.687  38.192  30.313  1.00  0.00     0.163 HD
BRANCH   3   6
ATOM      6  C   UNL A   1      33.989  35.735  32.255  1.00  0.00     0.129 A 
ATOM      7  C   UNL A   1      35.869  34.403  32.943  1.00  0.00     0.012 A 
ATOM      8  C   UNL A   1      35.005  33.345  33.200  1.00  0.00     0.035 A 
ATOM      9  C   UNL A   1      35.342  35.627  32.524  1.00  0.00     0.049 A 
ATOM     10  C   UNL A   1      33.659  33.542  32.973  1.00  0.00     0.113 A 
ATOM     11  N   UNL A   1      33.148  34.690  32.492  1.00  0.00    -0.251 NA
BRANCH   7  12
ATOM     12  S   UNL A   1      37.624  34.149  33.188  1.00  0.00    -0.116 SA
BRANCH  12  13
ATOM     13  C   UNL A   1      38.281  34.366  31.493  1.00  0.00     0.174 C 
BRANCH  13  14
ATOM     14  C   UNL A   1      39.798  34.287  31.456  1.00  0.00     0.230 C 
ATOM     15  O   UNL A   1      40.485  34.585  32.428  1.00  0.00    -0.274 OA
ATOM     16  N   UNL A   1      40.329  33.814  30.279  1.00  0.00    -0.346 N 
ATOM     17  H   UNL A   1      39.720  33.607  29.534  1.00  0.00     0.163 HD
BRANCH  16  18
ATOM     18  C   UNL A   1      41.768  33.605  30.088  1.00  0.00     0.231 C 
BRANCH  18  19
ATOM     19  C   UNL A   1      42.469  34.735  29.335  1.00  0.00     0.405 C 
ATOM     20  F   UNL A   1      43.568  34.262  28.695  1.00  0.00    -0.169 F 
ATOM     21  F   UNL A   1      41.659  35.274  28.398  1.00  0.00    -0.169 F 
ATOM     22  F   UNL A   1      42.871  35.723  30.161  1.00  0.00    -0.169 F 
ENDBRANCH  18  19
ENDBRANCH  16  18
ENDBRANCH  13  14
ENDBRANCH  12  13
ENDBRANCH   7  12
ENDBRANCH   3   6
ENDBRANCH   1   2
BRANCH   1  23
ATOM     23  C   UNL A   1      33.342  35.394  28.904  1.00  0.00     0.023 C 
BRANCH  23  24
ATOM     24  C   UNL A   1      34.550  34.476  28.697  1.00  0.00     0.023 C 
BRANCH  24  25
ATOM     25  C   UNL A   1      34.404  33.047  29.221  1.00  0.00     0.116 C 
BRANCH  25  26
ATOM     26  N   UNL A   1      33.996  32.078  28.212  1.00  0.00    -0.352 N 
ATOM     27  C   UNL A   1      34.638  30.917  27.837  1.00  0.00     0.251 C 
ATOM     28  H   UNL A   1      33.156  32.276  27.739  1.00  0.00     0.163 HD
ATOM     29  O   UNL A   1      34.197  30.227  26.930  1.00  0.00    -0.269 OA
BRANCH  27  30
ATOM     30  C   UNL A   1      35.898  30.548  28.517  1.00  0.00     0.039 A 
ATOM     31  C   UNL A   1      35.845  29.653  29.589  1.00  0.00     0.014 A 
ATOM     32  C   UNL A   1      37.125  31.028  28.054  1.00  0.00     0.014 A 
ATOM     33  C   UNL A   1      37.034  29.171  30.142  1.00  0.00     0.010 A 
ATOM     34  C   UNL A   1      38.306  30.498  28.564  1.00  0.00     0.010 A 
ATOM     35  C   UNL A   1      38.273  29.558  29.606  1.00  0.00    -0.014 A 
BRANCH  35  36
ATOM     36  C   UNL A   1      39.546  28.969  30.093  1.00  0.00     0.031 A 
ATOM     37  C   UNL A   1      40.235  29.547  31.299  1.00  0.00     0.074 A 
ATOM     38  C   UNL A   1      40.135  27.982  29.387  1.00  0.00     0.049 A 
ATOM     39  N   UNL A   1      41.387  29.223  31.824  1.00  0.00    -0.248 NA
ATOM     40  C   UNL A   1      39.553  30.657  31.987  1.00  0.00     0.031 C 
ATOM     41  C   UNL A   1      39.610  27.395  28.151  1.00  0.00     0.029 A 
ATOM     42  N   UNL A   1      41.319  27.319  29.590  1.00  0.00    -0.354 N 
ATOM     43  C   UNL A   1      41.587  30.108  32.876  1.00  0.00     0.074 A 
ATOM     44  C   UNL A   1      40.451  31.002  32.898  1.00  0.00     0.031 C 
ATOM     45  C   UNL A   1      40.467  26.461  27.708  1.00  0.00     0.029 A 
ATOM     46  C   UNL A   1      41.612  26.396  28.611  1.00  0.00     0.049 A 
ATOM     47  H   UNL A   1      41.905  27.486  30.363  1.00  0.00     0.167 HD
ATOM     48  C   UNL A   1      42.606  30.149  33.766  1.00  0.00     0.034 A 
ATOM     49  C   UNL A   1      42.681  25.590  28.459  1.00  0.00     0.034 A 
ATOM     50  C   UNL A   1      43.704  29.221  33.779  1.00  0.00     0.049 A 
ATOM     51  C   UNL A   1      43.768  25.616  29.499  1.00  0.00     0.074 A 
ATOM     52  C   UNL A   1      44.739  29.126  34.691  1.00  0.00     0.029 A 
ATOM     53  N   UNL A   1      43.908  28.226  32.836  1.00  0.00    -0.354 N 
ATOM     54  N   UNL A   1      43.856  26.350  30.582  1.00  0.00    -0.248 NA
ATOM     55  C   UNL A   1      44.885  24.677  29.320  1.00  0.00     0.031 C 
ATOM     56  C   UNL A   1      45.573  28.073  34.298  1.00  0.00     0.029 A 
ATOM     57  C   UNL A   1      45.050  27.509  33.146  1.00  0.00     0.049 A 
ATOM     58  H   UNL A   1      43.327  28.055  32.060  1.00  0.00     0.167 HD
ATOM     59  C   UNL A   1      45.013  25.936  31.231  1.00  0.00     0.074 A 
ATOM     60  C   UNL A   1      45.584  24.873  30.430  1.00  0.00     0.031 C 
ATOM     61  C   UNL A   1      45.567  26.407  32.375  1.00  0.00     0.034 A 
BRANCH  48  62
ATOM     62  C   UNL A   1      42.542  31.188  34.854  1.00  0.00     0.023 A 
ATOM     63  C   UNL A   1      41.993  30.841  36.105  1.00  0.00     0.012 A 
ATOM     64  C   UNL A   1      43.077  32.477  34.668  1.00  0.00     0.148 A 
ATOM     65  C   UNL A   1      41.950  31.767  37.145  1.00  0.00     0.002 A 
ATOM     66  C   UNL A   1      43.066  33.383  35.722  1.00  0.00     0.091 A 
ATOM     67  F   UNL A   1      43.576  32.796  33.465  1.00  0.00    -0.205 F 
ATOM     68  C   UNL A   1      42.495  33.034  36.956  1.00  0.00     0.022 A 
BRANCH  66  69
ATOM     69  S   UNL A   1      43.809  35.016  35.606  1.00  0.00     0.127 S 
ATOM     70  O   UNL A   1      45.192  34.687  35.266  1.00  0.00    -0.237 OA
ATOM     71  O   UNL A   1      43.042  35.627  34.520  1.00  0.00    -0.237 OA
ATOM     72  O   UNL A   1      43.615  35.637  36.909  1.00  0.00    -0.744 OA
ENDBRANCH  66  69
ENDBRANCH  48  62
BRANCH  49  73
ATOM     73  C   UNL A   1      42.738  24.629  27.321  1.00  0.00     0.023 A 
ATOM     74  C   UNL A   1      43.392  25.011  26.133  1.00  0.00     0.012 A 
ATOM     75  C   UNL A   1      42.174  23.343  27.409  1.00  0.00     0.148 A 
ATOM     76  C   UNL A   1      43.453  24.144  25.042  1.00  0.00     0.002 A 
ATOM     77  C   UNL A   1      42.284  22.464  26.337  1.00  0.00     0.091 A 
ATOM     78  F   UNL A   1      41.541  23.001  28.540  1.00  0.00    -0.205 F 
ATOM     79  C   UNL A   1      42.907  22.867  25.146  1.00  0.00     0.022 A 
BRANCH  77  80
ATOM     80  S   UNL A   1      41.721  20.760  26.439  1.00  0.00     0.127 S 
ATOM     81  O   UNL A   1      42.140  20.386  27.786  1.00  0.00    -0.237 OA
ATOM     82  O   UNL A   1      40.275  20.902  26.261  1.00  0.00    -0.237 OA
ATOM     83  O   UNL A   1      42.389  20.069  25.344  1.00  0.00    -0.744 OA
ENDBRANCH  77  80
ENDBRANCH  49  73
BRANCH  61  84
ATOM     84  C   UNL A   1      46.836  25.758  32.857  1.00  0.00     0.023 A 
ATOM     85  C   UNL A   1      48.081  26.293  32.474  1.00  0.00     0.012 A 
ATOM     86  C   UNL A   1      46.794  24.674  33.756  1.00  0.00     0.148 A 
ATOM     87  C   UNL A   1      49.267  25.743  32.957  1.00  0.00     0.002 A 
ATOM     88  C   UNL A   1      47.979  24.158  34.268  1.00  0.00     0.091 A 
ATOM     89  F   UNL A   1      45.600  24.166  34.093  1.00  0.00    -0.205 F 
ATOM     90  C   UNL A   1      49.216  24.684  33.863  1.00  0.00     0.022 A 
BRANCH  88  91
ATOM     91  S   UNL A   1      48.001  22.858  35.508  1.00  0.00     0.127 S 
ATOM     92  O   UNL A   1      49.436  22.657  35.705  1.00  0.00    -0.237 OA
ATOM     93  O   UNL A   1      47.313  23.489  36.636  1.00  0.00    -0.237 OA
ATOM     94  O   UNL A   1      47.284  21.735  34.920  1.00  0.00    -0.744 OA
ENDBRANCH  88  91
ENDBRANCH  61  84
ENDBRANCH  35  36
ENDBRANCH  27  30
ENDBRANCH  25  26
ENDBRANCH  24  25
ENDBRANCH  23  24
ENDBRANCH   1  23
TORSDOF 19
ENDMDL
