MODEL 1
REMARK VINA RESULT:     -11.4      0.000      0.000
REMARK SMILES CCC(C)(C)NC(=O)[C@@H](C)Oc1ccc(C)nc1C(=O)NCCCCNC(=O)c1ccc(-c2c3nc(c(-c4cccc(S(=O)(=O)[O-])c4F)c4ccc([nH]4)c(-c4cccc(S(=O)(=O)[O-])c4F)c4nc(c(-c5cccc(S(=O)(=O)[O-])c5F)c5ccc2[nH]5)C=C4)C=C3)cc1
REMARK SMILES IDX 22 1 21 2 19 3 20 4 18 6 12 7 13 8 14 9 17 10 15 11 16 12
REMARK SMILES IDX 11 13 9 14 10 15 7 16 6 17 8 19 3 20 4 21 5 22 2 23 1 24
REMARK SMILES IDX 23 25 24 26 25 27 26 28 27 29 28 31 29 32 30 33 91 34 31 35
REMARK SMILES IDX 90 36 32 37 33 38 34 39 84 40 35 41 89 42 83 43 85 44 36 45
REMARK SMILES IDX 88 46 82 47 81 48 37 50 69 51 49 52 68 53 50 54 53 55 67 56
REMARK SMILES IDX 86 57 51 58 52 59 66 61 87 62 54 63 38 64 39 65 47 66 40 67
REMARK SMILES IDX 42 68 48 69 41 70 43 71 44 72 45 73 46 74 70 75 71 76 79 77
REMARK SMILES IDX 72 78 74 79 80 80 73 81 75 82 76 83 77 84 78 85 55 86 56 87
REMARK SMILES IDX 64 88 57 89 59 90 65 91 58 92 60 93 61 94 62 95 63 96
REMARK H PARENT 21 5 6 18 26 30 85 49 53 60
REMARK Flexibility Score: inf
ROOT
ATOM      1  C   UNL A   1      32.548  27.662  27.293  1.00  0.00     0.116 C 
ENDROOT
BRANCH   1   2
ATOM      2  N   UNL A   1      31.782  26.444  27.168  1.00  0.00    -0.351 N 
ATOM      3  C   UNL A   1      31.140  25.861  26.100  1.00  0.00     0.273 C 
ATOM      4  O   UNL A   1      30.421  24.895  26.378  1.00  0.00    -0.267 OA
ATOM      5  H   UNL A   1      31.704  25.934  28.006  1.00  0.00     0.163 HD
BRANCH   3   6
ATOM      6  C   UNL A   1      31.335  26.232  24.644  1.00  0.00     0.170 A 
ATOM      7  C   UNL A   1      32.412  25.925  23.804  1.00  0.00     0.151 A 
ATOM      8  C   UNL A   1      32.233  26.149  22.437  1.00  0.00     0.051 A 
ATOM      9  C   UNL A   1      31.189  26.962  21.997  1.00  0.00     0.027 A 
ATOM     10  N   UNL A   1      30.326  27.048  24.210  1.00  0.00    -0.244 NA
ATOM     11  C   UNL A   1      30.331  27.491  22.941  1.00  0.00     0.038 A 
ATOM     12  C   UNL A   1      29.426  28.640  22.624  1.00  0.00     0.067 C 
BRANCH   7  13
ATOM     13  O   UNL A   1      33.633  25.646  24.351  1.00  0.00    -0.478 OA
BRANCH  13  14
ATOM     14  C   UNL A   1      34.025  24.314  24.656  1.00  0.00     0.259 C 
ATOM     15  C   UNL A   1      35.484  24.308  25.167  1.00  0.00     0.064 C 
BRANCH  14  16
ATOM     16  C   UNL A   1      33.947  23.093  23.701  1.00  0.00     0.261 C 
ATOM     17  N   UNL A   1      33.229  21.974  23.995  1.00  0.00    -0.348 N 
ATOM     18  H   UNL A   1      32.410  21.874  23.459  1.00  0.00     0.164 HD
ATOM     19  O   UNL A   1      34.361  23.194  22.538  1.00  0.00    -0.271 OA
BRANCH  17  20
ATOM     20  C   UNL A   1      33.442  20.877  24.968  1.00  0.00     0.034 C 
ATOM     21  C   UNL A   1      33.229  21.469  26.382  1.00  0.00     0.034 C 
ATOM     22  C   UNL A   1      34.931  20.479  24.858  1.00  0.00     0.034 C 
BRANCH  20  23
ATOM     23  C   UNL A   1      32.591  19.592  24.856  1.00  0.00     0.024 C 
ATOM     24  C   UNL A   1      32.784  18.694  23.645  1.00  0.00     0.006 C 
ENDBRANCH  20  23
ENDBRANCH  17  20
ENDBRANCH  14  16
ENDBRANCH  13  14
ENDBRANCH   7  13
ENDBRANCH   3   6
ENDBRANCH   1   2
BRANCH   1  25
ATOM     25  C   UNL A   1      31.596  28.846  27.431  1.00  0.00     0.023 C 
BRANCH  25  26
ATOM     26  C   UNL A   1      31.555  29.830  26.268  1.00  0.00     0.023 C 
BRANCH  26  27
ATOM     27  C   UNL A   1      32.789  30.712  26.195  1.00  0.00     0.116 C 
BRANCH  27  28
ATOM     28  N   UNL A   1      32.615  32.027  26.812  1.00  0.00    -0.352 N 
ATOM     29  C   UNL A   1      33.509  32.683  27.628  1.00  0.00     0.251 C 
ATOM     30  H   UNL A   1      31.767  32.493  26.624  1.00  0.00     0.163 HD
ATOM     31  O   UNL A   1      33.244  33.768  28.131  1.00  0.00    -0.269 OA
BRANCH  29  32
ATOM     32  C   UNL A   1      34.772  31.988  27.933  1.00  0.00     0.039 A 
ATOM     33  C   UNL A   1      35.932  32.745  28.099  1.00  0.00     0.014 A 
ATOM     34  C   UNL A   1      34.738  30.633  28.262  1.00  0.00     0.014 A 
ATOM     35  C   UNL A   1      37.046  32.158  28.699  1.00  0.00     0.010 A 
ATOM     36  C   UNL A   1      35.812  30.083  28.944  1.00  0.00     0.010 A 
ATOM     37  C   UNL A   1      36.973  30.841  29.179  1.00  0.00    -0.014 A 
BRANCH  37  38
ATOM     38  C   UNL A   1      38.079  30.212  29.942  1.00  0.00     0.031 A 
ATOM     39  C   UNL A   1      38.338  30.665  31.352  1.00  0.00     0.074 A 
ATOM     40  C   UNL A   1      38.934  29.372  29.324  1.00  0.00     0.049 A 
ATOM     41  N   UNL A   1      39.360  30.411  32.124  1.00  0.00    -0.248 NA
ATOM     42  C   UNL A   1      37.340  31.567  31.954  1.00  0.00     0.031 C 
ATOM     43  C   UNL A   1      38.841  28.932  27.929  1.00  0.00     0.029 A 
ATOM     44  N   UNL A   1      40.082  28.771  29.781  1.00  0.00    -0.354 N 
ATOM     45  C   UNL A   1      39.167  31.180  33.265  1.00  0.00     0.074 A 
ATOM     46  C   UNL A   1      37.941  31.922  33.080  1.00  0.00     0.031 C 
ATOM     47  C   UNL A   1      39.890  28.143  27.644  1.00  0.00     0.029 A 
ATOM     48  C   UNL A   1      40.748  28.045  28.819  1.00  0.00     0.049 A 
ATOM     49  H   UNL A   1      40.399  28.853  30.709  1.00  0.00     0.167 HD
ATOM     50  C   UNL A   1      39.930  31.240  34.380  1.00  0.00     0.034 A 
ATOM     51  C   UNL A   1      41.924  27.389  28.877  1.00  0.00     0.034 A 
ATOM     52  C   UNL A   1      41.087  30.420  34.599  1.00  0.00     0.049 A 
ATOM     53  C   UNL A   1      42.690  27.381  30.175  1.00  0.00     0.074 A 
ATOM     54  C   UNL A   1      41.849  30.301  35.746  1.00  0.00     0.029 A 
ATOM     55  N   UNL A   1      41.641  29.569  33.656  1.00  0.00    -0.354 N 
ATOM     56  N   UNL A   1      42.398  27.976  31.306  1.00  0.00    -0.248 NA
ATOM     57  C   UNL A   1      43.925  26.584  30.220  1.00  0.00     0.031 C 
ATOM     58  C   UNL A   1      42.867  29.377  35.497  1.00  0.00     0.029 A 
ATOM     59  C   UNL A   1      42.732  28.917  34.197  1.00  0.00     0.049 A 
ATOM     60  H   UNL A   1      41.305  29.447  32.738  1.00  0.00     0.167 HD
ATOM     61  C   UNL A   1      43.388  27.596  32.204  1.00  0.00     0.074 A 
ATOM     62  C   UNL A   1      44.280  26.705  31.492  1.00  0.00     0.031 C 
ATOM     63  C   UNL A   1      43.556  27.966  33.497  1.00  0.00     0.034 A 
BRANCH  50  64
ATOM     64  C   UNL A   1      39.499  32.169  35.479  1.00  0.00     0.023 A 
ATOM     65  C   UNL A   1      38.701  31.678  36.532  1.00  0.00     0.012 A 
ATOM     66  C   UNL A   1      39.940  33.507  35.509  1.00  0.00     0.148 A 
ATOM     67  C   UNL A   1      38.324  32.510  37.583  1.00  0.00     0.002 A 
ATOM     68  C   UNL A   1      39.597  34.318  36.583  1.00  0.00     0.091 A 
ATOM     69  F   UNL A   1      40.679  33.960  34.486  1.00  0.00    -0.205 F 
ATOM     70  C   UNL A   1      38.780  33.825  37.614  1.00  0.00     0.022 A 
BRANCH  68  71
ATOM     71  S   UNL A   1      40.197  36.002  36.758  1.00  0.00     0.127 S 
ATOM     72  O   UNL A   1      41.642  35.793  36.834  1.00  0.00    -0.237 OA
ATOM     73  O   UNL A   1      39.734  36.624  35.517  1.00  0.00    -0.237 OA
ATOM     74  O   UNL A   1      39.578  36.526  37.968  1.00  0.00    -0.744 OA
ENDBRANCH  68  71
ENDBRANCH  50  64
BRANCH  51  75
ATOM     75  C   UNL A   1      42.419  26.626  27.696  1.00  0.00     0.023 A 
ATOM     76  C   UNL A   1      43.243  27.274  26.755  1.00  0.00     0.012 A 
ATOM     77  C   UNL A   1      42.097  25.269  27.502  1.00  0.00     0.148 A 
ATOM     78  C   UNL A   1      43.704  26.598  25.624  1.00  0.00     0.002 A 
ATOM     79  C   UNL A   1      42.604  24.586  26.400  1.00  0.00     0.091 A 
ATOM     80  F   UNL A   1      41.299  24.667  28.397  1.00  0.00    -0.205 F 
ATOM     81  C   UNL A   1      43.393  25.253  25.451  1.00  0.00     0.022 A 
BRANCH  79  82
ATOM     82  S   UNL A   1      42.355  22.820  26.180  1.00  0.00     0.127 S 
ATOM     83  O   UNL A   1      40.902  22.708  26.271  1.00  0.00    -0.237 OA
ATOM     84  O   UNL A   1      42.909  22.592  24.845  1.00  0.00    -0.237 OA
ATOM     85  O   UNL A   1      43.118  22.193  27.253  1.00  0.00    -0.744 OA
ENDBRANCH  79  82
ENDBRANCH  51  75
BRANCH  63  86
ATOM     86  C   UNL A   1      44.709  27.377  34.259  1.00  0.00     0.023 A 
ATOM     87  C   UNL A   1      45.952  28.038  34.263  1.00  0.00     0.012 A 
ATOM     88  C   UNL A   1      44.522  26.244  35.075  1.00  0.00     0.148 A 
ATOM     89  C   UNL A   1      46.996  27.573  35.058  1.00  0.00     0.002 A 
ATOM     90  C   UNL A   1      45.552  25.811  35.899  1.00  0.00     0.091 A 
ATOM     91  F   UNL A   1      43.334  25.622  35.041  1.00  0.00    -0.205 F 
ATOM     92  C   UNL A   1      46.793  26.471  35.886  1.00  0.00     0.022 A 
BRANCH  90  93
ATOM     93  S   UNL A   1      45.348  24.465  37.070  1.00  0.00     0.127 S 
ATOM     94  O   UNL A   1      45.095  23.332  36.180  1.00  0.00    -0.237 OA
ATOM     95  O   UNL A   1      46.647  24.436  37.741  1.00  0.00    -0.237 OA
ATOM     96  O   UNL A   1      44.234  24.845  37.928  1.00  0.00    -0.744 OA
ENDBRANCH  90  93
ENDBRANCH  63  86
ENDBRANCH  37  38
ENDBRANCH  29  32
ENDBRANCH  27  28
ENDBRANCH  26  27
ENDBRANCH  25  26
ENDBRANCH   1  25
TORSDOF 19
ENDMDL
MODEL 2
REMARK VINA RESULT:     -11.4      2.199      7.777
REMARK SMILES CCC(C)(C)NC(=O)[C@@H](C)Oc1ccc(C)nc1C(=O)NCCCCNC(=O)c1ccc(-c2c3nc(c(-c4cccc(S(=O)(=O)[O-])c4F)c4ccc([nH]4)c(-c4cccc(S(=O)(=O)[O-])c4F)c4nc(c(-c5cccc(S(=O)(=O)[O-])c5F)c5ccc2[nH]5)C=C4)C=C3)cc1
REMARK SMILES IDX 22 1 21 2 19 3 20 4 18 6 12 7 13 8 14 9 17 10 15 11 16 12
REMARK SMILES IDX 11 13 9 14 10 15 7 16 6 17 8 19 3 20 4 21 5 22 2 23 1 24
REMARK SMILES IDX 23 25 24 26 25 27 26 28 27 29 28 31 29 32 30 33 91 34 31 35
REMARK SMILES IDX 90 36 32 37 33 38 34 39 84 40 35 41 89 42 83 43 85 44 36 45
REMARK SMILES IDX 88 46 82 47 81 48 37 50 69 51 49 52 68 53 50 54 53 55 67 56
REMARK SMILES IDX 86 57 51 58 52 59 66 61 87 62 54 63 38 64 39 65 47 66 40 67
REMARK SMILES IDX 42 68 48 69 41 70 43 71 44 72 45 73 46 74 70 75 71 76 79 77
REMARK SMILES IDX 72 78 74 79 80 80 73 81 75 82 76 83 77 84 78 85 55 86 56 87
REMARK SMILES IDX 64 88 57 89 59 90 65 91 58 92 60 93 61 94 62 95 63 96
REMARK H PARENT 21 5 6 18 26 30 85 49 53 60
REMARK Flexibility Score: inf
ROOT
ATOM      1  C   UNL A   1      33.988  28.514  26.292  1.00  0.00     0.116 C 
ENDROOT
BRANCH   1   2
ATOM      2  N   UNL A   1      33.014  27.554  26.756  1.00  0.00    -0.351 N 
ATOM      3  C   UNL A   1      31.954  26.937  26.133  1.00  0.00     0.273 C 
ATOM      4  O   UNL A   1      31.206  26.293  26.876  1.00  0.00    -0.267 OA
ATOM      5  H   UNL A   1      33.131  27.292  27.698  1.00  0.00     0.163 HD
BRANCH   3   6
ATOM      6  C   UNL A   1      31.713  26.896  24.638  1.00  0.00     0.170 A 
ATOM      7  C   UNL A   1      32.413  26.177  23.662  1.00  0.00     0.151 A 
ATOM      8  C   UNL A   1      31.831  26.097  22.395  1.00  0.00     0.051 A 
ATOM      9  C   UNL A   1      30.811  26.978  22.042  1.00  0.00     0.027 A 
ATOM     10  N   UNL A   1      30.727  27.775  24.279  1.00  0.00    -0.244 NA
ATOM     11  C   UNL A   1      30.377  27.886  22.986  1.00  0.00     0.038 A 
ATOM     12  C   UNL A   1      29.568  29.088  22.608  1.00  0.00     0.067 C 
BRANCH   7  13
ATOM     13  O   UNL A   1      33.701  25.790  23.907  1.00  0.00    -0.478 OA
BRANCH  13  14
ATOM     14  C   UNL A   1      34.005  24.507  24.438  1.00  0.00     0.259 C 
ATOM     15  C   UNL A   1      35.204  24.617  25.406  1.00  0.00     0.064 C 
BRANCH  14  16
ATOM     16  C   UNL A   1      34.289  23.219  23.618  1.00  0.00     0.261 C 
ATOM     17  N   UNL A   1      33.880  21.985  24.023  1.00  0.00    -0.348 N 
ATOM     18  H   UNL A   1      33.139  21.617  23.492  1.00  0.00     0.164 HD
ATOM     19  O   UNL A   1      34.707  23.309  22.456  1.00  0.00    -0.271 OA
BRANCH  17  20
ATOM     20  C   UNL A   1      34.337  21.088  25.111  1.00  0.00     0.034 C 
ATOM     21  C   UNL A   1      34.069  19.636  24.652  1.00  0.00     0.034 C 
ATOM     22  C   UNL A   1      33.417  21.365  26.321  1.00  0.00     0.034 C 
BRANCH  20  23
ATOM     23  C   UNL A   1      35.804  21.173  25.592  1.00  0.00     0.024 C 
ATOM     24  C   UNL A   1      36.834  20.258  24.953  1.00  0.00     0.006 C 
ENDBRANCH  20  23
ENDBRANCH  17  20
ENDBRANCH  14  16
ENDBRANCH  13  14
ENDBRANCH   7  13
ENDBRANCH   3   6
ENDBRANCH   1   2
BRANCH   1  25
ATOM     25  C   UNL A   1      33.295  29.845  26.015  1.00  0.00     0.023 C 
BRANCH  25  26
ATOM     26  C   UNL A   1      32.762  30.603  27.225  1.00  0.00     0.023 C 
BRANCH  26  27
ATOM     27  C   UNL A   1      33.638  31.778  27.620  1.00  0.00     0.116 C 
BRANCH  27  28
ATOM     28  N   UNL A   1      32.938  33.064  27.623  1.00  0.00    -0.352 N 
ATOM     29  C   UNL A   1      33.245  34.171  28.382  1.00  0.00     0.251 C 
ATOM     30  H   UNL A   1      32.165  33.146  27.018  1.00  0.00     0.163 HD
ATOM     31  O   UNL A   1      32.564  35.188  28.341  1.00  0.00    -0.269 OA
BRANCH  29  32
ATOM     32  C   UNL A   1      34.387  34.053  29.306  1.00  0.00     0.039 A 
ATOM     33  C   UNL A   1      34.187  33.447  30.547  1.00  0.00     0.014 A 
ATOM     34  C   UNL A   1      35.670  34.343  28.840  1.00  0.00     0.014 A 
ATOM     35  C   UNL A   1      35.294  33.036  31.288  1.00  0.00     0.010 A 
ATOM     36  C   UNL A   1      36.763  33.847  29.534  1.00  0.00     0.010 A 
ATOM     37  C   UNL A   1      36.587  33.180  30.759  1.00  0.00    -0.014 A 
BRANCH  37  38
ATOM     38  C   UNL A   1      37.788  32.640  31.442  1.00  0.00     0.031 A 
ATOM     39  C   UNL A   1      38.539  31.505  30.804  1.00  0.00     0.074 A 
ATOM     40  C   UNL A   1      38.100  33.053  32.687  1.00  0.00     0.049 A 
ATOM     41  N   UNL A   1      39.477  30.750  31.310  1.00  0.00    -0.248 NA
ATOM     42  C   UNL A   1      38.144  31.135  29.433  1.00  0.00     0.031 C 
ATOM     43  C   UNL A   1      37.387  34.083  33.449  1.00  0.00     0.029 A 
ATOM     44  N   UNL A   1      39.074  32.621  33.554  1.00  0.00    -0.354 N 
ATOM     45  C   UNL A   1      39.727  29.773  30.355  1.00  0.00     0.074 A 
ATOM     46  C   UNL A   1      38.833  30.018  29.246  1.00  0.00     0.031 C 
ATOM     47  C   UNL A   1      37.940  34.194  34.668  1.00  0.00     0.029 A 
ATOM     48  C   UNL A   1      39.024  33.225  34.790  1.00  0.00     0.049 A 
ATOM     49  H   UNL A   1      39.745  31.942  33.314  1.00  0.00     0.167 HD
ATOM     50  C   UNL A   1      40.640  28.777  30.387  1.00  0.00     0.034 A 
ATOM     51  C   UNL A   1      39.759  33.009  35.899  1.00  0.00     0.034 A 
ATOM     52  C   UNL A   1      41.596  28.605  31.443  1.00  0.00     0.049 A 
ATOM     53  C   UNL A   1      40.849  31.970  35.859  1.00  0.00     0.074 A 
ATOM     54  C   UNL A   1      42.653  27.717  31.508  1.00  0.00     0.029 A 
ATOM     55  N   UNL A   1      41.620  29.347  32.614  1.00  0.00    -0.354 N 
ATOM     56  N   UNL A   1      41.187  31.170  34.877  1.00  0.00    -0.248 NA
ATOM     57  C   UNL A   1      41.683  31.825  37.062  1.00  0.00     0.031 C 
ATOM     58  C   UNL A   1      43.317  27.920  32.721  1.00  0.00     0.029 A 
ATOM     59  C   UNL A   1      42.676  28.940  33.406  1.00  0.00     0.049 A 
ATOM     60  H   UNL A   1      40.979  30.058  32.845  1.00  0.00     0.167 HD
ATOM     61  C   UNL A   1      42.293  30.458  35.327  1.00  0.00     0.074 A 
ATOM     62  C   UNL A   1      42.579  30.932  36.666  1.00  0.00     0.031 C 
ATOM     63  C   UNL A   1      42.996  29.485  34.698  1.00  0.00     0.034 A 
BRANCH  50  64
ATOM     64  C   UNL A   1      40.702  27.839  29.214  1.00  0.00     0.023 A 
ATOM     65  C   UNL A   1      39.830  26.733  29.162  1.00  0.00     0.012 A 
ATOM     66  C   UNL A   1      41.570  28.090  28.133  1.00  0.00     0.148 A 
ATOM     67  C   UNL A   1      39.840  25.874  28.065  1.00  0.00     0.002 A 
ATOM     68  C   UNL A   1      41.543  27.254  27.024  1.00  0.00     0.091 A 
ATOM     69  F   UNL A   1      42.407  29.134  28.214  1.00  0.00    -0.205 F 
ATOM     70  C   UNL A   1      40.688  26.140  26.993  1.00  0.00     0.022 A 
BRANCH  68  71
ATOM     71  S   UNL A   1      42.538  27.554  25.559  1.00  0.00     0.127 S 
ATOM     72  O   UNL A   1      43.886  27.604  26.123  1.00  0.00    -0.237 OA
ATOM     73  O   UNL A   1      42.258  26.367  24.749  1.00  0.00    -0.237 OA
ATOM     74  O   UNL A   1      42.052  28.804  24.992  1.00  0.00    -0.744 OA
ENDBRANCH  68  71
ENDBRANCH  50  64
BRANCH  51  75
ATOM     75  C   UNL A   1      39.542  33.838  37.120  1.00  0.00     0.023 A 
ATOM     76  C   UNL A   1      39.966  35.181  37.123  1.00  0.00     0.012 A 
ATOM     77  C   UNL A   1      38.913  33.318  38.267  1.00  0.00     0.148 A 
ATOM     78  C   UNL A   1      39.801  35.980  38.255  1.00  0.00     0.002 A 
ATOM     79  C   UNL A   1      38.704  34.134  39.374  1.00  0.00     0.091 A 
ATOM     80  F   UNL A   1      38.528  32.033  38.257  1.00  0.00    -0.205 F 
ATOM     81  C   UNL A   1      39.163  35.460  39.378  1.00  0.00     0.022 A 
BRANCH  79  82
ATOM     82  S   UNL A   1      37.772  33.575  40.805  1.00  0.00     0.127 S 
ATOM     83  O   UNL A   1      38.554  32.422  41.242  1.00  0.00    -0.237 OA
ATOM     84  O   UNL A   1      37.837  34.737  41.692  1.00  0.00    -0.237 OA
ATOM     85  O   UNL A   1      36.434  33.290  40.299  1.00  0.00    -0.744 OA
ENDBRANCH  79  82
ENDBRANCH  51  75
BRANCH  63  86
ATOM     86  C   UNL A   1      44.181  28.894  35.410  1.00  0.00     0.023 A 
ATOM     87  C   UNL A   1      45.451  29.480  35.252  1.00  0.00     0.012 A 
ATOM     88  C   UNL A   1      44.008  27.844  36.333  1.00  0.00     0.148 A 
ATOM     89  C   UNL A   1      46.536  29.020  35.995  1.00  0.00     0.002 A 
ATOM     90  C   UNL A   1      45.083  27.421  37.102  1.00  0.00     0.091 A 
ATOM     91  F   UNL A   1      42.791  27.292  36.452  1.00  0.00    -0.205 F 
ATOM     92  C   UNL A   1      46.351  28.003  36.930  1.00  0.00     0.022 A 
BRANCH  90  93
ATOM     93  S   UNL A   1      44.914  26.189  38.399  1.00  0.00     0.127 S 
ATOM     94  O   UNL A   1      44.613  24.984  37.626  1.00  0.00    -0.237 OA
ATOM     95  O   UNL A   1      46.239  26.203  39.017  1.00  0.00    -0.237 OA
ATOM     96  O   UNL A   1      43.840  26.660  39.263  1.00  0.00    -0.744 OA
ENDBRANCH  90  93
ENDBRANCH  63  86
ENDBRANCH  37  38
ENDBRANCH  29  32
ENDBRANCH  27  28
ENDBRANCH  26  27
ENDBRANCH  25  26
ENDBRANCH   1  25
TORSDOF 19
ENDMDL
MODEL 3
REMARK VINA RESULT:     -11.3      5.470      8.673
REMARK SMILES CCC(C)(C)NC(=O)[C@@H](C)Oc1ccc(C)nc1C(=O)NCCCCNC(=O)c1ccc(-c2c3nc(c(-c4cccc(S(=O)(=O)[O-])c4F)c4ccc([nH]4)c(-c4cccc(S(=O)(=O)[O-])c4F)c4nc(c(-c5cccc(S(=O)(=O)[O-])c5F)c5ccc2[nH]5)C=C4)C=C3)cc1
REMARK SMILES IDX 22 1 21 2 19 3 20 4 18 6 12 7 13 8 14 9 17 10 15 11 16 12
REMARK SMILES IDX 11 13 9 14 10 15 7 16 6 17 8 19 3 20 4 21 5 22 2 23 1 24
REMARK SMILES IDX 23 25 24 26 25 27 26 28 27 29 28 31 29 32 30 33 91 34 31 35
REMARK SMILES IDX 90 36 32 37 33 38 34 39 84 40 35 41 89 42 83 43 85 44 36 45
REMARK SMILES IDX 88 46 82 47 81 48 37 50 69 51 49 52 68 53 50 54 53 55 67 56
REMARK SMILES IDX 86 57 51 58 52 59 66 61 87 62 54 63 38 64 39 65 47 66 40 67
REMARK SMILES IDX 42 68 48 69 41 70 43 71 44 72 45 73 46 74 70 75 71 76 79 77
REMARK SMILES IDX 72 78 74 79 80 80 73 81 75 82 76 83 77 84 78 85 55 86 56 87
REMARK SMILES IDX 64 88 57 89 59 90 65 91 58 92 60 93 61 94 62 95 63 96
REMARK H PARENT 21 5 6 18 26 30 85 49 53 60
REMARK Flexibility Score: inf
ROOT
ATOM      1  C   UNL A   1      36.818  23.884  25.225  1.00  0.00     0.116 C 
ENDROOT
BRANCH   1   2
ATOM      2  N   UNL A   1      36.196  23.609  23.951  1.00  0.00    -0.351 N 
ATOM      3  C   UNL A   1      34.938  23.871  23.460  1.00  0.00     0.273 C 
ATOM      4  O   UNL A   1      34.671  23.338  22.377  1.00  0.00    -0.267 OA
ATOM      5  H   UNL A   1      36.784  23.143  23.313  1.00  0.00     0.163 HD
BRANCH   3   6
ATOM      6  C   UNL A   1      33.935  24.826  24.072  1.00  0.00     0.170 A 
ATOM      7  C   UNL A   1      33.566  24.959  25.416  1.00  0.00     0.151 A 
ATOM      8  C   UNL A   1      32.821  26.090  25.759  1.00  0.00     0.051 A 
ATOM      9  C   UNL A   1      32.186  26.832  24.765  1.00  0.00     0.027 A 
ATOM     10  N   UNL A   1      33.291  25.544  23.101  1.00  0.00    -0.244 NA
ATOM     11  C   UNL A   1      32.354  26.442  23.452  1.00  0.00     0.038 A 
ATOM     12  C   UNL A   1      31.447  26.929  22.364  1.00  0.00     0.067 C 
BRANCH   7  13
ATOM     13  O   UNL A   1      33.742  23.905  26.269  1.00  0.00    -0.478 OA
BRANCH  13  14
ATOM     14  C   UNL A   1      32.637  23.202  26.820  1.00  0.00     0.259 C 
ATOM     15  C   UNL A   1      33.127  22.277  27.957  1.00  0.00     0.064 C 
BRANCH  14  16
ATOM     16  C   UNL A   1      31.615  22.337  26.034  1.00  0.00     0.261 C 
ATOM     17  N   UNL A   1      31.867  21.048  25.672  1.00  0.00    -0.348 N 
ATOM     18  H   UNL A   1      31.353  20.383  26.184  1.00  0.00     0.164 HD
ATOM     19  O   UNL A   1      30.448  22.728  25.906  1.00  0.00    -0.271 OA
BRANCH  17  20
ATOM     20  C   UNL A   1      32.767  20.454  24.656  1.00  0.00     0.034 C 
ATOM     21  C   UNL A   1      32.361  21.040  23.284  1.00  0.00     0.034 C 
ATOM     22  C   UNL A   1      32.450  18.942  24.622  1.00  0.00     0.034 C 
BRANCH  20  23
ATOM     23  C   UNL A   1      34.296  20.620  24.812  1.00  0.00     0.024 C 
ATOM     24  C   UNL A   1      35.167  19.375  24.827  1.00  0.00     0.006 C 
ENDBRANCH  20  23
ENDBRANCH  17  20
ENDBRANCH  14  16
ENDBRANCH  13  14
ENDBRANCH   7  13
ENDBRANCH   3   6
ENDBRANCH   1   2
BRANCH   1  25
ATOM     25  C   UNL A   1      37.136  22.568  25.928  1.00  0.00     0.023 C 
BRANCH  25  26
ATOM     26  C   UNL A   1      38.182  21.676  25.270  1.00  0.00     0.023 C 
BRANCH  26  27
ATOM     27  C   UNL A   1      39.378  21.406  26.166  1.00  0.00     0.116 C 
BRANCH  27  28
ATOM     28  N   UNL A   1      39.960  20.075  25.993  1.00  0.00    -0.352 N 
ATOM     29  C   UNL A   1      41.291  19.736  26.085  1.00  0.00     0.251 C 
ATOM     30  H   UNL A   1      39.333  19.343  25.788  1.00  0.00     0.163 HD
ATOM     31  O   UNL A   1      41.680  18.593  25.876  1.00  0.00    -0.269 OA
BRANCH  29  32
ATOM     32  C   UNL A   1      42.241  20.826  26.370  1.00  0.00     0.039 A 
ATOM     33  C   UNL A   1      42.648  21.654  25.323  1.00  0.00     0.014 A 
ATOM     34  C   UNL A   1      42.534  21.140  27.697  1.00  0.00     0.014 A 
ATOM     35  C   UNL A   1      43.273  22.865  25.618  1.00  0.00     0.010 A 
ATOM     36  C   UNL A   1      43.067  22.387  27.989  1.00  0.00     0.010 A 
ATOM     37  C   UNL A   1      43.432  23.266  26.954  1.00  0.00    -0.014 A 
BRANCH  37  38
ATOM     38  C   UNL A   1      43.967  24.599  27.324  1.00  0.00     0.031 A 
ATOM     39  C   UNL A   1      43.025  25.633  27.876  1.00  0.00     0.074 A 
ATOM     40  C   UNL A   1      45.238  24.927  27.016  1.00  0.00     0.049 A 
ATOM     41  N   UNL A   1      43.222  26.909  28.069  1.00  0.00    -0.248 NA
ATOM     42  C   UNL A   1      41.660  25.180  28.203  1.00  0.00     0.031 C 
ATOM     43  C   UNL A   1      46.221  24.039  26.390  1.00  0.00     0.029 A 
ATOM     44  N   UNL A   1      45.910  26.119  27.146  1.00  0.00    -0.354 N 
ATOM     45  C   UNL A   1      41.993  27.423  28.463  1.00  0.00     0.074 A 
ATOM     46  C   UNL A   1      41.051  26.327  28.466  1.00  0.00     0.031 C 
ATOM     47  C   UNL A   1      47.362  24.717  26.183  1.00  0.00     0.029 A 
ATOM     48  C   UNL A   1      47.185  26.095  26.628  1.00  0.00     0.049 A 
ATOM     49  H   UNL A   1      45.515  26.915  27.569  1.00  0.00     0.167 HD
ATOM     50  C   UNL A   1      41.684  28.690  28.819  1.00  0.00     0.034 A 
ATOM     51  C   UNL A   1      48.100  27.078  26.512  1.00  0.00     0.034 A 
ATOM     52  C   UNL A   1      42.649  29.749  28.916  1.00  0.00     0.049 A 
ATOM     53  C   UNL A   1      47.761  28.452  27.028  1.00  0.00     0.074 A 
ATOM     54  C   UNL A   1      42.469  31.031  29.399  1.00  0.00     0.029 A 
ATOM     55  N   UNL A   1      43.977  29.642  28.536  1.00  0.00    -0.354 N 
ATOM     56  N   UNL A   1      46.642  28.877  27.563  1.00  0.00    -0.248 NA
ATOM     57  C   UNL A   1      48.817  29.474  26.960  1.00  0.00     0.031 C 
ATOM     58  C   UNL A   1      43.691  31.703  29.310  1.00  0.00     0.029 A 
ATOM     59  C   UNL A   1      44.631  30.835  28.778  1.00  0.00     0.049 A 
ATOM     60  H   UNL A   1      44.392  28.836  28.151  1.00  0.00     0.167 HD
ATOM     61  C   UNL A   1      46.871  30.198  27.930  1.00  0.00     0.074 A 
ATOM     62  C   UNL A   1      48.241  30.500  27.571  1.00  0.00     0.031 C 
ATOM     63  C   UNL A   1      46.019  31.088  28.494  1.00  0.00     0.034 A 
BRANCH  50  64
ATOM     64  C   UNL A   1      40.262  28.988  29.200  1.00  0.00     0.023 A 
ATOM     65  C   UNL A   1      39.309  29.237  28.192  1.00  0.00     0.012 A 
ATOM     66  C   UNL A   1      39.853  28.952  30.548  1.00  0.00     0.148 A 
ATOM     67  C   UNL A   1      37.976  29.474  28.519  1.00  0.00     0.002 A 
ATOM     68  C   UNL A   1      38.514  29.147  30.863  1.00  0.00     0.091 A 
ATOM     69  F   UNL A   1      40.780  28.737  31.492  1.00  0.00    -0.205 F 
ATOM     70  C   UNL A   1      37.577  29.419  29.852  1.00  0.00     0.022 A 
BRANCH  68  71
ATOM     71  S   UNL A   1      37.883  29.017  32.540  1.00  0.00     0.127 S 
ATOM     72  O   UNL A   1      36.508  29.485  32.375  1.00  0.00    -0.237 OA
ATOM     73  O   UNL A   1      38.013  27.584  32.807  1.00  0.00    -0.237 OA
ATOM     74  O   UNL A   1      38.737  29.867  33.358  1.00  0.00    -0.744 OA
ENDBRANCH  68  71
ENDBRANCH  50  64
BRANCH  51  75
ATOM     75  C   UNL A   1      49.450  26.788  25.949  1.00  0.00     0.023 A 
ATOM     76  C   UNL A   1      50.389  26.094  26.737  1.00  0.00     0.012 A 
ATOM     77  C   UNL A   1      49.808  27.178  24.644  1.00  0.00     0.148 A 
ATOM     78  C   UNL A   1      51.670  25.826  26.252  1.00  0.00     0.002 A 
ATOM     79  C   UNL A   1      51.069  26.862  24.148  1.00  0.00     0.091 A 
ATOM     80  F   UNL A   1      48.911  27.852  23.910  1.00  0.00    -0.205 F 
ATOM     81  C   UNL A   1      52.008  26.202  24.955  1.00  0.00     0.022 A 
BRANCH  79  82
ATOM     82  S   UNL A   1      51.529  27.195  22.443  1.00  0.00     0.127 S 
ATOM     83  O   UNL A   1      51.720  28.642  22.461  1.00  0.00    -0.237 OA
ATOM     84  O   UNL A   1      52.757  26.412  22.294  1.00  0.00    -0.237 OA
ATOM     85  O   UNL A   1      50.412  26.703  21.645  1.00  0.00    -0.744 OA
ENDBRANCH  79  82
ENDBRANCH  51  75
BRANCH  63  86
ATOM     86  C   UNL A   1      46.539  32.460  28.818  1.00  0.00     0.023 A 
ATOM     87  C   UNL A   1      47.109  32.709  30.081  1.00  0.00     0.012 A 
ATOM     88  C   UNL A   1      46.580  33.460  27.827  1.00  0.00     0.148 A 
ATOM     89  C   UNL A   1      47.703  33.938  30.357  1.00  0.00     0.002 A 
ATOM     90  C   UNL A   1      47.213  34.667  28.094  1.00  0.00     0.091 A 
ATOM     91  F   UNL A   1      46.016  33.204  26.637  1.00  0.00    -0.205 F 
ATOM     92  C   UNL A   1      47.769  34.911  29.361  1.00  0.00     0.022 A 
BRANCH  90  93
ATOM     93  S   UNL A   1      47.434  35.935  26.841  1.00  0.00     0.127 S 
ATOM     94  O   UNL A   1      46.071  36.094  26.335  1.00  0.00    -0.237 OA
ATOM     95  O   UNL A   1      47.929  37.066  27.626  1.00  0.00    -0.237 OA
ATOM     96  O   UNL A   1      48.395  35.396  25.888  1.00  0.00    -0.744 OA
ENDBRANCH  90  93
ENDBRANCH  63  86
ENDBRANCH  37  38
ENDBRANCH  29  32
ENDBRANCH  27  28
ENDBRANCH  26  27
ENDBRANCH  25  26
ENDBRANCH   1  25
TORSDOF 19
ENDMDL
