MODEL 1
REMARK VINA RESULT:     -11.2      0.000      0.000
REMARK SMILES CCc1ccc(C(=O)[C@@H](Br)CC(=O)NCCCCNC(=O)c2ccc(-c3c4nc(c(-c5cccc(S(=O)(=O)[O-])c5F)c5ccc([nH]5)c(-c5cccc(S(=O)(=O)[O-])c5F)c5nc(c(-c6cccc(S(=O)(=O)[O-])c6F)c6ccc3[nH]6)C=C5)C=C4)cc2)cc1
REMARK SMILES IDX 16 1 15 2 14 3 12 4 13 5 11 7 9 8 10 9 7 10 8 11 6 12 3 13
REMARK SMILES IDX 4 14 86 15 5 16 85 17 2 18 1 19 17 20 18 21 19 22 20 23
REMARK SMILES IDX 21 25 22 26 23 27 84 28 24 29 83 30 25 31 26 32 27 33 77 34
REMARK SMILES IDX 28 35 82 36 76 37 78 38 29 39 81 40 75 41 74 42 30 44 62 45
REMARK SMILES IDX 42 46 61 47 43 48 46 49 60 50 79 51 44 52 45 53 59 55 80 56
REMARK SMILES IDX 47 57 31 58 32 59 40 60 33 61 35 62 41 63 34 64 36 65 37 66
REMARK SMILES IDX 38 67 39 68 63 69 64 70 72 71 65 72 67 73 73 74 66 75 68 76
REMARK SMILES IDX 69 77 70 78 71 79 48 80 49 81 57 82 50 83 52 84 58 85 51 86
REMARK SMILES IDX 53 87 54 88 55 89 56 90
REMARK H PARENT 14 6 19 24 78 43 46 54
REMARK Flexibility Score: inf
ROOT
ATOM      1  C   UNL A   1      31.652  28.013  26.742  1.00  0.00     0.023 C 
ENDROOT
BRANCH   1   2
ATOM      2  C   UNL A   1      31.090  26.932  25.821  1.00  0.00     0.116 C 
BRANCH   2   3
ATOM      3  N   UNL A   1      30.549  25.832  26.596  1.00  0.00    -0.356 N 
ATOM      4  C   UNL A   1      30.796  24.498  26.491  1.00  0.00     0.221 C 
ATOM      5  O   UNL A   1      30.146  23.711  27.178  1.00  0.00    -0.275 OA
ATOM      6  H   UNL A   1      29.910  26.088  27.301  1.00  0.00     0.163 HD
BRANCH   4   7
ATOM      7  C   UNL A   1      31.869  24.000  25.547  1.00  0.00     0.123 C 
BRANCH   7   8
ATOM      8  C   UNL A   1      33.246  24.079  26.190  1.00  0.00     0.138 C 
ATOM      9  Br  UNL A   1      34.551  24.835  24.922  1.00  0.00    -0.080 Br
BRANCH   8  10
ATOM     10  C   UNL A   1      33.902  22.804  26.715  1.00  0.00     0.176 C 
ATOM     11  O   UNL A   1      34.402  22.795  27.846  1.00  0.00    -0.293 OA
BRANCH  10  12
ATOM     12  C   UNL A   1      33.957  21.527  25.933  1.00  0.00     0.019 A 
ATOM     13  C   UNL A   1      34.249  19.040  24.629  1.00  0.00    -0.048 A 
ATOM     14  C   UNL A   1      35.371  19.821  24.920  1.00  0.00     0.004 A 
ATOM     15  C   UNL A   1      32.979  19.529  24.965  1.00  0.00     0.004 A 
ATOM     16  C   UNL A   1      35.224  21.058  25.550  1.00  0.00     0.012 A 
ATOM     17  C   UNL A   1      32.832  20.769  25.601  1.00  0.00     0.012 A 
BRANCH  13  18
ATOM     18  C   UNL A   1      34.409  17.694  23.969  1.00  0.00     0.032 C 
ATOM     19  C   UNL A   1      33.242  17.355  23.052  1.00  0.00     0.009 C 
ENDBRANCH  13  18
ENDBRANCH  10  12
ENDBRANCH   8  10
ENDBRANCH   7   8
ENDBRANCH   4   7
ENDBRANCH   2   3
ENDBRANCH   1   2
BRANCH   1  20
ATOM     20  C   UNL A   1      33.177  28.044  26.820  1.00  0.00     0.023 C 
BRANCH  20  21
ATOM     21  C   UNL A   1      33.841  29.126  25.973  1.00  0.00     0.116 C 
BRANCH  21  22
ATOM     22  N   UNL A   1      33.788  30.460  26.556  1.00  0.00    -0.352 N 
ATOM     23  C   UNL A   1      34.639  31.024  27.480  1.00  0.00     0.251 C 
ATOM     24  H   UNL A   1      33.047  31.032  26.251  1.00  0.00     0.163 HD
ATOM     25  O   UNL A   1      34.411  32.144  27.921  1.00  0.00    -0.269 OA
BRANCH  23  26
ATOM     26  C   UNL A   1      35.803  30.247  27.961  1.00  0.00     0.039 A 
ATOM     27  C   UNL A   1      36.999  30.311  27.244  1.00  0.00     0.014 A 
ATOM     28  C   UNL A   1      35.731  29.503  29.141  1.00  0.00     0.014 A 
ATOM     29  C   UNL A   1      38.140  29.686  27.751  1.00  0.00     0.010 A 
ATOM     30  C   UNL A   1      36.887  28.960  29.689  1.00  0.00     0.010 A 
ATOM     31  C   UNL A   1      38.104  29.037  28.998  1.00  0.00    -0.014 A 
BRANCH  31  32
ATOM     32  C   UNL A   1      39.338  28.467  29.597  1.00  0.00     0.031 A 
ATOM     33  C   UNL A   1      39.933  29.056  30.848  1.00  0.00     0.074 A 
ATOM     34  C   UNL A   1      39.980  27.470  28.960  1.00  0.00     0.049 A 
ATOM     35  N   UNL A   1      40.980  28.660  31.524  1.00  0.00    -0.248 NA
ATOM     36  C   UNL A   1      39.296  30.267  31.389  1.00  0.00     0.031 C 
ATOM     37  C   UNL A   1      39.593  26.906  27.664  1.00  0.00     0.029 A 
ATOM     38  N   UNL A   1      41.109  26.767  29.301  1.00  0.00    -0.354 N 
ATOM     39  C   UNL A   1      41.150  29.592  32.541  1.00  0.00     0.074 A 
ATOM     40  C   UNL A   1      40.125  30.597  32.367  1.00  0.00     0.031 C 
ATOM     41  C   UNL A   1      40.460  25.939  27.327  1.00  0.00     0.029 A 
ATOM     42  C   UNL A   1      41.468  25.816  28.375  1.00  0.00     0.049 A 
ATOM     43  H   UNL A   1      41.613  26.929  30.131  1.00  0.00     0.167 HD
ATOM     44  C   UNL A   1      42.052  29.592  33.552  1.00  0.00     0.034 A 
ATOM     45  C   UNL A   1      42.485  24.931  28.377  1.00  0.00     0.034 A 
ATOM     46  C   UNL A   1      43.030  28.558  33.755  1.00  0.00     0.049 A 
ATOM     47  C   UNL A   1      43.390  24.863  29.575  1.00  0.00     0.074 A 
ATOM     48  C   UNL A   1      43.900  28.390  34.818  1.00  0.00     0.029 A 
ATOM     49  N   UNL A   1      43.276  27.520  32.870  1.00  0.00    -0.354 N 
ATOM     50  N   UNL A   1      43.396  25.617  30.647  1.00  0.00    -0.248 NA
ATOM     51  C   UNL A   1      44.393  23.788  29.592  1.00  0.00     0.031 C 
ATOM     52  C   UNL A   1      44.682  27.256  34.567  1.00  0.00     0.029 A 
ATOM     53  C   UNL A   1      44.286  26.709  33.358  1.00  0.00     0.049 A 
ATOM     54  H   UNL A   1      42.801  27.380  32.019  1.00  0.00     0.167 HD
ATOM     55  C   UNL A   1      44.378  25.094  31.479  1.00  0.00     0.074 A 
ATOM     56  C   UNL A   1      44.930  23.941  30.796  1.00  0.00     0.031 C 
ATOM     57  C   UNL A   1      44.796  25.537  32.691  1.00  0.00     0.034 A 
BRANCH  44  58
ATOM     58  C   UNL A   1      41.971  30.715  34.555  1.00  0.00     0.023 A 
ATOM     59  C   UNL A   1      41.176  30.559  35.710  1.00  0.00     0.012 A 
ATOM     60  C   UNL A   1      42.698  31.907  34.375  1.00  0.00     0.148 A 
ATOM     61  C   UNL A   1      41.068  31.586  36.645  1.00  0.00     0.002 A 
ATOM     62  C   UNL A   1      42.622  32.911  35.336  1.00  0.00     0.091 A 
ATOM     63  F   UNL A   1      43.428  32.053  33.260  1.00  0.00    -0.205 F 
ATOM     64  C   UNL A   1      41.798  32.758  36.463  1.00  0.00     0.022 A 
BRANCH  62  65
ATOM     65  S   UNL A   1      43.589  34.419  35.225  1.00  0.00     0.127 S 
ATOM     66  O   UNL A   1      44.949  33.892  35.128  1.00  0.00    -0.237 OA
ATOM     67  O   UNL A   1      43.083  35.027  33.994  1.00  0.00    -0.237 OA
ATOM     68  O   UNL A   1      43.287  35.171  36.436  1.00  0.00    -0.744 OA
ENDBRANCH  62  65
ENDBRANCH  44  58
BRANCH  45  69
ATOM     69  C   UNL A   1      42.618  23.973  27.245  1.00  0.00     0.023 A 
ATOM     70  C   UNL A   1      43.437  24.308  26.148  1.00  0.00     0.012 A 
ATOM     71  C   UNL A   1      42.006  22.706  27.286  1.00  0.00     0.148 A 
ATOM     72  C   UNL A   1      43.625  23.404  25.101  1.00  0.00     0.002 A 
ATOM     73  C   UNL A   1      42.242  21.791  26.266  1.00  0.00     0.091 A 
ATOM     74  F   UNL A   1      41.227  22.412  28.336  1.00  0.00    -0.205 F 
ATOM     75  C   UNL A   1      43.040  22.143  25.167  1.00  0.00     0.022 A 
BRANCH  73  76
ATOM     76  S   UNL A   1      41.649  20.097  26.336  1.00  0.00     0.127 S 
ATOM     77  O   UNL A   1      40.211  20.277  26.151  1.00  0.00    -0.237 OA
ATOM     78  O   UNL A   1      42.345  19.487  25.203  1.00  0.00    -0.237 OA
ATOM     79  O   UNL A   1      42.061  19.589  27.638  1.00  0.00    -0.744 OA
ENDBRANCH  73  76
ENDBRANCH  45  69
BRANCH  57  80
ATOM     80  C   UNL A   1      45.894  24.764  33.375  1.00  0.00     0.023 A 
ATOM     81  C   UNL A   1      47.223  25.226  33.301  1.00  0.00     0.012 A 
ATOM     82  C   UNL A   1      45.601  23.622  34.143  1.00  0.00     0.148 A 
ATOM     83  C   UNL A   1      48.248  24.541  33.951  1.00  0.00     0.002 A 
ATOM     84  C   UNL A   1      46.621  22.971  34.828  1.00  0.00     0.091 A 
ATOM     85  F   UNL A   1      44.335  23.183  34.186  1.00  0.00    -0.205 F 
ATOM     86  C   UNL A   1      47.947  23.422  34.723  1.00  0.00     0.022 A 
BRANCH  84  87
ATOM     87  S   UNL A   1      46.298  21.580  35.918  1.00  0.00     0.127 S 
ATOM     88  O   UNL A   1      45.656  22.233  37.055  1.00  0.00    -0.237 OA
ATOM     89  O   UNL A   1      45.407  20.744  35.110  1.00  0.00    -0.237 OA
ATOM     90  O   UNL A   1      47.599  20.980  36.184  1.00  0.00    -0.744 OA
ENDBRANCH  84  87
ENDBRANCH  57  80
ENDBRANCH  31  32
ENDBRANCH  23  26
ENDBRANCH  21  22
ENDBRANCH  20  21
ENDBRANCH   1  20
TORSDOF 18
ENDMDL
MODEL 2
REMARK VINA RESULT:     -11.2      3.919      6.782
REMARK SMILES CCc1ccc(C(=O)[C@@H](Br)CC(=O)NCCCCNC(=O)c2ccc(-c3c4nc(c(-c5cccc(S(=O)(=O)[O-])c5F)c5ccc([nH]5)c(-c5cccc(S(=O)(=O)[O-])c5F)c5nc(c(-c6cccc(S(=O)(=O)[O-])c6F)c6ccc3[nH]6)C=C5)C=C4)cc2)cc1
REMARK SMILES IDX 16 1 15 2 14 3 12 4 13 5 11 7 9 8 10 9 7 10 8 11 6 12 3 13
REMARK SMILES IDX 4 14 86 15 5 16 85 17 2 18 1 19 17 20 18 21 19 22 20 23
REMARK SMILES IDX 21 25 22 26 23 27 84 28 24 29 83 30 25 31 26 32 27 33 77 34
REMARK SMILES IDX 28 35 82 36 76 37 78 38 29 39 81 40 75 41 74 42 30 44 62 45
REMARK SMILES IDX 42 46 61 47 43 48 46 49 60 50 79 51 44 52 45 53 59 55 80 56
REMARK SMILES IDX 47 57 31 58 32 59 40 60 33 61 35 62 41 63 34 64 36 65 37 66
REMARK SMILES IDX 38 67 39 68 63 69 64 70 72 71 65 72 67 73 73 74 66 75 68 76
REMARK SMILES IDX 69 77 70 78 71 79 48 80 49 81 57 82 50 83 52 84 58 85 51 86
REMARK SMILES IDX 53 87 54 88 55 89 56 90
REMARK H PARENT 14 6 19 24 78 43 46 54
REMARK Flexibility Score: inf
ROOT
ATOM      1  C   UNL A   1      33.151  35.575  29.188  1.00  0.00     0.023 C 
ENDROOT
BRANCH   1   2
ATOM      2  C   UNL A   1      33.279  36.077  30.624  1.00  0.00     0.116 C 
BRANCH   2   3
ATOM      3  N   UNL A   1      32.851  35.056  31.561  1.00  0.00    -0.356 N 
ATOM      4  C   UNL A   1      33.514  34.529  32.626  1.00  0.00     0.221 C 
ATOM      5  O   UNL A   1      33.015  33.584  33.236  1.00  0.00    -0.275 OA
ATOM      6  H   UNL A   1      31.950  34.690  31.402  1.00  0.00     0.163 HD
BRANCH   4   7
ATOM      7  C   UNL A   1      34.841  35.116  33.056  1.00  0.00     0.123 C 
BRANCH   7   8
ATOM      8  C   UNL A   1      36.004  34.390  32.398  1.00  0.00     0.138 C 
ATOM      9  Br  UNL A   1      35.757  32.440  32.531  1.00  0.00    -0.080 Br
BRANCH   8  10
ATOM     10  C   UNL A   1      37.425  34.642  32.898  1.00  0.00     0.176 C 
ATOM     11  O   UNL A   1      37.608  34.971  34.075  1.00  0.00    -0.293 OA
BRANCH  10  12
ATOM     12  C   UNL A   1      38.638  34.487  32.033  1.00  0.00     0.019 A 
ATOM     13  C   UNL A   1      41.018  34.023  30.587  1.00  0.00    -0.048 A 
ATOM     14  C   UNL A   1      41.070  34.349  31.945  1.00  0.00     0.004 A 
ATOM     15  C   UNL A   1      39.770  33.965  29.952  1.00  0.00     0.004 A 
ATOM     16  C   UNL A   1      39.893  34.594  32.656  1.00  0.00     0.012 A 
ATOM     17  C   UNL A   1      38.589  34.207  30.666  1.00  0.00     0.012 A 
BRANCH  13  18
ATOM     18  C   UNL A   1      42.288  33.737  29.825  1.00  0.00     0.032 C 
ATOM     19  C   UNL A   1      42.622  32.253  29.793  1.00  0.00     0.009 C 
ENDBRANCH  13  18
ENDBRANCH  10  12
ENDBRANCH   8  10
ENDBRANCH   7   8
ENDBRANCH   4   7
ENDBRANCH   2   3
ENDBRANCH   1   2
BRANCH   1  20
ATOM     20  C   UNL A   1      34.433  34.978  28.611  1.00  0.00     0.023 C 
BRANCH  20  21
ATOM     21  C   UNL A   1      34.743  33.557  29.073  1.00  0.00     0.116 C 
BRANCH  21  22
ATOM     22  N   UNL A   1      34.176  32.515  28.227  1.00  0.00    -0.352 N 
ATOM     23  C   UNL A   1      34.674  31.257  27.969  1.00  0.00     0.251 C 
ATOM     24  H   UNL A   1      33.329  32.740  27.780  1.00  0.00     0.163 HD
ATOM     25  O   UNL A   1      34.104  30.522  27.172  1.00  0.00    -0.269 OA
BRANCH  23  26
ATOM     26  C   UNL A   1      35.923  30.823  28.634  1.00  0.00     0.039 A 
ATOM     27  C   UNL A   1      35.867  29.783  29.562  1.00  0.00     0.014 A 
ATOM     28  C   UNL A   1      37.150  31.403  28.302  1.00  0.00     0.014 A 
ATOM     29  C   UNL A   1      37.051  29.278  30.103  1.00  0.00     0.010 A 
ATOM     30  C   UNL A   1      38.331  30.840  28.772  1.00  0.00     0.010 A 
ATOM     31  C   UNL A   1      38.297  29.777  29.684  1.00  0.00    -0.014 A 
BRANCH  31  32
ATOM     32  C   UNL A   1      39.564  29.171  30.169  1.00  0.00     0.031 A 
ATOM     33  C   UNL A   1      40.241  29.688  31.409  1.00  0.00     0.074 A 
ATOM     34  C   UNL A   1      40.158  28.209  29.437  1.00  0.00     0.049 A 
ATOM     35  N   UNL A   1      41.328  29.253  31.994  1.00  0.00    -0.248 NA
ATOM     36  C   UNL A   1      39.648  30.869  32.056  1.00  0.00     0.031 C 
ATOM     37  C   UNL A   1      39.685  27.719  28.140  1.00  0.00     0.029 A 
ATOM     38  N   UNL A   1      41.302  27.486  29.666  1.00  0.00    -0.354 N 
ATOM     39  C   UNL A   1      41.568  30.126  33.048  1.00  0.00     0.074 A 
ATOM     40  C   UNL A   1      40.540  31.142  32.995  1.00  0.00     0.031 C 
ATOM     41  C   UNL A   1      40.522  26.770  27.695  1.00  0.00     0.029 A 
ATOM     42  C   UNL A   1      41.595  26.587  28.668  1.00  0.00     0.049 A 
ATOM     43  H   UNL A   1      41.859  27.601  30.469  1.00  0.00     0.167 HD
ATOM     44  C   UNL A   1      42.534  30.068  33.996  1.00  0.00     0.034 A 
ATOM     45  C   UNL A   1      42.605  25.701  28.555  1.00  0.00     0.034 A 
ATOM     46  C   UNL A   1      43.517  29.023  34.078  1.00  0.00     0.049 A 
ATOM     47  C   UNL A   1      43.585  25.564  29.686  1.00  0.00     0.074 A 
ATOM     48  C   UNL A   1      44.452  28.794  35.072  1.00  0.00     0.029 A 
ATOM     49  N   UNL A   1      43.698  28.035  33.123  1.00  0.00    -0.354 N 
ATOM     50  N   UNL A   1      43.663  26.257  30.796  1.00  0.00    -0.248 NA
ATOM     51  C   UNL A   1      44.580  24.488  29.578  1.00  0.00     0.031 C 
ATOM     52  C   UNL A   1      45.209  27.673  34.709  1.00  0.00     0.029 A 
ATOM     53  C   UNL A   1      44.733  27.195  33.499  1.00  0.00     0.049 A 
ATOM     54  H   UNL A   1      43.169  27.943  32.298  1.00  0.00     0.167 HD
ATOM     55  C   UNL A   1      44.694  25.686  31.532  1.00  0.00     0.074 A 
ATOM     56  C   UNL A   1      45.194  24.572  30.752  1.00  0.00     0.031 C 
ATOM     57  C   UNL A   1      45.192  26.061  32.737  1.00  0.00     0.034 A 
BRANCH  44  58
ATOM     58  C   UNL A   1      42.524  31.135  35.063  1.00  0.00     0.023 A 
ATOM     59  C   UNL A   1      41.980  30.843  36.331  1.00  0.00     0.012 A 
ATOM     60  C   UNL A   1      43.074  32.408  34.826  1.00  0.00     0.148 A 
ATOM     61  C   UNL A   1      41.942  31.813  37.331  1.00  0.00     0.002 A 
ATOM     62  C   UNL A   1      43.075  33.357  35.843  1.00  0.00     0.091 A 
ATOM     63  F   UNL A   1      43.563  32.681  33.607  1.00  0.00    -0.205 F 
ATOM     64  C   UNL A   1      42.497  33.067  37.090  1.00  0.00     0.022 A 
BRANCH  62  65
ATOM     65  S   UNL A   1      43.840  34.970  35.649  1.00  0.00     0.127 S 
ATOM     66  O   UNL A   1      43.051  35.543  34.559  1.00  0.00    -0.237 OA
ATOM     67  O   UNL A   1      43.609  35.586  36.956  1.00  0.00    -0.237 OA
ATOM     68  O   UNL A   1      45.241  34.708  35.346  1.00  0.00    -0.744 OA
ENDBRANCH  62  65
ENDBRANCH  44  58
BRANCH  45  69
ATOM     69  C   UNL A   1      42.659  24.807  27.365  1.00  0.00     0.023 A 
ATOM     70  C   UNL A   1      43.353  25.229  26.214  1.00  0.00     0.012 A 
ATOM     71  C   UNL A   1      42.100  23.515  27.397  1.00  0.00     0.148 A 
ATOM     72  C   UNL A   1      43.468  24.387  25.106  1.00  0.00     0.002 A 
ATOM     73  C   UNL A   1      42.266  22.663  26.312  1.00  0.00     0.091 A 
ATOM     74  F   UNL A   1      41.440  23.138  28.501  1.00  0.00    -0.205 F 
ATOM     75  C   UNL A   1      42.937  23.102  25.160  1.00  0.00     0.022 A 
BRANCH  73  76
ATOM     76  S   UNL A   1      41.743  20.945  26.348  1.00  0.00     0.127 S 
ATOM     77  O   UNL A   1      42.566  20.360  25.294  1.00  0.00    -0.237 OA
ATOM     78  O   UNL A   1      42.108  20.547  27.709  1.00  0.00    -0.237 OA
ATOM     79  O   UNL A   1      40.309  20.964  26.094  1.00  0.00    -0.744 OA
ENDBRANCH  73  76
ENDBRANCH  45  69
BRANCH  57  80
ATOM     80  C   UNL A   1      46.327  25.249  33.305  1.00  0.00     0.023 A 
ATOM     81  C   UNL A   1      47.657  25.608  33.012  1.00  0.00     0.012 A 
ATOM     82  C   UNL A   1      46.078  24.174  34.179  1.00  0.00     0.148 A 
ATOM     83  C   UNL A   1      48.722  24.886  33.551  1.00  0.00     0.002 A 
ATOM     84  C   UNL A   1      47.144  23.488  34.751  1.00  0.00     0.091 A 
ATOM     85  F   UNL A   1      44.806  23.830  34.430  1.00  0.00    -0.205 F 
ATOM     86  C   UNL A   1      48.466  23.836  34.429  1.00  0.00     0.022 A 
BRANCH  84  87
ATOM     87  S   UNL A   1      46.897  22.186  35.963  1.00  0.00     0.127 S 
ATOM     88  O   UNL A   1      46.351  21.110  35.140  1.00  0.00    -0.237 OA
ATOM     89  O   UNL A   1      48.256  21.948  36.455  1.00  0.00    -0.237 OA
ATOM     90  O   UNL A   1      45.992  22.743  36.959  1.00  0.00    -0.744 OA
ENDBRANCH  84  87
ENDBRANCH  57  80
ENDBRANCH  31  32
ENDBRANCH  23  26
ENDBRANCH  21  22
ENDBRANCH  20  21
ENDBRANCH   1  20
TORSDOF 18
ENDMDL
MODEL 3
REMARK VINA RESULT:     -10.9      4.836     10.144
REMARK SMILES CCc1ccc(C(=O)[C@@H](Br)CC(=O)NCCCCNC(=O)c2ccc(-c3c4nc(c(-c5cccc(S(=O)(=O)[O-])c5F)c5ccc([nH]5)c(-c5cccc(S(=O)(=O)[O-])c5F)c5nc(c(-c6cccc(S(=O)(=O)[O-])c6F)c6ccc3[nH]6)C=C5)C=C4)cc2)cc1
REMARK SMILES IDX 16 1 15 2 14 3 12 4 13 5 11 7 9 8 10 9 7 10 8 11 6 12 3 13
REMARK SMILES IDX 4 14 86 15 5 16 85 17 2 18 1 19 17 20 18 21 19 22 20 23
REMARK SMILES IDX 21 25 22 26 23 27 84 28 24 29 83 30 25 31 26 32 27 33 77 34
REMARK SMILES IDX 28 35 82 36 76 37 78 38 29 39 81 40 75 41 74 42 30 44 62 45
REMARK SMILES IDX 42 46 61 47 43 48 46 49 60 50 79 51 44 52 45 53 59 55 80 56
REMARK SMILES IDX 47 57 31 58 32 59 40 60 33 61 35 62 41 63 34 64 36 65 37 66
REMARK SMILES IDX 38 67 39 68 63 69 64 70 72 71 65 72 67 73 73 74 66 75 68 76
REMARK SMILES IDX 69 77 70 78 71 79 48 80 49 81 57 82 50 83 52 84 58 85 51 86
REMARK SMILES IDX 53 87 54 88 55 89 56 90
REMARK H PARENT 14 6 19 24 78 43 46 54
REMARK Flexibility Score: inf
ROOT
ATOM      1  C   UNL A   1      34.685  20.771  25.018  1.00  0.00     0.023 C 
ENDROOT
BRANCH   1   2
ATOM      2  C   UNL A   1      34.006  21.263  26.294  1.00  0.00     0.116 C 
BRANCH   2   3
ATOM      3  N   UNL A   1      32.564  21.184  26.168  1.00  0.00    -0.356 N 
ATOM      4  C   UNL A   1      31.662  22.176  25.932  1.00  0.00     0.221 C 
ATOM      5  O   UNL A   1      30.460  21.915  25.970  1.00  0.00    -0.275 OA
ATOM      6  H   UNL A   1      32.181  20.282  26.268  1.00  0.00     0.163 HD
BRANCH   4   7
ATOM      7  C   UNL A   1      32.143  23.575  25.614  1.00  0.00     0.123 C 
BRANCH   7   8
ATOM      8  C   UNL A   1      31.605  24.050  24.272  1.00  0.00     0.138 C 
ATOM      9  Br  UNL A   1      32.288  22.910  22.818  1.00  0.00    -0.080 Br
BRANCH   8  10
ATOM     10  C   UNL A   1      31.887  25.480  23.816  1.00  0.00     0.176 C 
ATOM     11  O   UNL A   1      33.055  25.868  23.710  1.00  0.00    -0.293 OA
BRANCH  10  12
ATOM     12  C   UNL A   1      30.806  26.455  23.459  1.00  0.00     0.019 A 
ATOM     13  C   UNL A   1      28.694  28.282  23.043  1.00  0.00    -0.048 A 
ATOM     14  C   UNL A   1      28.461  27.071  23.703  1.00  0.00     0.004 A 
ATOM     15  C   UNL A   1      29.983  28.555  22.566  1.00  0.00     0.004 A 
ATOM     16  C   UNL A   1      29.503  26.161  23.893  1.00  0.00     0.012 A 
ATOM     17  C   UNL A   1      31.029  27.643  22.760  1.00  0.00     0.012 A 
BRANCH  13  18
ATOM     18  C   UNL A   1      27.574  29.274  22.857  1.00  0.00     0.032 C 
ATOM     19  C   UNL A   1      27.867  30.611  23.523  1.00  0.00     0.009 C 
ENDBRANCH  13  18
ENDBRANCH  10  12
ENDBRANCH   8  10
ENDBRANCH   7   8
ENDBRANCH   4   7
ENDBRANCH   2   3
ENDBRANCH   1   2
BRANCH   1  20
ATOM     20  C   UNL A   1      35.582  21.806  24.342  1.00  0.00     0.023 C 
BRANCH  20  21
ATOM     21  C   UNL A   1      36.827  22.193  25.134  1.00  0.00     0.116 C 
BRANCH  21  22
ATOM     22  N   UNL A   1      37.775  21.104  25.329  1.00  0.00    -0.352 N 
ATOM     23  C   UNL A   1      39.017  21.147  25.923  1.00  0.00     0.251 C 
ATOM     24  H   UNL A   1      37.493  20.224  24.992  1.00  0.00     0.163 HD
ATOM     25  O   UNL A   1      39.723  20.146  25.945  1.00  0.00    -0.269 OA
BRANCH  23  26
ATOM     26  C   UNL A   1      39.503  22.423  26.494  1.00  0.00     0.039 A 
ATOM     27  C   UNL A   1      40.528  22.392  27.440  1.00  0.00     0.014 A 
ATOM     28  C   UNL A   1      38.985  23.646  26.059  1.00  0.00     0.014 A 
ATOM     29  C   UNL A   1      41.083  23.590  27.894  1.00  0.00     0.010 A 
ATOM     30  C   UNL A   1      39.598  24.833  26.444  1.00  0.00     0.010 A 
ATOM     31  C   UNL A   1      40.648  24.821  27.371  1.00  0.00    -0.014 A 
BRANCH  31  32
ATOM     32  C   UNL A   1      41.308  26.093  27.765  1.00  0.00     0.031 A 
ATOM     33  C   UNL A   1      42.738  26.370  27.388  1.00  0.00     0.074 A 
ATOM     34  C   UNL A   1      40.645  26.964  28.549  1.00  0.00     0.049 A 
ATOM     35  N   UNL A   1      43.455  27.440  27.616  1.00  0.00    -0.248 NA
ATOM     36  C   UNL A   1      43.472  25.296  26.700  1.00  0.00     0.031 C 
ATOM     37  C   UNL A   1      39.308  26.751  29.108  1.00  0.00     0.029 A 
ATOM     38  N   UNL A   1      41.012  28.195  29.033  1.00  0.00    -0.354 N 
ATOM     39  C   UNL A   1      44.728  27.155  27.139  1.00  0.00     0.074 A 
ATOM     40  C   UNL A   1      44.698  25.794  26.648  1.00  0.00     0.031 C 
ATOM     41  C   UNL A   1      38.963  27.817  29.846  1.00  0.00     0.029 A 
ATOM     42  C   UNL A   1      40.053  28.787  29.820  1.00  0.00     0.049 A 
ATOM     43  H   UNL A   1      41.880  28.614  28.833  1.00  0.00     0.167 HD
ATOM     44  C   UNL A   1      45.814  27.962  27.078  1.00  0.00     0.034 A 
ATOM     45  C   UNL A   1      40.044  29.985  30.439  1.00  0.00     0.034 A 
ATOM     46  C   UNL A   1      45.822  29.332  27.512  1.00  0.00     0.049 A 
ATOM     47  C   UNL A   1      41.207  30.916  30.242  1.00  0.00     0.074 A 
ATOM     48  C   UNL A   1      46.823  30.276  27.372  1.00  0.00     0.029 A 
ATOM     49  N   UNL A   1      44.778  29.953  28.181  1.00  0.00    -0.354 N 
ATOM     50  N   UNL A   1      42.325  30.712  29.588  1.00  0.00    -0.248 NA
ATOM     51  C   UNL A   1      41.086  32.263  30.818  1.00  0.00     0.031 C 
ATOM     52  C   UNL A   1      46.389  31.466  27.970  1.00  0.00     0.029 A 
ATOM     53  C   UNL A   1      45.110  31.266  28.465  1.00  0.00     0.049 A 
ATOM     54  H   UNL A   1      43.925  29.523  28.418  1.00  0.00     0.167 HD
ATOM     55  C   UNL A   1      43.028  31.908  29.648  1.00  0.00     0.074 A 
ATOM     56  C   UNL A   1      42.198  32.842  30.381  1.00  0.00     0.031 C 
ATOM     57  C   UNL A   1      44.258  32.201  29.154  1.00  0.00     0.034 A 
BRANCH  44  58
ATOM     58  C   UNL A   1      47.065  27.396  26.453  1.00  0.00     0.023 A 
ATOM     59  C   UNL A   1      47.325  27.627  25.086  1.00  0.00     0.012 A 
ATOM     60  C   UNL A   1      47.995  26.665  27.217  1.00  0.00     0.148 A 
ATOM     61  C   UNL A   1      48.464  27.103  24.478  1.00  0.00     0.002 A 
ATOM     62  C   UNL A   1      49.152  26.184  26.615  1.00  0.00     0.091 A 
ATOM     63  F   UNL A   1      47.722  26.430  28.509  1.00  0.00    -0.205 F 
ATOM     64  C   UNL A   1      49.382  26.390  25.244  1.00  0.00     0.022 A 
BRANCH  62  65
ATOM     65  S   UNL A   1      50.429  25.324  27.540  1.00  0.00     0.127 S 
ATOM     66  O   UNL A   1      51.390  25.001  26.488  1.00  0.00    -0.237 OA
ATOM     67  O   UNL A   1      50.879  26.351  28.481  1.00  0.00    -0.237 OA
ATOM     68  O   UNL A   1      49.766  24.187  28.164  1.00  0.00    -0.744 OA
ENDBRANCH  62  65
ENDBRANCH  44  58
BRANCH  45  69
ATOM     69  C   UNL A   1      38.838  30.397  31.209  1.00  0.00     0.023 A 
ATOM     70  C   UNL A   1      38.798  30.181  32.601  1.00  0.00     0.012 A 
ATOM     71  C   UNL A   1      37.770  31.072  30.586  1.00  0.00     0.148 A 
ATOM     72  C   UNL A   1      37.705  30.610  33.354  1.00  0.00     0.002 A 
ATOM     73  C   UNL A   1      36.711  31.545  31.351  1.00  0.00     0.091 A 
ATOM     74  F   UNL A   1      37.827  31.261  29.260  1.00  0.00    -0.205 F 
ATOM     75  C   UNL A   1      36.669  31.302  32.733  1.00  0.00     0.022 A 
BRANCH  73  76
ATOM     76  S   UNL A   1      35.407  32.569  30.662  1.00  0.00     0.127 S 
ATOM     77  O   UNL A   1      35.010  31.797  29.487  1.00  0.00    -0.237 OA
ATOM     78  O   UNL A   1      34.428  32.584  31.750  1.00  0.00    -0.237 OA
ATOM     79  O   UNL A   1      36.022  33.861  30.391  1.00  0.00    -0.744 OA
ENDBRANCH  73  76
ENDBRANCH  45  69
BRANCH  57  80
ATOM     80  C   UNL A   1      44.780  33.598  29.370  1.00  0.00     0.023 A 
ATOM     81  C   UNL A   1      45.460  33.913  30.563  1.00  0.00     0.012 A 
ATOM     82  C   UNL A   1      44.654  34.578  28.367  1.00  0.00     0.148 A 
ATOM     83  C   UNL A   1      45.976  35.192  30.768  1.00  0.00     0.002 A 
ATOM     84  C   UNL A   1      45.212  35.837  28.559  1.00  0.00     0.091 A 
ATOM     85  F   UNL A   1      43.984  34.269  27.247  1.00  0.00    -0.205 F 
ATOM     86  C   UNL A   1      45.863  36.149  29.763  1.00  0.00     0.022 A 
BRANCH  84  87
ATOM     87  S   UNL A   1      45.190  37.092  27.274  1.00  0.00     0.127 S 
ATOM     88  O   UNL A   1      45.821  38.224  27.949  1.00  0.00    -0.237 OA
ATOM     89  O   UNL A   1      46.002  36.481  26.220  1.00  0.00    -0.237 OA
ATOM     90  O   UNL A   1      43.787  37.267  26.921  1.00  0.00    -0.744 OA
ENDBRANCH  84  87
ENDBRANCH  57  80
ENDBRANCH  31  32
ENDBRANCH  23  26
ENDBRANCH  21  22
ENDBRANCH  20  21
ENDBRANCH   1  20
TORSDOF 18
ENDMDL
