MODEL 1
REMARK VINA RESULT:     -12.2      0.000      0.000
REMARK SMILES CS(=O)(=O)c1ccc(-c2cc(Cl)cnc2-c2ccc(C(=O)NCCCCNC(=O)c3ccc(-c4c5nc(c(-c6cccc(S(=O)(=O)[O-])c6F)c6ccc([nH]6)c(-c6cccc(S(=O)(=O)[O-])c6F)c6nc(c(-c7cccc(S(=O)(=O)[O-])c7F)c7ccc4[nH]7)C=C6)C=C5)cc3)nc2)cc1
REMARK SMILES IDX 24 1 23 2 22 3 20 4 21 5 19 7 16 8 17 9 94 10 18 11 93 12
REMARK SMILES IDX 15 13 9 14 10 15 11 16 14 17 12 18 13 19 8 20 5 21 6 22
REMARK SMILES IDX 96 23 7 24 95 25 2 26 1 27 3 28 4 29 25 30 26 31 27 32 28 33
REMARK SMILES IDX 29 35 30 36 31 37 92 38 32 39 91 40 33 41 34 42 35 43 85 44
REMARK SMILES IDX 36 45 90 46 84 47 86 48 37 49 89 50 83 51 82 52 38 54 70 55
REMARK SMILES IDX 50 56 69 57 51 58 54 59 68 60 87 61 52 62 53 63 67 65 88 66
REMARK SMILES IDX 55 67 39 68 40 69 48 70 41 71 43 72 49 73 42 74 44 75 45 76
REMARK SMILES IDX 46 77 47 78 71 79 72 80 80 81 73 82 75 83 81 84 74 85 76 86
REMARK SMILES IDX 77 87 78 88 79 89 56 90 57 91 65 92 58 93 60 94 66 95 59 96
REMARK SMILES IDX 61 97 62 98 63 99 64 100
REMARK H PARENT 22 6 27 34 86 53 54 64
REMARK Flexibility Score: inf
ROOT
ATOM      1  C   UNL A   1      34.409  22.210  25.111  1.00  0.00     0.023 C 
ENDROOT
BRANCH   1   2
ATOM      2  C   UNL A   1      34.250  22.940  26.447  1.00  0.00     0.116 C 
BRANCH   2   3
ATOM      3  N   UNL A   1      32.962  22.654  27.047  1.00  0.00    -0.351 N 
ATOM      4  C   UNL A   1      31.731  23.265  26.949  1.00  0.00     0.269 C 
ATOM      5  O   UNL A   1      30.799  22.724  27.547  1.00  0.00    -0.268 OA
ATOM      6  H   UNL A   1      32.968  21.868  27.640  1.00  0.00     0.163 HD
BRANCH   4   7
ATOM      7  C   UNL A   1      31.469  24.502  26.128  1.00  0.00     0.128 A 
ATOM      8  C   UNL A   1      30.782  26.842  24.804  1.00  0.00     0.019 A 
ATOM      9  C   UNL A   1      31.239  25.737  24.083  1.00  0.00     0.014 A 
ATOM     10  C   UNL A   1      30.780  26.724  26.187  1.00  0.00     0.122 A 
ATOM     11  C   UNL A   1      31.610  24.569  24.749  1.00  0.00     0.035 A 
ATOM     12  N   UNL A   1      31.078  25.586  26.854  1.00  0.00    -0.250 NA
BRANCH   8  13
ATOM     13  C   UNL A   1      30.258  28.031  24.133  1.00  0.00     0.080 A 
ATOM     14  C   UNL A   1      30.775  29.323  24.379  1.00  0.00     0.010 A 
ATOM     15  C   UNL A   1      30.139  30.398  23.739  1.00  0.00     0.033 A 
ATOM     16  C   UNL A   1      29.056  30.166  22.897  1.00  0.00     0.060 A 
ATOM     17  N   UNL A   1      29.213  27.791  23.297  1.00  0.00    -0.254 NA
ATOM     18  Cl  UNL A   1      28.259  31.473  22.122  1.00  0.00    -0.083 Cl
ATOM     19  C   UNL A   1      28.636  28.862  22.703  1.00  0.00     0.132 A 
BRANCH  14  20
ATOM     20  C   UNL A   1      31.924  29.564  25.271  1.00  0.00    -0.016 A 
ATOM     21  C   UNL A   1      34.142  30.115  26.915  1.00  0.00     0.067 A 
ATOM     22  C   UNL A   1      32.902  30.666  27.227  1.00  0.00     0.021 A 
ATOM     23  C   UNL A   1      34.286  29.283  25.801  1.00  0.00     0.021 A 
ATOM     24  C   UNL A   1      31.801  30.383  26.410  1.00  0.00     0.010 A 
ATOM     25  C   UNL A   1      33.181  29.008  24.988  1.00  0.00     0.010 A 
BRANCH  21  26
ATOM     26  S   UNL A   1      35.584  30.452  27.900  1.00  0.00     0.175 S 
ATOM     27  C   UNL A   1      36.947  29.638  27.116  1.00  0.00     0.163 C 
ATOM     28  O   UNL A   1      35.372  29.796  29.175  1.00  0.00    -0.224 OA
ATOM     29  O   UNL A   1      35.800  31.886  27.820  1.00  0.00    -0.224 OA
ENDBRANCH  21  26
ENDBRANCH  14  20
ENDBRANCH   8  13
ENDBRANCH   4   7
ENDBRANCH   2   3
ENDBRANCH   1   2
BRANCH   1  30
ATOM     30  C   UNL A   1      35.649  21.316  25.019  1.00  0.00     0.023 C 
BRANCH  30  31
ATOM     31  C   UNL A   1      36.915  21.888  25.649  1.00  0.00     0.116 C 
BRANCH  31  32
ATOM     32  N   UNL A   1      38.011  20.930  25.723  1.00  0.00    -0.352 N 
ATOM     33  C   UNL A   1      39.305  21.147  26.139  1.00  0.00     0.251 C 
ATOM     34  H   UNL A   1      37.800  20.012  25.438  1.00  0.00     0.163 HD
ATOM     35  O   UNL A   1      40.143  20.256  26.052  1.00  0.00    -0.269 OA
BRANCH  33  36
ATOM     36  C   UNL A   1      39.677  22.482  26.646  1.00  0.00     0.039 A 
ATOM     37  C   UNL A   1      40.702  22.583  27.588  1.00  0.00     0.014 A 
ATOM     38  C   UNL A   1      39.069  23.629  26.130  1.00  0.00     0.014 A 
ATOM     39  C   UNL A   1      41.181  23.843  27.950  1.00  0.00     0.010 A 
ATOM     40  C   UNL A   1      39.589  24.881  26.444  1.00  0.00     0.010 A 
ATOM     41  C   UNL A   1      40.660  24.999  27.343  1.00  0.00    -0.014 A 
BRANCH  41  42
ATOM     42  C   UNL A   1      41.264  26.334  27.581  1.00  0.00     0.031 A 
ATOM     43  C   UNL A   1      42.623  26.664  27.032  1.00  0.00     0.074 A 
ATOM     44  C   UNL A   1      40.633  27.204  28.395  1.00  0.00     0.049 A 
ATOM     45  N   UNL A   1      43.338  27.745  27.202  1.00  0.00    -0.248 NA
ATOM     46  C   UNL A   1      43.277  25.635  26.206  1.00  0.00     0.031 C 
ATOM     47  C   UNL A   1      39.353  26.961  29.063  1.00  0.00     0.029 A 
ATOM     48  N   UNL A   1      40.999  28.455  28.826  1.00  0.00    -0.354 N 
ATOM     49  C   UNL A   1      44.535  27.517  26.537  1.00  0.00     0.074 A 
ATOM     50  C   UNL A   1      44.464  26.182  25.982  1.00  0.00     0.031 C 
ATOM     51  C   UNL A   1      39.043  28.025  29.822  1.00  0.00     0.029 A 
ATOM     52  C   UNL A   1      40.111  29.013  29.717  1.00  0.00     0.049 A 
ATOM     53  H   UNL A   1      41.818  28.910  28.527  1.00  0.00     0.167 HD
ATOM     54  C   UNL A   1      45.588  28.353  26.377  1.00  0.00     0.034 A 
ATOM     55  C   UNL A   1      40.157  30.183  30.384  1.00  0.00     0.034 A 
ATOM     56  C   UNL A   1      45.634  29.697  26.888  1.00  0.00     0.049 A 
ATOM     57  C   UNL A   1      41.318  31.110  30.153  1.00  0.00     0.074 A 
ATOM     58  C   UNL A   1      46.607  30.660  26.686  1.00  0.00     0.029 A 
ATOM     59  N   UNL A   1      44.675  30.264  27.711  1.00  0.00    -0.354 N 
ATOM     60  N   UNL A   1      42.357  30.950  29.370  1.00  0.00    -0.248 NA
ATOM     61  C   UNL A   1      41.299  32.393  30.871  1.00  0.00     0.031 C 
ATOM     62  C   UNL A   1      46.245  31.805  27.403  1.00  0.00     0.029 A 
ATOM     63  C   UNL A   1      45.037  31.560  28.038  1.00  0.00     0.049 A 
ATOM     64  H   UNL A   1      43.855  29.813  28.018  1.00  0.00     0.167 HD
ATOM     65  C   UNL A   1      43.100  32.119  29.479  1.00  0.00     0.074 A 
ATOM     66  C   UNL A   1      42.379  32.991  30.384  1.00  0.00     0.031 C 
ATOM     67  C   UNL A   1      44.285  32.435  28.900  1.00  0.00     0.034 A 
BRANCH  54  68
ATOM     68  C   UNL A   1      46.754  27.865  25.560  1.00  0.00     0.023 A 
ATOM     69  C   UNL A   1      46.739  28.038  24.162  1.00  0.00     0.012 A 
ATOM     70  C   UNL A   1      47.889  27.302  26.175  1.00  0.00     0.148 A 
ATOM     71  C   UNL A   1      47.822  27.634  23.383  1.00  0.00     0.002 A 
ATOM     72  C   UNL A   1      48.982  26.937  25.396  1.00  0.00     0.091 A 
ATOM     73  F   UNL A   1      47.875  27.124  27.504  1.00  0.00    -0.205 F 
ATOM     74  C   UNL A   1      48.946  27.094  24.002  1.00  0.00     0.022 A 
BRANCH  72  75
ATOM     75  S   UNL A   1      50.506  26.301  26.103  1.00  0.00     0.127 S 
ATOM     76  O   UNL A   1      50.961  27.444  26.895  1.00  0.00    -0.237 OA
ATOM     77  O   UNL A   1      50.030  25.164  26.892  1.00  0.00    -0.237 OA
ATOM     78  O   UNL A   1      51.355  25.945  24.975  1.00  0.00    -0.744 OA
ENDBRANCH  72  75
ENDBRANCH  54  68
BRANCH  55  79
ATOM     79  C   UNL A   1      39.034  30.571  31.284  1.00  0.00     0.023 A 
ATOM     80  C   UNL A   1      38.972  30.030  32.583  1.00  0.00     0.012 A 
ATOM     81  C   UNL A   1      38.049  31.492  30.877  1.00  0.00     0.148 A 
ATOM     82  C   UNL A   1      37.934  30.373  33.448  1.00  0.00     0.002 A 
ATOM     83  C   UNL A   1      37.047  31.871  31.764  1.00  0.00     0.091 A 
ATOM     84  F   UNL A   1      38.114  31.985  29.631  1.00  0.00    -0.205 F 
ATOM     85  C   UNL A   1      36.978  31.301  33.044  1.00  0.00     0.022 A 
BRANCH  83  86
ATOM     86  S   UNL A   1      35.859  33.160  31.371  1.00  0.00     0.127 S 
ATOM     87  O   UNL A   1      36.551  33.895  30.317  1.00  0.00    -0.237 OA
ATOM     88  O   UNL A   1      34.702  32.382  30.925  1.00  0.00    -0.237 OA
ATOM     89  O   UNL A   1      35.646  33.883  32.619  1.00  0.00    -0.744 OA
ENDBRANCH  83  86
ENDBRANCH  55  79
BRANCH  67  90
ATOM     90  C   UNL A   1      44.876  33.785  29.210  1.00  0.00     0.023 A 
ATOM     91  C   UNL A   1      45.744  33.927  30.310  1.00  0.00     0.012 A 
ATOM     92  C   UNL A   1      44.635  34.889  28.369  1.00  0.00     0.148 A 
ATOM     93  C   UNL A   1      46.344  35.154  30.585  1.00  0.00     0.002 A 
ATOM     94  C   UNL A   1      45.273  36.098  28.623  1.00  0.00     0.091 A 
ATOM     95  F   UNL A   1      43.790  34.739  27.339  1.00  0.00    -0.205 F 
ATOM     96  C   UNL A   1      46.119  36.236  29.737  1.00  0.00     0.022 A 
BRANCH  94  97
ATOM     97  S   UNL A   1      45.115  37.518  27.533  1.00  0.00     0.127 S 
ATOM     98  O   UNL A   1      45.504  38.616  28.417  1.00  0.00    -0.237 OA
ATOM     99  O   UNL A   1      46.085  37.211  26.480  1.00  0.00    -0.237 OA
ATOM    100  O   UNL A   1      43.728  37.532  27.090  1.00  0.00    -0.744 OA
ENDBRANCH  94  97
ENDBRANCH  67  90
ENDBRANCH  41  42
ENDBRANCH  33  36
ENDBRANCH  31  32
ENDBRANCH  30  31
ENDBRANCH   1  30
TORSDOF 17
ENDMDL
MODEL 2
REMARK VINA RESULT:     -12.1      4.841     10.357
REMARK SMILES CS(=O)(=O)c1ccc(-c2cc(Cl)cnc2-c2ccc(C(=O)NCCCCNC(=O)c3ccc(-c4c5nc(c(-c6cccc(S(=O)(=O)[O-])c6F)c6ccc([nH]6)c(-c6cccc(S(=O)(=O)[O-])c6F)c6nc(c(-c7cccc(S(=O)(=O)[O-])c7F)c7ccc4[nH]7)C=C6)C=C5)cc3)nc2)cc1
REMARK SMILES IDX 24 1 23 2 22 3 20 4 21 5 19 7 16 8 17 9 94 10 18 11 93 12
REMARK SMILES IDX 15 13 9 14 10 15 11 16 14 17 12 18 13 19 8 20 5 21 6 22
REMARK SMILES IDX 96 23 7 24 95 25 2 26 1 27 3 28 4 29 25 30 26 31 27 32 28 33
REMARK SMILES IDX 29 35 30 36 31 37 92 38 32 39 91 40 33 41 34 42 35 43 85 44
REMARK SMILES IDX 36 45 90 46 84 47 86 48 37 49 89 50 83 51 82 52 38 54 70 55
REMARK SMILES IDX 50 56 69 57 51 58 54 59 68 60 87 61 52 62 53 63 67 65 88 66
REMARK SMILES IDX 55 67 39 68 40 69 48 70 41 71 43 72 49 73 42 74 44 75 45 76
REMARK SMILES IDX 46 77 47 78 71 79 72 80 80 81 73 82 75 83 81 84 74 85 76 86
REMARK SMILES IDX 77 87 78 88 79 89 56 90 57 91 65 92 58 93 60 94 66 95 59 96
REMARK SMILES IDX 61 97 62 98 63 99 64 100
REMARK H PARENT 22 6 27 34 86 53 54 64
REMARK Flexibility Score: inf
ROOT
ATOM      1  C   UNL A   1      31.039  29.204  24.453  1.00  0.00     0.023 C 
ENDROOT
BRANCH   1   2
ATOM      2  C   UNL A   1      31.148  28.349  23.189  1.00  0.00     0.116 C 
BRANCH   2   3
ATOM      3  N   UNL A   1      32.423  28.554  22.530  1.00  0.00    -0.351 N 
ATOM      4  C   UNL A   1      33.508  27.730  22.321  1.00  0.00     0.269 C 
ATOM      5  O   UNL A   1      34.432  28.196  21.651  1.00  0.00    -0.268 OA
ATOM      6  H   UNL A   1      32.535  29.458  22.159  1.00  0.00     0.163 HD
BRANCH   4   7
ATOM      7  C   UNL A   1      33.593  26.309  22.817  1.00  0.00     0.128 A 
ATOM      8  C   UNL A   1      33.596  23.619  23.501  1.00  0.00     0.019 A 
ATOM      9  C   UNL A   1      33.593  24.596  24.499  1.00  0.00     0.014 A 
ATOM     10  C   UNL A   1      33.685  24.069  22.190  1.00  0.00     0.122 A 
ATOM     11  C   UNL A   1      33.618  25.949  24.157  1.00  0.00     0.035 A 
ATOM     12  N   UNL A   1      33.651  25.372  21.830  1.00  0.00    -0.250 NA
BRANCH   8  13
ATOM     13  C   UNL A   1      33.433  22.201  23.817  1.00  0.00     0.080 A 
ATOM     14  C   UNL A   1      34.420  21.467  24.514  1.00  0.00     0.010 A 
ATOM     15  C   UNL A   1      34.190  20.093  24.688  1.00  0.00     0.033 A 
ATOM     16  C   UNL A   1      33.025  19.513  24.196  1.00  0.00     0.060 A 
ATOM     17  N   UNL A   1      32.283  21.648  23.348  1.00  0.00    -0.254 NA
ATOM     18  Cl  UNL A   1      32.739  17.833  24.388  1.00  0.00    -0.083 Cl
ATOM     19  C   UNL A   1      32.109  20.321  23.545  1.00  0.00     0.132 A 
BRANCH  14  20
ATOM     20  C   UNL A   1      35.653  22.086  25.035  1.00  0.00    -0.016 A 
ATOM     21  C   UNL A   1      38.003  23.196  26.116  1.00  0.00     0.067 A 
ATOM     22  C   UNL A   1      38.094  22.142  25.210  1.00  0.00     0.021 A 
ATOM     23  C   UNL A   1      36.755  23.711  26.478  1.00  0.00     0.021 A 
ATOM     24  C   UNL A   1      36.922  21.599  24.670  1.00  0.00     0.010 A 
ATOM     25  C   UNL A   1      35.589  23.160  25.937  1.00  0.00     0.010 A 
BRANCH  21  26
ATOM     26  S   UNL A   1      39.453  23.916  26.852  1.00  0.00     0.175 S 
ATOM     27  C   UNL A   1      38.912  24.831  28.269  1.00  0.00     0.163 C 
ATOM     28  O   UNL A   1      39.965  24.877  25.895  1.00  0.00    -0.224 OA
ATOM     29  O   UNL A   1      40.267  22.804  27.309  1.00  0.00    -0.224 OA
ENDBRANCH  21  26
ENDBRANCH  14  20
ENDBRANCH   8  13
ENDBRANCH   4   7
ENDBRANCH   2   3
ENDBRANCH   1   2
BRANCH   1  30
ATOM     30  C   UNL A   1      31.893  28.717  25.627  1.00  0.00     0.023 C 
BRANCH  30  31
ATOM     31  C   UNL A   1      33.140  29.548  25.916  1.00  0.00     0.116 C 
BRANCH  31  32
ATOM     32  N   UNL A   1      32.846  30.883  26.418  1.00  0.00    -0.352 N 
ATOM     33  C   UNL A   1      33.578  31.641  27.302  1.00  0.00     0.251 C 
ATOM     34  H   UNL A   1      32.017  31.296  26.082  1.00  0.00     0.163 HD
ATOM     35  O   UNL A   1      33.148  32.716  27.705  1.00  0.00    -0.269 OA
BRANCH  33  36
ATOM     36  C   UNL A   1      34.868  31.117  27.793  1.00  0.00     0.039 A 
ATOM     37  C   UNL A   1      35.924  32.009  27.996  1.00  0.00     0.014 A 
ATOM     38  C   UNL A   1      35.003  29.767  28.125  1.00  0.00     0.014 A 
ATOM     39  C   UNL A   1      37.090  31.561  28.618  1.00  0.00     0.010 A 
ATOM     40  C   UNL A   1      36.140  29.337  28.801  1.00  0.00     0.010 A 
ATOM     41  C   UNL A   1      37.187  30.233  29.069  1.00  0.00    -0.014 A 
BRANCH  41  42
ATOM     42  C   UNL A   1      38.342  29.777  29.881  1.00  0.00     0.031 A 
ATOM     43  C   UNL A   1      38.499  30.232  31.305  1.00  0.00     0.074 A 
ATOM     44  C   UNL A   1      39.311  29.047  29.294  1.00  0.00     0.049 A 
ATOM     45  N   UNL A   1      39.478  29.999  32.139  1.00  0.00    -0.248 NA
ATOM     46  C   UNL A   1      37.431  31.083  31.856  1.00  0.00     0.031 C 
ATOM     47  C   UNL A   1      39.316  28.622  27.892  1.00  0.00     0.029 A 
ATOM     48  N   UNL A   1      40.495  28.561  29.791  1.00  0.00    -0.354 N 
ATOM     49  C   UNL A   1      39.165  30.698  33.297  1.00  0.00     0.074 A 
ATOM     50  C   UNL A   1      37.917  31.387  33.050  1.00  0.00     0.031 C 
ATOM     51  C   UNL A   1      40.449  27.945  27.641  1.00  0.00     0.029 A 
ATOM     52  C   UNL A   1      41.261  27.909  28.853  1.00  0.00     0.049 A 
ATOM     53  H   UNL A   1      40.770  28.670  30.729  1.00  0.00     0.167 HD
ATOM     54  C   UNL A   1      39.840  30.738  34.470  1.00  0.00     0.034 A 
ATOM     55  C   UNL A   1      42.485  27.354  28.952  1.00  0.00     0.034 A 
ATOM     56  C   UNL A   1      41.054  30.012  34.727  1.00  0.00     0.049 A 
ATOM     57  C   UNL A   1      43.192  27.378  30.280  1.00  0.00     0.074 A 
ATOM     58  C   UNL A   1      41.754  29.900  35.916  1.00  0.00     0.029 A 
ATOM     59  N   UNL A   1      41.756  29.284  33.780  1.00  0.00    -0.354 N 
ATOM     60  N   UNL A   1      42.789  27.888  31.418  1.00  0.00    -0.248 NA
ATOM     61  C   UNL A   1      44.506  26.722  30.347  1.00  0.00     0.031 C 
ATOM     62  C   UNL A   1      42.890  29.119  35.683  1.00  0.00     0.029 A 
ATOM     63  C   UNL A   1      42.890  28.731  34.352  1.00  0.00     0.049 A 
ATOM     64  H   UNL A   1      41.489  29.176  32.838  1.00  0.00     0.167 HD
ATOM     65  C   UNL A   1      43.785  27.592  32.341  1.00  0.00     0.074 A 
ATOM     66  C   UNL A   1      44.798  26.834  31.636  1.00  0.00     0.031 C 
ATOM     67  C   UNL A   1      43.864  27.936  33.651  1.00  0.00     0.034 A 
BRANCH  54  68
ATOM     68  C   UNL A   1      39.246  31.546  35.593  1.00  0.00     0.023 A 
ATOM     69  C   UNL A   1      38.291  30.950  36.442  1.00  0.00     0.012 A 
ATOM     70  C   UNL A   1      39.678  32.860  35.853  1.00  0.00     0.148 A 
ATOM     71  C   UNL A   1      37.753  31.659  37.515  1.00  0.00     0.002 A 
ATOM     72  C   UNL A   1      39.167  33.547  36.949  1.00  0.00     0.091 A 
ATOM     73  F   UNL A   1      40.570  33.417  35.021  1.00  0.00    -0.205 F 
ATOM     74  C   UNL A   1      38.199  32.952  37.774  1.00  0.00     0.022 A 
BRANCH  72  75
ATOM     75  S   UNL A   1      39.730  35.189  37.412  1.00  0.00     0.127 S 
ATOM     76  O   UNL A   1      39.402  35.961  36.213  1.00  0.00    -0.237 OA
ATOM     77  O   UNL A   1      38.894  35.486  38.576  1.00  0.00    -0.237 OA
ATOM     78  O   UNL A   1      41.151  35.060  37.702  1.00  0.00    -0.744 OA
ENDBRANCH  72  75
ENDBRANCH  54  68
BRANCH  55  79
ATOM     79  C   UNL A   1      43.092  26.673  27.774  1.00  0.00     0.023 A 
ATOM     80  C   UNL A   1      43.752  27.441  26.796  1.00  0.00     0.012 A 
ATOM     81  C   UNL A   1      43.047  25.272  27.630  1.00  0.00     0.148 A 
ATOM     82  C   UNL A   1      44.329  26.833  25.682  1.00  0.00     0.002 A 
ATOM     83  C   UNL A   1      43.672  24.667  26.545  1.00  0.00     0.091 A 
ATOM     84  F   UNL A   1      42.400  24.557  28.563  1.00  0.00    -0.205 F 
ATOM     85  C   UNL A   1      44.299  25.446  25.561  1.00  0.00     0.022 A 
BRANCH  83  86
ATOM     86  S   UNL A   1      43.797  22.883  26.386  1.00  0.00     0.127 S 
ATOM     87  O   UNL A   1      45.221  22.704  26.119  1.00  0.00    -0.237 OA
ATOM     88  O   UNL A   1      43.355  22.427  27.706  1.00  0.00    -0.237 OA
ATOM     89  O   UNL A   1      42.894  22.526  25.300  1.00  0.00    -0.744 OA
ENDBRANCH  83  86
ENDBRANCH  55  79
BRANCH  67  90
ATOM     90  C   UNL A   1      45.079  27.485  34.418  1.00  0.00     0.023 A 
ATOM     91  C   UNL A   1      46.177  28.356  34.554  1.00  0.00     0.012 A 
ATOM     92  C   UNL A   1      45.101  26.236  35.068  1.00  0.00     0.148 A 
ATOM     93  C   UNL A   1      47.290  27.982  35.305  1.00  0.00     0.002 A 
ATOM     94  C   UNL A   1      46.194  25.887  35.851  1.00  0.00     0.091 A 
ATOM     95  F   UNL A   1      44.054  25.413  34.910  1.00  0.00    -0.205 F 
ATOM     96  C   UNL A   1      47.295  26.754  35.962  1.00  0.00     0.022 A 
BRANCH  94  97
ATOM     97  S   UNL A   1      46.248  24.368  36.809  1.00  0.00     0.127 S 
ATOM     98  O   UNL A   1      46.787  23.420  35.834  1.00  0.00    -0.237 OA
ATOM     99  O   UNL A   1      47.168  24.715  37.893  1.00  0.00    -0.237 OA
ATOM    100  O   UNL A   1      44.880  24.114  37.237  1.00  0.00    -0.744 OA
ENDBRANCH  94  97
ENDBRANCH  67  90
ENDBRANCH  41  42
ENDBRANCH  33  36
ENDBRANCH  31  32
ENDBRANCH  30  31
ENDBRANCH   1  30
TORSDOF 17
ENDMDL
MODEL 3
REMARK VINA RESULT:     -12.0      5.286      8.542
REMARK SMILES CS(=O)(=O)c1ccc(-c2cc(Cl)cnc2-c2ccc(C(=O)NCCCCNC(=O)c3ccc(-c4c5nc(c(-c6cccc(S(=O)(=O)[O-])c6F)c6ccc([nH]6)c(-c6cccc(S(=O)(=O)[O-])c6F)c6nc(c(-c7cccc(S(=O)(=O)[O-])c7F)c7ccc4[nH]7)C=C6)C=C5)cc3)nc2)cc1
REMARK SMILES IDX 24 1 23 2 22 3 20 4 21 5 19 7 16 8 17 9 94 10 18 11 93 12
REMARK SMILES IDX 15 13 9 14 10 15 11 16 14 17 12 18 13 19 8 20 5 21 6 22
REMARK SMILES IDX 96 23 7 24 95 25 2 26 1 27 3 28 4 29 25 30 26 31 27 32 28 33
REMARK SMILES IDX 29 35 30 36 31 37 92 38 32 39 91 40 33 41 34 42 35 43 85 44
REMARK SMILES IDX 36 45 90 46 84 47 86 48 37 49 89 50 83 51 82 52 38 54 70 55
REMARK SMILES IDX 50 56 69 57 51 58 54 59 68 60 87 61 52 62 53 63 67 65 88 66
REMARK SMILES IDX 55 67 39 68 40 69 48 70 41 71 43 72 49 73 42 74 44 75 45 76
REMARK SMILES IDX 46 77 47 78 71 79 72 80 80 81 73 82 75 83 81 84 74 85 76 86
REMARK SMILES IDX 77 87 78 88 79 89 56 90 57 91 65 92 58 93 60 94 66 95 59 96
REMARK SMILES IDX 61 97 62 98 63 99 64 100
REMARK H PARENT 22 6 27 34 86 53 54 64
REMARK Flexibility Score: inf
ROOT
ATOM      1  C   UNL A   1      31.789  27.800  25.713  1.00  0.00     0.023 C 
ENDROOT
BRANCH   1   2
ATOM      2  C   UNL A   1      30.913  26.719  26.349  1.00  0.00     0.116 C 
BRANCH   2   3
ATOM      3  N   UNL A   1      30.566  25.695  25.383  1.00  0.00    -0.351 N 
ATOM      4  C   UNL A   1      31.262  24.622  24.870  1.00  0.00     0.269 C 
ATOM      5  O   UNL A   1      30.645  23.886  24.097  1.00  0.00    -0.268 OA
ATOM      6  H   UNL A   1      29.653  25.784  25.025  1.00  0.00     0.163 HD
BRANCH   4   7
ATOM      7  C   UNL A   1      32.685  24.289  25.238  1.00  0.00     0.128 A 
ATOM      8  C   UNL A   1      35.344  23.606  25.642  1.00  0.00     0.019 A 
ATOM      9  C   UNL A   1      34.406  23.401  26.655  1.00  0.00     0.014 A 
ATOM     10  C   UNL A   1      34.889  24.236  24.491  1.00  0.00     0.122 A 
ATOM     11  C   UNL A   1      33.073  23.768  26.463  1.00  0.00     0.035 A 
ATOM     12  N   UNL A   1      33.594  24.548  24.257  1.00  0.00    -0.250 NA
BRANCH   8  13
ATOM     13  C   UNL A   1      36.715  23.111  25.755  1.00  0.00     0.080 A 
ATOM     14  C   UNL A   1      37.048  21.758  25.521  1.00  0.00     0.010 A 
ATOM     15  C   UNL A   1      38.383  21.381  25.740  1.00  0.00     0.033 A 
ATOM     16  C   UNL A   1      39.314  22.326  26.156  1.00  0.00     0.060 A 
ATOM     17  N   UNL A   1      37.622  24.047  26.143  1.00  0.00    -0.254 NA
ATOM     18  Cl  UNL A   1      40.945  21.875  26.442  1.00  0.00    -0.083 Cl
ATOM     19  C   UNL A   1      38.896  23.632  26.337  1.00  0.00     0.132 A 
BRANCH  14  20
ATOM     20  C   UNL A   1      36.057  20.759  25.079  1.00  0.00    -0.016 A 
ATOM     21  C   UNL A   1      34.136  18.838  24.341  1.00  0.00     0.067 A 
ATOM     22  C   UNL A   1      33.777  20.183  24.399  1.00  0.00     0.021 A 
ATOM     23  C   UNL A   1      35.444  18.443  24.634  1.00  0.00     0.021 A 
ATOM     24  C   UNL A   1      34.738  21.134  24.759  1.00  0.00     0.010 A 
ATOM     25  C   UNL A   1      36.397  19.399  24.998  1.00  0.00     0.010 A 
BRANCH  21  26
ATOM     26  S   UNL A   1      32.957  17.579  23.910  1.00  0.00     0.175 S 
ATOM     27  C   UNL A   1      33.711  16.018  24.275  1.00  0.00     0.163 C 
ATOM     28  O   UNL A   1      32.793  17.646  22.471  1.00  0.00    -0.224 OA
ATOM     29  O   UNL A   1      31.828  17.762  24.804  1.00  0.00    -0.224 OA
ENDBRANCH  21  26
ENDBRANCH  14  20
ENDBRANCH   8  13
ENDBRANCH   4   7
ENDBRANCH   2   3
ENDBRANCH   1   2
BRANCH   1  30
ATOM     30  C   UNL A   1      33.185  27.932  26.329  1.00  0.00     0.023 C 
BRANCH  30  31
ATOM     31  C   UNL A   1      33.989  29.146  25.872  1.00  0.00     0.116 C 
BRANCH  31  32
ATOM     32  N   UNL A   1      33.464  30.411  26.367  1.00  0.00    -0.352 N 
ATOM     33  C   UNL A   1      34.004  31.242  27.321  1.00  0.00     0.251 C 
ATOM     34  H   UNL A   1      32.614  30.710  25.969  1.00  0.00     0.163 HD
ATOM     35  O   UNL A   1      33.391  32.233  27.702  1.00  0.00    -0.269 OA
BRANCH  33  36
ATOM     36  C   UNL A   1      35.312  30.895  27.912  1.00  0.00     0.039 A 
ATOM     37  C   UNL A   1      36.305  31.875  27.972  1.00  0.00     0.014 A 
ATOM     38  C   UNL A   1      35.522  29.633  28.473  1.00  0.00     0.014 A 
ATOM     39  C   UNL A   1      37.482  31.617  28.677  1.00  0.00     0.010 A 
ATOM     40  C   UNL A   1      36.668  29.400  29.227  1.00  0.00     0.010 A 
ATOM     41  C   UNL A   1      37.650  30.395  29.351  1.00  0.00    -0.014 A 
BRANCH  41  42
ATOM     42  C   UNL A   1      38.812  30.162  30.244  1.00  0.00     0.031 A 
ATOM     43  C   UNL A   1      39.899  29.204  29.846  1.00  0.00     0.074 A 
ATOM     44  C   UNL A   1      38.823  30.727  31.468  1.00  0.00     0.049 A 
ATOM     45  N   UNL A   1      40.945  28.819  30.528  1.00  0.00    -0.248 NA
ATOM     46  C   UNL A   1      39.782  28.575  28.519  1.00  0.00     0.031 C 
ATOM     47  C   UNL A   1      37.778  31.602  32.004  1.00  0.00     0.029 A 
ATOM     48  N   UNL A   1      39.728  30.624  32.495  1.00  0.00    -0.354 N 
ATOM     49  C   UNL A   1      41.592  27.881  29.734  1.00  0.00     0.074 A 
ATOM     50  C   UNL A   1      40.806  27.733  28.528  1.00  0.00     0.031 C 
ATOM     51  C   UNL A   1      38.098  31.951  33.261  1.00  0.00     0.029 A 
ATOM     52  C   UNL A   1      39.354  31.306  33.630  1.00  0.00     0.049 A 
ATOM     53  H   UNL A   1      40.564  30.111  32.427  1.00  0.00     0.167 HD
ATOM     54  C   UNL A   1      42.752  27.224  29.973  1.00  0.00     0.034 A 
ATOM     55  C   UNL A   1      39.948  31.395  34.836  1.00  0.00     0.034 A 
ATOM     56  C   UNL A   1      43.555  27.411  31.151  1.00  0.00     0.049 A 
ATOM     57  C   UNL A   1      41.257  30.688  35.058  1.00  0.00     0.074 A 
ATOM     58  C   UNL A   1      44.799  26.876  31.436  1.00  0.00     0.029 A 
ATOM     59  N   UNL A   1      43.192  28.182  32.243  1.00  0.00    -0.354 N 
ATOM     60  N   UNL A   1      41.947  29.951  34.223  1.00  0.00    -0.248 NA
ATOM     61  C   UNL A   1      41.886  30.851  36.377  1.00  0.00     0.031 C 
ATOM     62  C   UNL A   1      45.180  27.309  32.710  1.00  0.00     0.029 A 
ATOM     63  C   UNL A   1      44.180  28.128  33.212  1.00  0.00     0.049 A 
ATOM     64  H   UNL A   1      42.354  28.695  32.319  1.00  0.00     0.167 HD
ATOM     65  C   UNL A   1      43.103  29.584  34.902  1.00  0.00     0.074 A 
ATOM     66  C   UNL A   1      43.033  30.203  36.210  1.00  0.00     0.031 C 
ATOM     67  C   UNL A   1      44.121  28.789  34.489  1.00  0.00     0.034 A 
BRANCH  54  68
ATOM     68  C   UNL A   1      43.259  26.287  28.910  1.00  0.00     0.023 A 
ATOM     69  C   UNL A   1      42.839  24.942  28.918  1.00  0.00     0.012 A 
ATOM     70  C   UNL A   1      44.087  26.747  27.869  1.00  0.00     0.148 A 
ATOM     71  C   UNL A   1      43.259  24.060  27.922  1.00  0.00     0.002 A 
ATOM     72  C   UNL A   1      44.470  25.872  26.858  1.00  0.00     0.091 A 
ATOM     73  F   UNL A   1      44.494  28.024  27.891  1.00  0.00    -0.205 F 
ATOM     74  C   UNL A   1      44.064  24.528  26.888  1.00  0.00     0.022 A 
BRANCH  72  75
ATOM     75  S   UNL A   1      45.445  26.394  25.442  1.00  0.00     0.127 S 
ATOM     76  O   UNL A   1      44.599  27.445  24.875  1.00  0.00    -0.237 OA
ATOM     77  O   UNL A   1      46.674  26.876  26.074  1.00  0.00    -0.237 OA
ATOM     78  O   UNL A   1      45.613  25.210  24.611  1.00  0.00    -0.744 OA
ENDBRANCH  72  75
ENDBRANCH  54  68
BRANCH  55  79
ATOM     79  C   UNL A   1      39.342  32.236  35.906  1.00  0.00     0.023 A 
ATOM     80  C   UNL A   1      38.327  31.695  36.718  1.00  0.00     0.012 A 
ATOM     81  C   UNL A   1      39.781  33.554  36.143  1.00  0.00     0.148 A 
ATOM     82  C   UNL A   1      37.739  32.457  37.726  1.00  0.00     0.002 A 
ATOM     83  C   UNL A   1      39.228  34.290  37.186  1.00  0.00     0.091 A 
ATOM     84  F   UNL A   1      40.736  34.059  35.350  1.00  0.00    -0.205 F 
ATOM     85  C   UNL A   1      38.196  33.750  37.968  1.00  0.00     0.022 A 
BRANCH  83  86
ATOM     86  S   UNL A   1      39.853  35.908  37.650  1.00  0.00     0.127 S 
ATOM     87  O   UNL A   1      38.982  36.257  38.768  1.00  0.00    -0.237 OA
ATOM     88  O   UNL A   1      41.238  35.607  38.018  1.00  0.00    -0.237 OA
ATOM     89  O   UNL A   1      39.720  36.732  36.456  1.00  0.00    -0.744 OA
ENDBRANCH  83  86
ENDBRANCH  55  79
BRANCH  67  90
ATOM     90  C   UNL A   1      45.254  28.550  35.452  1.00  0.00     0.023 A 
ATOM     91  C   UNL A   1      46.293  29.495  35.550  1.00  0.00     0.012 A 
ATOM     92  C   UNL A   1      45.248  27.434  36.311  1.00  0.00     0.148 A 
ATOM     93  C   UNL A   1      47.324  29.323  36.472  1.00  0.00     0.002 A 
ATOM     94  C   UNL A   1      46.256  27.291  37.259  1.00  0.00     0.091 A 
ATOM     95  F   UNL A   1      44.261  26.535  36.189  1.00  0.00    -0.205 F 
ATOM     96  C   UNL A   1      47.300  28.228  37.333  1.00  0.00     0.022 A 
BRANCH  94  97
ATOM     97  S   UNL A   1      46.257  25.964  38.470  1.00  0.00     0.127 S 
ATOM     98  O   UNL A   1      44.992  26.196  39.167  1.00  0.00    -0.237 OA
ATOM     99  O   UNL A   1      46.277  24.770  37.624  1.00  0.00    -0.237 OA
ATOM    100  O   UNL A   1      47.457  26.155  39.273  1.00  0.00    -0.744 OA
ENDBRANCH  94  97
ENDBRANCH  67  90
ENDBRANCH  41  42
ENDBRANCH  33  36
ENDBRANCH  31  32
ENDBRANCH  30  31
ENDBRANCH   1  30
TORSDOF 17
ENDMDL
