MODEL 1
REMARK VINA RESULT:     -12.4      0.000      0.000
REMARK SMILES O=C(Cc1cn2ccsc2n1)N[C@@H]1C=C[C@H](C(=O)NCCCCNC(=O)c2ccc(-c3c4nc(c(-c5cccc(S(=O)(=O)[O-])c5F)c5ccc([nH]5)c(-c5cccc(S(=O)(=O)[O-])c5F)c5nc(c(-c6cccc(S(=O)(=O)[O-])c6F)c6ccc3[nH]6)C=C5)C=C4)cc2)C1
REMARK SMILES IDX 21 1 20 2 19 3 17 4 18 5 16 7 13 8 14 9 90 10 15 11 12 12
REMARK SMILES IDX 1 13 2 14 3 16 4 17 5 18 11 19 6 20 10 21 7 22 9 23 8 24
REMARK SMILES IDX 22 25 23 26 24 27 25 28 26 30 27 31 28 32 89 33 29 34 88 35
REMARK SMILES IDX 30 36 31 37 32 38 82 39 33 40 87 41 81 42 83 43 34 44 86 45
REMARK SMILES IDX 80 46 79 47 35 49 67 50 47 51 66 52 48 53 51 54 65 55 84 56
REMARK SMILES IDX 49 57 50 58 64 60 85 61 52 62 36 63 37 64 45 65 38 66 40 67
REMARK SMILES IDX 46 68 39 69 41 70 42 71 43 72 44 73 68 74 69 75 77 76 70 77
REMARK SMILES IDX 72 78 78 79 71 80 73 81 74 82 75 83 76 84 53 85 54 86 62 87
REMARK SMILES IDX 55 88 57 89 63 90 56 91 58 92 59 93 60 94 61 95
REMARK H PARENT 19 6 12 15 24 29 83 48 51 59
REMARK Flexibility Score: inf
ROOT
ATOM      1  C   UNL A   1      31.789  30.576  26.270  1.00  0.00     0.023 C 
ENDROOT
BRANCH   1   2
ATOM      2  C   UNL A   1      32.335  29.587  27.303  1.00  0.00     0.116 C 
BRANCH   2   3
ATOM      3  N   UNL A   1      31.599  28.340  27.265  1.00  0.00    -0.356 N 
ATOM      4  C   UNL A   1      31.641  27.320  26.359  1.00  0.00     0.227 C 
ATOM      5  O   UNL A   1      30.844  26.393  26.525  1.00  0.00    -0.274 OA
ATOM      6  H   UNL A   1      30.969  28.206  28.009  1.00  0.00     0.163 HD
BRANCH   4   7
ATOM      7  C   UNL A   1      32.724  27.293  25.267  1.00  0.00     0.103 C 
ATOM      8  C   UNL A   1      33.241  25.110  24.238  1.00  0.00     0.106 C 
ATOM      9  C   UNL A   1      34.254  25.493  25.261  1.00  0.00    -0.006 C 
ATOM     10  C   UNL A   1      32.446  26.405  24.047  1.00  0.00     0.047 C 
ATOM     11  C   UNL A   1      33.995  26.688  25.802  1.00  0.00    -0.016 C 
BRANCH   8  12
ATOM     12  N   UNL A   1      32.433  24.031  24.744  1.00  0.00    -0.350 N 
ATOM     13  O   UNL A   1      33.716  22.411  23.758  1.00  0.00    -0.275 OA
ATOM     14  C   UNL A   1      32.784  22.718  24.502  1.00  0.00     0.226 C 
ATOM     15  H   UNL A   1      31.624  24.233  25.268  1.00  0.00     0.164 HD
BRANCH  14  16
ATOM     16  C   UNL A   1      31.872  21.673  25.115  1.00  0.00     0.157 C 
BRANCH  16  17
ATOM     17  C   UNL A   1      32.267  20.272  24.791  1.00  0.00     0.070 A 
ATOM     18  C   UNL A   1      32.477  19.720  23.530  1.00  0.00     0.118 A 
ATOM     19  N   UNL A   1      32.503  19.334  25.787  1.00  0.00    -0.223 NA
ATOM     20  N   UNL A   1      32.838  18.430  23.775  1.00  0.00    -0.297 N 
ATOM     21  C   UNL A   1      32.836  18.262  25.126  1.00  0.00     0.193 A 
ATOM     22  C   UNL A   1      33.181  17.322  23.038  1.00  0.00     0.104 A 
ATOM     23  S   UNL A   1      33.280  16.640  25.555  1.00  0.00    -0.105 S 
ATOM     24  C   UNL A   1      33.450  16.268  23.829  1.00  0.00     0.087 A 
ENDBRANCH  16  17
ENDBRANCH  14  16
ENDBRANCH   8  12
ENDBRANCH   4   7
ENDBRANCH   2   3
ENDBRANCH   1   2
BRANCH   1  25
ATOM     25  C   UNL A   1      31.513  31.980  26.812  1.00  0.00     0.023 C 
BRANCH  25  26
ATOM     26  C   UNL A   1      32.722  32.694  27.400  1.00  0.00     0.116 C 
BRANCH  26  27
ATOM     27  N   UNL A   1      32.469  34.099  27.683  1.00  0.00    -0.352 N 
ATOM     28  C   UNL A   1      33.075  34.911  28.612  1.00  0.00     0.251 C 
ATOM     29  H   UNL A   1      31.769  34.525  27.136  1.00  0.00     0.163 HD
ATOM     30  O   UNL A   1      32.651  36.047  28.807  1.00  0.00    -0.269 OA
BRANCH  28  31
ATOM     31  C   UNL A   1      34.220  34.398  29.392  1.00  0.00     0.039 A 
ATOM     32  C   UNL A   1      33.974  33.718  30.588  1.00  0.00     0.014 A 
ATOM     33  C   UNL A   1      35.528  34.563  28.931  1.00  0.00     0.014 A 
ATOM     34  C   UNL A   1      35.040  33.153  31.291  1.00  0.00     0.010 A 
ATOM     35  C   UNL A   1      36.577  33.931  29.589  1.00  0.00     0.010 A 
ATOM     36  C   UNL A   1      36.345  33.229  30.782  1.00  0.00    -0.014 A 
BRANCH  36  37
ATOM     37  C   UNL A   1      37.488  32.587  31.478  1.00  0.00     0.031 A 
ATOM     38  C   UNL A   1      38.220  31.444  30.831  1.00  0.00     0.074 A 
ATOM     39  C   UNL A   1      37.809  32.971  32.730  1.00  0.00     0.049 A 
ATOM     40  N   UNL A   1      39.205  30.722  31.298  1.00  0.00    -0.248 NA
ATOM     41  C   UNL A   1      37.764  31.038  29.491  1.00  0.00     0.031 C 
ATOM     42  C   UNL A   1      37.129  34.017  33.496  1.00  0.00     0.029 A 
ATOM     43  N   UNL A   1      38.778  32.510  33.585  1.00  0.00    -0.354 N 
ATOM     44  C   UNL A   1      39.459  29.756  30.332  1.00  0.00     0.074 A 
ATOM     45  C   UNL A   1      38.496  29.957  29.272  1.00  0.00     0.031 C 
ATOM     46  C   UNL A   1      37.714  34.133  34.698  1.00  0.00     0.029 A 
ATOM     47  C   UNL A   1      38.789  33.151  34.802  1.00  0.00     0.049 A 
ATOM     48  H   UNL A   1      39.405  31.790  33.351  1.00  0.00     0.167 HD
ATOM     49  C   UNL A   1      40.428  28.810  30.308  1.00  0.00     0.034 A 
ATOM     50  C   UNL A   1      39.581  32.972  35.877  1.00  0.00     0.034 A 
ATOM     51  C   UNL A   1      41.411  28.644  31.344  1.00  0.00     0.049 A 
ATOM     52  C   UNL A   1      40.669  31.935  35.818  1.00  0.00     0.074 A 
ATOM     53  C   UNL A   1      42.488  27.776  31.379  1.00  0.00     0.029 A 
ATOM     54  N   UNL A   1      41.434  29.358  32.533  1.00  0.00    -0.354 N 
ATOM     55  N   UNL A   1      40.995  31.134  34.832  1.00  0.00    -0.248 NA
ATOM     56  C   UNL A   1      41.522  31.800  37.008  1.00  0.00     0.031 C 
ATOM     57  C   UNL A   1      43.151  27.953  32.599  1.00  0.00     0.029 A 
ATOM     58  C   UNL A   1      42.500  28.947  33.315  1.00  0.00     0.049 A 
ATOM     59  H   UNL A   1      40.787  30.056  32.785  1.00  0.00     0.167 HD
ATOM     60  C   UNL A   1      42.115  30.432  35.264  1.00  0.00     0.074 A 
ATOM     61  C   UNL A   1      42.417  30.911  36.597  1.00  0.00     0.031 C 
ATOM     62  C   UNL A   1      42.822  29.470  34.619  1.00  0.00     0.034 A 
BRANCH  49  63
ATOM     63  C   UNL A   1      40.495  27.920  29.094  1.00  0.00     0.023 A 
ATOM     64  C   UNL A   1      39.603  26.832  28.980  1.00  0.00     0.012 A 
ATOM     65  C   UNL A   1      41.424  28.159  28.064  1.00  0.00     0.148 A 
ATOM     66  C   UNL A   1      39.670  25.966  27.889  1.00  0.00     0.002 A 
ATOM     67  C   UNL A   1      41.453  27.319  26.955  1.00  0.00     0.091 A 
ATOM     68  F   UNL A   1      42.281  29.181  28.195  1.00  0.00    -0.205 F 
ATOM     69  C   UNL A   1      40.589  26.214  26.874  1.00  0.00     0.022 A 
BRANCH  67  70
ATOM     70  S   UNL A   1      42.548  27.608  25.560  1.00  0.00     0.127 S 
ATOM     71  O   UNL A   1      42.302  26.424  24.740  1.00  0.00    -0.237 OA
ATOM     72  O   UNL A   1      42.023  28.856  25.004  1.00  0.00    -0.237 OA
ATOM     73  O   UNL A   1      43.885  27.719  26.128  1.00  0.00    -0.744 OA
ENDBRANCH  67  70
ENDBRANCH  49  63
BRANCH  50  74
ATOM     74  C   UNL A   1      39.439  33.869  37.059  1.00  0.00     0.023 A 
ATOM     75  C   UNL A   1      39.851  35.213  36.946  1.00  0.00     0.012 A 
ATOM     76  C   UNL A   1      38.863  33.426  38.265  1.00  0.00     0.148 A 
ATOM     77  C   UNL A   1      39.714  36.092  38.020  1.00  0.00     0.002 A 
ATOM     78  C   UNL A   1      38.683  34.321  39.314  1.00  0.00     0.091 A 
ATOM     79  F   UNL A   1      38.482  32.144  38.352  1.00  0.00    -0.205 F 
ATOM     80  C   UNL A   1      39.121  35.650  39.199  1.00  0.00     0.022 A 
BRANCH  78  81
ATOM     81  S   UNL A   1      37.821  33.880  40.828  1.00  0.00     0.127 S 
ATOM     82  O   UNL A   1      37.690  35.178  41.486  1.00  0.00    -0.237 OA
ATOM     83  O   UNL A   1      36.571  33.324  40.310  1.00  0.00    -0.237 OA
ATOM     84  O   UNL A   1      38.676  32.916  41.504  1.00  0.00    -0.744 OA
ENDBRANCH  78  81
ENDBRANCH  50  74
BRANCH  62  85
ATOM     85  C   UNL A   1      44.020  28.892  35.325  1.00  0.00     0.023 A 
ATOM     86  C   UNL A   1      45.297  29.446  35.111  1.00  0.00     0.012 A 
ATOM     87  C   UNL A   1      43.866  27.848  36.260  1.00  0.00     0.148 A 
ATOM     88  C   UNL A   1      46.408  28.950  35.793  1.00  0.00     0.002 A 
ATOM     89  C   UNL A   1      44.969  27.392  36.972  1.00  0.00     0.091 A 
ATOM     90  F   UNL A   1      42.646  27.320  36.435  1.00  0.00    -0.205 F 
ATOM     91  C   UNL A   1      46.242  27.935  36.731  1.00  0.00     0.022 A 
BRANCH  89  92
ATOM     92  S   UNL A   1      44.834  26.157  38.268  1.00  0.00     0.127 S 
ATOM     93  O   UNL A   1      44.229  25.036  37.550  1.00  0.00    -0.237 OA
ATOM     94  O   UNL A   1      46.231  25.953  38.653  1.00  0.00    -0.237 OA
ATOM     95  O   UNL A   1      44.005  26.756  39.307  1.00  0.00    -0.744 OA
ENDBRANCH  89  92
ENDBRANCH  62  85
ENDBRANCH  36  37
ENDBRANCH  28  31
ENDBRANCH  26  27
ENDBRANCH  25  26
ENDBRANCH   1  25
TORSDOF 17
ENDMDL
MODEL 2
REMARK VINA RESULT:     -12.2      2.158      8.033
REMARK SMILES O=C(Cc1cn2ccsc2n1)N[C@@H]1C=C[C@H](C(=O)NCCCCNC(=O)c2ccc(-c3c4nc(c(-c5cccc(S(=O)(=O)[O-])c5F)c5ccc([nH]5)c(-c5cccc(S(=O)(=O)[O-])c5F)c5nc(c(-c6cccc(S(=O)(=O)[O-])c6F)c6ccc3[nH]6)C=C5)C=C4)cc2)C1
REMARK SMILES IDX 21 1 20 2 19 3 17 4 18 5 16 7 13 8 14 9 90 10 15 11 12 12
REMARK SMILES IDX 1 13 2 14 3 16 4 17 5 18 11 19 6 20 10 21 7 22 9 23 8 24
REMARK SMILES IDX 22 25 23 26 24 27 25 28 26 30 27 31 28 32 89 33 29 34 88 35
REMARK SMILES IDX 30 36 31 37 32 38 82 39 33 40 87 41 81 42 83 43 34 44 86 45
REMARK SMILES IDX 80 46 79 47 35 49 67 50 47 51 66 52 48 53 51 54 65 55 84 56
REMARK SMILES IDX 49 57 50 58 64 60 85 61 52 62 36 63 37 64 45 65 38 66 40 67
REMARK SMILES IDX 46 68 39 69 41 70 42 71 43 72 44 73 68 74 69 75 77 76 70 77
REMARK SMILES IDX 72 78 78 79 71 80 73 81 74 82 75 83 76 84 53 85 54 86 62 87
REMARK SMILES IDX 55 88 57 89 63 90 56 91 58 92 59 93 60 94 61 95
REMARK H PARENT 19 6 12 15 24 29 83 48 51 59
REMARK Flexibility Score: inf
ROOT
ATOM      1  C   UNL A   1      33.206  29.335  24.550  1.00  0.00     0.023 C 
ENDROOT
BRANCH   1   2
ATOM      2  C   UNL A   1      33.573  27.861  24.353  1.00  0.00     0.116 C 
BRANCH   2   3
ATOM      3  N   UNL A   1      32.509  27.149  23.676  1.00  0.00    -0.356 N 
ATOM      4  C   UNL A   1      31.640  26.209  24.148  1.00  0.00     0.227 C 
ATOM      5  O   UNL A   1      30.868  25.701  23.330  1.00  0.00    -0.274 OA
ATOM      6  H   UNL A   1      32.394  27.379  22.727  1.00  0.00     0.163 HD
BRANCH   4   7
ATOM      7  C   UNL A   1      31.562  25.907  25.654  1.00  0.00     0.103 C 
ATOM      8  C   UNL A   1      31.663  23.538  26.342  1.00  0.00     0.106 C 
ATOM      9  C   UNL A   1      30.267  24.058  26.353  1.00  0.00    -0.006 C 
ATOM     10  C   UNL A   1      32.498  24.813  26.183  1.00  0.00     0.047 C 
ATOM     11  C   UNL A   1      30.209  25.349  26.009  1.00  0.00    -0.016 C 
BRANCH   8  12
ATOM     12  N   UNL A   1      31.826  22.626  25.239  1.00  0.00    -0.350 N 
ATOM     13  O   UNL A   1      33.228  21.238  26.401  1.00  0.00    -0.275 OA
ATOM     14  C   UNL A   1      32.577  21.477  25.383  1.00  0.00     0.226 C 
ATOM     15  H   UNL A   1      31.396  22.825  24.375  1.00  0.00     0.164 HD
BRANCH  14  16
ATOM     16  C   UNL A   1      32.646  20.583  24.161  1.00  0.00     0.157 C 
BRANCH  16  17
ATOM     17  C   UNL A   1      32.995  19.167  24.475  1.00  0.00     0.070 A 
ATOM     18  C   UNL A   1      34.238  18.553  24.352  1.00  0.00     0.118 A 
ATOM     19  N   UNL A   1      32.053  18.281  24.982  1.00  0.00    -0.223 NA
ATOM     20  N   UNL A   1      34.035  17.278  24.783  1.00  0.00    -0.297 N 
ATOM     21  C   UNL A   1      32.727  17.177  25.142  1.00  0.00     0.193 A 
ATOM     22  C   UNL A   1      34.783  16.134  24.934  1.00  0.00     0.104 A 
ATOM     23  S   UNL A   1      32.353  15.580  25.708  1.00  0.00    -0.105 S 
ATOM     24  C   UNL A   1      34.042  15.122  25.418  1.00  0.00     0.087 A 
ENDBRANCH  16  17
ENDBRANCH  14  16
ENDBRANCH   8  12
ENDBRANCH   4   7
ENDBRANCH   2   3
ENDBRANCH   1   2
BRANCH   1  25
ATOM     25  C   UNL A   1      31.921  29.572  25.346  1.00  0.00     0.023 C 
BRANCH  25  26
ATOM     26  C   UNL A   1      32.124  30.129  26.748  1.00  0.00     0.116 C 
BRANCH  26  27
ATOM     27  N   UNL A   1      32.117  31.583  26.788  1.00  0.00    -0.352 N 
ATOM     28  C   UNL A   1      33.037  32.432  27.355  1.00  0.00     0.251 C 
ATOM     29  H   UNL A   1      31.349  32.018  26.349  1.00  0.00     0.163 HD
ATOM     30  O   UNL A   1      32.812  33.638  27.408  1.00  0.00    -0.269 OA
BRANCH  28  31
ATOM     31  C   UNL A   1      34.282  31.879  27.927  1.00  0.00     0.039 A 
ATOM     32  C   UNL A   1      35.347  32.744  28.193  1.00  0.00     0.014 A 
ATOM     33  C   UNL A   1      34.388  30.518  28.222  1.00  0.00     0.014 A 
ATOM     34  C   UNL A   1      36.498  32.251  28.812  1.00  0.00     0.010 A 
ATOM     35  C   UNL A   1      35.500  30.046  28.910  1.00  0.00     0.010 A 
ATOM     36  C   UNL A   1      36.571  30.904  29.203  1.00  0.00    -0.014 A 
BRANCH  36  37
ATOM     37  C   UNL A   1      37.757  30.366  29.914  1.00  0.00     0.031 A 
ATOM     38  C   UNL A   1      38.033  30.774  31.335  1.00  0.00     0.074 A 
ATOM     39  C   UNL A   1      38.634  29.585  29.254  1.00  0.00     0.049 A 
ATOM     40  N   UNL A   1      39.040  30.456  32.106  1.00  0.00    -0.248 NA
ATOM     41  C   UNL A   1      37.063  31.687  31.963  1.00  0.00     0.031 C 
ATOM     42  C   UNL A   1      38.518  29.177  27.853  1.00  0.00     0.029 A 
ATOM     43  N   UNL A   1      39.808  29.009  29.671  1.00  0.00    -0.354 N 
ATOM     44  C   UNL A   1      38.847  31.157  33.290  1.00  0.00     0.074 A 
ATOM     45  C   UNL A   1      37.651  31.952  33.120  1.00  0.00     0.031 C 
ATOM     46  C   UNL A   1      39.566  28.401  27.532  1.00  0.00     0.029 A 
ATOM     47  C   UNL A   1      40.443  28.281  28.693  1.00  0.00     0.049 A 
ATOM     48  H   UNL A   1      40.163  29.108  30.583  1.00  0.00     0.167 HD
ATOM     49  C   UNL A   1      39.577  31.117  34.431  1.00  0.00     0.034 A 
ATOM     50  C   UNL A   1      41.598  27.589  28.729  1.00  0.00     0.034 A 
ATOM     51  C   UNL A   1      40.740  30.291  34.611  1.00  0.00     0.049 A 
ATOM     52  C   UNL A   1      42.378  27.534  30.015  1.00  0.00     0.074 A 
ATOM     53  C   UNL A   1      41.500  30.109  35.752  1.00  0.00     0.029 A 
ATOM     54  N   UNL A   1      41.316  29.512  33.618  1.00  0.00    -0.354 N 
ATOM     55  N   UNL A   1      42.097  28.079  31.174  1.00  0.00    -0.248 NA
ATOM     56  C   UNL A   1      43.616  26.743  30.007  1.00  0.00     0.031 C 
ATOM     57  C   UNL A   1      42.548  29.234  35.443  1.00  0.00     0.029 A 
ATOM     58  C   UNL A   1      42.426  28.853  34.115  1.00  0.00     0.049 A 
ATOM     59  H   UNL A   1      40.982  29.438  32.694  1.00  0.00     0.167 HD
ATOM     60  C   UNL A   1      43.097  27.661  32.046  1.00  0.00     0.074 A 
ATOM     61  C   UNL A   1      43.984  26.809  31.280  1.00  0.00     0.031 C 
ATOM     62  C   UNL A   1      43.271  27.964  33.356  1.00  0.00     0.034 A 
BRANCH  49  63
ATOM     63  C   UNL A   1      39.097  31.958  35.587  1.00  0.00     0.023 A 
ATOM     64  C   UNL A   1      39.402  33.335  35.617  1.00  0.00     0.012 A 
ATOM     65  C   UNL A   1      38.342  31.397  36.633  1.00  0.00     0.148 A 
ATOM     66  C   UNL A   1      39.010  34.129  36.695  1.00  0.00     0.002 A 
ATOM     67  C   UNL A   1      37.912  32.205  37.681  1.00  0.00     0.091 A 
ATOM     68  F   UNL A   1      38.079  30.083  36.605  1.00  0.00    -0.205 F 
ATOM     69  C   UNL A   1      38.258  33.566  37.722  1.00  0.00     0.022 A 
BRANCH  67  70
ATOM     70  S   UNL A   1      36.871  31.584  39.008  1.00  0.00     0.127 S 
ATOM     71  O   UNL A   1      37.803  31.569  40.133  1.00  0.00    -0.237 OA
ATOM     72  O   UNL A   1      35.828  32.609  39.093  1.00  0.00    -0.237 OA
ATOM     73  O   UNL A   1      36.398  30.281  38.559  1.00  0.00    -0.744 OA
ENDBRANCH  67  70
ENDBRANCH  49  63
BRANCH  50  74
ATOM     74  C   UNL A   1      42.029  26.804  27.537  1.00  0.00     0.023 A 
ATOM     75  C   UNL A   1      42.721  27.464  26.502  1.00  0.00     0.012 A 
ATOM     76  C   UNL A   1      41.806  25.417  27.440  1.00  0.00     0.148 A 
ATOM     77  C   UNL A   1      43.163  26.764  25.380  1.00  0.00     0.002 A 
ATOM     78  C   UNL A   1      42.294  24.716  26.342  1.00  0.00     0.091 A 
ATOM     79  F   UNL A   1      41.143  24.810  28.432  1.00  0.00    -0.205 F 
ATOM     80  C   UNL A   1      42.959  25.389  25.305  1.00  0.00     0.022 A 
BRANCH  78  81
ATOM     81  S   UNL A   1      42.189  22.926  26.210  1.00  0.00     0.127 S 
ATOM     82  O   UNL A   1      42.794  22.687  24.902  1.00  0.00    -0.237 OA
ATOM     83  O   UNL A   1      42.996  22.494  27.350  1.00  0.00    -0.237 OA
ATOM     84  O   UNL A   1      40.773  22.604  26.316  1.00  0.00    -0.744 OA
ENDBRANCH  78  81
ENDBRANCH  50  74
BRANCH  62  85
ATOM     85  C   UNL A   1      44.444  27.343  34.067  1.00  0.00     0.023 A 
ATOM     86  C   UNL A   1      45.705  27.969  34.021  1.00  0.00     0.012 A 
ATOM     87  C   UNL A   1      44.277  26.179  34.845  1.00  0.00     0.148 A 
ATOM     88  C   UNL A   1      46.790  27.429  34.713  1.00  0.00     0.002 A 
ATOM     89  C   UNL A   1      45.350  25.675  35.570  1.00  0.00     0.091 A 
ATOM     90  F   UNL A   1      43.074  25.586  34.859  1.00  0.00    -0.205 F 
ATOM     91  C   UNL A   1      46.609  26.292  35.496  1.00  0.00     0.022 A 
BRANCH  89  92
ATOM     92  S   UNL A   1      45.186  24.273  36.681  1.00  0.00     0.127 S 
ATOM     93  O   UNL A   1      44.198  24.766  37.639  1.00  0.00    -0.237 OA
ATOM     94  O   UNL A   1      44.698  23.222  35.788  1.00  0.00    -0.237 OA
ATOM     95  O   UNL A   1      46.517  24.033  37.221  1.00  0.00    -0.744 OA
ENDBRANCH  89  92
ENDBRANCH  62  85
ENDBRANCH  36  37
ENDBRANCH  28  31
ENDBRANCH  26  27
ENDBRANCH  25  26
ENDBRANCH   1  25
TORSDOF 17
ENDMDL
MODEL 3
REMARK VINA RESULT:     -12.0      2.843      8.133
REMARK SMILES O=C(Cc1cn2ccsc2n1)N[C@@H]1C=C[C@H](C(=O)NCCCCNC(=O)c2ccc(-c3c4nc(c(-c5cccc(S(=O)(=O)[O-])c5F)c5ccc([nH]5)c(-c5cccc(S(=O)(=O)[O-])c5F)c5nc(c(-c6cccc(S(=O)(=O)[O-])c6F)c6ccc3[nH]6)C=C5)C=C4)cc2)C1
REMARK SMILES IDX 21 1 20 2 19 3 17 4 18 5 16 7 13 8 14 9 90 10 15 11 12 12
REMARK SMILES IDX 1 13 2 14 3 16 4 17 5 18 11 19 6 20 10 21 7 22 9 23 8 24
REMARK SMILES IDX 22 25 23 26 24 27 25 28 26 30 27 31 28 32 89 33 29 34 88 35
REMARK SMILES IDX 30 36 31 37 32 38 82 39 33 40 87 41 81 42 83 43 34 44 86 45
REMARK SMILES IDX 80 46 79 47 35 49 67 50 47 51 66 52 48 53 51 54 65 55 84 56
REMARK SMILES IDX 49 57 50 58 64 60 85 61 52 62 36 63 37 64 45 65 38 66 40 67
REMARK SMILES IDX 46 68 39 69 41 70 42 71 43 72 44 73 68 74 69 75 77 76 70 77
REMARK SMILES IDX 72 78 78 79 71 80 73 81 74 82 75 83 76 84 53 85 54 86 62 87
REMARK SMILES IDX 55 88 57 89 63 90 56 91 58 92 59 93 60 94 61 95
REMARK H PARENT 19 6 12 15 24 29 83 48 51 59
REMARK Flexibility Score: inf
ROOT
ATOM      1  C   UNL A   1      32.684  29.332  23.824  1.00  0.00     0.023 C 
ENDROOT
BRANCH   1   2
ATOM      2  C   UNL A   1      33.137  28.625  22.544  1.00  0.00     0.116 C 
BRANCH   2   3
ATOM      3  N   UNL A   1      33.781  27.364  22.850  1.00  0.00    -0.356 N 
ATOM      4  C   UNL A   1      33.245  26.182  23.272  1.00  0.00     0.227 C 
ATOM      5  O   UNL A   1      34.037  25.272  23.534  1.00  0.00    -0.274 OA
ATOM      6  H   UNL A   1      34.758  27.358  22.734  1.00  0.00     0.163 HD
BRANCH   4   7
ATOM      7  C   UNL A   1      31.721  25.981  23.291  1.00  0.00     0.103 C 
ATOM      8  C   UNL A   1      30.805  24.417  24.968  1.00  0.00     0.106 C 
ATOM      9  C   UNL A   1      30.890  23.793  23.618  1.00  0.00    -0.006 C 
ATOM     10  C   UNL A   1      31.057  25.899  24.672  1.00  0.00     0.047 C 
ATOM     11  C   UNL A   1      31.359  24.644  22.700  1.00  0.00    -0.016 C 
BRANCH   8  12
ATOM     12  N   UNL A   1      31.809  23.843  25.826  1.00  0.00    -0.350 N 
ATOM     13  O   UNL A   1      30.287  23.150  27.390  1.00  0.00    -0.275 OA
ATOM     14  C   UNL A   1      31.448  23.180  26.982  1.00  0.00     0.226 C 
ATOM     15  H   UNL A   1      32.760  23.923  25.584  1.00  0.00     0.164 HD
BRANCH  14  16
ATOM     16  C   UNL A   1      32.594  22.591  27.783  1.00  0.00     0.157 C 
BRANCH  16  17
ATOM     17  C   UNL A   1      33.818  22.332  26.971  1.00  0.00     0.070 A 
ATOM     18  C   UNL A   1      34.226  21.122  26.415  1.00  0.00     0.118 A 
ATOM     19  N   UNL A   1      34.708  23.349  26.650  1.00  0.00    -0.223 NA
ATOM     20  N   UNL A   1      35.381  21.418  25.759  1.00  0.00    -0.297 N 
ATOM     21  C   UNL A   1      35.614  22.748  25.933  1.00  0.00     0.193 A 
ATOM     22  C   UNL A   1      36.316  20.744  25.009  1.00  0.00     0.104 A 
ATOM     23  S   UNL A   1      37.076  23.238  25.136  1.00  0.00    -0.105 S 
ATOM     24  C   UNL A   1      37.298  21.564  24.593  1.00  0.00     0.087 A 
ENDBRANCH  16  17
ENDBRANCH  14  16
ENDBRANCH   8  12
ENDBRANCH   4   7
ENDBRANCH   2   3
ENDBRANCH   1   2
BRANCH   1  25
ATOM     25  C   UNL A   1      33.485  28.964  25.075  1.00  0.00     0.023 C 
BRANCH  25  26
ATOM     26  C   UNL A   1      32.839  29.360  26.396  1.00  0.00     0.116 C 
BRANCH  26  27
ATOM     27  N   UNL A   1      32.700  30.800  26.549  1.00  0.00    -0.352 N 
ATOM     28  C   UNL A   1      33.493  31.669  27.260  1.00  0.00     0.251 C 
ATOM     29  H   UNL A   1      31.935  31.207  26.081  1.00  0.00     0.163 HD
ATOM     30  O   UNL A   1      33.158  32.844  27.389  1.00  0.00    -0.269 OA
BRANCH  28  31
ATOM     31  C   UNL A   1      34.733  31.172  27.892  1.00  0.00     0.039 A 
ATOM     32  C   UNL A   1      35.828  32.033  28.003  1.00  0.00     0.014 A 
ATOM     33  C   UNL A   1      34.804  29.872  28.397  1.00  0.00     0.014 A 
ATOM     34  C   UNL A   1      36.976  31.606  28.674  1.00  0.00     0.010 A 
ATOM     35  C   UNL A   1      35.915  29.477  29.133  1.00  0.00     0.010 A 
ATOM     36  C   UNL A   1      37.017  30.336  29.270  1.00  0.00    -0.014 A 
BRANCH  36  37
ATOM     37  C   UNL A   1      38.201  29.878  30.039  1.00  0.00     0.031 A 
ATOM     38  C   UNL A   1      38.451  30.407  31.424  1.00  0.00     0.074 A 
ATOM     39  C   UNL A   1      39.099  29.058  29.458  1.00  0.00     0.049 A 
ATOM     40  N   UNL A   1      39.452  30.170  32.232  1.00  0.00    -0.248 NA
ATOM     41  C   UNL A   1      37.459  31.354  31.962  1.00  0.00     0.031 C 
ATOM     42  C   UNL A   1      39.008  28.533  28.094  1.00  0.00     0.029 A 
ATOM     43  N   UNL A   1      40.275  28.538  29.936  1.00  0.00    -0.354 N 
ATOM     44  C   UNL A   1      39.233  30.964  33.351  1.00  0.00     0.074 A 
ATOM     45  C   UNL A   1      38.028  31.723  33.099  1.00  0.00     0.031 C 
ATOM     46  C   UNL A   1      40.071  27.750  27.853  1.00  0.00     0.029 A 
ATOM     47  C   UNL A   1      40.934  27.740  29.030  1.00  0.00     0.049 A 
ATOM     48  H   UNL A   1      40.616  28.718  30.841  1.00  0.00     0.167 HD
ATOM     49  C   UNL A   1      39.947  31.031  34.500  1.00  0.00     0.034 A 
ATOM     50  C   UNL A   1      42.098  27.072  29.139  1.00  0.00     0.034 A 
ATOM     51  C   UNL A   1      41.119  30.241  34.762  1.00  0.00     0.049 A 
ATOM     52  C   UNL A   1      42.860  27.137  30.435  1.00  0.00     0.074 A 
ATOM     53  C   UNL A   1      41.866  30.167  35.924  1.00  0.00     0.029 A 
ATOM     54  N   UNL A   1      41.720  29.391  33.846  1.00  0.00    -0.354 N 
ATOM     55  N   UNL A   1      42.556  27.772  31.541  1.00  0.00    -0.248 NA
ATOM     56  C   UNL A   1      44.110  26.367  30.509  1.00  0.00     0.031 C 
ATOM     57  C   UNL A   1      42.931  29.286  35.703  1.00  0.00     0.029 A 
ATOM     58  C   UNL A   1      42.833  28.793  34.410  1.00  0.00     0.049 A 
ATOM     59  H   UNL A   1      41.400  29.235  32.927  1.00  0.00     0.167 HD
ATOM     60  C   UNL A   1      43.550  27.444  32.456  1.00  0.00     0.074 A 
ATOM     61  C   UNL A   1      44.460  26.545  31.776  1.00  0.00     0.031 C 
ATOM     62  C   UNL A   1      43.701  27.858  33.739  1.00  0.00     0.034 A 
BRANCH  49  63
ATOM     63  C   UNL A   1      39.439  31.958  35.575  1.00  0.00     0.023 A 
ATOM     64  C   UNL A   1      38.491  31.486  36.508  1.00  0.00     0.012 A 
ATOM     65  C   UNL A   1      39.901  33.283  35.674  1.00  0.00     0.148 A 
ATOM     66  C   UNL A   1      37.971  32.333  37.487  1.00  0.00     0.002 A 
ATOM     67  C   UNL A   1      39.414  34.108  36.683  1.00  0.00     0.091 A 
ATOM     68  F   UNL A   1      40.783  33.727  34.767  1.00  0.00    -0.205 F 
ATOM     69  C   UNL A   1      38.438  33.640  37.579  1.00  0.00     0.022 A 
BRANCH  67  70
ATOM     70  S   UNL A   1      40.017  35.783  36.929  1.00  0.00     0.127 S 
ATOM     71  O   UNL A   1      41.453  35.561  37.081  1.00  0.00    -0.237 OA
ATOM     72  O   UNL A   1      39.630  36.440  35.679  1.00  0.00    -0.237 OA
ATOM     73  O   UNL A   1      39.324  36.281  38.109  1.00  0.00    -0.744 OA
ENDBRANCH  67  70
ENDBRANCH  49  63
BRANCH  50  74
ATOM     74  C   UNL A   1      42.557  26.197  28.022  1.00  0.00     0.023 A 
ATOM     75  C   UNL A   1      43.541  26.683  27.138  1.00  0.00     0.012 A 
ATOM     76  C   UNL A   1      42.071  24.886  27.856  1.00  0.00     0.148 A 
ATOM     77  C   UNL A   1      44.016  25.889  26.094  1.00  0.00     0.002 A 
ATOM     78  C   UNL A   1      42.584  24.083  26.844  1.00  0.00     0.091 A 
ATOM     79  F   UNL A   1      41.132  24.446  28.704  1.00  0.00    -0.205 F 
ATOM     80  C   UNL A   1      43.546  24.587  25.953  1.00  0.00     0.022 A 
BRANCH  78  81
ATOM     81  S   UNL A   1      42.134  22.353  26.655  1.00  0.00     0.127 S 
ATOM     82  O   UNL A   1      40.756  22.453  26.181  1.00  0.00    -0.237 OA
ATOM     83  O   UNL A   1      43.099  21.899  25.654  1.00  0.00    -0.237 OA
ATOM     84  O   UNL A   1      42.303  21.754  27.971  1.00  0.00    -0.744 OA
ENDBRANCH  78  81
ENDBRANCH  50  74
BRANCH  62  85
ATOM     85  C   UNL A   1      44.873  27.317  34.514  1.00  0.00     0.023 A 
ATOM     86  C   UNL A   1      46.085  28.035  34.549  1.00  0.00     0.012 A 
ATOM     87  C   UNL A   1      44.748  26.134  35.271  1.00  0.00     0.148 A 
ATOM     88  C   UNL A   1      47.164  27.569  35.300  1.00  0.00     0.002 A 
ATOM     89  C   UNL A   1      45.811  25.702  36.056  1.00  0.00     0.091 A 
ATOM     90  F   UNL A   1      43.594  25.454  35.208  1.00  0.00    -0.205 F 
ATOM     91  C   UNL A   1      47.023  26.412  36.062  1.00  0.00     0.022 A 
BRANCH  89  92
ATOM     92  S   UNL A   1      45.686  24.278  37.144  1.00  0.00     0.127 S 
ATOM     93  O   UNL A   1      45.401  23.202  36.196  1.00  0.00    -0.237 OA
ATOM     94  O   UNL A   1      47.020  24.226  37.743  1.00  0.00    -0.237 OA
ATOM     95  O   UNL A   1      44.616  24.586  38.083  1.00  0.00    -0.744 OA
ENDBRANCH  89  92
ENDBRANCH  62  85
ENDBRANCH  36  37
ENDBRANCH  28  31
ENDBRANCH  26  27
ENDBRANCH  25  26
ENDBRANCH   1  25
TORSDOF 17
ENDMDL
