MODEL 1
REMARK VINA RESULT:     -11.8      0.000      0.000
REMARK SMILES O=C(NCCCCNC(=O)[C@H]1COc2c(O)cccc2C1)c1ccc(-c2c3nc(c(-c4cccc(S(=O)(=O)[O-])c4F)c4ccc([nH]4)c(-c4cccc(S(=O)(=O)[O-])c4F)c4nc(c(-c5cccc(S(=O)(=O)[O-])c5F)c5ccc2[nH]5)C=C4)C=C3)cc1
REMARK SMILES IDX 4 1 3 2 1 3 2 4 22 6 23 7 84 8 24 9 83 10 25 11 26 12 27 13
REMARK SMILES IDX 77 14 28 15 82 16 76 17 78 18 29 19 81 20 75 21 74 22 30 24
REMARK SMILES IDX 62 25 42 26 61 27 43 28 46 29 60 30 79 31 44 32 45 33 59 35
REMARK SMILES IDX 80 36 47 37 31 38 32 39 40 40 33 41 35 42 41 43 34 44 36 45
REMARK SMILES IDX 37 46 38 47 39 48 63 49 64 50 72 51 65 52 67 53 73 54 66 55
REMARK SMILES IDX 68 56 69 57 70 58 71 59 48 60 49 61 57 62 50 63 52 64 58 65
REMARK SMILES IDX 51 66 53 67 54 68 55 69 56 70 5 71 6 72 7 73 8 74 9 75 10 77
REMARK SMILES IDX 11 78 12 79 21 80 13 81 20 82 14 83 19 84 15 85 18 86 17 87
REMARK SMILES IDX 16 88
REMARK H PARENT 3 5 78 23 46 34 8 76 16 89
REMARK Flexibility Score: inf
ROOT
ATOM      1  C   UNL A   1      32.913  29.421  25.248  1.00  0.00     0.116 C 
ENDROOT
BRANCH   1   2
ATOM      2  N   UNL A   1      32.405  30.669  25.795  1.00  0.00    -0.352 N 
ATOM      3  O   UNL A   1      32.188  32.320  27.312  1.00  0.00    -0.269 OA
ATOM      4  C   UNL A   1      32.856  31.385  26.876  1.00  0.00     0.251 C 
ATOM      5  H   UNL A   1      31.631  31.054  25.325  1.00  0.00     0.163 HD
BRANCH   4   6
ATOM      6  C   UNL A   1      34.134  31.014  27.519  1.00  0.00     0.039 A 
ATOM      7  C   UNL A   1      34.353  29.703  27.952  1.00  0.00     0.014 A 
ATOM      8  C   UNL A   1      35.123  31.987  27.685  1.00  0.00     0.014 A 
ATOM      9  C   UNL A   1      35.513  29.393  28.654  1.00  0.00     0.010 A 
ATOM     10  C   UNL A   1      36.310  31.661  28.345  1.00  0.00     0.010 A 
ATOM     11  C   UNL A   1      36.500  30.370  28.863  1.00  0.00    -0.014 A 
BRANCH  11  12
ATOM     12  C   UNL A   1      37.741  30.010  29.588  1.00  0.00     0.031 A 
ATOM     13  C   UNL A   1      38.003  30.519  30.976  1.00  0.00     0.074 A 
ATOM     14  C   UNL A   1      38.639  29.208  28.986  1.00  0.00     0.049 A 
ATOM     15  N   UNL A   1      39.003  30.244  31.773  1.00  0.00    -0.248 NA
ATOM     16  C   UNL A   1      37.022  31.456  31.548  1.00  0.00     0.031 C 
ATOM     17  C   UNL A   1      38.514  28.683  27.625  1.00  0.00     0.029 A 
ATOM     18  N   UNL A   1      39.832  28.699  29.433  1.00  0.00    -0.354 N 
ATOM     19  C   UNL A   1      38.791  30.990  32.925  1.00  0.00     0.074 A 
ATOM     20  C   UNL A   1      37.566  31.735  32.726  1.00  0.00     0.031 C 
ATOM     21  C   UNL A   1      39.583  27.921  27.351  1.00  0.00     0.029 A 
ATOM     22  C   UNL A   1      40.480  27.924  28.503  1.00  0.00     0.049 A 
ATOM     23  H   UNL A   1      40.189  28.874  30.334  1.00  0.00     0.167 HD
ATOM     24  C   UNL A   1      39.542  31.037  34.049  1.00  0.00     0.034 A 
ATOM     25  C   UNL A   1      41.667  27.291  28.562  1.00  0.00     0.034 A 
ATOM     26  C   UNL A   1      40.744  30.275  34.255  1.00  0.00     0.049 A 
ATOM     27  C   UNL A   1      42.477  27.350  29.824  1.00  0.00     0.074 A 
ATOM     28  C   UNL A   1      41.519  30.196  35.399  1.00  0.00     0.029 A 
ATOM     29  N   UNL A   1      41.357  29.484  33.299  1.00  0.00    -0.354 N 
ATOM     30  N   UNL A   1      42.188  27.948  30.953  1.00  0.00    -0.248 NA
ATOM     31  C   UNL A   1      43.758  26.629  29.833  1.00  0.00     0.031 C 
ATOM     32  C   UNL A   1      42.620  29.380  35.123  1.00  0.00     0.029 A 
ATOM     33  C   UNL A   1      42.515  28.931  33.817  1.00  0.00     0.049 A 
ATOM     34  H   UNL A   1      41.019  29.335  32.385  1.00  0.00     0.167 HD
ATOM     35  C   UNL A   1      43.241  27.666  31.814  1.00  0.00     0.074 A 
ATOM     36  C   UNL A   1      44.170  26.832  31.080  1.00  0.00     0.031 C 
ATOM     37  C   UNL A   1      43.418  28.073  33.094  1.00  0.00     0.034 A 
BRANCH  24  38
ATOM     38  C   UNL A   1      39.082  31.919  35.176  1.00  0.00     0.023 A 
ATOM     39  C   UNL A   1      38.201  31.401  36.145  1.00  0.00     0.012 A 
ATOM     40  C   UNL A   1      39.612  33.214  35.337  1.00  0.00     0.148 A 
ATOM     41  C   UNL A   1      37.847  32.164  37.258  1.00  0.00     0.002 A 
ATOM     42  C   UNL A   1      39.279  33.955  36.464  1.00  0.00     0.091 A 
ATOM     43  F   UNL A   1      40.439  33.686  34.394  1.00  0.00    -0.205 F 
ATOM     44  C   UNL A   1      38.395  33.433  37.422  1.00  0.00     0.022 A 
BRANCH  42  45
ATOM     45  S   UNL A   1      39.969  35.580  36.797  1.00  0.00     0.127 S 
ATOM     46  O   UNL A   1      39.338  35.909  38.076  1.00  0.00    -0.237 OA
ATOM     47  O   UNL A   1      41.401  35.293  36.881  1.00  0.00    -0.237 OA
ATOM     48  O   UNL A   1      39.576  36.424  35.679  1.00  0.00    -0.744 OA
ENDBRANCH  42  45
ENDBRANCH  24  38
BRANCH  25  49
ATOM     49  C   UNL A   1      42.114  26.507  27.381  1.00  0.00     0.023 A 
ATOM     50  C   UNL A   1      42.925  27.123  26.411  1.00  0.00     0.012 A 
ATOM     51  C   UNL A   1      41.838  25.129  27.284  1.00  0.00     0.148 A 
ATOM     52  C   UNL A   1      43.460  26.376  25.361  1.00  0.00     0.002 A 
ATOM     53  C   UNL A   1      42.405  24.384  26.258  1.00  0.00     0.091 A 
ATOM     54  F   UNL A   1      41.068  24.572  28.228  1.00  0.00    -0.205 F 
ATOM     55  C   UNL A   1      43.210  25.007  25.291  1.00  0.00     0.022 A 
BRANCH  53  56
ATOM     56  S   UNL A   1      42.229  22.601  26.142  1.00  0.00     0.127 S 
ATOM     57  O   UNL A   1      42.947  22.311  24.903  1.00  0.00    -0.237 OA
ATOM     58  O   UNL A   1      42.902  22.158  27.363  1.00  0.00    -0.237 OA
ATOM     59  O   UNL A   1      40.796  22.342  26.105  1.00  0.00    -0.744 OA
ENDBRANCH  53  56
ENDBRANCH  25  49
BRANCH  37  60
ATOM     60  C   UNL A   1      44.660  27.631  33.819  1.00  0.00     0.023 A 
ATOM     61  C   UNL A   1      45.781  28.482  33.849  1.00  0.00     0.012 A 
ATOM     62  C   UNL A   1      44.657  26.453  34.591  1.00  0.00     0.148 A 
ATOM     63  C   UNL A   1      46.885  28.165  34.641  1.00  0.00     0.002 A 
ATOM     64  C   UNL A   1      45.746  26.161  35.402  1.00  0.00     0.091 A 
ATOM     65  F   UNL A   1      43.577  25.660  34.538  1.00  0.00    -0.205 F 
ATOM     66  C   UNL A   1      46.862  27.014  35.426  1.00  0.00     0.022 A 
BRANCH  64  67
ATOM     67  S   UNL A   1      45.781  24.744  36.506  1.00  0.00     0.127 S 
ATOM     68  O   UNL A   1      45.770  23.629  35.559  1.00  0.00    -0.237 OA
ATOM     69  O   UNL A   1      47.049  24.933  37.210  1.00  0.00    -0.237 OA
ATOM     70  O   UNL A   1      44.594  24.851  37.343  1.00  0.00    -0.744 OA
ENDBRANCH  64  67
ENDBRANCH  37  60
ENDBRANCH  11  12
ENDBRANCH   4   6
ENDBRANCH   1   2
BRANCH   1  71
ATOM     71  C   UNL A   1      31.841  28.336  25.189  1.00  0.00     0.023 C 
BRANCH  71  72
ATOM     72  C   UNL A   1      30.762  28.536  24.120  1.00  0.00     0.023 C 
BRANCH  72  73
ATOM     73  C   UNL A   1      30.779  27.522  22.980  1.00  0.00     0.116 C 
BRANCH  73  74
ATOM     74  N   UNL A   1      32.105  27.345  22.420  1.00  0.00    -0.356 N 
ATOM     75  C   UNL A   1      32.838  26.213  22.225  1.00  0.00     0.226 C 
ATOM     76  H   UNL A   1      32.547  28.177  22.134  1.00  0.00     0.163 HD
ATOM     77  O   UNL A   1      33.880  26.321  21.580  1.00  0.00    -0.275 OA
BRANCH  75  78
ATOM     78  C   UNL A   1      32.361  24.892  22.816  1.00  0.00     0.120 C 
ATOM     79  C   UNL A   1      32.885  23.709  22.013  1.00  0.00     0.243 C 
ATOM     80  C   UNL A   1      32.779  24.758  24.278  1.00  0.00     0.056 C 
ATOM     81  O   UNL A   1      34.292  23.489  22.094  1.00  0.00    -0.489 OA
ATOM     82  C   UNL A   1      34.191  24.260  24.411  1.00  0.00    -0.001 A 
ATOM     83  C   UNL A   1      34.851  23.678  23.328  1.00  0.00     0.164 A 
ATOM     84  C   UNL A   1      34.868  24.370  25.636  1.00  0.00     0.008 A 
ATOM     85  C   UNL A   1      36.186  23.282  23.457  1.00  0.00     0.157 A 
ATOM     86  C   UNL A   1      36.195  23.944  25.758  1.00  0.00     0.004 A 
ATOM     87  C   UNL A   1      36.862  23.405  24.661  1.00  0.00     0.050 A 
BRANCH  85  88
ATOM     88  O   UNL A   1      36.854  22.773  22.377  1.00  0.00    -0.504 OA
ATOM     89  H   UNL A   1      37.720  22.430  22.480  1.00  0.00     0.293 HD
ENDBRANCH  85  88
ENDBRANCH  75  78
ENDBRANCH  73  74
ENDBRANCH  72  73
ENDBRANCH  71  72
ENDBRANCH   1  71
TORSDOF 15
ENDMDL
MODEL 2
REMARK VINA RESULT:     -11.6      1.816      2.253
REMARK SMILES O=C(NCCCCNC(=O)[C@H]1COc2c(O)cccc2C1)c1ccc(-c2c3nc(c(-c4cccc(S(=O)(=O)[O-])c4F)c4ccc([nH]4)c(-c4cccc(S(=O)(=O)[O-])c4F)c4nc(c(-c5cccc(S(=O)(=O)[O-])c5F)c5ccc2[nH]5)C=C4)C=C3)cc1
REMARK SMILES IDX 4 1 3 2 1 3 2 4 22 6 23 7 84 8 24 9 83 10 25 11 26 12 27 13
REMARK SMILES IDX 77 14 28 15 82 16 76 17 78 18 29 19 81 20 75 21 74 22 30 24
REMARK SMILES IDX 62 25 42 26 61 27 43 28 46 29 60 30 79 31 44 32 45 33 59 35
REMARK SMILES IDX 80 36 47 37 31 38 32 39 40 40 33 41 35 42 41 43 34 44 36 45
REMARK SMILES IDX 37 46 38 47 39 48 63 49 64 50 72 51 65 52 67 53 73 54 66 55
REMARK SMILES IDX 68 56 69 57 70 58 71 59 48 60 49 61 57 62 50 63 52 64 58 65
REMARK SMILES IDX 51 66 53 67 54 68 55 69 56 70 5 71 6 72 7 73 8 74 9 75 10 77
REMARK SMILES IDX 11 78 12 79 21 80 13 81 20 82 14 83 19 84 15 85 18 86 17 87
REMARK SMILES IDX 16 88
REMARK H PARENT 3 5 78 23 46 34 8 76 16 89
REMARK Flexibility Score: inf
ROOT
ATOM      1  C   UNL A   1      32.697  29.607  25.865  1.00  0.00     0.116 C 
ENDROOT
BRANCH   1   2
ATOM      2  N   UNL A   1      32.423  31.009  26.141  1.00  0.00    -0.352 N 
ATOM      3  O   UNL A   1      32.564  32.957  27.263  1.00  0.00    -0.269 OA
ATOM      4  C   UNL A   1      33.052  31.855  27.020  1.00  0.00     0.251 C 
ATOM      5  H   UNL A   1      31.684  31.405  25.626  1.00  0.00     0.163 HD
BRANCH   4   6
ATOM      6  C   UNL A   1      34.303  31.427  27.681  1.00  0.00     0.039 A 
ATOM      7  C   UNL A   1      34.508  30.081  27.999  1.00  0.00     0.014 A 
ATOM      8  C   UNL A   1      35.277  32.381  27.982  1.00  0.00     0.014 A 
ATOM      9  C   UNL A   1      35.638  29.707  28.721  1.00  0.00     0.010 A 
ATOM     10  C   UNL A   1      36.436  31.996  28.661  1.00  0.00     0.010 A 
ATOM     11  C   UNL A   1      36.610  30.661  29.064  1.00  0.00    -0.014 A 
BRANCH  11  12
ATOM     12  C   UNL A   1      37.819  30.237  29.807  1.00  0.00     0.031 A 
ATOM     13  C   UNL A   1      38.070  30.705  31.211  1.00  0.00     0.074 A 
ATOM     14  C   UNL A   1      38.697  29.412  29.206  1.00  0.00     0.049 A 
ATOM     15  N   UNL A   1      39.041  30.373  32.023  1.00  0.00    -0.248 NA
ATOM     16  C   UNL A   1      37.115  31.668  31.783  1.00  0.00     0.031 C 
ATOM     17  C   UNL A   1      38.581  28.922  27.832  1.00  0.00     0.029 A 
ATOM     18  N   UNL A   1      39.858  28.846  29.667  1.00  0.00    -0.354 N 
ATOM     19  C   UNL A   1      38.833  31.102  33.186  1.00  0.00     0.074 A 
ATOM     20  C   UNL A   1      37.644  31.900  32.978  1.00  0.00     0.031 C 
ATOM     21  C   UNL A   1      39.624  28.123  27.563  1.00  0.00     0.029 A 
ATOM     22  C   UNL A   1      40.496  28.065  28.734  1.00  0.00     0.049 A 
ATOM     23  H   UNL A   1      40.202  28.987  30.579  1.00  0.00     0.167 HD
ATOM     24  C   UNL A   1      39.561  31.095  34.327  1.00  0.00     0.034 A 
ATOM     25  C   UNL A   1      41.655  27.384  28.804  1.00  0.00     0.034 A 
ATOM     26  C   UNL A   1      40.726  30.280  34.541  1.00  0.00     0.049 A 
ATOM     27  C   UNL A   1      42.438  27.383  30.083  1.00  0.00     0.074 A 
ATOM     28  C   UNL A   1      41.472  30.145  35.699  1.00  0.00     0.029 A 
ATOM     29  N   UNL A   1      41.328  29.486  33.580  1.00  0.00    -0.354 N 
ATOM     30  N   UNL A   1      42.149  27.968  31.219  1.00  0.00    -0.248 NA
ATOM     31  C   UNL A   1      43.689  26.611  30.104  1.00  0.00     0.031 C 
ATOM     32  C   UNL A   1      42.546  29.293  35.428  1.00  0.00     0.029 A 
ATOM     33  C   UNL A   1      42.451  28.875  34.110  1.00  0.00     0.049 A 
ATOM     34  H   UNL A   1      41.005  29.371  32.657  1.00  0.00     0.167 HD
ATOM     35  C   UNL A   1      43.171  27.626  32.096  1.00  0.00     0.074 A 
ATOM     36  C   UNL A   1      44.081  26.770  31.363  1.00  0.00     0.031 C 
ATOM     37  C   UNL A   1      43.336  27.997  33.388  1.00  0.00     0.034 A 
BRANCH  24  38
ATOM     38  C   UNL A   1      39.111  31.970  35.463  1.00  0.00     0.023 A 
ATOM     39  C   UNL A   1      38.256  31.440  36.449  1.00  0.00     0.012 A 
ATOM     40  C   UNL A   1      39.628  33.272  35.614  1.00  0.00     0.148 A 
ATOM     41  C   UNL A   1      37.915  32.198  37.570  1.00  0.00     0.002 A 
ATOM     42  C   UNL A   1      39.307  34.008  36.748  1.00  0.00     0.091 A 
ATOM     43  F   UNL A   1      40.429  33.755  34.655  1.00  0.00    -0.205 F 
ATOM     44  C   UNL A   1      38.449  33.475  37.723  1.00  0.00     0.022 A 
BRANCH  42  45
ATOM     45  S   UNL A   1      39.982  35.642  37.068  1.00  0.00     0.127 S 
ATOM     46  O   UNL A   1      39.284  36.011  38.300  1.00  0.00    -0.237 OA
ATOM     47  O   UNL A   1      41.407  35.357  37.238  1.00  0.00    -0.237 OA
ATOM     48  O   UNL A   1      39.652  36.452  35.905  1.00  0.00    -0.744 OA
ENDBRANCH  42  45
ENDBRANCH  24  38
BRANCH  25  49
ATOM     49  C   UNL A   1      42.096  26.608  27.616  1.00  0.00     0.023 A 
ATOM     50  C   UNL A   1      42.943  27.215  26.670  1.00  0.00     0.012 A 
ATOM     51  C   UNL A   1      41.777  25.242  27.487  1.00  0.00     0.148 A 
ATOM     52  C   UNL A   1      43.471  26.471  25.615  1.00  0.00     0.002 A 
ATOM     53  C   UNL A   1      42.338  24.498  26.457  1.00  0.00     0.091 A 
ATOM     54  F   UNL A   1      40.975  24.692  28.409  1.00  0.00    -0.205 F 
ATOM     55  C   UNL A   1      43.178  25.113  25.515  1.00  0.00     0.022 A 
BRANCH  53  56
ATOM     56  S   UNL A   1      42.106  22.724  26.304  1.00  0.00     0.127 S 
ATOM     57  O   UNL A   1      42.853  22.226  27.458  1.00  0.00    -0.237 OA
ATOM     58  O   UNL A   1      40.653  22.605  26.414  1.00  0.00    -0.237 OA
ATOM     59  O   UNL A   1      42.654  22.359  25.005  1.00  0.00    -0.744 OA
ENDBRANCH  53  56
ENDBRANCH  25  49
BRANCH  37  60
ATOM     60  C   UNL A   1      44.543  27.491  34.129  1.00  0.00     0.023 A 
ATOM     61  C   UNL A   1      45.714  28.272  34.157  1.00  0.00     0.012 A 
ATOM     62  C   UNL A   1      44.461  26.325  34.917  1.00  0.00     0.148 A 
ATOM     63  C   UNL A   1      46.790  27.899  34.962  1.00  0.00     0.002 A 
ATOM     64  C   UNL A   1      45.524  25.979  35.740  1.00  0.00     0.091 A 
ATOM     65  F   UNL A   1      43.335  25.600  34.866  1.00  0.00    -0.205 F 
ATOM     66  C   UNL A   1      46.691  26.762  35.762  1.00  0.00     0.022 A 
BRANCH  64  67
ATOM     67  S   UNL A   1      45.464  24.578  36.863  1.00  0.00     0.127 S 
ATOM     68  O   UNL A   1      45.287  23.461  35.937  1.00  0.00    -0.237 OA
ATOM     69  O   UNL A   1      46.779  24.638  37.502  1.00  0.00    -0.237 OA
ATOM     70  O   UNL A   1      44.339  24.820  37.757  1.00  0.00    -0.744 OA
ENDBRANCH  64  67
ENDBRANCH  37  60
ENDBRANCH  11  12
ENDBRANCH   4   6
ENDBRANCH   1   2
BRANCH   1  71
ATOM     71  C   UNL A   1      31.584  28.691  26.365  1.00  0.00     0.023 C 
BRANCH  71  72
ATOM     72  C   UNL A   1      32.017  27.264  26.719  1.00  0.00     0.023 C 
BRANCH  72  73
ATOM     73  C   UNL A   1      31.515  26.177  25.773  1.00  0.00     0.116 C 
BRANCH  73  74
ATOM     74  N   UNL A   1      31.081  24.988  26.480  1.00  0.00    -0.356 N 
ATOM     75  C   UNL A   1      31.783  23.890  26.876  1.00  0.00     0.226 C 
ATOM     76  H   UNL A   1      30.125  24.972  26.712  1.00  0.00     0.163 HD
ATOM     77  O   UNL A   1      31.206  23.085  27.606  1.00  0.00    -0.275 OA
BRANCH  75  78
ATOM     78  C   UNL A   1      33.216  23.695  26.395  1.00  0.00     0.120 C 
ATOM     79  C   UNL A   1      33.942  22.654  27.238  1.00  0.00     0.243 C 
ATOM     80  C   UNL A   1      33.255  23.296  24.923  1.00  0.00     0.056 C 
ATOM     81  O   UNL A   1      33.476  21.313  27.088  1.00  0.00    -0.489 OA
ATOM     82  C   UNL A   1      33.036  21.820  24.739  1.00  0.00    -0.001 A 
ATOM     83  C   UNL A   1      33.147  20.938  25.815  1.00  0.00     0.164 A 
ATOM     84  C   UNL A   1      32.719  21.304  23.472  1.00  0.00     0.008 A 
ATOM     85  C   UNL A   1      32.874  19.579  25.634  1.00  0.00     0.157 A 
ATOM     86  C   UNL A   1      32.475  19.937  23.299  1.00  0.00     0.004 A 
ATOM     87  C   UNL A   1      32.545  19.070  24.387  1.00  0.00     0.050 A 
BRANCH  85  88
ATOM     88  O   UNL A   1      32.917  18.726  26.702  1.00  0.00    -0.504 OA
ATOM     89  H   UNL A   1      32.604  19.006  27.540  1.00  0.00     0.293 HD
ENDBRANCH  85  88
ENDBRANCH  75  78
ENDBRANCH  73  74
ENDBRANCH  72  73
ENDBRANCH  71  72
ENDBRANCH   1  71
TORSDOF 15
ENDMDL
MODEL 3
REMARK VINA RESULT:     -11.5      2.633      3.408
REMARK SMILES O=C(NCCCCNC(=O)[C@H]1COc2c(O)cccc2C1)c1ccc(-c2c3nc(c(-c4cccc(S(=O)(=O)[O-])c4F)c4ccc([nH]4)c(-c4cccc(S(=O)(=O)[O-])c4F)c4nc(c(-c5cccc(S(=O)(=O)[O-])c5F)c5ccc2[nH]5)C=C4)C=C3)cc1
REMARK SMILES IDX 4 1 3 2 1 3 2 4 22 6 23 7 84 8 24 9 83 10 25 11 26 12 27 13
REMARK SMILES IDX 77 14 28 15 82 16 76 17 78 18 29 19 81 20 75 21 74 22 30 24
REMARK SMILES IDX 62 25 42 26 61 27 43 28 46 29 60 30 79 31 44 32 45 33 59 35
REMARK SMILES IDX 80 36 47 37 31 38 32 39 40 40 33 41 35 42 41 43 34 44 36 45
REMARK SMILES IDX 37 46 38 47 39 48 63 49 64 50 72 51 65 52 67 53 73 54 66 55
REMARK SMILES IDX 68 56 69 57 70 58 71 59 48 60 49 61 57 62 50 63 52 64 58 65
REMARK SMILES IDX 51 66 53 67 54 68 55 69 56 70 5 71 6 72 7 73 8 74 9 75 10 77
REMARK SMILES IDX 11 78 12 79 21 80 13 81 20 82 14 83 19 84 15 85 18 86 17 87
REMARK SMILES IDX 16 88
REMARK H PARENT 3 5 78 23 46 34 8 76 16 89
REMARK Flexibility Score: inf
ROOT
ATOM      1  C   UNL A   1      33.699  28.838  26.366  1.00  0.00     0.116 C 
ENDROOT
BRANCH   1   2
ATOM      2  N   UNL A   1      33.650  30.249  26.715  1.00  0.00    -0.352 N 
ATOM      3  O   UNL A   1      34.180  32.107  27.873  1.00  0.00    -0.269 OA
ATOM      4  C   UNL A   1      34.483  30.963  27.541  1.00  0.00     0.251 C 
ATOM      5  H   UNL A   1      32.919  30.762  26.303  1.00  0.00     0.163 HD
BRANCH   4   6
ATOM      6  C   UNL A   1      35.730  30.344  28.037  1.00  0.00     0.039 A 
ATOM      7  C   UNL A   1      35.753  29.702  29.279  1.00  0.00     0.014 A 
ATOM      8  C   UNL A   1      36.882  30.404  27.251  1.00  0.00     0.014 A 
ATOM      9  C   UNL A   1      36.957  29.222  29.785  1.00  0.00     0.010 A 
ATOM     10  C   UNL A   1      38.081  29.875  27.738  1.00  0.00     0.010 A 
ATOM     11  C   UNL A   1      38.133  29.309  29.023  1.00  0.00    -0.014 A 
BRANCH  11  12
ATOM     12  C   UNL A   1      39.399  28.765  29.568  1.00  0.00     0.031 A 
ATOM     13  C   UNL A   1      40.022  29.344  30.805  1.00  0.00     0.074 A 
ATOM     14  C   UNL A   1      39.987  27.729  28.940  1.00  0.00     0.049 A 
ATOM     15  N   UNL A   1      41.087  28.942  31.450  1.00  0.00    -0.248 NA
ATOM     16  C   UNL A   1      39.373  30.525  31.398  1.00  0.00     0.031 C 
ATOM     17  C   UNL A   1      39.498  27.108  27.709  1.00  0.00     0.029 A 
ATOM     18  N   UNL A   1      41.123  27.022  29.245  1.00  0.00    -0.354 N 
ATOM     19  C   UNL A   1      41.254  29.830  32.504  1.00  0.00     0.074 A 
ATOM     20  C   UNL A   1      40.183  30.799  32.414  1.00  0.00     0.031 C 
ATOM     21  C   UNL A   1      40.323  26.108  27.366  1.00  0.00     0.029 A 
ATOM     22  C   UNL A   1      41.412  26.034  28.336  1.00  0.00     0.049 A 
ATOM     23  H   UNL A   1      41.677  27.207  30.038  1.00  0.00     0.167 HD
ATOM     24  C   UNL A   1      42.206  29.827  33.465  1.00  0.00     0.034 A 
ATOM     25  C   UNL A   1      42.442  25.167  28.280  1.00  0.00     0.034 A 
ATOM     26  C   UNL A   1      43.254  28.848  33.568  1.00  0.00     0.049 A 
ATOM     27  C   UNL A   1      43.479  25.178  29.364  1.00  0.00     0.074 A 
ATOM     28  C   UNL A   1      44.208  28.719  34.562  1.00  0.00     0.029 A 
ATOM     29  N   UNL A   1      43.501  27.848  32.642  1.00  0.00    -0.354 N 
ATOM     30  N   UNL A   1      43.540  25.937  30.430  1.00  0.00    -0.248 NA
ATOM     31  C   UNL A   1      44.573  24.201  29.256  1.00  0.00     0.031 C 
ATOM     32  C   UNL A   1      45.053  27.661  34.220  1.00  0.00     0.029 A 
ATOM     33  C   UNL A   1      44.608  27.113  33.028  1.00  0.00     0.049 A 
ATOM     34  H   UNL A   1      42.968  27.684  31.830  1.00  0.00     0.167 HD
ATOM     35  C   UNL A   1      44.667  25.523  31.129  1.00  0.00     0.074 A 
ATOM     36  C   UNL A   1      45.253  24.436  30.372  1.00  0.00     0.031 C 
ATOM     37  C   UNL A   1      45.168  26.010  32.289  1.00  0.00     0.034 A 
BRANCH  24  38
ATOM     38  C   UNL A   1      42.156  30.899  34.518  1.00  0.00     0.023 A 
ATOM     39  C   UNL A   1      41.498  30.642  35.737  1.00  0.00     0.012 A 
ATOM     40  C   UNL A   1      42.860  32.107  34.347  1.00  0.00     0.148 A 
ATOM     41  C   UNL A   1      41.533  31.579  36.770  1.00  0.00     0.002 A 
ATOM     42  C   UNL A   1      42.916  33.021  35.391  1.00  0.00     0.091 A 
ATOM     43  F   UNL A   1      43.468  32.330  33.173  1.00  0.00    -0.205 F 
ATOM     44  C   UNL A   1      42.251  32.760  36.601  1.00  0.00     0.022 A 
BRANCH  42  45
ATOM     45  S   UNL A   1      43.855  34.550  35.296  1.00  0.00     0.127 S 
ATOM     46  O   UNL A   1      43.154  35.257  34.224  1.00  0.00    -0.237 OA
ATOM     47  O   UNL A   1      43.657  35.114  36.631  1.00  0.00    -0.237 OA
ATOM     48  O   UNL A   1      45.225  34.165  34.990  1.00  0.00    -0.744 OA
ENDBRANCH  42  45
ENDBRANCH  24  38
BRANCH  25  49
ATOM     49  C   UNL A   1      42.487  24.189  27.163  1.00  0.00     0.023 A 
ATOM     50  C   UNL A   1      43.245  24.485  26.015  1.00  0.00     0.012 A 
ATOM     51  C   UNL A   1      41.882  22.923  27.288  1.00  0.00     0.148 A 
ATOM     52  C   UNL A   1      43.404  23.532  25.009  1.00  0.00     0.002 A 
ATOM     53  C   UNL A   1      42.078  21.965  26.301  1.00  0.00     0.091 A 
ATOM     54  F   UNL A   1      41.174  22.669  28.397  1.00  0.00    -0.205 F 
ATOM     55  C   UNL A   1      42.832  22.270  25.157  1.00  0.00     0.022 A 
BRANCH  53  56
ATOM     56  S   UNL A   1      41.471  20.281  26.449  1.00  0.00     0.127 S 
ATOM     57  O   UNL A   1      41.904  19.927  27.799  1.00  0.00    -0.237 OA
ATOM     58  O   UNL A   1      40.029  20.473  26.295  1.00  0.00    -0.237 OA
ATOM     59  O   UNL A   1      42.107  19.531  25.375  1.00  0.00    -0.744 OA
ENDBRANCH  53  56
ENDBRANCH  25  49
BRANCH  37  60
ATOM     60  C   UNL A   1      46.418  25.386  32.846  1.00  0.00     0.023 A 
ATOM     61  C   UNL A   1      47.668  25.962  32.550  1.00  0.00     0.012 A 
ATOM     62  C   UNL A   1      46.337  24.333  33.779  1.00  0.00     0.148 A 
ATOM     63  C   UNL A   1      48.824  25.497  33.177  1.00  0.00     0.002 A 
ATOM     64  C   UNL A   1      47.488  23.898  34.423  1.00  0.00     0.091 A 
ATOM     65  F   UNL A   1      45.134  23.802  34.037  1.00  0.00    -0.205 F 
ATOM     66  C   UNL A   1      48.733  24.476  34.121  1.00  0.00     0.022 A 
BRANCH  64  67
ATOM     67  S   UNL A   1      47.465  22.643  35.708  1.00  0.00     0.127 S 
ATOM     68  O   UNL A   1      48.893  22.419  35.933  1.00  0.00    -0.237 OA
ATOM     69  O   UNL A   1      46.776  23.331  36.799  1.00  0.00    -0.237 OA
ATOM     70  O   UNL A   1      46.745  21.505  35.152  1.00  0.00    -0.744 OA
ENDBRANCH  64  67
ENDBRANCH  37  60
ENDBRANCH  11  12
ENDBRANCH   4   6
ENDBRANCH   1   2
BRANCH   1  71
ATOM     71  C   UNL A   1      32.790  27.991  27.251  1.00  0.00     0.023 C 
BRANCH  71  72
ATOM     72  C   UNL A   1      31.473  27.545  26.606  1.00  0.00     0.023 C 
BRANCH  72  73
ATOM     73  C   UNL A   1      31.560  26.283  25.753  1.00  0.00     0.116 C 
BRANCH  73  74
ATOM     74  N   UNL A   1      31.114  25.102  26.469  1.00  0.00    -0.356 N 
ATOM     75  C   UNL A   1      31.806  24.002  26.877  1.00  0.00     0.226 C 
ATOM     76  H   UNL A   1      30.157  25.096  26.698  1.00  0.00     0.163 HD
ATOM     77  O   UNL A   1      31.219  23.208  27.611  1.00  0.00    -0.275 OA
BRANCH  75  78
ATOM     78  C   UNL A   1      33.238  23.791  26.402  1.00  0.00     0.120 C 
ATOM     79  C   UNL A   1      33.955  22.755  27.258  1.00  0.00     0.243 C 
ATOM     80  C   UNL A   1      33.278  23.374  24.934  1.00  0.00     0.056 C 
ATOM     81  O   UNL A   1      33.480  21.415  27.123  1.00  0.00    -0.489 OA
ATOM     82  C   UNL A   1      33.049  21.898  24.767  1.00  0.00    -0.001 A 
ATOM     83  C   UNL A   1      33.151  21.028  25.853  1.00  0.00     0.164 A 
ATOM     84  C   UNL A   1      32.732  21.370  23.505  1.00  0.00     0.008 A 
ATOM     85  C   UNL A   1      32.869  19.669  25.687  1.00  0.00     0.157 A 
ATOM     86  C   UNL A   1      32.479  20.003  23.348  1.00  0.00     0.004 A 
ATOM     87  C   UNL A   1      32.539  19.148  24.446  1.00  0.00     0.050 A 
BRANCH  85  88
ATOM     88  O   UNL A   1      32.903  18.828  26.766  1.00  0.00    -0.504 OA
ATOM     89  H   UNL A   1      32.130  18.368  27.026  1.00  0.00     0.293 HD
ENDBRANCH  85  88
ENDBRANCH  75  78
ENDBRANCH  73  74
ENDBRANCH  72  73
ENDBRANCH  71  72
ENDBRANCH   1  71
TORSDOF 15
ENDMDL
