MODEL 1
REMARK VINA RESULT:     -11.9      0.000      0.000
REMARK SMILES O=C(NCCCCNC(=O)[C@@H]1[C@H](C(=O)Nc2ccccc2OC(F)F)[C@@H]2C=C[C@H]1C2)c1ccc(-c2c3nc(c(-c4cccc(S(=O)(=O)[O-])c4F)c4ccc([nH]4)c(-c4cccc(S(=O)(=O)[O-])c4F)c4nc(c(-c5cccc(S(=O)(=O)[O-])c5F)c5ccc2[nH]5)C=C4)C=C3)cc1
REMARK SMILES IDX 6 1 5 2 4 3 3 4 1 5 2 6 31 8 32 9 93 10 33 11 92 12 34 13
REMARK SMILES IDX 35 14 36 15 86 16 37 17 91 18 85 19 87 20 38 21 90 22 84 23
REMARK SMILES IDX 83 24 39 26 71 27 51 28 70 29 52 30 55 31 69 32 88 33 53 34
REMARK SMILES IDX 54 35 68 37 89 38 56 39 40 40 41 41 49 42 42 43 44 44 50 45
REMARK SMILES IDX 43 46 45 47 46 48 47 49 48 50 72 51 73 52 81 53 74 54 76 55
REMARK SMILES IDX 82 56 75 57 77 58 78 59 79 60 80 61 57 62 58 63 66 64 59 65
REMARK SMILES IDX 61 66 67 67 60 68 62 69 63 70 64 71 65 72 7 73 8 74 9 75
REMARK SMILES IDX 10 77 11 78 12 79 29 80 26 81 28 82 30 83 27 84 13 85 14 86
REMARK SMILES IDX 15 87 16 89 17 90 21 91 18 92 20 93 19 94 22 95 23 96 24 97
REMARK SMILES IDX 25 98
REMARK H PARENT 3 7 87 25 55 36 8 76 15 88
REMARK Flexibility Score: inf
ROOT
ATOM      1  C   UNL A   1      34.237  29.605  27.287  1.00  0.00     0.023 C 
ENDROOT
BRANCH   1   2
ATOM      2  C   UNL A   1      33.631  30.810  26.559  1.00  0.00     0.023 C 
BRANCH   2   3
ATOM      3  C   UNL A   1      32.472  31.482  27.280  1.00  0.00     0.116 C 
BRANCH   3   4
ATOM      4  N   UNL A   1      32.593  32.931  27.294  1.00  0.00    -0.352 N 
ATOM      5  O   UNL A   1      33.292  34.947  28.014  1.00  0.00    -0.269 OA
ATOM      6  C   UNL A   1      33.479  33.731  27.974  1.00  0.00     0.251 C 
ATOM      7  H   UNL A   1      31.944  33.411  26.730  1.00  0.00     0.163 HD
BRANCH   6   8
ATOM      8  C   UNL A   1      34.636  33.128  28.666  1.00  0.00     0.039 A 
ATOM      9  C   UNL A   1      35.930  33.333  28.183  1.00  0.00     0.014 A 
ATOM     10  C   UNL A   1      34.431  32.357  29.814  1.00  0.00     0.014 A 
ATOM     11  C   UNL A   1      36.996  32.642  28.746  1.00  0.00     0.010 A 
ATOM     12  C   UNL A   1      35.520  31.741  30.440  1.00  0.00     0.010 A 
ATOM     13  C   UNL A   1      36.808  31.853  29.893  1.00  0.00    -0.014 A 
BRANCH  13  14
ATOM     14  C   UNL A   1      37.990  31.231  30.543  1.00  0.00     0.031 A 
ATOM     15  C   UNL A   1      38.395  31.585  31.948  1.00  0.00     0.074 A 
ATOM     16  C   UNL A   1      38.696  30.318  29.845  1.00  0.00     0.049 A 
ATOM     17  N   UNL A   1      39.387  31.114  32.659  1.00  0.00    -0.248 NA
ATOM     18  C   UNL A   1      37.591  32.601  32.645  1.00  0.00     0.031 C 
ATOM     19  C   UNL A   1      38.423  29.925  28.459  1.00  0.00     0.029 A 
ATOM     20  N   UNL A   1      39.783  29.558  30.195  1.00  0.00    -0.354 N 
ATOM     21  C   UNL A   1      39.348  31.791  33.873  1.00  0.00     0.074 A 
ATOM     22  C   UNL A   1      38.241  32.721  33.795  1.00  0.00     0.031 C 
ATOM     23  C   UNL A   1      39.298  28.981  28.087  1.00  0.00     0.029 A 
ATOM     24  C   UNL A   1      40.233  28.748  29.179  1.00  0.00     0.049 A 
ATOM     25  H   UNL A   1      40.199  29.590  31.086  1.00  0.00     0.167 HD
ATOM     26  C   UNL A   1      40.149  31.640  34.955  1.00  0.00     0.034 A 
ATOM     27  C   UNL A   1      41.299  27.928  29.118  1.00  0.00     0.034 A 
ATOM     28  C   UNL A   1      41.240  30.701  35.027  1.00  0.00     0.049 A 
ATOM     29  C   UNL A   1      42.170  27.786  30.331  1.00  0.00     0.074 A 
ATOM     30  C   UNL A   1      42.087  30.445  36.092  1.00  0.00     0.029 A 
ATOM     31  N   UNL A   1      41.644  29.872  33.990  1.00  0.00    -0.354 N 
ATOM     32  N   UNL A   1      42.046  28.354  31.507  1.00  0.00    -0.248 NA
ATOM     33  C   UNL A   1      43.313  26.871  30.222  1.00  0.00     0.031 C 
ATOM     34  C   UNL A   1      43.019  29.482  35.690  1.00  0.00     0.029 A 
ATOM     35  C   UNL A   1      42.730  29.110  34.387  1.00  0.00     0.049 A 
ATOM     36  H   UNL A   1      41.220  29.831  33.102  1.00  0.00     0.167 HD
ATOM     37  C   UNL A   1      43.074  27.841  32.286  1.00  0.00     0.074 A 
ATOM     38  C   UNL A   1      43.793  26.894  31.456  1.00  0.00     0.031 C 
ATOM     39  C   UNL A   1      43.406  28.137  33.567  1.00  0.00     0.034 A 
BRANCH  26  40
ATOM     40  C   UNL A   1      39.859  32.484  36.172  1.00  0.00     0.023 A 
ATOM     41  C   UNL A   1      40.536  33.708  36.347  1.00  0.00     0.012 A 
ATOM     42  C   UNL A   1      38.867  32.107  37.100  1.00  0.00     0.148 A 
ATOM     43  C   UNL A   1      40.255  34.528  37.440  1.00  0.00     0.002 A 
ATOM     44  C   UNL A   1      38.562  32.949  38.163  1.00  0.00     0.091 A 
ATOM     45  F   UNL A   1      38.243  30.934  36.927  1.00  0.00    -0.205 F 
ATOM     46  C   UNL A   1      39.262  34.154  38.341  1.00  0.00     0.022 A 
BRANCH  44  47
ATOM     47  S   UNL A   1      37.246  32.599  39.336  1.00  0.00     0.127 S 
ATOM     48  O   UNL A   1      37.576  31.236  39.750  1.00  0.00    -0.237 OA
ATOM     49  O   UNL A   1      37.469  33.618  40.361  1.00  0.00    -0.237 OA
ATOM     50  O   UNL A   1      36.000  32.741  38.598  1.00  0.00    -0.744 OA
ENDBRANCH  44  47
ENDBRANCH  26  40
BRANCH  27  51
ATOM     51  C   UNL A   1      41.583  27.167  27.870  1.00  0.00     0.023 A 
ATOM     52  C   UNL A   1      42.100  27.838  26.745  1.00  0.00     0.012 A 
ATOM     53  C   UNL A   1      41.366  25.777  27.800  1.00  0.00     0.148 A 
ATOM     54  C   UNL A   1      42.356  27.144  25.562  1.00  0.00     0.002 A 
ATOM     55  C   UNL A   1      41.684  25.083  26.641  1.00  0.00     0.091 A 
ATOM     56  F   UNL A   1      40.862  25.158  28.877  1.00  0.00    -0.205 F 
ATOM     57  C   UNL A   1      42.159  25.767  25.513  1.00  0.00     0.022 A 
BRANCH  55  58
ATOM     58  S   UNL A   1      41.595  23.292  26.544  1.00  0.00     0.127 S 
ATOM     59  O   UNL A   1      42.279  22.892  27.770  1.00  0.00    -0.237 OA
ATOM     60  O   UNL A   1      40.149  23.061  26.538  1.00  0.00    -0.237 OA
ATOM     61  O   UNL A   1      42.261  22.934  25.298  1.00  0.00    -0.744 OA
ENDBRANCH  55  58
ENDBRANCH  27  51
BRANCH  39  62
ATOM     62  C   UNL A   1      44.572  27.396  34.166  1.00  0.00     0.023 A 
ATOM     63  C   UNL A   1      45.885  27.869  33.969  1.00  0.00     0.012 A 
ATOM     64  C   UNL A   1      44.360  26.256  34.965  1.00  0.00     0.148 A 
ATOM     65  C   UNL A   1      46.972  27.193  34.522  1.00  0.00     0.002 A 
ATOM     66  C   UNL A   1      45.443  25.619  35.558  1.00  0.00     0.091 A 
ATOM     67  F   UNL A   1      43.105  25.811  35.124  1.00  0.00    -0.205 F 
ATOM     68  C   UNL A   1      46.751  26.076  35.324  1.00  0.00     0.022 A 
BRANCH  66  69
ATOM     69  S   UNL A   1      45.248  24.233  36.683  1.00  0.00     0.127 S 
ATOM     70  O   UNL A   1      46.595  24.105  37.234  1.00  0.00    -0.237 OA
ATOM     71  O   UNL A   1      44.248  24.738  37.623  1.00  0.00    -0.237 OA
ATOM     72  O   UNL A   1      44.799  23.112  35.867  1.00  0.00    -0.744 OA
ENDBRANCH  66  69
ENDBRANCH  39  62
ENDBRANCH  13  14
ENDBRANCH   6   8
ENDBRANCH   3   4
ENDBRANCH   2   3
ENDBRANCH   1   2
BRANCH   1  73
ATOM     73  C   UNL A   1      34.326  28.306  26.473  1.00  0.00     0.116 C 
BRANCH  73  74
ATOM     74  N   UNL A   1      33.159  27.480  26.702  1.00  0.00    -0.356 N 
ATOM     75  C   UNL A   1      31.882  27.609  26.270  1.00  0.00     0.224 C 
ATOM     76  H   UNL A   1      33.321  26.692  27.268  1.00  0.00     0.163 HD
ATOM     77  O   UNL A   1      31.005  27.325  27.094  1.00  0.00    -0.275 OA
BRANCH  75  78
ATOM     78  C   UNL A   1      31.485  28.170  24.929  1.00  0.00     0.098 C 
ATOM     79  C   UNL A   1      30.311  27.517  24.105  1.00  0.00     0.099 C 
ATOM     80  C   UNL A   1      32.494  28.558  23.828  1.00  0.00     0.025 C 
ATOM     81  C   UNL A   1      30.763  27.783  22.633  1.00  0.00     0.025 C 
ATOM     82  C   UNL A   1      32.980  27.358  23.060  1.00  0.00    -0.027 C 
ATOM     83  C   UNL A   1      31.508  29.110  22.776  1.00  0.00     0.017 C 
ATOM     84  C   UNL A   1      31.959  26.928  22.306  1.00  0.00    -0.027 C 
BRANCH  79  85
ATOM     85  C   UNL A   1      29.555  26.172  24.168  1.00  0.00     0.229 C 
ATOM     86  O   UNL A   1      28.357  26.189  23.822  1.00  0.00    -0.274 OA
ATOM     87  N   UNL A   1      30.073  24.919  24.289  1.00  0.00    -0.323 N 
ATOM     88  H   UNL A   1      29.445  24.206  24.029  1.00  0.00     0.170 HD
BRANCH  87  89
ATOM     89  C   UNL A   1      31.312  24.445  24.709  1.00  0.00     0.084 A 
ATOM     90  C   UNL A   1      32.257  24.182  23.705  1.00  0.00     0.030 A 
ATOM     91  C   UNL A   1      31.650  24.196  26.034  1.00  0.00     0.149 A 
ATOM     92  C   UNL A   1      33.592  23.941  24.034  1.00  0.00     0.002 A 
ATOM     93  C   UNL A   1      33.000  24.011  26.362  1.00  0.00     0.049 A 
ATOM     94  C   UNL A   1      33.975  23.917  25.370  1.00  0.00     0.004 A 
BRANCH  91  95
ATOM     95  O   UNL A   1      30.804  24.051  27.091  1.00  0.00    -0.433 OA
BRANCH  95  96
ATOM     96  C   UNL A   1      30.010  22.870  27.218  1.00  0.00     0.542 C 
ATOM     97  F   UNL A   1      28.693  23.164  27.272  1.00  0.00    -0.167 F 
ATOM     98  F   UNL A   1      30.213  22.038  26.170  1.00  0.00    -0.167 F 
ENDBRANCH  95  96
ENDBRANCH  91  95
ENDBRANCH  87  89
ENDBRANCH  79  85
ENDBRANCH  75  78
ENDBRANCH  73  74
ENDBRANCH   1  73
TORSDOF 18
ENDMDL
MODEL 2
REMARK VINA RESULT:     -11.8      3.835      4.874
REMARK SMILES O=C(NCCCCNC(=O)[C@@H]1[C@H](C(=O)Nc2ccccc2OC(F)F)[C@@H]2C=C[C@H]1C2)c1ccc(-c2c3nc(c(-c4cccc(S(=O)(=O)[O-])c4F)c4ccc([nH]4)c(-c4cccc(S(=O)(=O)[O-])c4F)c4nc(c(-c5cccc(S(=O)(=O)[O-])c5F)c5ccc2[nH]5)C=C4)C=C3)cc1
REMARK SMILES IDX 6 1 5 2 4 3 3 4 1 5 2 6 31 8 32 9 93 10 33 11 92 12 34 13
REMARK SMILES IDX 35 14 36 15 86 16 37 17 91 18 85 19 87 20 38 21 90 22 84 23
REMARK SMILES IDX 83 24 39 26 71 27 51 28 70 29 52 30 55 31 69 32 88 33 53 34
REMARK SMILES IDX 54 35 68 37 89 38 56 39 40 40 41 41 49 42 42 43 44 44 50 45
REMARK SMILES IDX 43 46 45 47 46 48 47 49 48 50 72 51 73 52 81 53 74 54 76 55
REMARK SMILES IDX 82 56 75 57 77 58 78 59 79 60 80 61 57 62 58 63 66 64 59 65
REMARK SMILES IDX 61 66 67 67 60 68 62 69 63 70 64 71 65 72 7 73 8 74 9 75
REMARK SMILES IDX 10 77 11 78 12 79 29 80 26 81 28 82 30 83 27 84 13 85 14 86
REMARK SMILES IDX 15 87 16 89 17 90 21 91 18 92 20 93 19 94 22 95 23 96 24 97
REMARK SMILES IDX 25 98
REMARK H PARENT 3 7 87 25 55 36 8 76 15 88
REMARK Flexibility Score: inf
ROOT
ATOM      1  C   UNL A   1      31.806  27.794  26.623  1.00  0.00     0.023 C 
ENDROOT
BRANCH   1   2
ATOM      2  C   UNL A   1      33.331  27.832  26.767  1.00  0.00     0.023 C 
BRANCH   2   3
ATOM      3  C   UNL A   1      34.021  28.966  26.023  1.00  0.00     0.116 C 
BRANCH   3   4
ATOM      4  N   UNL A   1      33.770  30.262  26.633  1.00  0.00    -0.352 N 
ATOM      5  O   UNL A   1      33.940  31.898  28.171  1.00  0.00    -0.269 OA
ATOM      6  C   UNL A   1      34.430  30.891  27.661  1.00  0.00     0.251 C 
ATOM      7  H   UNL A   1      33.015  30.765  26.251  1.00  0.00     0.163 HD
BRANCH   6   8
ATOM      8  C   UNL A   1      35.708  30.345  28.160  1.00  0.00     0.039 A 
ATOM      9  C   UNL A   1      35.754  29.663  29.378  1.00  0.00     0.014 A 
ATOM     10  C   UNL A   1      36.872  30.507  27.404  1.00  0.00     0.014 A 
ATOM     11  C   UNL A   1      36.980  29.287  29.913  1.00  0.00     0.010 A 
ATOM     12  C   UNL A   1      38.093  30.037  27.900  1.00  0.00     0.010 A 
ATOM     13  C   UNL A   1      38.162  29.450  29.173  1.00  0.00    -0.014 A 
BRANCH  13  14
ATOM     14  C   UNL A   1      39.437  28.922  29.722  1.00  0.00     0.031 A 
ATOM     15  C   UNL A   1      40.089  29.535  30.931  1.00  0.00     0.074 A 
ATOM     16  C   UNL A   1      40.001  27.857  29.115  1.00  0.00     0.049 A 
ATOM     17  N   UNL A   1      41.189  29.174  31.541  1.00  0.00    -0.248 NA
ATOM     18  C   UNL A   1      39.429  30.704  31.532  1.00  0.00     0.031 C 
ATOM     19  C   UNL A   1      39.482  27.204  27.908  1.00  0.00     0.029 A 
ATOM     20  N   UNL A   1      41.128  27.137  29.420  1.00  0.00    -0.354 N 
ATOM     21  C   UNL A   1      41.372  30.083  32.577  1.00  0.00     0.074 A 
ATOM     22  C   UNL A   1      40.275  31.026  32.502  1.00  0.00     0.031 C 
ATOM     23  C   UNL A   1      40.270  26.169  27.593  1.00  0.00     0.029 A 
ATOM     24  C   UNL A   1      41.384  26.120  28.530  1.00  0.00     0.049 A 
ATOM     25  H   UNL A   1      41.697  27.330  30.199  1.00  0.00     0.167 HD
ATOM     26  C   UNL A   1      42.353  30.119  33.511  1.00  0.00     0.034 A 
ATOM     27  C   UNL A   1      42.417  25.260  28.456  1.00  0.00     0.034 A 
ATOM     28  C   UNL A   1      43.433  29.168  33.584  1.00  0.00     0.049 A 
ATOM     29  C   UNL A   1      43.490  25.328  29.502  1.00  0.00     0.074 A 
ATOM     30  C   UNL A   1      44.454  29.096  34.516  1.00  0.00     0.029 A 
ATOM     31  N   UNL A   1      43.640  28.131  32.687  1.00  0.00    -0.354 N 
ATOM     32  N   UNL A   1      43.581  26.126  30.539  1.00  0.00    -0.248 NA
ATOM     33  C   UNL A   1      44.589  24.361  29.387  1.00  0.00     0.031 C 
ATOM     34  C   UNL A   1      45.293  28.032  34.165  1.00  0.00     0.029 A 
ATOM     35  C   UNL A   1      44.774  27.418  33.038  1.00  0.00     0.049 A 
ATOM     36  H   UNL A   1      43.063  27.929  31.914  1.00  0.00     0.167 HD
ATOM     37  C   UNL A   1      44.729  25.737  31.216  1.00  0.00     0.074 A 
ATOM     38  C   UNL A   1      45.282  24.612  30.488  1.00  0.00     0.031 C 
ATOM     39  C   UNL A   1      45.286  26.271  32.331  1.00  0.00     0.034 A 
BRANCH  26  40
ATOM     40  C   UNL A   1      42.290  31.203  34.560  1.00  0.00     0.023 A 
ATOM     41  C   UNL A   1      41.628  30.953  35.779  1.00  0.00     0.012 A 
ATOM     42  C   UNL A   1      42.948  32.436  34.373  1.00  0.00     0.148 A 
ATOM     43  C   UNL A   1      41.593  31.921  36.782  1.00  0.00     0.002 A 
ATOM     44  C   UNL A   1      42.946  33.380  35.394  1.00  0.00     0.091 A 
ATOM     45  F   UNL A   1      43.561  32.662  33.203  1.00  0.00    -0.205 F 
ATOM     46  C   UNL A   1      42.259  33.129  36.594  1.00  0.00     0.022 A 
BRANCH  44  47
ATOM     47  S   UNL A   1      43.839  34.935  35.284  1.00  0.00     0.127 S 
ATOM     48  O   UNL A   1      44.761  34.824  36.414  1.00  0.00    -0.237 OA
ATOM     49  O   UNL A   1      44.473  34.832  33.970  1.00  0.00    -0.237 OA
ATOM     50  O   UNL A   1      42.838  35.984  35.398  1.00  0.00    -0.744 OA
ENDBRANCH  44  47
ENDBRANCH  26  40
BRANCH  27  51
ATOM     51  C   UNL A   1      42.469  24.251  27.361  1.00  0.00     0.023 A 
ATOM     52  C   UNL A   1      43.344  24.442  26.276  1.00  0.00     0.012 A 
ATOM     53  C   UNL A   1      41.670  23.092  27.403  1.00  0.00     0.148 A 
ATOM     54  C   UNL A   1      43.393  23.517  25.233  1.00  0.00     0.002 A 
ATOM     55  C   UNL A   1      41.772  22.143  26.394  1.00  0.00     0.091 A 
ATOM     56  F   UNL A   1      40.834  22.933  28.439  1.00  0.00    -0.205 F 
ATOM     57  C   UNL A   1      42.617  22.363  25.297  1.00  0.00     0.022 A 
BRANCH  55  58
ATOM     58  S   UNL A   1      40.915  20.567  26.473  1.00  0.00     0.127 S 
ATOM     59  O   UNL A   1      39.604  20.912  25.931  1.00  0.00    -0.237 OA
ATOM     60  O   UNL A   1      41.743  19.729  25.603  1.00  0.00    -0.237 OA
ATOM     61  O   UNL A   1      40.941  20.178  27.877  1.00  0.00    -0.744 OA
ENDBRANCH  55  58
ENDBRANCH  27  51
BRANCH  39  62
ATOM     62  C   UNL A   1      46.536  25.617  32.859  1.00  0.00     0.023 A 
ATOM     63  C   UNL A   1      46.447  24.644  33.876  1.00  0.00     0.012 A 
ATOM     64  C   UNL A   1      47.794  25.932  32.312  1.00  0.00     0.148 A 
ATOM     65  C   UNL A   1      47.597  24.030  34.370  1.00  0.00     0.002 A 
ATOM     66  C   UNL A   1      48.929  25.276  32.771  1.00  0.00     0.091 A 
ATOM     67  F   UNL A   1      47.859  26.874  31.360  1.00  0.00    -0.205 F 
ATOM     68  C   UNL A   1      48.835  24.336  33.810  1.00  0.00     0.022 A 
BRANCH  66  69
ATOM     69  S   UNL A   1      50.551  25.536  32.046  1.00  0.00     0.127 S 
ATOM     70  O   UNL A   1      51.431  25.020  33.091  1.00  0.00    -0.237 OA
ATOM     71  O   UNL A   1      50.486  24.711  30.839  1.00  0.00    -0.237 OA
ATOM     72  O   UNL A   1      50.655  26.967  31.793  1.00  0.00    -0.744 OA
ENDBRANCH  66  69
ENDBRANCH  39  62
ENDBRANCH  13  14
ENDBRANCH   6   8
ENDBRANCH   3   4
ENDBRANCH   2   3
ENDBRANCH   1   2
BRANCH   1  73
ATOM     73  C   UNL A   1      31.220  26.501  26.036  1.00  0.00     0.116 C 
BRANCH  73  74
ATOM     74  N   UNL A   1      31.543  25.367  26.876  1.00  0.00    -0.356 N 
ATOM     75  C   UNL A   1      31.990  24.128  26.562  1.00  0.00     0.224 C 
ATOM     76  H   UNL A   1      31.415  25.523  27.840  1.00  0.00     0.163 HD
ATOM     77  O   UNL A   1      31.503  23.199  27.217  1.00  0.00    -0.275 OA
BRANCH  75  78
ATOM     78  C   UNL A   1      32.926  23.820  25.422  1.00  0.00     0.098 C 
ATOM     79  C   UNL A   1      33.564  22.387  25.277  1.00  0.00     0.099 C 
ATOM     80  C   UNL A   1      34.077  24.748  24.982  1.00  0.00     0.025 C 
ATOM     81  C   UNL A   1      34.942  22.713  24.615  1.00  0.00     0.025 C 
ATOM     82  C   UNL A   1      35.286  24.608  25.868  1.00  0.00    -0.027 C 
ATOM     83  C   UNL A   1      34.594  23.940  23.772  1.00  0.00     0.017 C 
ATOM     84  C   UNL A   1      35.832  23.412  25.609  1.00  0.00    -0.027 C 
BRANCH  79  85
ATOM     85  C   UNL A   1      33.728  21.170  26.212  1.00  0.00     0.229 C 
ATOM     86  O   UNL A   1      34.039  21.412  27.395  1.00  0.00    -0.274 OA
ATOM     87  N   UNL A   1      33.323  19.886  26.005  1.00  0.00    -0.323 N 
ATOM     88  H   UNL A   1      33.277  19.349  26.829  1.00  0.00     0.170 HD
BRANCH  87  89
ATOM     89  C   UNL A   1      32.963  19.182  24.859  1.00  0.00     0.084 A 
ATOM     90  C   UNL A   1      32.280  19.903  23.867  1.00  0.00     0.030 A 
ATOM     91  C   UNL A   1      33.210  17.830  24.659  1.00  0.00     0.149 A 
ATOM     92  C   UNL A   1      32.094  19.357  22.596  1.00  0.00     0.002 A 
ATOM     93  C   UNL A   1      33.075  17.303  23.367  1.00  0.00     0.049 A 
ATOM     94  C   UNL A   1      32.550  18.073  22.329  1.00  0.00     0.004 A 
BRANCH  91  95
ATOM     95  O   UNL A   1      33.530  16.898  25.599  1.00  0.00    -0.433 OA
BRANCH  95  96
ATOM     96  C   UNL A   1      34.237  15.713  25.226  1.00  0.00     0.542 C 
ATOM     97  F   UNL A   1      35.479  15.692  25.755  1.00  0.00    -0.167 F 
ATOM     98  F   UNL A   1      33.580  14.608  25.649  1.00  0.00    -0.167 F 
ENDBRANCH  95  96
ENDBRANCH  91  95
ENDBRANCH  87  89
ENDBRANCH  79  85
ENDBRANCH  75  78
ENDBRANCH  73  74
ENDBRANCH   1  73
TORSDOF 18
ENDMDL
MODEL 3
REMARK VINA RESULT:     -11.8      1.577      2.112
REMARK SMILES O=C(NCCCCNC(=O)[C@@H]1[C@H](C(=O)Nc2ccccc2OC(F)F)[C@@H]2C=C[C@H]1C2)c1ccc(-c2c3nc(c(-c4cccc(S(=O)(=O)[O-])c4F)c4ccc([nH]4)c(-c4cccc(S(=O)(=O)[O-])c4F)c4nc(c(-c5cccc(S(=O)(=O)[O-])c5F)c5ccc2[nH]5)C=C4)C=C3)cc1
REMARK SMILES IDX 6 1 5 2 4 3 3 4 1 5 2 6 31 8 32 9 93 10 33 11 92 12 34 13
REMARK SMILES IDX 35 14 36 15 86 16 37 17 91 18 85 19 87 20 38 21 90 22 84 23
REMARK SMILES IDX 83 24 39 26 71 27 51 28 70 29 52 30 55 31 69 32 88 33 53 34
REMARK SMILES IDX 54 35 68 37 89 38 56 39 40 40 41 41 49 42 42 43 44 44 50 45
REMARK SMILES IDX 43 46 45 47 46 48 47 49 48 50 72 51 73 52 81 53 74 54 76 55
REMARK SMILES IDX 82 56 75 57 77 58 78 59 79 60 80 61 57 62 58 63 66 64 59 65
REMARK SMILES IDX 61 66 67 67 60 68 62 69 63 70 64 71 65 72 7 73 8 74 9 75
REMARK SMILES IDX 10 77 11 78 12 79 29 80 26 81 28 82 30 83 27 84 13 85 14 86
REMARK SMILES IDX 15 87 16 89 17 90 21 91 18 92 20 93 19 94 22 95 23 96 24 97
REMARK SMILES IDX 25 98
REMARK H PARENT 3 7 87 25 55 36 8 76 15 88
REMARK Flexibility Score: inf
ROOT
ATOM      1  C   UNL A   1      31.417  30.259  26.119  1.00  0.00     0.023 C 
ENDROOT
BRANCH   1   2
ATOM      2  C   UNL A   1      31.387  31.745  26.492  1.00  0.00     0.023 C 
BRANCH   2   3
ATOM      3  C   UNL A   1      32.722  32.326  26.934  1.00  0.00     0.116 C 
BRANCH   3   4
ATOM      4  N   UNL A   1      32.604  33.704  27.385  1.00  0.00    -0.352 N 
ATOM      5  O   UNL A   1      32.872  35.465  28.762  1.00  0.00    -0.269 OA
ATOM      6  C   UNL A   1      33.257  34.352  28.405  1.00  0.00     0.251 C 
ATOM      7  H   UNL A   1      31.961  34.255  26.883  1.00  0.00     0.163 HD
BRANCH   6   8
ATOM      8  C   UNL A   1      34.400  33.704  29.079  1.00  0.00     0.039 A 
ATOM      9  C   UNL A   1      35.706  34.110  28.795  1.00  0.00     0.014 A 
ATOM     10  C   UNL A   1      34.170  32.688  30.010  1.00  0.00     0.014 A 
ATOM     11  C   UNL A   1      36.779  33.398  29.314  1.00  0.00     0.010 A 
ATOM     12  C   UNL A   1      35.254  32.037  30.609  1.00  0.00     0.010 A 
ATOM     13  C   UNL A   1      36.568  32.366  30.243  1.00  0.00    -0.014 A 
BRANCH  13  14
ATOM     14  C   UNL A   1      37.743  31.710  30.874  1.00  0.00     0.031 A 
ATOM     15  C   UNL A   1      38.141  32.006  32.293  1.00  0.00     0.074 A 
ATOM     16  C   UNL A   1      38.447  30.821  30.143  1.00  0.00     0.049 A 
ATOM     17  N   UNL A   1      39.127  31.500  32.991  1.00  0.00    -0.248 NA
ATOM     18  C   UNL A   1      37.340  32.999  33.026  1.00  0.00     0.031 C 
ATOM     19  C   UNL A   1      38.179  30.485  28.741  1.00  0.00     0.029 A 
ATOM     20  N   UNL A   1      39.527  30.041  30.469  1.00  0.00    -0.354 N 
ATOM     21  C   UNL A   1      39.085  32.129  34.230  1.00  0.00     0.074 A 
ATOM     22  C   UNL A   1      37.984  33.069  34.184  1.00  0.00     0.031 C 
ATOM     23  C   UNL A   1      39.050  29.552  28.337  1.00  0.00     0.029 A 
ATOM     24  C   UNL A   1      39.978  29.270  29.424  1.00  0.00     0.049 A 
ATOM     25  H   UNL A   1      39.939  30.035  31.363  1.00  0.00     0.167 HD
ATOM     26  C   UNL A   1      39.879  31.930  35.310  1.00  0.00     0.034 A 
ATOM     27  C   UNL A   1      41.039  28.446  29.337  1.00  0.00     0.034 A 
ATOM     28  C   UNL A   1      40.964  30.982  35.350  1.00  0.00     0.049 A 
ATOM     29  C   UNL A   1      41.903  28.250  30.548  1.00  0.00     0.074 A 
ATOM     30  C   UNL A   1      41.802  30.678  36.409  1.00  0.00     0.029 A 
ATOM     31  N   UNL A   1      41.369  30.193  34.284  1.00  0.00    -0.354 N 
ATOM     32  N   UNL A   1      41.775  28.771  31.744  1.00  0.00    -0.248 NA
ATOM     33  C   UNL A   1      43.041  27.333  30.408  1.00  0.00     0.031 C 
ATOM     34  C   UNL A   1      42.731  29.726  35.974  1.00  0.00     0.029 A 
ATOM     35  C   UNL A   1      42.448  29.408  34.656  1.00  0.00     0.049 A 
ATOM     36  H   UNL A   1      40.949  30.190  33.393  1.00  0.00     0.167 HD
ATOM     37  C   UNL A   1      42.796  28.221  32.508  1.00  0.00     0.074 A 
ATOM     38  C   UNL A   1      43.514  27.303  31.645  1.00  0.00     0.031 C 
ATOM     39  C   UNL A   1      43.122  28.464  33.801  1.00  0.00     0.034 A 
BRANCH  26  40
ATOM     40  C   UNL A   1      39.587  32.726  36.558  1.00  0.00     0.023 A 
ATOM     41  C   UNL A   1      40.205  33.981  36.743  1.00  0.00     0.012 A 
ATOM     42  C   UNL A   1      38.648  32.275  37.508  1.00  0.00     0.148 A 
ATOM     43  C   UNL A   1      39.919  34.756  37.867  1.00  0.00     0.002 A 
ATOM     44  C   UNL A   1      38.336  33.073  38.603  1.00  0.00     0.091 A 
ATOM     45  F   UNL A   1      38.081  31.075  37.324  1.00  0.00    -0.205 F 
ATOM     46  C   UNL A   1      38.979  34.308  38.790  1.00  0.00     0.022 A 
BRANCH  44  47
ATOM     47  S   UNL A   1      37.081  32.624  39.808  1.00  0.00     0.127 S 
ATOM     48  O   UNL A   1      37.180  33.729  40.761  1.00  0.00    -0.237 OA
ATOM     49  O   UNL A   1      35.863  32.626  38.998  1.00  0.00    -0.237 OA
ATOM     50  O   UNL A   1      37.468  31.320  40.325  1.00  0.00    -0.744 OA
ENDBRANCH  44  47
ENDBRANCH  26  40
BRANCH  27  51
ATOM     51  C   UNL A   1      41.326  27.733  28.060  1.00  0.00     0.023 A 
ATOM     52  C   UNL A   1      41.831  28.449  26.958  1.00  0.00     0.012 A 
ATOM     53  C   UNL A   1      41.123  26.344  27.942  1.00  0.00     0.148 A 
ATOM     54  C   UNL A   1      42.089  27.801  25.750  1.00  0.00     0.002 A 
ATOM     55  C   UNL A   1      41.443  25.696  26.757  1.00  0.00     0.091 A 
ATOM     56  F   UNL A   1      40.630  25.682  28.998  1.00  0.00    -0.205 F 
ATOM     57  C   UNL A   1      41.906  26.425  25.652  1.00  0.00     0.022 A 
BRANCH  55  58
ATOM     58  S   UNL A   1      41.373  23.908  26.596  1.00  0.00     0.127 S 
ATOM     59  O   UNL A   1      41.964  23.472  27.857  1.00  0.00    -0.237 OA
ATOM     60  O   UNL A   1      39.933  23.672  26.474  1.00  0.00    -0.237 OA
ATOM     61  O   UNL A   1      42.133  23.594  25.393  1.00  0.00    -0.744 OA
ENDBRANCH  55  58
ENDBRANCH  27  51
BRANCH  39  62
ATOM     62  C   UNL A   1      44.280  27.692  34.377  1.00  0.00     0.023 A 
ATOM     63  C   UNL A   1      45.583  28.228  34.320  1.00  0.00     0.012 A 
ATOM     64  C   UNL A   1      44.068  26.457  35.017  1.00  0.00     0.148 A 
ATOM     65  C   UNL A   1      46.662  27.523  34.853  1.00  0.00     0.002 A 
ATOM     66  C   UNL A   1      45.139  25.786  35.594  1.00  0.00     0.091 A 
ATOM     67  F   UNL A   1      42.824  25.955  35.043  1.00  0.00    -0.205 F 
ATOM     68  C   UNL A   1      46.439  26.310  35.499  1.00  0.00     0.022 A 
BRANCH  66  69
ATOM     69  S   UNL A   1      44.934  24.267  36.528  1.00  0.00     0.127 S 
ATOM     70  O   UNL A   1      44.314  24.754  37.758  1.00  0.00    -0.237 OA
ATOM     71  O   UNL A   1      44.047  23.489  35.663  1.00  0.00    -0.237 OA
ATOM     72  O   UNL A   1      46.270  23.706  36.683  1.00  0.00    -0.744 OA
ENDBRANCH  66  69
ENDBRANCH  39  62
ENDBRANCH  13  14
ENDBRANCH   6   8
ENDBRANCH   3   4
ENDBRANCH   2   3
ENDBRANCH   1   2
BRANCH   1  73
ATOM     73  C   UNL A   1      31.108  29.930  24.650  1.00  0.00     0.116 C 
BRANCH  73  74
ATOM     74  N   UNL A   1      32.214  29.222  24.043  1.00  0.00    -0.356 N 
ATOM     75  C   UNL A   1      32.783  28.031  24.350  1.00  0.00     0.224 C 
ATOM     76  H   UNL A   1      32.624  29.684  23.276  1.00  0.00     0.163 HD
ATOM     77  O   UNL A   1      34.016  27.988  24.266  1.00  0.00    -0.275 OA
BRANCH  75  78
ATOM     78  C   UNL A   1      32.033  26.838  24.881  1.00  0.00     0.098 C 
ATOM     79  C   UNL A   1      32.325  25.395  24.318  1.00  0.00     0.099 C 
ATOM     80  C   UNL A   1      30.507  26.811  25.102  1.00  0.00     0.025 C 
ATOM     81  C   UNL A   1      30.929  24.706  24.458  1.00  0.00     0.025 C 
ATOM     82  C   UNL A   1      29.755  26.575  23.820  1.00  0.00    -0.027 C 
ATOM     83  C   UNL A   1      30.370  25.396  25.703  1.00  0.00     0.017 C 
ATOM     84  C   UNL A   1      29.966  25.300  23.464  1.00  0.00    -0.027 C 
BRANCH  79  85
ATOM     85  C   UNL A   1      33.040  24.840  23.067  1.00  0.00     0.229 C 
ATOM     86  O   UNL A   1      33.388  25.673  22.208  1.00  0.00    -0.274 OA
ATOM     87  N   UNL A   1      33.584  23.605  22.886  1.00  0.00    -0.323 N 
ATOM     88  H   UNL A   1      34.222  23.562  22.137  1.00  0.00     0.170 HD
BRANCH  87  89
ATOM     89  C   UNL A   1      33.418  22.392  23.548  1.00  0.00     0.084 A 
ATOM     90  C   UNL A   1      32.442  21.523  23.034  1.00  0.00     0.030 A 
ATOM     91  C   UNL A   1      34.127  22.013  24.681  1.00  0.00     0.149 A 
ATOM     92  C   UNL A   1      32.371  20.200  23.472  1.00  0.00     0.002 A 
ATOM     93  C   UNL A   1      34.094  20.670  25.080  1.00  0.00     0.049 A 
ATOM     94  C   UNL A   1      33.243  19.756  24.457  1.00  0.00     0.004 A 
BRANCH  91  95
ATOM     95  O   UNL A   1      34.839  22.816  25.520  1.00  0.00    -0.433 OA
BRANCH  95  96
ATOM     96  C   UNL A   1      34.266  23.251  26.755  1.00  0.00     0.542 C 
ATOM     97  F   UNL A   1      32.922  23.346  26.669  1.00  0.00    -0.167 F 
ATOM     98  F   UNL A   1      34.565  22.389  27.754  1.00  0.00    -0.167 F 
ENDBRANCH  95  96
ENDBRANCH  91  95
ENDBRANCH  87  89
ENDBRANCH  79  85
ENDBRANCH  75  78
ENDBRANCH  73  74
ENDBRANCH   1  73
TORSDOF 18
ENDMDL
