MODEL 1
REMARK VINA RESULT:     -12.4      0.000      0.000
REMARK SMILES Cc1cc(NC(=O)c2ccc(Br)cc2N)ccc1C(=O)NCCCCNC(=O)c1ccc(-c2c3nc(c(-c4cccc(S(=O)(=O)[O-])c4F)c4ccc([nH]4)c(-c4cccc(S(=O)(=O)[O-])c4F)c4nc(c(-c5cccc(S(=O)(=O)[O-])c5F)c5ccc2[nH]5)C=C4)C=C3)cc1
REMARK SMILES IDX 23 1 22 2 21 3 19 4 20 5 18 7 1 8 2 9 3 10 4 11 17 12 16 13
REMARK SMILES IDX 5 14 6 15 7 17 8 18 9 19 14 20 10 21 13 22 11 23 12 24 15 25
REMARK SMILES IDX 24 28 25 29 26 30 27 31 28 33 29 34 30 35 91 36 31 37 90 38
REMARK SMILES IDX 32 39 33 40 34 41 84 42 35 43 89 44 83 45 85 46 36 47 88 48
REMARK SMILES IDX 82 49 81 50 37 52 69 53 49 54 68 55 50 56 53 57 67 58 86 59
REMARK SMILES IDX 51 60 52 61 66 63 87 64 54 65 38 66 39 67 47 68 40 69 42 70
REMARK SMILES IDX 48 71 41 72 43 73 44 74 45 75 46 76 70 77 71 78 79 79 72 80
REMARK SMILES IDX 74 81 80 82 73 83 75 84 76 85 77 86 78 87 55 88 56 89 64 90
REMARK SMILES IDX 57 91 59 92 65 93 58 94 60 95 61 96 62 97 63 98
REMARK H PARENT 21 6 5 16 15 26 15 27 26 32 85 51 53 62
REMARK Flexibility Score: inf
ROOT
ATOM      1  C   UNL A   1      34.104  29.341  27.310  1.00  0.00     0.023 C 
ENDROOT
BRANCH   1   2
ATOM      2  C   UNL A   1      33.888  28.721  25.928  1.00  0.00     0.116 C 
BRANCH   2   3
ATOM      3  N   UNL A   1      32.603  29.113  25.401  1.00  0.00    -0.352 N 
ATOM      4  C   UNL A   1      31.550  28.474  24.811  1.00  0.00     0.251 C 
ATOM      5  O   UNL A   1      30.682  29.253  24.389  1.00  0.00    -0.269 OA
ATOM      6  H   UNL A   1      32.447  30.081  25.487  1.00  0.00     0.163 HD
BRANCH   4   7
ATOM      7  C   UNL A   1      31.283  26.990  24.666  1.00  0.00     0.042 A 
ATOM      8  C   UNL A   1      31.432  26.420  22.098  1.00  0.00     0.045 C 
ATOM      9  C   UNL A   1      31.242  26.125  23.552  1.00  0.00    -0.036 A 
ATOM     10  C   UNL A   1      30.965  24.754  23.766  1.00  0.00     0.030 A 
ATOM     11  C   UNL A   1      30.777  24.200  25.021  1.00  0.00     0.041 A 
ATOM     12  C   UNL A   1      30.967  26.402  25.929  1.00  0.00     0.016 A 
ATOM     13  C   UNL A   1      30.694  25.040  26.111  1.00  0.00     0.027 A 
BRANCH  11  14
ATOM     14  N   UNL A   1      30.730  22.810  25.198  1.00  0.00    -0.322 N 
ATOM     15  C   UNL A   1      31.787  21.915  25.184  1.00  0.00     0.257 C 
ATOM     16  H   UNL A   1      29.837  22.425  25.351  1.00  0.00     0.170 HD
ATOM     17  O   UNL A   1      31.565  20.721  24.973  1.00  0.00    -0.269 OA
BRANCH  15  18
ATOM     18  C   UNL A   1      33.194  22.350  25.478  1.00  0.00     0.063 A 
ATOM     19  C   UNL A   1      34.020  22.573  24.359  1.00  0.00     0.017 A 
ATOM     20  C   UNL A   1      33.720  22.517  26.782  1.00  0.00     0.045 A 
ATOM     21  C   UNL A   1      35.356  22.950  24.521  1.00  0.00     0.016 A 
ATOM     22  C   UNL A   1      35.067  22.891  26.920  1.00  0.00     0.042 A 
ATOM     23  C   UNL A   1      35.873  23.102  25.802  1.00  0.00     0.020 A 
ATOM     24  Br  UNL A   1      37.697  23.536  26.032  1.00  0.00    -0.051 Br
BRANCH  20  25
ATOM     25  N   UNL A   1      33.034  22.174  27.948  1.00  0.00    -0.398 N 
ATOM     26  H   UNL A   1      32.403  22.812  28.354  1.00  0.00     0.156 HD
ATOM     27  H   UNL A   1      33.181  21.294  28.364  1.00  0.00     0.156 HD
ENDBRANCH  20  25
ENDBRANCH  15  18
ENDBRANCH  11  14
ENDBRANCH   4   7
ENDBRANCH   2   3
ENDBRANCH   1   2
BRANCH   1  28
ATOM     28  C   UNL A   1      33.603  30.766  27.552  1.00  0.00     0.023 C 
BRANCH  28  29
ATOM     29  C   UNL A   1      34.660  31.855  27.540  1.00  0.00     0.116 C 
BRANCH  29  30
ATOM     30  N   UNL A   1      34.174  33.092  28.150  1.00  0.00    -0.352 N 
ATOM     31  C   UNL A   1      34.434  33.612  29.404  1.00  0.00     0.251 C 
ATOM     32  H   UNL A   1      33.576  33.632  27.586  1.00  0.00     0.163 HD
ATOM     33  O   UNL A   1      33.579  34.308  29.936  1.00  0.00    -0.269 OA
BRANCH  31  34
ATOM     34  C   UNL A   1      35.756  33.397  30.020  1.00  0.00     0.039 A 
ATOM     35  C   UNL A   1      36.950  33.827  29.429  1.00  0.00     0.014 A 
ATOM     36  C   UNL A   1      35.803  32.566  31.130  1.00  0.00     0.014 A 
ATOM     37  C   UNL A   1      38.156  33.283  29.872  1.00  0.00     0.010 A 
ATOM     38  C   UNL A   1      36.972  32.309  31.759  1.00  0.00     0.010 A 
ATOM     39  C   UNL A   1      38.118  32.458  30.988  1.00  0.00    -0.014 A 
BRANCH  39  40
ATOM     40  C   UNL A   1      39.107  31.471  31.382  1.00  0.00     0.031 A 
ATOM     41  C   UNL A   1      39.192  30.222  30.629  1.00  0.00     0.074 A 
ATOM     42  C   UNL A   1      40.179  32.048  31.981  1.00  0.00     0.049 A 
ATOM     43  N   UNL A   1      40.049  29.294  30.862  1.00  0.00    -0.248 NA
ATOM     44  C   UNL A   1      38.287  29.923  29.524  1.00  0.00     0.031 C 
ATOM     45  C   UNL A   1      41.587  31.732  31.805  1.00  0.00     0.029 A 
ATOM     46  N   UNL A   1      40.206  33.155  32.843  1.00  0.00    -0.354 N 
ATOM     47  C   UNL A   1      40.063  28.494  29.737  1.00  0.00     0.074 A 
ATOM     48  C   UNL A   1      38.828  28.795  29.059  1.00  0.00     0.031 C 
ATOM     49  C   UNL A   1      42.298  32.409  32.726  1.00  0.00     0.029 A 
ATOM     50  C   UNL A   1      41.340  33.005  33.646  1.00  0.00     0.049 A 
ATOM     51  H   UNL A   1      39.555  33.894  32.875  1.00  0.00     0.167 HD
ATOM     52  C   UNL A   1      41.224  27.851  29.416  1.00  0.00     0.034 A 
ATOM     53  C   UNL A   1      41.232  32.701  34.977  1.00  0.00     0.034 A 
ATOM     54  C   UNL A   1      42.233  28.070  30.478  1.00  0.00     0.049 A 
ATOM     55  C   UNL A   1      41.732  31.294  35.277  1.00  0.00     0.074 A 
ATOM     56  C   UNL A   1      43.369  28.861  30.555  1.00  0.00     0.029 A 
ATOM     57  N   UNL A   1      41.955  27.673  31.785  1.00  0.00    -0.354 N 
ATOM     58  N   UNL A   1      42.137  30.452  34.364  1.00  0.00    -0.248 NA
ATOM     59  C   UNL A   1      41.819  30.715  36.615  1.00  0.00     0.031 C 
ATOM     60  C   UNL A   1      43.685  29.042  31.936  1.00  0.00     0.029 A 
ATOM     61  C   UNL A   1      42.773  28.329  32.697  1.00  0.00     0.049 A 
ATOM     62  H   UNL A   1      41.266  27.014  32.031  1.00  0.00     0.167 HD
ATOM     63  C   UNL A   1      42.376  29.225  34.911  1.00  0.00     0.074 A 
ATOM     64  C   UNL A   1      42.251  29.469  36.340  1.00  0.00     0.031 C 
ATOM     65  C   UNL A   1      42.592  28.112  34.137  1.00  0.00     0.034 A 
BRANCH  52  66
ATOM     66  C   UNL A   1      41.586  27.257  28.051  1.00  0.00     0.023 A 
ATOM     67  C   UNL A   1      41.478  28.118  26.935  1.00  0.00     0.012 A 
ATOM     68  C   UNL A   1      41.960  25.922  27.748  1.00  0.00     0.148 A 
ATOM     69  C   UNL A   1      41.671  27.683  25.616  1.00  0.00     0.002 A 
ATOM     70  C   UNL A   1      42.165  25.486  26.433  1.00  0.00     0.091 A 
ATOM     71  F   UNL A   1      42.130  25.029  28.716  1.00  0.00    -0.205 F 
ATOM     72  C   UNL A   1      42.008  26.363  25.363  1.00  0.00     0.022 A 
BRANCH  70  73
ATOM     73  S   UNL A   1      42.615  23.782  26.029  1.00  0.00     0.127 S 
ATOM     74  O   UNL A   1      43.627  23.483  27.043  1.00  0.00    -0.237 OA
ATOM     75  O   UNL A   1      41.348  23.075  26.209  1.00  0.00    -0.237 OA
ATOM     76  O   UNL A   1      43.119  23.795  24.660  1.00  0.00    -0.744 OA
ENDBRANCH  70  73
ENDBRANCH  52  66
BRANCH  53  77
ATOM     77  C   UNL A   1      40.075  33.396  35.633  1.00  0.00     0.023 A 
ATOM     78  C   UNL A   1      38.890  32.633  35.777  1.00  0.00     0.012 A 
ATOM     79  C   UNL A   1      40.278  34.490  36.496  1.00  0.00     0.148 A 
ATOM     80  C   UNL A   1      38.020  32.845  36.849  1.00  0.00     0.002 A 
ATOM     81  C   UNL A   1      39.421  34.677  37.582  1.00  0.00     0.091 A 
ATOM     82  F   UNL A   1      41.362  35.253  36.311  1.00  0.00    -0.205 F 
ATOM     83  C   UNL A   1      38.315  33.833  37.781  1.00  0.00     0.022 A 
BRANCH  81  84
ATOM     84  S   UNL A   1      39.779  35.874  38.880  1.00  0.00     0.127 S 
ATOM     85  O   UNL A   1      38.706  35.608  39.831  1.00  0.00    -0.237 OA
ATOM     86  O   UNL A   1      41.109  35.468  39.328  1.00  0.00    -0.237 OA
ATOM     87  O   UNL A   1      39.746  37.172  38.218  1.00  0.00    -0.744 OA
ENDBRANCH  81  84
ENDBRANCH  53  77
BRANCH  65  88
ATOM     88  C   UNL A   1      42.630  26.689  34.663  1.00  0.00     0.023 A 
ATOM     89  C   UNL A   1      41.548  26.104  35.347  1.00  0.00     0.012 A 
ATOM     90  C   UNL A   1      43.715  25.832  34.340  1.00  0.00     0.148 A 
ATOM     91  C   UNL A   1      41.566  24.765  35.750  1.00  0.00     0.002 A 
ATOM     92  C   UNL A   1      43.667  24.472  34.622  1.00  0.00     0.091 A 
ATOM     93  F   UNL A   1      44.820  26.335  33.769  1.00  0.00    -0.205 F 
ATOM     94  C   UNL A   1      42.612  23.940  35.364  1.00  0.00     0.022 A 
BRANCH  92  95
ATOM     95  S   UNL A   1      44.857  23.338  33.891  1.00  0.00     0.127 S 
ATOM     96  O   UNL A   1      44.463  22.061  34.483  1.00  0.00    -0.237 OA
ATOM     97  O   UNL A   1      44.570  23.462  32.460  1.00  0.00    -0.237 OA
ATOM     98  O   UNL A   1      46.161  23.856  34.281  1.00  0.00    -0.744 OA
ENDBRANCH  92  95
ENDBRANCH  65  88
ENDBRANCH  39  40
ENDBRANCH  31  34
ENDBRANCH  29  30
ENDBRANCH  28  29
ENDBRANCH   1  28
TORSDOF 17
ENDMDL
MODEL 2
REMARK VINA RESULT:     -12.4      4.793     10.542
REMARK SMILES Cc1cc(NC(=O)c2ccc(Br)cc2N)ccc1C(=O)NCCCCNC(=O)c1ccc(-c2c3nc(c(-c4cccc(S(=O)(=O)[O-])c4F)c4ccc([nH]4)c(-c4cccc(S(=O)(=O)[O-])c4F)c4nc(c(-c5cccc(S(=O)(=O)[O-])c5F)c5ccc2[nH]5)C=C4)C=C3)cc1
REMARK SMILES IDX 23 1 22 2 21 3 19 4 20 5 18 7 1 8 2 9 3 10 4 11 17 12 16 13
REMARK SMILES IDX 5 14 6 15 7 17 8 18 9 19 14 20 10 21 13 22 11 23 12 24 15 25
REMARK SMILES IDX 24 28 25 29 26 30 27 31 28 33 29 34 30 35 91 36 31 37 90 38
REMARK SMILES IDX 32 39 33 40 34 41 84 42 35 43 89 44 83 45 85 46 36 47 88 48
REMARK SMILES IDX 82 49 81 50 37 52 69 53 49 54 68 55 50 56 53 57 67 58 86 59
REMARK SMILES IDX 51 60 52 61 66 63 87 64 54 65 38 66 39 67 47 68 40 69 42 70
REMARK SMILES IDX 48 71 41 72 43 73 44 74 45 75 46 76 70 77 71 78 79 79 72 80
REMARK SMILES IDX 74 81 80 82 73 83 75 84 76 85 77 86 78 87 55 88 56 89 64 90
REMARK SMILES IDX 57 91 59 92 65 93 58 94 60 95 61 96 62 97 63 98
REMARK H PARENT 21 6 5 16 15 26 15 27 26 32 85 51 53 62
REMARK Flexibility Score: inf
ROOT
ATOM      1  C   UNL A   1      37.146  23.321  25.319  1.00  0.00     0.023 C 
ENDROOT
BRANCH   1   2
ATOM      2  C   UNL A   1      35.690  23.255  25.785  1.00  0.00     0.116 C 
BRANCH   2   3
ATOM      3  N   UNL A   1      34.995  22.191  25.102  1.00  0.00    -0.352 N 
ATOM      4  C   UNL A   1      33.761  22.031  24.539  1.00  0.00     0.251 C 
ATOM      5  O   UNL A   1      33.542  20.868  24.167  1.00  0.00    -0.269 OA
ATOM      6  H   UNL A   1      35.545  21.380  25.023  1.00  0.00     0.163 HD
BRANCH   4   7
ATOM      7  C   UNL A   1      32.688  23.063  24.261  1.00  0.00     0.042 A 
ATOM      8  C   UNL A   1      30.735  22.638  25.979  1.00  0.00     0.045 C 
ATOM      9  C   UNL A   1      31.436  23.334  24.855  1.00  0.00    -0.036 A 
ATOM     10  C   UNL A   1      30.661  24.402  24.349  1.00  0.00     0.030 A 
ATOM     11  C   UNL A   1      31.084  25.236  23.327  1.00  0.00     0.041 A 
ATOM     12  C   UNL A   1      33.034  23.870  23.134  1.00  0.00     0.016 A 
ATOM     13  C   UNL A   1      32.244  24.921  22.652  1.00  0.00     0.027 A 
BRANCH  11  14
ATOM     14  N   UNL A   1      30.384  26.410  23.015  1.00  0.00    -0.322 N 
ATOM     15  C   UNL A   1      30.417  27.623  23.684  1.00  0.00     0.257 C 
ATOM     16  H   UNL A   1      29.799  26.367  22.225  1.00  0.00     0.170 HD
ATOM     17  O   UNL A   1      29.490  28.421  23.535  1.00  0.00    -0.269 OA
BRANCH  15  18
ATOM     18  C   UNL A   1      31.584  28.018  24.544  1.00  0.00     0.063 A 
ATOM     19  C   UNL A   1      31.488  27.683  25.908  1.00  0.00     0.017 A 
ATOM     20  C   UNL A   1      32.723  28.711  24.070  1.00  0.00     0.045 A 
ATOM     21  C   UNL A   1      32.504  28.033  26.802  1.00  0.00     0.016 A 
ATOM     22  C   UNL A   1      33.729  29.057  24.988  1.00  0.00     0.042 A 
ATOM     23  C   UNL A   1      33.617  28.723  26.337  1.00  0.00     0.020 A 
ATOM     24  Br  UNL A   1      34.958  29.268  27.550  1.00  0.00    -0.051 Br
BRANCH  20  25
ATOM     25  N   UNL A   1      32.842  29.221  22.776  1.00  0.00    -0.398 N 
ATOM     26  H   UNL A   1      32.145  29.816  22.415  1.00  0.00     0.156 HD
ATOM     27  H   UNL A   1      33.624  28.987  22.225  1.00  0.00     0.156 HD
ENDBRANCH  20  25
ENDBRANCH  15  18
ENDBRANCH  11  14
ENDBRANCH   4   7
ENDBRANCH   2   3
ENDBRANCH   1   2
BRANCH   1  28
ATOM     28  C   UNL A   1      38.054  22.124  25.607  1.00  0.00     0.023 C 
BRANCH  28  29
ATOM     29  C   UNL A   1      39.283  22.408  26.452  1.00  0.00     0.116 C 
BRANCH  29  30
ATOM     30  N   UNL A   1      40.257  21.320  26.381  1.00  0.00    -0.352 N 
ATOM     31  C   UNL A   1      41.627  21.379  26.215  1.00  0.00     0.251 C 
ATOM     32  H   UNL A   1      39.880  20.414  26.463  1.00  0.00     0.163 HD
ATOM     33  O   UNL A   1      42.188  20.447  25.653  1.00  0.00    -0.269 OA
BRANCH  31  34
ATOM     34  C   UNL A   1      42.382  22.505  26.797  1.00  0.00     0.039 A 
ATOM     35  C   UNL A   1      42.537  22.684  28.176  1.00  0.00     0.014 A 
ATOM     36  C   UNL A   1      42.776  23.510  25.927  1.00  0.00     0.014 A 
ATOM     37  C   UNL A   1      42.937  23.933  28.653  1.00  0.00     0.010 A 
ATOM     38  C   UNL A   1      43.471  24.583  26.371  1.00  0.00     0.010 A 
ATOM     39  C   UNL A   1      43.314  24.888  27.718  1.00  0.00    -0.014 A 
BRANCH  39  40
ATOM     40  C   UNL A   1      43.360  26.326  27.904  1.00  0.00     0.031 A 
ATOM     41  C   UNL A   1      42.105  27.074  27.915  1.00  0.00     0.074 A 
ATOM     42  C   UNL A   1      44.452  26.704  28.615  1.00  0.00     0.049 A 
ATOM     43  N   UNL A   1      42.019  28.342  28.108  1.00  0.00    -0.248 NA
ATOM     44  C   UNL A   1      40.816  26.424  27.703  1.00  0.00     0.031 C 
ATOM     45  C   UNL A   1      44.540  27.701  29.669  1.00  0.00     0.029 A 
ATOM     46  N   UNL A   1      45.747  26.163  28.580  1.00  0.00    -0.354 N 
ATOM     47  C   UNL A   1      40.701  28.593  28.426  1.00  0.00     0.074 A 
ATOM     48  C   UNL A   1      39.984  27.436  27.953  1.00  0.00     0.031 C 
ATOM     49  C   UNL A   1      45.838  27.897  29.968  1.00  0.00     0.029 A 
ATOM     50  C   UNL A   1      46.616  27.187  28.963  1.00  0.00     0.049 A 
ATOM     51  H   UNL A   1      45.994  25.241  28.334  1.00  0.00     0.167 HD
ATOM     52  C   UNL A   1      40.424  29.646  29.250  1.00  0.00     0.034 A 
ATOM     53  C   UNL A   1      47.462  27.776  28.062  1.00  0.00     0.034 A 
ATOM     54  C   UNL A   1      41.665  30.404  29.535  1.00  0.00     0.049 A 
ATOM     55  C   UNL A   1      47.064  29.218  27.771  1.00  0.00     0.074 A 
ATOM     56  C   UNL A   1      42.484  30.491  30.650  1.00  0.00     0.029 A 
ATOM     57  N   UNL A   1      42.391  30.955  28.482  1.00  0.00    -0.354 N 
ATOM     58  N   UNL A   1      45.999  29.794  28.261  1.00  0.00    -0.248 NA
ATOM     59  C   UNL A   1      47.820  30.127  26.915  1.00  0.00     0.031 C 
ATOM     60  C   UNL A   1      43.756  30.978  30.223  1.00  0.00     0.029 A 
ATOM     61  C   UNL A   1      43.701  31.227  28.861  1.00  0.00     0.049 A 
ATOM     62  H   UNL A   1      42.025  31.129  27.585  1.00  0.00     0.167 HD
ATOM     63  C   UNL A   1      45.819  31.027  27.705  1.00  0.00     0.074 A 
ATOM     64  C   UNL A   1      47.039  31.226  26.938  1.00  0.00     0.031 C 
ATOM     65  C   UNL A   1      44.660  31.742  27.877  1.00  0.00     0.034 A 
BRANCH  52  66
ATOM     66  C   UNL A   1      39.128  29.868  30.037  1.00  0.00     0.023 A 
ATOM     67  C   UNL A   1      38.706  28.812  30.876  1.00  0.00     0.012 A 
ATOM     68  C   UNL A   1      38.252  30.983  29.986  1.00  0.00     0.148 A 
ATOM     69  C   UNL A   1      37.488  28.830  31.570  1.00  0.00     0.002 A 
ATOM     70  C   UNL A   1      37.040  31.011  30.685  1.00  0.00     0.091 A 
ATOM     71  F   UNL A   1      38.558  32.053  29.261  1.00  0.00    -0.205 F 
ATOM     72  C   UNL A   1      36.649  29.928  31.470  1.00  0.00     0.022 A 
BRANCH  70  73
ATOM     73  S   UNL A   1      35.901  32.413  30.609  1.00  0.00     0.127 S 
ATOM     74  O   UNL A   1      34.854  32.010  31.549  1.00  0.00    -0.237 OA
ATOM     75  O   UNL A   1      36.739  33.519  31.070  1.00  0.00    -0.237 OA
ATOM     76  O   UNL A   1      35.457  32.518  29.223  1.00  0.00    -0.744 OA
ENDBRANCH  70  73
ENDBRANCH  52  66
BRANCH  53  77
ATOM     77  C   UNL A   1      48.031  26.793  27.081  1.00  0.00     0.023 A 
ATOM     78  C   UNL A   1      47.304  26.621  25.878  1.00  0.00     0.012 A 
ATOM     79  C   UNL A   1      49.401  26.466  27.091  1.00  0.00     0.148 A 
ATOM     80  C   UNL A   1      47.951  26.298  24.682  1.00  0.00     0.002 A 
ATOM     81  C   UNL A   1      50.047  26.173  25.888  1.00  0.00     0.091 A 
ATOM     82  F   UNL A   1      50.069  26.560  28.248  1.00  0.00    -0.205 F 
ATOM     83  C   UNL A   1      49.331  26.127  24.680  1.00  0.00     0.022 A 
BRANCH  81  84
ATOM     84  S   UNL A   1      51.839  26.026  25.782  1.00  0.00     0.127 S 
ATOM     85  O   UNL A   1      52.072  24.764  26.475  1.00  0.00    -0.237 OA
ATOM     86  O   UNL A   1      52.070  25.986  24.341  1.00  0.00    -0.237 OA
ATOM     87  O   UNL A   1      52.356  27.223  26.434  1.00  0.00    -0.744 OA
ENDBRANCH  81  84
ENDBRANCH  53  77
BRANCH  65  88
ATOM     88  C   UNL A   1      44.300  33.000  27.108  1.00  0.00     0.023 A 
ATOM     89  C   UNL A   1      44.204  33.029  25.704  1.00  0.00     0.012 A 
ATOM     90  C   UNL A   1      43.884  34.170  27.797  1.00  0.00     0.148 A 
ATOM     91  C   UNL A   1      43.787  34.172  25.015  1.00  0.00     0.002 A 
ATOM     92  C   UNL A   1      43.343  35.253  27.115  1.00  0.00     0.091 A 
ATOM     93  F   UNL A   1      44.030  34.251  29.128  1.00  0.00    -0.205 F 
ATOM     94  C   UNL A   1      43.329  35.276  25.720  1.00  0.00     0.022 A 
BRANCH  92  95
ATOM     95  S   UNL A   1      42.485  36.562  28.001  1.00  0.00     0.127 S 
ATOM     96  O   UNL A   1      43.536  37.077  28.875  1.00  0.00    -0.237 OA
ATOM     97  O   UNL A   1      42.091  37.467  26.920  1.00  0.00    -0.237 OA
ATOM     98  O   UNL A   1      41.365  35.901  28.658  1.00  0.00    -0.744 OA
ENDBRANCH  92  95
ENDBRANCH  65  88
ENDBRANCH  39  40
ENDBRANCH  31  34
ENDBRANCH  29  30
ENDBRANCH  28  29
ENDBRANCH   1  28
TORSDOF 17
ENDMDL
MODEL 3
REMARK VINA RESULT:     -12.4      2.895      3.849
REMARK SMILES Cc1cc(NC(=O)c2ccc(Br)cc2N)ccc1C(=O)NCCCCNC(=O)c1ccc(-c2c3nc(c(-c4cccc(S(=O)(=O)[O-])c4F)c4ccc([nH]4)c(-c4cccc(S(=O)(=O)[O-])c4F)c4nc(c(-c5cccc(S(=O)(=O)[O-])c5F)c5ccc2[nH]5)C=C4)C=C3)cc1
REMARK SMILES IDX 23 1 22 2 21 3 19 4 20 5 18 7 1 8 2 9 3 10 4 11 17 12 16 13
REMARK SMILES IDX 5 14 6 15 7 17 8 18 9 19 14 20 10 21 13 22 11 23 12 24 15 25
REMARK SMILES IDX 24 28 25 29 26 30 27 31 28 33 29 34 30 35 91 36 31 37 90 38
REMARK SMILES IDX 32 39 33 40 34 41 84 42 35 43 89 44 83 45 85 46 36 47 88 48
REMARK SMILES IDX 82 49 81 50 37 52 69 53 49 54 68 55 50 56 53 57 67 58 86 59
REMARK SMILES IDX 51 60 52 61 66 63 87 64 54 65 38 66 39 67 47 68 40 69 42 70
REMARK SMILES IDX 48 71 41 72 43 73 44 74 45 75 46 76 70 77 71 78 79 79 72 80
REMARK SMILES IDX 74 81 80 82 73 83 75 84 76 85 77 86 78 87 55 88 56 89 64 90
REMARK SMILES IDX 57 91 59 92 65 93 58 94 60 95 61 96 62 97 63 98
REMARK H PARENT 21 6 5 16 15 26 15 27 26 32 85 51 53 62
REMARK Flexibility Score: inf
ROOT
ATOM      1  C   UNL A   1      31.852  30.278  25.782  1.00  0.00     0.023 C 
ENDROOT
BRANCH   1   2
ATOM      2  C   UNL A   1      31.300  29.480  24.598  1.00  0.00     0.116 C 
BRANCH   2   3
ATOM      3  N   UNL A   1      32.360  29.168  23.669  1.00  0.00    -0.352 N 
ATOM      4  C   UNL A   1      32.912  28.028  23.159  1.00  0.00     0.251 C 
ATOM      5  O   UNL A   1      33.920  28.240  22.468  1.00  0.00    -0.269 OA
ATOM      6  H   UNL A   1      32.793  29.978  23.316  1.00  0.00     0.163 HD
BRANCH   4   7
ATOM      7  C   UNL A   1      32.435  26.594  23.271  1.00  0.00     0.042 A 
ATOM      8  C   UNL A   1      32.510  25.557  20.850  1.00  0.00     0.045 C 
ATOM      9  C   UNL A   1      32.275  25.557  22.327  1.00  0.00    -0.036 A 
ATOM     10  C   UNL A   1      31.803  24.300  22.772  1.00  0.00     0.030 A 
ATOM     11  C   UNL A   1      31.534  24.012  24.100  1.00  0.00     0.041 A 
ATOM     12  C   UNL A   1      32.035  26.292  24.609  1.00  0.00     0.016 A 
ATOM     13  C   UNL A   1      31.568  25.038  25.021  1.00  0.00     0.027 A 
BRANCH  11  14
ATOM     14  N   UNL A   1      31.286  22.698  24.519  1.00  0.00    -0.322 N 
ATOM     15  C   UNL A   1      32.213  21.701  24.784  1.00  0.00     0.257 C 
ATOM     16  H   UNL A   1      30.341  22.453  24.640  1.00  0.00     0.170 HD
ATOM     17  O   UNL A   1      31.853  20.523  24.768  1.00  0.00    -0.269 OA
BRANCH  15  18
ATOM     18  C   UNL A   1      33.634  22.022  25.148  1.00  0.00     0.063 A 
ATOM     19  C   UNL A   1      34.497  22.313  24.074  1.00  0.00     0.017 A 
ATOM     20  C   UNL A   1      34.137  22.021  26.471  1.00  0.00     0.045 A 
ATOM     21  C   UNL A   1      35.848  22.593  24.299  1.00  0.00     0.016 A 
ATOM     22  C   UNL A   1      35.499  22.300  26.672  1.00  0.00     0.042 A 
ATOM     23  C   UNL A   1      36.342  22.580  25.598  1.00  0.00     0.020 A 
ATOM     24  Br  UNL A   1      38.181  22.881  25.905  1.00  0.00    -0.051 Br
BRANCH  20  25
ATOM     25  N   UNL A   1      33.405  21.597  27.581  1.00  0.00    -0.398 N 
ATOM     26  H   UNL A   1      33.521  22.050  28.449  1.00  0.00     0.156 HD
ATOM     27  H   UNL A   1      32.773  20.847  27.497  1.00  0.00     0.156 HD
ENDBRANCH  20  25
ENDBRANCH  15  18
ENDBRANCH  11  14
ENDBRANCH   4   7
ENDBRANCH   2   3
ENDBRANCH   1   2
BRANCH   1  28
ATOM     28  C   UNL A   1      33.264  29.959  26.276  1.00  0.00     0.023 C 
BRANCH  28  29
ATOM     29  C   UNL A   1      33.671  30.601  27.589  1.00  0.00     0.116 C 
BRANCH  29  30
ATOM     30  N   UNL A   1      34.647  31.672  27.393  1.00  0.00    -0.352 N 
ATOM     31  C   UNL A   1      35.877  31.859  27.995  1.00  0.00     0.251 C 
ATOM     32  H   UNL A   1      34.391  32.359  26.737  1.00  0.00     0.163 HD
ATOM     33  O   UNL A   1      36.291  33.002  28.136  1.00  0.00    -0.269 OA
BRANCH  31  34
ATOM     34  C   UNL A   1      36.692  30.685  28.361  1.00  0.00     0.039 A 
ATOM     35  C   UNL A   1      36.554  30.015  29.583  1.00  0.00     0.014 A 
ATOM     36  C   UNL A   1      37.757  30.377  27.528  1.00  0.00     0.014 A 
ATOM     37  C   UNL A   1      37.578  29.166  30.005  1.00  0.00     0.010 A 
ATOM     38  C   UNL A   1      38.561  29.321  27.787  1.00  0.00     0.010 A 
ATOM     39  C   UNL A   1      38.611  28.910  29.114  1.00  0.00    -0.014 A 
BRANCH  39  40
ATOM     40  C   UNL A   1      39.944  28.434  29.430  1.00  0.00     0.031 A 
ATOM     41  C   UNL A   1      40.259  27.024  29.205  1.00  0.00     0.074 A 
ATOM     42  C   UNL A   1      40.867  29.423  29.327  1.00  0.00     0.049 A 
ATOM     43  N   UNL A   1      41.412  26.499  29.414  1.00  0.00    -0.248 NA
ATOM     44  C   UNL A   1      39.262  26.080  28.714  1.00  0.00     0.031 C 
ATOM     45  C   UNL A   1      42.203  29.353  28.757  1.00  0.00     0.029 A 
ATOM     46  N   UNL A   1      40.731  30.781  29.653  1.00  0.00    -0.354 N 
ATOM     47  C   UNL A   1      41.413  25.296  28.737  1.00  0.00     0.074 A 
ATOM     48  C   UNL A   1      40.020  24.999  28.519  1.00  0.00     0.031 C 
ATOM     49  C   UNL A   1      42.847  30.503  29.029  1.00  0.00     0.029 A 
ATOM     50  C   UNL A   1      42.012  31.246  29.963  1.00  0.00     0.049 A 
ATOM     51  H   UNL A   1      39.897  31.305  29.661  1.00  0.00     0.167 HD
ATOM     52  C   UNL A   1      42.601  24.826  28.255  1.00  0.00     0.034 A 
ATOM     53  C   UNL A   1      42.360  31.567  31.247  1.00  0.00     0.034 A 
ATOM     54  C   UNL A   1      43.709  25.703  28.699  1.00  0.00     0.049 A 
ATOM     55  C   UNL A   1      43.374  30.584  31.820  1.00  0.00     0.074 A 
ATOM     56  C   UNL A   1      44.481  26.654  28.050  1.00  0.00     0.029 A 
ATOM     57  N   UNL A   1      43.928  25.898  30.062  1.00  0.00    -0.354 N 
ATOM     58  N   UNL A   1      43.796  29.519  31.191  1.00  0.00    -0.248 NA
ATOM     59  C   UNL A   1      43.994  30.710  33.136  1.00  0.00     0.031 C 
ATOM     60  C   UNL A   1      45.058  27.503  29.042  1.00  0.00     0.029 A 
ATOM     61  C   UNL A   1      44.675  27.048  30.293  1.00  0.00     0.049 A 
ATOM     62  H   UNL A   1      43.596  25.300  30.770  1.00  0.00     0.167 HD
ATOM     63  C   UNL A   1      44.575  28.753  32.008  1.00  0.00     0.074 A 
ATOM     64  C   UNL A   1      44.743  29.591  33.186  1.00  0.00     0.031 C 
ATOM     65  C   UNL A   1      44.955  27.479  31.668  1.00  0.00     0.034 A 
BRANCH  52  66
ATOM     66  C   UNL A   1      42.783  23.762  27.168  1.00  0.00     0.023 A 
ATOM     67  C   UNL A   1      43.346  24.193  25.945  1.00  0.00     0.012 A 
ATOM     68  C   UNL A   1      42.399  22.396  27.206  1.00  0.00     0.148 A 
ATOM     69  C   UNL A   1      43.471  23.356  24.827  1.00  0.00     0.002 A 
ATOM     70  C   UNL A   1      42.532  21.554  26.095  1.00  0.00     0.091 A 
ATOM     71  F   UNL A   1      41.893  21.864  28.313  1.00  0.00    -0.205 F 
ATOM     72  C   UNL A   1      43.057  22.036  24.898  1.00  0.00     0.022 A 
BRANCH  70  73
ATOM     73  S   UNL A   1      42.023  19.819  26.119  1.00  0.00     0.127 S 
ATOM     74  O   UNL A   1      40.569  19.924  25.987  1.00  0.00    -0.237 OA
ATOM     75  O   UNL A   1      42.704  19.280  24.943  1.00  0.00    -0.237 OA
ATOM     76  O   UNL A   1      42.474  19.267  27.392  1.00  0.00    -0.744 OA
ENDBRANCH  70  73
ENDBRANCH  52  66
BRANCH  53  77
ATOM     77  C   UNL A   1      41.244  32.235  31.995  1.00  0.00     0.023 A 
ATOM     78  C   UNL A   1      40.802  33.477  31.476  1.00  0.00     0.012 A 
ATOM     79  C   UNL A   1      40.360  31.491  32.800  1.00  0.00     0.148 A 
ATOM     80  C   UNL A   1      39.473  33.885  31.612  1.00  0.00     0.002 A 
ATOM     81  C   UNL A   1      39.026  31.889  32.906  1.00  0.00     0.091 A 
ATOM     82  F   UNL A   1      40.804  30.353  33.349  1.00  0.00    -0.205 F 
ATOM     83  C   UNL A   1      38.573  33.063  32.282  1.00  0.00     0.022 A 
BRANCH  81  84
ATOM     84  S   UNL A   1      37.780  30.841  33.678  1.00  0.00     0.127 S 
ATOM     85  O   UNL A   1      37.882  31.243  35.076  1.00  0.00    -0.237 OA
ATOM     86  O   UNL A   1      36.552  31.261  33.007  1.00  0.00    -0.237 OA
ATOM     87  O   UNL A   1      38.189  29.477  33.369  1.00  0.00    -0.744 OA
ENDBRANCH  81  84
ENDBRANCH  53  77
BRANCH  65  88
ATOM     88  C   UNL A   1      45.614  26.493  32.614  1.00  0.00     0.023 A 
ATOM     89  C   UNL A   1      47.011  26.392  32.751  1.00  0.00     0.012 A 
ATOM     90  C   UNL A   1      44.831  25.737  33.526  1.00  0.00     0.148 A 
ATOM     91  C   UNL A   1      47.602  25.539  33.689  1.00  0.00     0.002 A 
ATOM     92  C   UNL A   1      45.423  24.998  34.543  1.00  0.00     0.091 A 
ATOM     93  F   UNL A   1      43.495  25.712  33.401  1.00  0.00    -0.205 F 
ATOM     94  C   UNL A   1      46.809  24.863  34.605  1.00  0.00     0.022 A 
BRANCH  92  95
ATOM     95  S   UNL A   1      44.438  24.353  35.903  1.00  0.00     0.127 S 
ATOM     96  O   UNL A   1      45.462  23.787  36.778  1.00  0.00    -0.237 OA
ATOM     97  O   UNL A   1      43.790  25.559  36.422  1.00  0.00    -0.237 OA
ATOM     98  O   UNL A   1      43.519  23.405  35.287  1.00  0.00    -0.744 OA
ENDBRANCH  92  95
ENDBRANCH  65  88
ENDBRANCH  39  40
ENDBRANCH  31  34
ENDBRANCH  29  30
ENDBRANCH  28  29
ENDBRANCH   1  28
TORSDOF 17
ENDMDL
