MODEL 1
REMARK VINA RESULT:     -12.1      0.000      0.000
REMARK SMILES C[C@@H](C(=O)NCCCCNC(=O)c1ccc(-c2c3nc(c(-c4cccc(S(=O)(=O)[O-])c4F)c4ccc([nH]4)c(-c4cccc(S(=O)(=O)[O-])c4F)c4nc(c(-c5cccc(S(=O)(=O)[O-])c5F)c5ccc2[nH]5)C=C4)C=C3)cc1)c1ccc(C(=O)c2cccs2)cc1
REMARK SMILES IDX 7 1 6 2 5 3 3 4 4 5 2 7 1 8 76 9 77 10 88 11 78 12 87 13
REMARK SMILES IDX 79 14 80 15 81 16 82 17 83 18 86 19 84 20 85 21 8 22 9 23
REMARK SMILES IDX 10 24 11 25 12 27 13 28 14 29 75 30 15 31 74 32 16 33 17 34
REMARK SMILES IDX 18 35 68 36 19 37 73 38 67 39 69 40 20 41 72 42 66 43 65 44
REMARK SMILES IDX 21 46 53 47 33 48 52 49 34 50 37 51 51 52 70 53 35 54 36 55
REMARK SMILES IDX 50 57 71 58 38 59 22 60 23 61 31 62 24 63 26 64 32 65 25 66
REMARK SMILES IDX 27 67 28 68 29 69 30 70 54 71 55 72 63 73 56 74 58 75 64 76
REMARK SMILES IDX 57 77 59 78 60 79 61 80 62 81 39 82 40 83 48 84 41 85 43 86
REMARK SMILES IDX 49 87 42 88 44 89 45 90 46 91 47 92
REMARK H PARENT 5 6 10 26 69 45 37 56
REMARK Flexibility Score: inf
ROOT
ATOM      1  C   UNL A   1      31.960  27.176  26.553  1.00  0.00     0.023 C 
ENDROOT
BRANCH   1   2
ATOM      2  C   UNL A   1      33.154  26.691  25.724  1.00  0.00     0.116 C 
BRANCH   2   3
ATOM      3  N   UNL A   1      33.105  25.258  25.523  1.00  0.00    -0.356 N 
ATOM      4  C   UNL A   1      32.603  24.513  24.495  1.00  0.00     0.227 C 
ATOM      5  O   UNL A   1      32.532  23.304  24.711  1.00  0.00    -0.274 OA
ATOM      6  H   UNL A   1      33.503  24.730  26.253  1.00  0.00     0.163 HD
BRANCH   4   7
ATOM      7  C   UNL A   1      32.179  25.197  23.182  1.00  0.00     0.105 C 
ATOM      8  C   UNL A   1      33.400  25.818  22.489  1.00  0.00     0.023 C 
BRANCH   7   9
ATOM      9  C   UNL A   1      31.065  26.255  23.245  1.00  0.00    -0.036 A 
ATOM     10  C   UNL A   1      31.176  27.559  22.748  1.00  0.00     0.005 A 
ATOM     11  C   UNL A   1      29.816  25.872  23.769  1.00  0.00     0.005 A 
ATOM     12  C   UNL A   1      30.086  28.439  22.758  1.00  0.00     0.012 A 
ATOM     13  C   UNL A   1      28.713  26.736  23.749  1.00  0.00     0.012 A 
ATOM     14  C   UNL A   1      28.839  28.033  23.242  1.00  0.00     0.023 A 
BRANCH  14  15
ATOM     15  C   UNL A   1      27.692  28.996  23.129  1.00  0.00     0.202 C 
ATOM     16  O   UNL A   1      26.558  28.586  23.365  1.00  0.00    -0.288 OA
BRANCH  15  17
ATOM     17  C   UNL A   1      27.957  30.381  22.788  1.00  0.00     0.075 A 
ATOM     18  C   UNL A   1      28.175  31.468  23.610  1.00  0.00     0.024 A 
ATOM     19  S   UNL A   1      28.069  30.806  21.133  1.00  0.00    -0.140 S 
ATOM     20  C   UNL A   1      28.383  32.669  22.871  1.00  0.00     0.012 A 
ATOM     21  C   UNL A   1      28.345  32.450  21.511  1.00  0.00     0.065 A 
ENDBRANCH  15  17
ENDBRANCH  14  15
ENDBRANCH   7   9
ENDBRANCH   4   7
ENDBRANCH   2   3
ENDBRANCH   1   2
BRANCH   1  22
ATOM     22  C   UNL A   1      31.576  28.642  26.338  1.00  0.00     0.023 C 
BRANCH  22  23
ATOM     23  C   UNL A   1      32.717  29.558  25.918  1.00  0.00     0.116 C 
BRANCH  23  24
ATOM     24  N   UNL A   1      32.485  30.946  26.286  1.00  0.00    -0.352 N 
ATOM     25  C   UNL A   1      33.196  31.740  27.153  1.00  0.00     0.251 C 
ATOM     26  H   UNL A   1      31.710  31.376  25.856  1.00  0.00     0.163 HD
ATOM     27  O   UNL A   1      32.766  32.851  27.457  1.00  0.00    -0.269 OA
BRANCH  25  28
ATOM     28  C   UNL A   1      34.460  31.243  27.735  1.00  0.00     0.039 A 
ATOM     29  C   UNL A   1      35.510  32.142  27.936  1.00  0.00     0.014 A 
ATOM     30  C   UNL A   1      34.603  29.901  28.098  1.00  0.00     0.014 A 
ATOM     31  C   UNL A   1      36.682  31.708  28.559  1.00  0.00     0.010 A 
ATOM     32  C   UNL A   1      35.741  29.489  28.786  1.00  0.00     0.010 A 
ATOM     33  C   UNL A   1      36.793  30.385  29.019  1.00  0.00    -0.014 A 
BRANCH  33  34
ATOM     34  C   UNL A   1      37.997  29.928  29.761  1.00  0.00     0.031 A 
ATOM     35  C   UNL A   1      38.271  30.436  31.152  1.00  0.00     0.074 A 
ATOM     36  C   UNL A   1      38.888  29.123  29.151  1.00  0.00     0.049 A 
ATOM     37  N   UNL A   1      39.291  30.188  31.932  1.00  0.00    -0.248 NA
ATOM     38  C   UNL A   1      37.285  31.363  31.731  1.00  0.00     0.031 C 
ATOM     39  C   UNL A   1      38.779  28.628  27.776  1.00  0.00     0.029 A 
ATOM     40  N   UNL A   1      40.078  28.601  29.596  1.00  0.00    -0.354 N 
ATOM     41  C   UNL A   1      39.089  30.953  33.075  1.00  0.00     0.074 A 
ATOM     42  C   UNL A   1      37.867  31.700  32.872  1.00  0.00     0.031 C 
ATOM     43  C   UNL A   1      39.851  27.872  27.493  1.00  0.00     0.029 A 
ATOM     44  C   UNL A   1      40.740  27.852  28.651  1.00  0.00     0.049 A 
ATOM     45  H   UNL A   1      40.423  28.748  30.506  1.00  0.00     0.167 HD
ATOM     46  C   UNL A   1      39.836  31.008  34.204  1.00  0.00     0.034 A 
ATOM     47  C   UNL A   1      41.933  27.228  28.706  1.00  0.00     0.034 A 
ATOM     48  C   UNL A   1      41.030  30.234  34.418  1.00  0.00     0.049 A 
ATOM     49  C   UNL A   1      42.727  27.277  29.984  1.00  0.00     0.074 A 
ATOM     50  C   UNL A   1      41.805  30.148  35.561  1.00  0.00     0.029 A 
ATOM     51  N   UNL A   1      41.628  29.423  33.467  1.00  0.00    -0.354 N 
ATOM     52  N   UNL A   1      42.433  27.872  31.114  1.00  0.00    -0.248 NA
ATOM     53  C   UNL A   1      43.998  26.539  30.006  1.00  0.00     0.031 C 
ATOM     54  C   UNL A   1      42.888  29.307  35.291  1.00  0.00     0.029 A 
ATOM     55  C   UNL A   1      42.771  28.843  33.990  1.00  0.00     0.049 A 
ATOM     56  H   UNL A   1      41.291  29.279  32.553  1.00  0.00     0.167 HD
ATOM     57  C   UNL A   1      43.463  27.553  31.992  1.00  0.00     0.074 A 
ATOM     58  C   UNL A   1      44.376  26.692  31.268  1.00  0.00     0.031 C 
ATOM     59  C   UNL A   1      43.645  27.948  33.276  1.00  0.00     0.034 A 
BRANCH  46  60
ATOM     60  C   UNL A   1      39.355  31.900  35.319  1.00  0.00     0.023 A 
ATOM     61  C   UNL A   1      38.455  31.393  36.279  1.00  0.00     0.012 A 
ATOM     62  C   UNL A   1      39.836  33.218  35.452  1.00  0.00     0.148 A 
ATOM     63  C   UNL A   1      38.011  32.192  37.331  1.00  0.00     0.002 A 
ATOM     64  C   UNL A   1      39.424  33.994  36.531  1.00  0.00     0.091 A 
ATOM     65  F   UNL A   1      40.674  33.691  34.519  1.00  0.00    -0.205 F 
ATOM     66  C   UNL A   1      38.504  33.488  37.462  1.00  0.00     0.022 A 
BRANCH  64  67
ATOM     67  S   UNL A   1      40.060  35.646  36.835  1.00  0.00     0.127 S 
ATOM     68  O   UNL A   1      39.439  35.969  38.119  1.00  0.00    -0.237 OA
ATOM     69  O   UNL A   1      41.504  35.412  36.898  1.00  0.00    -0.237 OA
ATOM     70  O   UNL A   1      39.625  36.459  35.708  1.00  0.00    -0.744 OA
ENDBRANCH  64  67
ENDBRANCH  46  60
BRANCH  47  71
ATOM     71  C   UNL A   1      42.422  26.450  27.532  1.00  0.00     0.023 A 
ATOM     72  C   UNL A   1      43.231  27.086  26.570  1.00  0.00     0.012 A 
ATOM     73  C   UNL A   1      42.115  25.085  27.377  1.00  0.00     0.148 A 
ATOM     74  C   UNL A   1      43.696  26.386  25.456  1.00  0.00     0.002 A 
ATOM     75  C   UNL A   1      42.628  24.380  26.294  1.00  0.00     0.091 A 
ATOM     76  F   UNL A   1      41.336  24.501  28.297  1.00  0.00    -0.205 F 
ATOM     77  C   UNL A   1      43.403  25.032  25.323  1.00  0.00     0.022 A 
BRANCH  75  78
ATOM     78  S   UNL A   1      42.414  22.606  26.111  1.00  0.00     0.127 S 
ATOM     79  O   UNL A   1      40.960  22.483  26.058  1.00  0.00    -0.237 OA
ATOM     80  O   UNL A   1      43.101  22.348  24.846  1.00  0.00    -0.237 OA
ATOM     81  O   UNL A   1      43.057  22.011  27.275  1.00  0.00    -0.744 OA
ENDBRANCH  75  78
ENDBRANCH  47  71
BRANCH  59  82
ATOM     82  C   UNL A   1      44.860  27.429  34.003  1.00  0.00     0.023 A 
ATOM     83  C   UNL A   1      46.028  28.215  34.069  1.00  0.00     0.012 A 
ATOM     84  C   UNL A   1      44.816  26.195  34.682  1.00  0.00     0.148 A 
ATOM     85  C   UNL A   1      47.146  27.764  34.770  1.00  0.00     0.002 A 
ATOM     86  C   UNL A   1      45.916  25.777  35.421  1.00  0.00     0.091 A 
ATOM     87  F   UNL A   1      43.702  25.454  34.592  1.00  0.00    -0.205 F 
ATOM     88  C   UNL A   1      47.086  26.554  35.455  1.00  0.00     0.022 A 
BRANCH  86  89
ATOM     89  S   UNL A   1      45.897  24.280  36.415  1.00  0.00     0.127 S 
ATOM     90  O   UNL A   1      44.679  24.461  37.201  1.00  0.00    -0.237 OA
ATOM     91  O   UNL A   1      45.817  23.233  35.396  1.00  0.00    -0.237 OA
ATOM     92  O   UNL A   1      47.139  24.288  37.176  1.00  0.00    -0.744 OA
ENDBRANCH  86  89
ENDBRANCH  59  82
ENDBRANCH  33  34
ENDBRANCH  25  28
ENDBRANCH  23  24
ENDBRANCH  22  23
ENDBRANCH   1  22
TORSDOF 17
ENDMDL
MODEL 2
REMARK VINA RESULT:     -11.9      0.651      7.838
REMARK SMILES C[C@@H](C(=O)NCCCCNC(=O)c1ccc(-c2c3nc(c(-c4cccc(S(=O)(=O)[O-])c4F)c4ccc([nH]4)c(-c4cccc(S(=O)(=O)[O-])c4F)c4nc(c(-c5cccc(S(=O)(=O)[O-])c5F)c5ccc2[nH]5)C=C4)C=C3)cc1)c1ccc(C(=O)c2cccs2)cc1
REMARK SMILES IDX 7 1 6 2 5 3 3 4 4 5 2 7 1 8 76 9 77 10 88 11 78 12 87 13
REMARK SMILES IDX 79 14 80 15 81 16 82 17 83 18 86 19 84 20 85 21 8 22 9 23
REMARK SMILES IDX 10 24 11 25 12 27 13 28 14 29 75 30 15 31 74 32 16 33 17 34
REMARK SMILES IDX 18 35 68 36 19 37 73 38 67 39 69 40 20 41 72 42 66 43 65 44
REMARK SMILES IDX 21 46 53 47 33 48 52 49 34 50 37 51 51 52 70 53 35 54 36 55
REMARK SMILES IDX 50 57 71 58 38 59 22 60 23 61 31 62 24 63 26 64 32 65 25 66
REMARK SMILES IDX 27 67 28 68 29 69 30 70 54 71 55 72 63 73 56 74 58 75 64 76
REMARK SMILES IDX 57 77 59 78 60 79 61 80 62 81 39 82 40 83 48 84 41 85 43 86
REMARK SMILES IDX 49 87 42 88 44 89 45 90 46 91 47 92
REMARK H PARENT 5 6 10 26 69 45 37 56
REMARK Flexibility Score: inf
ROOT
ATOM      1  C   UNL A   1      33.060  27.067  26.278  1.00  0.00     0.023 C 
ENDROOT
BRANCH   1   2
ATOM      2  C   UNL A   1      33.775  26.196  25.240  1.00  0.00     0.116 C 
BRANCH   2   3
ATOM      3  N   UNL A   1      33.243  24.850  25.229  1.00  0.00    -0.356 N 
ATOM      4  C   UNL A   1      32.372  24.236  24.375  1.00  0.00     0.227 C 
ATOM      5  O   UNL A   1      31.958  23.141  24.749  1.00  0.00    -0.274 OA
ATOM      6  H   UNL A   1      33.565  24.278  25.963  1.00  0.00     0.163 HD
BRANCH   4   7
ATOM      7  C   UNL A   1      31.981  24.918  23.050  1.00  0.00     0.105 C 
ATOM      8  C   UNL A   1      33.233  25.445  22.335  1.00  0.00     0.023 C 
BRANCH   7   9
ATOM      9  C   UNL A   1      30.937  26.046  23.098  1.00  0.00    -0.036 A 
ATOM     10  C   UNL A   1      31.037  27.254  22.399  1.00  0.00     0.005 A 
ATOM     11  C   UNL A   1      29.757  25.826  23.835  1.00  0.00     0.005 A 
ATOM     12  C   UNL A   1      30.002  28.197  22.419  1.00  0.00     0.012 A 
ATOM     13  C   UNL A   1      28.704  26.750  23.830  1.00  0.00     0.012 A 
ATOM     14  C   UNL A   1      28.818  27.950  23.120  1.00  0.00     0.023 A 
BRANCH  14  15
ATOM     15  C   UNL A   1      27.712  28.960  23.015  1.00  0.00     0.202 C 
ATOM     16  O   UNL A   1      26.596  28.653  23.427  1.00  0.00    -0.288 OA
BRANCH  15  17
ATOM     17  C   UNL A   1      27.999  30.275  22.472  1.00  0.00     0.075 A 
ATOM     18  C   UNL A   1      27.999  30.709  21.162  1.00  0.00     0.024 A 
ATOM     19  S   UNL A   1      28.364  31.545  23.560  1.00  0.00    -0.140 S 
ATOM     20  C   UNL A   1      28.355  32.085  21.051  1.00  0.00     0.012 A 
ATOM     21  C   UNL A   1      28.585  32.658  22.282  1.00  0.00     0.065 A 
ENDBRANCH  15  17
ENDBRANCH  14  15
ENDBRANCH   7   9
ENDBRANCH   4   7
ENDBRANCH   2   3
ENDBRANCH   1   2
BRANCH   1  22
ATOM     22  C   UNL A   1      32.274  28.248  25.703  1.00  0.00     0.023 C 
BRANCH  22  23
ATOM     23  C   UNL A   1      33.108  29.467  25.336  1.00  0.00     0.116 C 
BRANCH  23  24
ATOM     24  N   UNL A   1      32.592  30.694  25.924  1.00  0.00    -0.352 N 
ATOM     25  C   UNL A   1      33.088  31.422  26.978  1.00  0.00     0.251 C 
ATOM     26  H   UNL A   1      31.774  31.052  25.509  1.00  0.00     0.163 HD
ATOM     27  O   UNL A   1      32.436  32.358  27.435  1.00  0.00    -0.269 OA
BRANCH  25  28
ATOM     28  C   UNL A   1      34.390  31.057  27.574  1.00  0.00     0.039 A 
ATOM     29  C   UNL A   1      35.378  32.038  27.691  1.00  0.00     0.014 A 
ATOM     30  C   UNL A   1      34.630  29.758  28.033  1.00  0.00     0.014 A 
ATOM     31  C   UNL A   1      36.584  31.732  28.324  1.00  0.00     0.010 A 
ATOM     32  C   UNL A   1      35.801  29.477  28.730  1.00  0.00     0.010 A 
ATOM     33  C   UNL A   1      36.792  30.458  28.879  1.00  0.00    -0.014 A 
BRANCH  33  34
ATOM     34  C   UNL A   1      38.033  30.141  29.633  1.00  0.00     0.031 A 
ATOM     35  C   UNL A   1      39.057  29.204  29.051  1.00  0.00     0.074 A 
ATOM     36  C   UNL A   1      38.197  30.629  30.878  1.00  0.00     0.049 A 
ATOM     37  N   UNL A   1      40.172  28.772  29.580  1.00  0.00    -0.248 NA
ATOM     38  C   UNL A   1      38.779  28.659  27.712  1.00  0.00     0.031 C 
ATOM     39  C   UNL A   1      37.240  31.482  31.587  1.00  0.00     0.029 A 
ATOM     40  N   UNL A   1      39.217  30.456  31.782  1.00  0.00    -0.354 N 
ATOM     41  C   UNL A   1      40.710  27.881  28.659  1.00  0.00     0.074 A 
ATOM     42  C   UNL A   1      39.781  27.808  27.552  1.00  0.00     0.031 C 
ATOM     43  C   UNL A   1      37.718  31.761  32.809  1.00  0.00     0.029 A 
ATOM     44  C   UNL A   1      38.999  31.084  32.986  1.00  0.00     0.049 A 
ATOM     45  H   UNL A   1      40.027  29.932  31.586  1.00  0.00     0.167 HD
ATOM     46  C   UNL A   1      41.884  27.208  28.713  1.00  0.00     0.034 A 
ATOM     47  C   UNL A   1      39.742  31.105  34.111  1.00  0.00     0.034 A 
ATOM     48  C   UNL A   1      42.824  27.314  29.797  1.00  0.00     0.049 A 
ATOM     49  C   UNL A   1      41.057  30.375  34.132  1.00  0.00     0.074 A 
ATOM     50  C   UNL A   1      44.081  26.746  29.904  1.00  0.00     0.029 A 
ATOM     51  N   UNL A   1      42.606  28.025  30.966  1.00  0.00    -0.354 N 
ATOM     52  N   UNL A   1      41.627  29.674  33.183  1.00  0.00    -0.248 NA
ATOM     53  C   UNL A   1      41.851  30.471  35.366  1.00  0.00     0.031 C 
ATOM     54  C   UNL A   1      44.611  27.090  31.150  1.00  0.00     0.029 A 
ATOM     55  C   UNL A   1      43.698  27.899  31.808  1.00  0.00     0.049 A 
ATOM     56  H   UNL A   1      41.794  28.543  31.170  1.00  0.00     0.167 HD
ATOM     57  C   UNL A   1      42.858  29.273  33.691  1.00  0.00     0.074 A 
ATOM     58  C   UNL A   1      42.961  29.831  35.024  1.00  0.00     0.031 C 
ATOM     59  C   UNL A   1      43.810  28.501  33.112  1.00  0.00     0.034 A 
BRANCH  46  60
ATOM     60  C   UNL A   1      42.244  26.332  27.540  1.00  0.00     0.023 A 
ATOM     61  C   UNL A   1      42.993  26.870  26.473  1.00  0.00     0.012 A 
ATOM     62  C   UNL A   1      41.893  24.967  27.520  1.00  0.00     0.148 A 
ATOM     63  C   UNL A   1      43.355  26.075  25.386  1.00  0.00     0.002 A 
ATOM     64  C   UNL A   1      42.299  24.170  26.454  1.00  0.00     0.091 A 
ATOM     65  F   UNL A   1      41.164  24.478  28.532  1.00  0.00    -0.205 F 
ATOM     66  C   UNL A   1      43.017  24.725  25.383  1.00  0.00     0.022 A 
BRANCH  64  67
ATOM     67  S   UNL A   1      41.985  22.402  26.392  1.00  0.00     0.127 S 
ATOM     68  O   UNL A   1      42.681  22.023  25.164  1.00  0.00    -0.237 OA
ATOM     69  O   UNL A   1      42.622  21.934  27.624  1.00  0.00    -0.237 OA
ATOM     70  O   UNL A   1      40.537  22.252  26.362  1.00  0.00    -0.744 OA
ENDBRANCH  64  67
ENDBRANCH  46  60
BRANCH  47  71
ATOM     71  C   UNL A   1      39.286  31.894  35.291  1.00  0.00     0.023 A 
ATOM     72  C   UNL A   1      38.441  31.290  36.242  1.00  0.00     0.012 A 
ATOM     73  C   UNL A   1      39.703  33.224  35.489  1.00  0.00     0.148 A 
ATOM     74  C   UNL A   1      37.992  32.006  37.352  1.00  0.00     0.002 A 
ATOM     75  C   UNL A   1      39.296  33.914  36.625  1.00  0.00     0.091 A 
ATOM     76  F   UNL A   1      40.498  33.784  34.567  1.00  0.00    -0.205 F 
ATOM     77  C   UNL A   1      38.426  33.314  37.549  1.00  0.00     0.022 A 
BRANCH  75  78
ATOM     78  S   UNL A   1      39.911  35.553  37.029  1.00  0.00     0.127 S 
ATOM     79  O   UNL A   1      39.484  36.327  35.867  1.00  0.00    -0.237 OA
ATOM     80  O   UNL A   1      39.190  35.849  38.266  1.00  0.00    -0.237 OA
ATOM     81  O   UNL A   1      41.351  35.402  37.195  1.00  0.00    -0.744 OA
ENDBRANCH  75  78
ENDBRANCH  47  71
BRANCH  59  82
ATOM     82  C   UNL A   1      45.069  28.236  33.898  1.00  0.00     0.023 A 
ATOM     83  C   UNL A   1      46.159  29.123  33.798  1.00  0.00     0.012 A 
ATOM     84  C   UNL A   1      45.142  27.147  34.790  1.00  0.00     0.148 A 
ATOM     85  C   UNL A   1      47.316  28.911  34.548  1.00  0.00     0.002 A 
ATOM     86  C   UNL A   1      46.278  26.972  35.571  1.00  0.00     0.091 A 
ATOM     87  F   UNL A   1      44.101  26.304  34.857  1.00  0.00    -0.205 F 
ATOM     88  C   UNL A   1      47.371  27.845  35.442  1.00  0.00     0.022 A 
BRANCH  86  89
ATOM     89  S   UNL A   1      46.400  25.686  36.819  1.00  0.00     0.127 S 
ATOM     90  O   UNL A   1      46.342  24.474  36.006  1.00  0.00    -0.237 OA
ATOM     91  O   UNL A   1      47.707  25.958  37.418  1.00  0.00    -0.237 OA
ATOM     92  O   UNL A   1      45.271  25.890  37.717  1.00  0.00    -0.744 OA
ENDBRANCH  86  89
ENDBRANCH  59  82
ENDBRANCH  33  34
ENDBRANCH  25  28
ENDBRANCH  23  24
ENDBRANCH  22  23
ENDBRANCH   1  22
TORSDOF 17
ENDMDL
MODEL 3
REMARK VINA RESULT:     -11.8      5.293     10.699
REMARK SMILES C[C@@H](C(=O)NCCCCNC(=O)c1ccc(-c2c3nc(c(-c4cccc(S(=O)(=O)[O-])c4F)c4ccc([nH]4)c(-c4cccc(S(=O)(=O)[O-])c4F)c4nc(c(-c5cccc(S(=O)(=O)[O-])c5F)c5ccc2[nH]5)C=C4)C=C3)cc1)c1ccc(C(=O)c2cccs2)cc1
REMARK SMILES IDX 7 1 6 2 5 3 3 4 4 5 2 7 1 8 76 9 77 10 88 11 78 12 87 13
REMARK SMILES IDX 79 14 80 15 81 16 82 17 83 18 86 19 84 20 85 21 8 22 9 23
REMARK SMILES IDX 10 24 11 25 12 27 13 28 14 29 75 30 15 31 74 32 16 33 17 34
REMARK SMILES IDX 18 35 68 36 19 37 73 38 67 39 69 40 20 41 72 42 66 43 65 44
REMARK SMILES IDX 21 46 53 47 33 48 52 49 34 50 37 51 51 52 70 53 35 54 36 55
REMARK SMILES IDX 50 57 71 58 38 59 22 60 23 61 31 62 24 63 26 64 32 65 25 66
REMARK SMILES IDX 27 67 28 68 29 69 30 70 54 71 55 72 63 73 56 74 58 75 64 76
REMARK SMILES IDX 57 77 59 78 60 79 61 80 62 81 39 82 40 83 48 84 41 85 43 86
REMARK SMILES IDX 49 87 42 88 44 89 45 90 46 91 47 92
REMARK H PARENT 5 6 10 26 69 45 37 56
REMARK Flexibility Score: inf
ROOT
ATOM      1  C   UNL A   1      35.562  23.160  26.358  1.00  0.00     0.023 C 
ENDROOT
BRANCH   1   2
ATOM      2  C   UNL A   1      34.681  24.289  25.814  1.00  0.00     0.116 C 
BRANCH   2   3
ATOM      3  N   UNL A   1      33.370  24.274  26.427  1.00  0.00    -0.356 N 
ATOM      4  C   UNL A   1      32.124  24.186  25.876  1.00  0.00     0.227 C 
ATOM      5  O   UNL A   1      31.193  24.401  26.651  1.00  0.00    -0.274 OA
ATOM      6  H   UNL A   1      33.378  24.338  27.409  1.00  0.00     0.163 HD
BRANCH   4   7
ATOM      7  C   UNL A   1      31.961  23.832  24.386  1.00  0.00     0.105 C 
ATOM      8  C   UNL A   1      30.664  24.440  23.835  1.00  0.00     0.023 C 
BRANCH   7   9
ATOM      9  C   UNL A   1      32.009  22.348  23.986  1.00  0.00    -0.036 A 
ATOM     10  C   UNL A   1      31.997  21.877  22.669  1.00  0.00     0.005 A 
ATOM     11  C   UNL A   1      32.152  21.390  25.009  1.00  0.00     0.005 A 
ATOM     12  C   UNL A   1      32.138  20.513  22.380  1.00  0.00     0.012 A 
ATOM     13  C   UNL A   1      32.328  20.030  24.724  1.00  0.00     0.012 A 
ATOM     14  C   UNL A   1      32.321  19.577  23.401  1.00  0.00     0.023 A 
BRANCH  14  15
ATOM     15  C   UNL A   1      32.565  18.147  23.012  1.00  0.00     0.202 C 
ATOM     16  O   UNL A   1      32.227  17.781  21.889  1.00  0.00    -0.288 OA
BRANCH  15  17
ATOM     17  C   UNL A   1      33.224  17.257  23.949  1.00  0.00     0.075 A 
ATOM     18  C   UNL A   1      32.705  16.217  24.694  1.00  0.00     0.024 A 
ATOM     19  S   UNL A   1      34.909  17.433  24.194  1.00  0.00    -0.140 S 
ATOM     20  C   UNL A   1      33.694  15.597  25.513  1.00  0.00     0.012 A 
ATOM     21  C   UNL A   1      34.936  16.166  25.341  1.00  0.00     0.065 A 
ENDBRANCH  15  17
ENDBRANCH  14  15
ENDBRANCH   7   9
ENDBRANCH   4   7
ENDBRANCH   2   3
ENDBRANCH   1   2
BRANCH   1  22
ATOM     22  C   UNL A   1      35.744  21.968  25.415  1.00  0.00     0.023 C 
BRANCH  22  23
ATOM     23  C   UNL A   1      37.102  21.882  24.732  1.00  0.00     0.116 C 
BRANCH  23  24
ATOM     24  N   UNL A   1      37.932  20.816  25.271  1.00  0.00    -0.352 N 
ATOM     25  C   UNL A   1      39.095  20.910  25.997  1.00  0.00     0.251 C 
ATOM     26  H   UNL A   1      37.618  19.900  25.090  1.00  0.00     0.163 HD
ATOM     27  O   UNL A   1      39.744  19.896  26.245  1.00  0.00    -0.269 OA
BRANCH  25  28
ATOM     28  C   UNL A   1      39.572  22.232  26.451  1.00  0.00     0.039 A 
ATOM     29  C   UNL A   1      40.571  22.292  27.425  1.00  0.00     0.014 A 
ATOM     30  C   UNL A   1      39.050  23.409  25.905  1.00  0.00     0.014 A 
ATOM     31  C   UNL A   1      41.091  23.530  27.809  1.00  0.00     0.010 A 
ATOM     32  C   UNL A   1      39.622  24.636  26.233  1.00  0.00     0.010 A 
ATOM     33  C   UNL A   1      40.644  24.710  27.190  1.00  0.00    -0.014 A 
BRANCH  33  34
ATOM     34  C   UNL A   1      41.246  26.028  27.521  1.00  0.00     0.031 A 
ATOM     35  C   UNL A   1      42.661  26.340  27.116  1.00  0.00     0.074 A 
ATOM     36  C   UNL A   1      40.547  26.910  28.262  1.00  0.00     0.049 A 
ATOM     37  N   UNL A   1      43.370  27.412  27.358  1.00  0.00    -0.248 NA
ATOM     38  C   UNL A   1      43.385  25.302  26.362  1.00  0.00     0.031 C 
ATOM     39  C   UNL A   1      39.197  26.693  28.787  1.00  0.00     0.029 A 
ATOM     40  N   UNL A   1      40.886  28.156  28.728  1.00  0.00    -0.354 N 
ATOM     41  C   UNL A   1      44.627  27.166  26.822  1.00  0.00     0.074 A 
ATOM     42  C   UNL A   1      44.597  25.829  26.270  1.00  0.00     0.031 C 
ATOM     43  C   UNL A   1      38.821  27.769  29.496  1.00  0.00     0.029 A 
ATOM     44  C   UNL A   1      39.912  28.739  29.505  1.00  0.00     0.049 A 
ATOM     45  H   UNL A   1      41.746  28.593  28.524  1.00  0.00     0.167 HD
ATOM     46  C   UNL A   1      45.703  27.988  26.765  1.00  0.00     0.034 A 
ATOM     47  C   UNL A   1      39.900  29.917  30.159  1.00  0.00     0.034 A 
ATOM     48  C   UNL A   1      45.718  29.331  27.279  1.00  0.00     0.049 A 
ATOM     49  C   UNL A   1      41.095  30.825  30.052  1.00  0.00     0.074 A 
ATOM     50  C   UNL A   1      46.725  30.276  27.188  1.00  0.00     0.029 A 
ATOM     51  N   UNL A   1      44.683  29.918  27.989  1.00  0.00    -0.354 N 
ATOM     52  N   UNL A   1      42.215  30.641  29.395  1.00  0.00    -0.248 NA
ATOM     53  C   UNL A   1      41.012  32.120  30.744  1.00  0.00     0.031 C 
ATOM     54  C   UNL A   1      46.310  31.424  27.869  1.00  0.00     0.029 A 
ATOM     55  C   UNL A   1      45.031  31.207  28.356  1.00  0.00     0.049 A 
ATOM     56  H   UNL A   1      43.825  29.484  28.202  1.00  0.00     0.167 HD
ATOM     57  C   UNL A   1      42.954  31.807  29.566  1.00  0.00     0.074 A 
ATOM     58  C   UNL A   1      42.143  32.700  30.369  1.00  0.00     0.031 C 
ATOM     59  C   UNL A   1      44.196  32.105  29.113  1.00  0.00     0.034 A 
BRANCH  46  60
ATOM     60  C   UNL A   1      46.942  27.473  26.077  1.00  0.00     0.023 A 
ATOM     61  C   UNL A   1      47.138  27.737  24.706  1.00  0.00     0.012 A 
ATOM     62  C   UNL A   1      47.937  26.783  26.797  1.00  0.00     0.148 A 
ATOM     63  C   UNL A   1      48.284  27.289  24.052  1.00  0.00     0.002 A 
ATOM     64  C   UNL A   1      49.100  26.381  26.148  1.00  0.00     0.091 A 
ATOM     65  F   UNL A   1      47.725  26.523  28.095  1.00  0.00    -0.205 F 
ATOM     66  C   UNL A   1      49.269  26.621  24.776  1.00  0.00     0.022 A 
BRANCH  64  67
ATOM     67  S   UNL A   1      50.463  25.585  27.006  1.00  0.00     0.127 S 
ATOM     68  O   UNL A   1      51.431  25.412  25.924  1.00  0.00    -0.237 OA
ATOM     69  O   UNL A   1      50.832  26.595  27.999  1.00  0.00    -0.237 OA
ATOM     70  O   UNL A   1      49.922  24.353  27.565  1.00  0.00    -0.744 OA
ENDBRANCH  64  67
ENDBRANCH  46  60
BRANCH  47  71
ATOM     71  C   UNL A   1      38.691  30.333  30.925  1.00  0.00     0.023 A 
ATOM     72  C   UNL A   1      38.577  29.979  32.284  1.00  0.00     0.012 A 
ATOM     73  C   UNL A   1      37.670  31.095  30.326  1.00  0.00     0.148 A 
ATOM     74  C   UNL A   1      37.453  30.347  33.023  1.00  0.00     0.002 A 
ATOM     75  C   UNL A   1      36.579  31.506  31.084  1.00  0.00     0.091 A 
ATOM     76  F   UNL A   1      37.791  31.413  29.030  1.00  0.00    -0.205 F 
ATOM     77  C   UNL A   1      36.459  31.117  32.427  1.00  0.00     0.022 A 
BRANCH  75  78
ATOM     78  S   UNL A   1      35.318  32.610  30.438  1.00  0.00     0.127 S 
ATOM     79  O   UNL A   1      34.894  31.907  29.230  1.00  0.00    -0.237 OA
ATOM     80  O   UNL A   1      34.338  32.616  31.524  1.00  0.00    -0.237 OA
ATOM     81  O   UNL A   1      35.986  33.887  30.226  1.00  0.00    -0.744 OA
ENDBRANCH  75  78
ENDBRANCH  47  71
BRANCH  59  82
ATOM     82  C   UNL A   1      44.752  33.467  29.440  1.00  0.00     0.023 A 
ATOM     83  C   UNL A   1      45.433  33.675  30.656  1.00  0.00     0.012 A 
ATOM     84  C   UNL A   1      44.663  34.521  28.508  1.00  0.00     0.148 A 
ATOM     85  C   UNL A   1      45.985  34.920  30.955  1.00  0.00     0.002 A 
ATOM     86  C   UNL A   1      45.261  35.743  28.791  1.00  0.00     0.091 A 
ATOM     87  F   UNL A   1      43.996  34.309  27.364  1.00  0.00    -0.205 F 
ATOM     88  C   UNL A   1      45.911  35.948  30.020  1.00  0.00     0.022 A 
BRANCH  86  89
ATOM     89  S   UNL A   1      45.301  37.094  27.608  1.00  0.00     0.127 S 
ATOM     90  O   UNL A   1      43.887  37.231  27.264  1.00  0.00    -0.237 OA
ATOM     91  O   UNL A   1      45.844  38.192  28.409  1.00  0.00    -0.237 OA
ATOM     92  O   UNL A   1      46.167  36.651  26.523  1.00  0.00    -0.744 OA
ENDBRANCH  86  89
ENDBRANCH  59  82
ENDBRANCH  33  34
ENDBRANCH  25  28
ENDBRANCH  23  24
ENDBRANCH  22  23
ENDBRANCH   1  22
TORSDOF 17
ENDMDL
