MODEL 1
REMARK VINA RESULT:     -10.5      0.000      0.000
REMARK SMILES COc1ccc(OC)c(-c2cc(-c3ccccc3)nc(S[C@H](C)C(=O)NCCCCNC(=O)c3ccc(-c4c5nc(c(-c6cccc(S(=O)(=O)[O-])c6F)c6ccc([nH]6)c(-c6cccc(S(=O)(=O)[O-])c6F)c6nc(c(-c7cccc(S(=O)(=O)[O-])c7F)c7ccc4[nH]7)C=C6)C=C5)cc3)c2C#N)c1
REMARK SMILES IDX 28 1 27 2 26 3 24 4 25 5 22 7 23 8 21 9 20 10 10 11 11 12
REMARK SMILES IDX 97 13 12 14 19 15 9 16 3 17 4 18 100 19 5 20 6 21 2 22 1 23
REMARK SMILES IDX 7 24 8 25 98 26 99 27 13 28 14 29 18 30 15 31 17 32 16 33
REMARK SMILES IDX 29 34 30 35 31 36 32 37 33 39 34 40 35 41 96 42 36 43 95 44
REMARK SMILES IDX 37 45 38 46 39 47 89 48 40 49 94 50 88 51 90 52 41 53 93 54
REMARK SMILES IDX 87 55 86 56 42 58 74 59 54 60 73 61 55 62 58 63 72 64 91 65
REMARK SMILES IDX 56 66 57 67 71 69 92 70 59 71 43 72 44 73 52 74 45 75 47 76
REMARK SMILES IDX 53 77 46 78 48 79 49 80 50 81 51 82 75 83 76 84 84 85 77 86
REMARK SMILES IDX 79 87 85 88 78 89 80 90 81 91 82 92 83 93 60 94 61 95 69 96
REMARK SMILES IDX 62 97 64 98 70 99 63 100 65 101 66 102 67 103 68 104
REMARK H PARENT 26 6 31 38 90 57 58 68
REMARK Flexibility Score: inf
ROOT
ATOM      1  C   UNL A   1      32.089  29.265  27.204  1.00  0.00     0.023 C 
ENDROOT
BRANCH   1   2
ATOM      2  C   UNL A   1      31.782  27.830  27.616  1.00  0.00     0.116 C 
BRANCH   2   3
ATOM      3  N   UNL A   1      30.687  27.256  26.861  1.00  0.00    -0.355 N 
ATOM      4  C   UNL A   1      30.678  26.216  25.978  1.00  0.00     0.233 C 
ATOM      5  O   UNL A   1      29.589  25.868  25.513  1.00  0.00    -0.274 OA
ATOM      6  H   UNL A   1      29.811  27.683  27.009  1.00  0.00     0.163 HD
BRANCH   4   7
ATOM      7  C   UNL A   1      31.970  25.524  25.533  1.00  0.00     0.139 C 
ATOM      8  C   UNL A   1      32.813  26.465  24.685  1.00  0.00     0.030 C 
BRANCH   7   9
ATOM      9  S   UNL A   1      32.633  24.524  26.954  1.00  0.00    -0.092 SA
BRANCH   9  10
ATOM     10  C   UNL A   1      33.658  23.215  26.295  1.00  0.00     0.116 A 
ATOM     11  C   UNL A   1      33.964  21.175  25.018  1.00  0.00     0.008 A 
ATOM     12  C   UNL A   1      35.342  21.428  25.052  1.00  0.00     0.039 A 
ATOM     13  C   UNL A   1      33.101  22.109  25.638  1.00  0.00     0.092 A 
ATOM     14  C   UNL A   1      35.822  22.496  25.793  1.00  0.00     0.072 A 
ATOM     15  N   UNL A   1      34.991  23.372  26.399  1.00  0.00    -0.240 NA
BRANCH  11  16
ATOM     16  C   UNL A   1      33.465  19.977  24.304  1.00  0.00     0.029 A 
ATOM     17  C   UNL A   1      33.616  17.518  24.127  1.00  0.00     0.119 A 
ATOM     18  C   UNL A   1      32.775  17.552  23.025  1.00  0.00     0.050 A 
ATOM     19  C   UNL A   1      33.946  18.717  24.763  1.00  0.00     0.059 A 
ATOM     20  C   UNL A   1      32.263  18.766  22.577  1.00  0.00     0.051 A 
ATOM     21  C   UNL A   1      32.594  19.986  23.194  1.00  0.00     0.127 A 
BRANCH  17  22
ATOM     22  O   UNL A   1      34.084  16.276  24.448  1.00  0.00    -0.497 OA
ATOM     23  C   UNL A   1      33.290  15.494  25.329  1.00  0.00     0.278 C 
ENDBRANCH  17  22
BRANCH  21  24
ATOM     24  O   UNL A   1      32.008  21.018  22.519  1.00  0.00    -0.496 OA
ATOM     25  C   UNL A   1      32.714  22.167  22.101  1.00  0.00     0.278 C 
ENDBRANCH  21  24
ENDBRANCH  11  16
BRANCH  13  26
ATOM     26  C   UNL A   1      31.676  21.939  25.574  1.00  0.00     0.103 C 
ATOM     27  N   UNL A   1      30.523  21.821  25.553  1.00  0.00    -0.192 NA
ENDBRANCH  13  26
BRANCH  14  28
ATOM     28  C   UNL A   1      37.254  22.739  26.005  1.00  0.00     0.000 A 
ATOM     29  C   UNL A   1      37.714  24.020  26.364  1.00  0.00     0.010 A 
ATOM     30  C   UNL A   1      38.204  21.721  25.840  1.00  0.00     0.010 A 
ATOM     31  C   UNL A   1      39.076  24.280  26.530  1.00  0.00     0.001 A 
ATOM     32  C   UNL A   1      39.568  21.980  26.006  1.00  0.00     0.001 A 
ATOM     33  C   UNL A   1      40.003  23.259  26.346  1.00  0.00     0.000 A 
ENDBRANCH  14  28
ENDBRANCH   9  10
ENDBRANCH   7   9
ENDBRANCH   4   7
ENDBRANCH   2   3
ENDBRANCH   1   2
BRANCH   1  34
ATOM     34  C   UNL A   1      33.397  29.446  26.435  1.00  0.00     0.023 C 
BRANCH  34  35
ATOM     35  C   UNL A   1      34.597  29.856  27.282  1.00  0.00     0.116 C 
BRANCH  35  36
ATOM     36  N   UNL A   1      34.315  30.985  28.160  1.00  0.00    -0.352 N 
ATOM     37  C   UNL A   1      35.042  31.455  29.227  1.00  0.00     0.251 C 
ATOM     38  H   UNL A   1      33.486  31.479  27.962  1.00  0.00     0.163 HD
ATOM     39  O   UNL A   1      34.576  32.331  29.950  1.00  0.00    -0.269 OA
BRANCH  37  40
ATOM     40  C   UNL A   1      36.372  30.876  29.517  1.00  0.00     0.039 A 
ATOM     41  C   UNL A   1      37.498  31.430  28.905  1.00  0.00     0.014 A 
ATOM     42  C   UNL A   1      36.510  29.827  30.430  1.00  0.00     0.014 A 
ATOM     43  C   UNL A   1      38.770  30.990  29.276  1.00  0.00     0.010 A 
ATOM     44  C   UNL A   1      37.779  29.447  30.857  1.00  0.00     0.010 A 
ATOM     45  C   UNL A   1      38.923  30.033  30.294  1.00  0.00    -0.014 A 
BRANCH  45  46
ATOM     46  C   UNL A   1      40.267  29.676  30.821  1.00  0.00     0.031 A 
ATOM     47  C   UNL A   1      41.004  28.478  30.290  1.00  0.00     0.074 A 
ATOM     48  C   UNL A   1      40.782  30.382  31.847  1.00  0.00     0.049 A 
ATOM     49  N   UNL A   1      42.153  27.984  30.672  1.00  0.00    -0.248 NA
ATOM     50  C   UNL A   1      40.358  27.721  29.205  1.00  0.00     0.031 C 
ATOM     51  C   UNL A   1      40.132  31.522  32.501  1.00  0.00     0.029 A 
ATOM     52  N   UNL A   1      41.957  30.230  32.543  1.00  0.00    -0.354 N 
ATOM     53  C   UNL A   1      42.354  26.846  29.902  1.00  0.00     0.074 A 
ATOM     54  C   UNL A   1      41.192  26.704  29.050  1.00  0.00     0.031 C 
ATOM     55  C   UNL A   1      40.916  31.967  33.495  1.00  0.00     0.029 A 
ATOM     56  C   UNL A   1      42.102  31.121  33.581  1.00  0.00     0.049 A 
ATOM     57  H   UNL A   1      42.631  29.549  32.319  1.00  0.00     0.167 HD
ATOM     58  C   UNL A   1      43.416  26.006  29.887  1.00  0.00     0.034 A 
ATOM     59  C   UNL A   1      43.070  31.235  34.513  1.00  0.00     0.034 A 
ATOM     60  C   UNL A   1      44.579  26.162  30.720  1.00  0.00     0.049 A 
ATOM     61  C   UNL A   1      44.239  30.290  34.474  1.00  0.00     0.074 A 
ATOM     62  C   UNL A   1      45.744  25.415  30.716  1.00  0.00     0.029 A 
ATOM     63  N   UNL A   1      44.716  27.111  31.722  1.00  0.00    -0.354 N 
ATOM     64  N   UNL A   1      44.487  29.321  33.627  1.00  0.00    -0.248 NA
ATOM     65  C   UNL A   1      45.276  30.470  35.501  1.00  0.00     0.031 C 
ATOM     66  C   UNL A   1      46.567  25.883  31.747  1.00  0.00     0.029 A 
ATOM     67  C   UNL A   1      45.935  26.950  32.362  1.00  0.00     0.049 A 
ATOM     68  H   UNL A   1      44.047  27.797  31.946  1.00  0.00     0.167 HD
ATOM     69  C   UNL A   1      45.719  28.794  34.001  1.00  0.00     0.074 A 
ATOM     70  C   UNL A   1      46.179  29.572  35.133  1.00  0.00     0.031 C 
ATOM     71  C   UNL A   1      46.401  27.753  33.464  1.00  0.00     0.034 A 
BRANCH  58  72
ATOM     72  C   UNL A   1      43.391  24.855  28.914  1.00  0.00     0.023 A 
ATOM     73  C   UNL A   1      43.053  23.563  29.365  1.00  0.00     0.012 A 
ATOM     74  C   UNL A   1      43.637  25.065  27.542  1.00  0.00     0.148 A 
ATOM     75  C   UNL A   1      42.997  22.491  28.475  1.00  0.00     0.002 A 
ATOM     76  C   UNL A   1      43.532  24.002  26.654  1.00  0.00     0.091 A 
ATOM     77  F   UNL A   1      43.974  26.297  27.134  1.00  0.00    -0.205 F 
ATOM     78  C   UNL A   1      43.225  22.713  27.120  1.00  0.00     0.022 A 
BRANCH  76  79
ATOM     79  S   UNL A   1      43.724  24.198  24.879  1.00  0.00     0.127 S 
ATOM     80  O   UNL A   1      43.299  22.886  24.391  1.00  0.00    -0.237 OA
ATOM     81  O   UNL A   1      42.792  25.287  24.589  1.00  0.00    -0.237 OA
ATOM     82  O   UNL A   1      45.127  24.519  24.657  1.00  0.00    -0.744 OA
ENDBRANCH  76  79
ENDBRANCH  58  72
BRANCH  59  83
ATOM     83  C   UNL A   1      42.988  32.306  35.547  1.00  0.00     0.023 A 
ATOM     84  C   UNL A   1      43.535  33.576  35.278  1.00  0.00     0.012 A 
ATOM     85  C   UNL A   1      42.360  32.079  36.787  1.00  0.00     0.148 A 
ATOM     86  C   UNL A   1      43.489  34.588  36.238  1.00  0.00     0.002 A 
ATOM     87  C   UNL A   1      42.265  33.109  37.715  1.00  0.00     0.091 A 
ATOM     88  F   UNL A   1      41.854  30.861  37.027  1.00  0.00    -0.205 F 
ATOM     89  C   UNL A   1      42.847  34.358  37.451  1.00  0.00     0.022 A 
BRANCH  87  90
ATOM     90  S   UNL A   1      41.341  32.944  39.247  1.00  0.00     0.127 S 
ATOM     91  O   UNL A   1      40.009  32.598  38.758  1.00  0.00    -0.237 OA
ATOM     92  O   UNL A   1      42.058  31.854  39.911  1.00  0.00    -0.237 OA
ATOM     93  O   UNL A   1      41.454  34.232  39.917  1.00  0.00    -0.744 OA
ENDBRANCH  87  90
ENDBRANCH  59  83
BRANCH  71  94
ATOM     94  C   UNL A   1      47.734  27.400  34.070  1.00  0.00     0.023 A 
ATOM     95  C   UNL A   1      48.904  28.044  33.621  1.00  0.00     0.012 A 
ATOM     96  C   UNL A   1      47.816  26.487  35.141  1.00  0.00     0.148 A 
ATOM     97  C   UNL A   1      50.140  27.760  34.205  1.00  0.00     0.002 A 
ATOM     98  C   UNL A   1      49.040  26.251  35.754  1.00  0.00     0.091 A 
ATOM     99  F   UNL A   1      46.694  25.875  35.546  1.00  0.00    -0.205 F 
ATOM    100  C   UNL A   1      50.205  26.875  35.278  1.00  0.00     0.022 A 
BRANCH  98 101
ATOM    101  S   UNL A   1      49.212  25.201  37.202  1.00  0.00     0.127 S 
ATOM    102  O   UNL A   1      48.348  25.880  38.166  1.00  0.00    -0.237 OA
ATOM    103  O   UNL A   1      48.697  23.921  36.716  1.00  0.00    -0.237 OA
ATOM    104  O   UNL A   1      50.630  25.199  37.535  1.00  0.00    -0.744 OA
ENDBRANCH  98 101
ENDBRANCH  71  94
ENDBRANCH  45  46
ENDBRANCH  37  40
ENDBRANCH  35  36
ENDBRANCH  34  35
ENDBRANCH   1  34
TORSDOF 21
ENDMDL
MODEL 2
REMARK VINA RESULT:     -10.3      2.240      3.240
REMARK SMILES COc1ccc(OC)c(-c2cc(-c3ccccc3)nc(S[C@H](C)C(=O)NCCCCNC(=O)c3ccc(-c4c5nc(c(-c6cccc(S(=O)(=O)[O-])c6F)c6ccc([nH]6)c(-c6cccc(S(=O)(=O)[O-])c6F)c6nc(c(-c7cccc(S(=O)(=O)[O-])c7F)c7ccc4[nH]7)C=C6)C=C5)cc3)c2C#N)c1
REMARK SMILES IDX 28 1 27 2 26 3 24 4 25 5 22 7 23 8 21 9 20 10 10 11 11 12
REMARK SMILES IDX 97 13 12 14 19 15 9 16 3 17 4 18 100 19 5 20 6 21 2 22 1 23
REMARK SMILES IDX 7 24 8 25 98 26 99 27 13 28 14 29 18 30 15 31 17 32 16 33
REMARK SMILES IDX 29 34 30 35 31 36 32 37 33 39 34 40 35 41 96 42 36 43 95 44
REMARK SMILES IDX 37 45 38 46 39 47 89 48 40 49 94 50 88 51 90 52 41 53 93 54
REMARK SMILES IDX 87 55 86 56 42 58 74 59 54 60 73 61 55 62 58 63 72 64 91 65
REMARK SMILES IDX 56 66 57 67 71 69 92 70 59 71 43 72 44 73 52 74 45 75 47 76
REMARK SMILES IDX 53 77 46 78 48 79 49 80 50 81 51 82 75 83 76 84 84 85 77 86
REMARK SMILES IDX 79 87 85 88 78 89 80 90 81 91 82 92 83 93 60 94 61 95 69 96
REMARK SMILES IDX 62 97 64 98 70 99 63 100 65 101 66 102 67 103 68 104
REMARK H PARENT 26 6 31 38 90 57 58 68
REMARK Flexibility Score: inf
ROOT
ATOM      1  C   UNL A   1      31.760  29.627  26.946  1.00  0.00     0.023 C 
ENDROOT
BRANCH   1   2
ATOM      2  C   UNL A   1      31.765  28.103  26.908  1.00  0.00     0.116 C 
BRANCH   2   3
ATOM      3  N   UNL A   1      30.937  27.570  25.845  1.00  0.00    -0.355 N 
ATOM      4  C   UNL A   1      31.191  26.569  24.953  1.00  0.00     0.233 C 
ATOM      5  O   UNL A   1      30.285  26.249  24.178  1.00  0.00    -0.274 OA
ATOM      6  H   UNL A   1      30.055  27.997  25.751  1.00  0.00     0.163 HD
BRANCH   4   7
ATOM      7  C   UNL A   1      32.560  25.888  24.871  1.00  0.00     0.139 C 
ATOM      8  C   UNL A   1      33.572  26.806  24.204  1.00  0.00     0.030 C 
BRANCH   7   9
ATOM      9  S   UNL A   1      32.869  24.975  26.461  1.00  0.00    -0.092 SA
BRANCH   9  10
ATOM     10  C   UNL A   1      33.803  23.494  26.091  1.00  0.00     0.116 A 
ATOM     11  C   UNL A   1      33.975  21.236  25.219  1.00  0.00     0.008 A 
ATOM     12  C   UNL A   1      35.368  21.389  25.258  1.00  0.00     0.039 A 
ATOM     13  C   UNL A   1      33.175  22.330  25.626  1.00  0.00     0.092 A 
ATOM     14  C   UNL A   1      35.914  22.537  25.810  1.00  0.00     0.072 A 
ATOM     15  N   UNL A   1      35.140  23.569  26.215  1.00  0.00    -0.240 NA
BRANCH  11  16
ATOM     16  C   UNL A   1      33.400  19.967  24.717  1.00  0.00     0.029 A 
ATOM     17  C   UNL A   1      33.233  17.532  25.094  1.00  0.00     0.119 A 
ATOM     18  C   UNL A   1      32.531  17.403  23.905  1.00  0.00     0.050 A 
ATOM     19  C   UNL A   1      33.652  18.803  25.497  1.00  0.00     0.059 A 
ATOM     20  C   UNL A   1      32.241  18.530  23.141  1.00  0.00     0.051 A 
ATOM     21  C   UNL A   1      32.666  19.816  23.522  1.00  0.00     0.127 A 
BRANCH  17  22
ATOM     22  O   UNL A   1      33.490  16.354  25.735  1.00  0.00    -0.497 OA
ATOM     23  C   UNL A   1      32.625  15.263  25.452  1.00  0.00     0.278 C 
ENDBRANCH  17  22
BRANCH  21  24
ATOM     24  O   UNL A   1      32.303  20.722  22.567  1.00  0.00    -0.496 OA
ATOM     25  C   UNL A   1      31.772  20.349  21.313  1.00  0.00     0.278 C 
ENDBRANCH  21  24
ENDBRANCH  11  16
BRANCH  13  26
ATOM     26  C   UNL A   1      31.743  22.256  25.540  1.00  0.00     0.103 C 
ATOM     27  N   UNL A   1      30.586  22.185  25.505  1.00  0.00    -0.192 NA
ENDBRANCH  13  26
BRANCH  14  28
ATOM     28  C   UNL A   1      37.355  22.709  26.029  1.00  0.00     0.000 A 
ATOM     29  C   UNL A   1      37.876  23.964  26.396  1.00  0.00     0.010 A 
ATOM     30  C   UNL A   1      38.255  21.647  25.861  1.00  0.00     0.010 A 
ATOM     31  C   UNL A   1      39.248  24.156  26.569  1.00  0.00     0.001 A 
ATOM     32  C   UNL A   1      39.630  21.837  26.033  1.00  0.00     0.001 A 
ATOM     33  C   UNL A   1      40.125  23.092  26.382  1.00  0.00     0.000 A 
ENDBRANCH  14  28
ENDBRANCH   9  10
ENDBRANCH   7   9
ENDBRANCH   4   7
ENDBRANCH   2   3
ENDBRANCH   1   2
BRANCH   1  34
ATOM     34  C   UNL A   1      33.065  30.284  26.493  1.00  0.00     0.023 C 
BRANCH  34  35
ATOM     35  C   UNL A   1      33.751  31.154  27.540  1.00  0.00     0.116 C 
BRANCH  35  36
ATOM     36  N   UNL A   1      33.185  32.494  27.625  1.00  0.00    -0.352 N 
ATOM     37  C   UNL A   1      33.523  33.526  28.469  1.00  0.00     0.251 C 
ATOM     38  H   UNL A   1      32.457  32.688  26.991  1.00  0.00     0.163 HD
ATOM     39  O   UNL A   1      32.836  34.543  28.502  1.00  0.00    -0.269 OA
BRANCH  37  40
ATOM     40  C   UNL A   1      34.696  33.387  29.358  1.00  0.00     0.039 A 
ATOM     41  C   UNL A   1      34.575  32.628  30.524  1.00  0.00     0.014 A 
ATOM     42  C   UNL A   1      35.924  33.960  29.016  1.00  0.00     0.014 A 
ATOM     43  C   UNL A   1      35.707  32.368  31.299  1.00  0.00     0.010 A 
ATOM     44  C   UNL A   1      37.064  33.634  29.744  1.00  0.00     0.010 A 
ATOM     45  C   UNL A   1      36.971  32.825  30.886  1.00  0.00    -0.014 A 
BRANCH  45  46
ATOM     46  C   UNL A   1      38.209  32.419  31.603  1.00  0.00     0.031 A 
ATOM     47  C   UNL A   1      39.105  31.352  31.040  1.00  0.00     0.074 A 
ATOM     48  C   UNL A   1      38.474  32.951  32.813  1.00  0.00     0.049 A 
ATOM     49  N   UNL A   1      40.188  30.831  31.556  1.00  0.00    -0.248 NA
ATOM     50  C   UNL A   1      38.725  30.776  29.739  1.00  0.00     0.031 C 
ATOM     51  C   UNL A   1      37.643  33.942  33.503  1.00  0.00     0.029 A 
ATOM     52  N   UNL A   1      39.502  32.714  33.693  1.00  0.00    -0.354 N 
ATOM     53  C   UNL A   1      40.601  29.849  30.664  1.00  0.00     0.074 A 
ATOM     54  C   UNL A   1      39.634  29.824  29.587  1.00  0.00     0.031 C 
ATOM     55  C   UNL A   1      38.195  34.230  34.692  1.00  0.00     0.029 A 
ATOM     56  C   UNL A   1      39.392  33.415  34.872  1.00  0.00     0.049 A 
ATOM     57  H   UNL A   1      40.247  32.100  33.499  1.00  0.00     0.167 HD
ATOM     58  C   UNL A   1      41.696  29.054  30.723  1.00  0.00     0.034 A 
ATOM     59  C   UNL A   1      40.156  33.393  35.982  1.00  0.00     0.034 A 
ATOM     60  C   UNL A   1      42.667  29.096  31.784  1.00  0.00     0.049 A 
ATOM     61  C   UNL A   1      41.367  32.501  36.021  1.00  0.00     0.074 A 
ATOM     62  C   UNL A   1      43.855  28.394  31.889  1.00  0.00     0.029 A 
ATOM     63  N   UNL A   1      42.553  29.861  32.935  1.00  0.00    -0.354 N 
ATOM     64  N   UNL A   1      41.830  31.700  35.093  1.00  0.00    -0.248 NA
ATOM     65  C   UNL A   1      42.176  32.530  37.249  1.00  0.00     0.031 C 
ATOM     66  C   UNL A   1      44.436  28.698  33.124  1.00  0.00     0.029 A 
ATOM     67  C   UNL A   1      43.634  29.626  33.769  1.00  0.00     0.049 A 
ATOM     68  H   UNL A   1      41.812  30.479  33.131  1.00  0.00     0.167 HD
ATOM     69  C   UNL A   1      42.998  31.152  35.612  1.00  0.00     0.074 A 
ATOM     70  C   UNL A   1      43.186  31.734  36.925  1.00  0.00     0.031 C 
ATOM     71  C   UNL A   1      43.832  30.238  35.057  1.00  0.00     0.034 A 
BRANCH  58  72
ATOM     72  C   UNL A   1      41.927  28.089  29.589  1.00  0.00     0.023 A 
ATOM     73  C   UNL A   1      41.503  26.750  29.710  1.00  0.00     0.012 A 
ATOM     74  C   UNL A   1      42.504  28.523  28.378  1.00  0.00     0.148 A 
ATOM     75  C   UNL A   1      41.682  25.849  28.662  1.00  0.00     0.002 A 
ATOM     76  C   UNL A   1      42.635  27.632  27.320  1.00  0.00     0.091 A 
ATOM     77  F   UNL A   1      42.917  29.795  28.287  1.00  0.00    -0.205 F 
ATOM     78  C   UNL A   1      42.237  26.292  27.465  1.00  0.00     0.022 A 
BRANCH  76  79
ATOM     79  S   UNL A   1      43.260  28.122  25.709  1.00  0.00     0.127 S 
ATOM     80  O   UNL A   1      44.408  28.949  26.079  1.00  0.00    -0.237 OA
ATOM     81  O   UNL A   1      43.605  26.833  25.110  1.00  0.00    -0.237 OA
ATOM     82  O   UNL A   1      42.170  28.829  25.051  1.00  0.00    -0.744 OA
ENDBRANCH  76  79
ENDBRANCH  58  72
BRANCH  59  83
ATOM     83  C   UNL A   1      39.814  34.267  37.141  1.00  0.00     0.023 A 
ATOM     84  C   UNL A   1      40.072  35.649  37.071  1.00  0.00     0.012 A 
ATOM     85  C   UNL A   1      39.220  33.738  38.304  1.00  0.00     0.148 A 
ATOM     86  C   UNL A   1      39.779  36.484  38.151  1.00  0.00     0.002 A 
ATOM     87  C   UNL A   1      38.876  34.584  39.352  1.00  0.00     0.091 A 
ATOM     88  F   UNL A   1      38.991  32.419  38.355  1.00  0.00    -0.205 F 
ATOM     89  C   UNL A   1      39.174  35.954  39.286  1.00  0.00     0.022 A 
BRANCH  87  90
ATOM     90  S   UNL A   1      37.974  34.012  40.796  1.00  0.00     0.127 S 
ATOM     91  O   UNL A   1      36.839  33.323  40.187  1.00  0.00    -0.237 OA
ATOM     92  O   UNL A   1      38.957  33.136  41.435  1.00  0.00    -0.237 OA
ATOM     93  O   UNL A   1      37.651  35.209  41.561  1.00  0.00    -0.744 OA
ENDBRANCH  87  90
ENDBRANCH  59  83
BRANCH  71  94
ATOM     94  C   UNL A   1      45.044  29.823  35.850  1.00  0.00     0.023 A 
ATOM     95  C   UNL A   1      46.278  30.470  35.640  1.00  0.00     0.012 A 
ATOM     96  C   UNL A   1      44.941  28.845  36.859  1.00  0.00     0.148 A 
ATOM     97  C   UNL A   1      47.398  30.128  36.399  1.00  0.00     0.002 A 
ATOM     98  C   UNL A   1      46.045  28.547  37.647  1.00  0.00     0.091 A 
ATOM     99  F   UNL A   1      43.762  28.230  37.035  1.00  0.00    -0.205 F 
ATOM    100  C   UNL A   1      47.278  29.176  37.409  1.00  0.00     0.022 A 
BRANCH  98 101
ATOM    101  S   UNL A   1      45.967  27.406  39.034  1.00  0.00     0.127 S 
ATOM    102  O   UNL A   1      46.895  26.359  38.610  1.00  0.00    -0.237 OA
ATOM    103  O   UNL A   1      46.446  28.235  40.140  1.00  0.00    -0.237 OA
ATOM    104  O   UNL A   1      44.575  26.994  39.141  1.00  0.00    -0.744 OA
ENDBRANCH  98 101
ENDBRANCH  71  94
ENDBRANCH  45  46
ENDBRANCH  37  40
ENDBRANCH  35  36
ENDBRANCH  34  35
ENDBRANCH   1  34
TORSDOF 21
ENDMDL
MODEL 3
REMARK VINA RESULT:     -10.2      2.390      7.904
REMARK SMILES COc1ccc(OC)c(-c2cc(-c3ccccc3)nc(S[C@H](C)C(=O)NCCCCNC(=O)c3ccc(-c4c5nc(c(-c6cccc(S(=O)(=O)[O-])c6F)c6ccc([nH]6)c(-c6cccc(S(=O)(=O)[O-])c6F)c6nc(c(-c7cccc(S(=O)(=O)[O-])c7F)c7ccc4[nH]7)C=C6)C=C5)cc3)c2C#N)c1
REMARK SMILES IDX 28 1 27 2 26 3 24 4 25 5 22 7 23 8 21 9 20 10 10 11 11 12
REMARK SMILES IDX 97 13 12 14 19 15 9 16 3 17 4 18 100 19 5 20 6 21 2 22 1 23
REMARK SMILES IDX 7 24 8 25 98 26 99 27 13 28 14 29 18 30 15 31 17 32 16 33
REMARK SMILES IDX 29 34 30 35 31 36 32 37 33 39 34 40 35 41 96 42 36 43 95 44
REMARK SMILES IDX 37 45 38 46 39 47 89 48 40 49 94 50 88 51 90 52 41 53 93 54
REMARK SMILES IDX 87 55 86 56 42 58 74 59 54 60 73 61 55 62 58 63 72 64 91 65
REMARK SMILES IDX 56 66 57 67 71 69 92 70 59 71 43 72 44 73 52 74 45 75 47 76
REMARK SMILES IDX 53 77 46 78 48 79 49 80 50 81 51 82 75 83 76 84 84 85 77 86
REMARK SMILES IDX 79 87 85 88 78 89 80 90 81 91 82 92 83 93 60 94 61 95 69 96
REMARK SMILES IDX 62 97 64 98 70 99 63 100 65 101 66 102 67 103 68 104
REMARK H PARENT 26 6 31 38 90 57 58 68
REMARK Flexibility Score: inf
ROOT
ATOM      1  C   UNL A   1      31.849  30.081  26.933  1.00  0.00     0.023 C 
ENDROOT
BRANCH   1   2
ATOM      2  C   UNL A   1      31.967  28.569  26.774  1.00  0.00     0.116 C 
BRANCH   2   3
ATOM      3  N   UNL A   1      31.107  28.051  25.728  1.00  0.00    -0.355 N 
ATOM      4  C   UNL A   1      31.335  27.065  24.813  1.00  0.00     0.233 C 
ATOM      5  O   UNL A   1      30.406  26.754  24.062  1.00  0.00    -0.274 OA
ATOM      6  H   UNL A   1      30.221  28.477  25.669  1.00  0.00     0.163 HD
BRANCH   4   7
ATOM      7  C   UNL A   1      32.702  26.388  24.679  1.00  0.00     0.139 C 
ATOM      8  C   UNL A   1      33.650  27.260  23.868  1.00  0.00     0.030 C 
BRANCH   7   9
ATOM      9  S   UNL A   1      33.142  25.600  26.304  1.00  0.00    -0.092 SA
BRANCH   9  10
ATOM     10  C   UNL A   1      33.979  24.053  25.976  1.00  0.00     0.116 A 
ATOM     11  C   UNL A   1      34.013  21.776  25.139  1.00  0.00     0.008 A 
ATOM     12  C   UNL A   1      35.412  21.833  25.207  1.00  0.00     0.039 A 
ATOM     13  C   UNL A   1      33.282  22.929  25.513  1.00  0.00     0.092 A 
ATOM     14  C   UNL A   1      36.024  22.950  25.755  1.00  0.00     0.072 A 
ATOM     15  N   UNL A   1      35.316  24.038  26.128  1.00  0.00    -0.240 NA
BRANCH  11  16
ATOM     16  C   UNL A   1      33.362  20.542  24.642  1.00  0.00     0.029 A 
ATOM     17  C   UNL A   1      33.095  18.112  24.996  1.00  0.00     0.119 A 
ATOM     18  C   UNL A   1      32.348  18.032  23.831  1.00  0.00     0.050 A 
ATOM     19  C   UNL A   1      33.586  19.356  25.399  1.00  0.00     0.059 A 
ATOM     20  C   UNL A   1      32.085  19.181  23.091  1.00  0.00     0.051 A 
ATOM     21  C   UNL A   1      32.582  20.441  23.471  1.00  0.00     0.127 A 
BRANCH  17  22
ATOM     22  O   UNL A   1      33.318  16.915  25.613  1.00  0.00    -0.497 OA
ATOM     23  C   UNL A   1      32.834  15.750  24.958  1.00  0.00     0.278 C 
ENDBRANCH  17  22
BRANCH  21  24
ATOM     24  O   UNL A   1      32.229  21.375  22.541  1.00  0.00    -0.496 OA
ATOM     25  C   UNL A   1      33.089  22.417  22.131  1.00  0.00     0.278 C 
ENDBRANCH  21  24
ENDBRANCH  11  16
BRANCH  13  26
ATOM     26  C   UNL A   1      31.851  22.952  25.397  1.00  0.00     0.103 C 
ATOM     27  N   UNL A   1      30.697  22.946  25.276  1.00  0.00    -0.192 NA
ENDBRANCH  13  26
BRANCH  14  28
ATOM     28  C   UNL A   1      37.469  23.025  26.003  1.00  0.00     0.000 A 
ATOM     29  C   UNL A   1      38.285  21.895  25.808  1.00  0.00     0.010 A 
ATOM     30  C   UNL A   1      38.076  24.204  26.457  1.00  0.00     0.010 A 
ATOM     31  C   UNL A   1      39.655  21.935  26.077  1.00  0.00     0.001 A 
ATOM     32  C   UNL A   1      39.447  24.247  26.727  1.00  0.00     0.001 A 
ATOM     33  C   UNL A   1      40.233  23.112  26.542  1.00  0.00     0.000 A 
ENDBRANCH  14  28
ENDBRANCH   9  10
ENDBRANCH   7   9
ENDBRANCH   4   7
ENDBRANCH   2   3
ENDBRANCH   1   2
BRANCH   1  34
ATOM     34  C   UNL A   1      33.093  30.867  26.522  1.00  0.00     0.023 C 
BRANCH  34  35
ATOM     35  C   UNL A   1      33.802  31.602  27.655  1.00  0.00     0.116 C 
BRANCH  35  36
ATOM     36  N   UNL A   1      33.294  32.952  27.863  1.00  0.00    -0.352 N 
ATOM     37  C   UNL A   1      33.627  33.862  28.838  1.00  0.00     0.251 C 
ATOM     38  H   UNL A   1      32.617  33.254  27.215  1.00  0.00     0.163 HD
ATOM     39  O   UNL A   1      32.988  34.904  28.950  1.00  0.00    -0.269 OA
BRANCH  37  40
ATOM     40  C   UNL A   1      34.735  33.562  29.770  1.00  0.00     0.039 A 
ATOM     41  C   UNL A   1      34.488  32.741  30.873  1.00  0.00     0.014 A 
ATOM     42  C   UNL A   1      36.024  34.045  29.527  1.00  0.00     0.014 A 
ATOM     43  C   UNL A   1      35.551  32.332  31.680  1.00  0.00     0.010 A 
ATOM     44  C   UNL A   1      37.092  33.571  30.283  1.00  0.00     0.010 A 
ATOM     45  C   UNL A   1      36.869  32.700  31.360  1.00  0.00    -0.014 A 
BRANCH  45  46
ATOM     46  C   UNL A   1      38.028  32.140  32.105  1.00  0.00     0.031 A 
ATOM     47  C   UNL A   1      38.390  32.663  33.466  1.00  0.00     0.074 A 
ATOM     48  C   UNL A   1      38.811  31.219  31.508  1.00  0.00     0.049 A 
ATOM     49  N   UNL A   1      39.399  32.336  34.232  1.00  0.00    -0.248 NA
ATOM     50  C   UNL A   1      37.520  33.707  34.035  1.00  0.00     0.031 C 
ATOM     51  C   UNL A   1      38.611  30.682  30.159  1.00  0.00     0.029 A 
ATOM     52  N   UNL A   1      39.952  30.591  31.945  1.00  0.00    -0.354 N 
ATOM     53  C   UNL A   1      39.307  33.152  35.352  1.00  0.00     0.074 A 
ATOM     54  C   UNL A   1      38.159  34.012  35.155  1.00  0.00     0.031 C 
ATOM     55  C   UNL A   1      39.588  29.806  29.882  1.00  0.00     0.029 A 
ATOM     56  C   UNL A   1      40.511  29.748  31.011  1.00  0.00     0.049 A 
ATOM     57  H   UNL A   1      40.334  30.730  32.841  1.00  0.00     0.167 HD
ATOM     58  C   UNL A   1      40.091  33.169  36.457  1.00  0.00     0.034 A 
ATOM     59  C   UNL A   1      41.648  29.025  31.048  1.00  0.00     0.034 A 
ATOM     60  C   UNL A   1      41.218  32.299  36.660  1.00  0.00     0.049 A 
ATOM     61  C   UNL A   1      42.500  29.063  32.286  1.00  0.00     0.074 A 
ATOM     62  C   UNL A   1      42.020  32.180  37.782  1.00  0.00     0.029 A 
ATOM     63  N   UNL A   1      41.720  31.417  35.715  1.00  0.00    -0.354 N 
ATOM     64  N   UNL A   1      42.302  29.719  33.404  1.00  0.00    -0.248 NA
ATOM     65  C   UNL A   1      43.719  28.240  32.281  1.00  0.00     0.031 C 
ATOM     66  C   UNL A   1      43.035  31.261  37.498  1.00  0.00     0.029 A 
ATOM     67  C   UNL A   1      42.839  30.772  36.217  1.00  0.00     0.049 A 
ATOM     68  H   UNL A   1      41.339  31.272  34.819  1.00  0.00     0.167 HD
ATOM     69  C   UNL A   1      43.353  29.367  34.244  1.00  0.00     0.074 A 
ATOM     70  C   UNL A   1      44.170  28.419  33.515  1.00  0.00     0.031 C 
ATOM     71  C   UNL A   1      43.624  29.801  35.499  1.00  0.00     0.034 A 
BRANCH  58  72
ATOM     72  C   UNL A   1      39.739  34.142  37.554  1.00  0.00     0.023 A 
ATOM     73  C   UNL A   1      39.986  35.518  37.377  1.00  0.00     0.012 A 
ATOM     74  C   UNL A   1      39.104  33.700  38.732  1.00  0.00     0.148 A 
ATOM     75  C   UNL A   1      39.643  36.436  38.369  1.00  0.00     0.002 A 
ATOM     76  C   UNL A   1      38.721  34.626  39.695  1.00  0.00     0.091 A 
ATOM     77  F   UNL A   1      38.893  32.386  38.891  1.00  0.00    -0.205 F 
ATOM     78  C   UNL A   1      39.001  35.991  39.521  1.00  0.00     0.022 A 
BRANCH  76  79
ATOM     79  S   UNL A   1      37.814  34.167  41.177  1.00  0.00     0.127 S 
ATOM     80  O   UNL A   1      38.773  33.292  41.849  1.00  0.00    -0.237 OA
ATOM     81  O   UNL A   1      37.613  35.463  41.824  1.00  0.00    -0.237 OA
ATOM     82  O   UNL A   1      36.594  33.518  40.718  1.00  0.00    -0.744 OA
ENDBRANCH  76  79
ENDBRANCH  58  72
BRANCH  59  83
ATOM     83  C   UNL A   1      42.032  28.179  29.882  1.00  0.00     0.023 A 
ATOM     84  C   UNL A   1      41.472  26.894  29.740  1.00  0.00     0.012 A 
ATOM     85  C   UNL A   1      42.936  28.644  28.907  1.00  0.00     0.148 A 
ATOM     86  C   UNL A   1      41.832  26.076  28.669  1.00  0.00     0.002 A 
ATOM     87  C   UNL A   1      43.244  27.848  27.811  1.00  0.00     0.091 A 
ATOM     88  F   UNL A   1      43.465  29.866  29.066  1.00  0.00    -0.205 F 
ATOM     89  C   UNL A   1      42.709  26.555  27.701  1.00  0.00     0.022 A 
BRANCH  87  90
ATOM     90  S   UNL A   1      44.259  28.432  26.449  1.00  0.00     0.127 S 
ATOM     91  O   UNL A   1      43.571  29.663  26.069  1.00  0.00    -0.237 OA
ATOM     92  O   UNL A   1      45.554  28.625  27.104  1.00  0.00    -0.237 OA
ATOM     93  O   UNL A   1      44.242  27.366  25.457  1.00  0.00    -0.744 OA
ENDBRANCH  87  90
ENDBRANCH  59  83
BRANCH  71  94
ATOM     94  C   UNL A   1      44.841  29.240  36.187  1.00  0.00     0.023 A 
ATOM     95  C   UNL A   1      46.096  29.855  36.011  1.00  0.00     0.012 A 
ATOM     96  C   UNL A   1      44.726  28.149  37.072  1.00  0.00     0.148 A 
ATOM     97  C   UNL A   1      47.223  29.374  36.679  1.00  0.00     0.002 A 
ATOM     98  C   UNL A   1      45.840  27.709  37.775  1.00  0.00     0.091 A 
ATOM     99  F   UNL A   1      43.525  27.568  37.217  1.00  0.00    -0.205 F 
ATOM    100  C   UNL A   1      47.092  28.311  37.569  1.00  0.00     0.022 A 
BRANCH  98 101
ATOM    101  S   UNL A   1      45.754  26.410  39.013  1.00  0.00     0.127 S 
ATOM    102  O   UNL A   1      45.500  25.230  38.189  1.00  0.00    -0.237 OA
ATOM    103  O   UNL A   1      47.090  26.463  39.607  1.00  0.00    -0.237 OA
ATOM    104  O   UNL A   1      44.672  26.781  39.915  1.00  0.00    -0.744 OA
ENDBRANCH  98 101
ENDBRANCH  71  94
ENDBRANCH  45  46
ENDBRANCH  37  40
ENDBRANCH  35  36
ENDBRANCH  34  35
ENDBRANCH   1  34
TORSDOF 21
ENDMDL
