MODEL 1
REMARK VINA RESULT:     -12.1      0.000      0.000
REMARK SMILES C[C@]([NH2+]C[C@H]1Cc2ccccc2O1)(C(=O)NCCCCNC(=O)c1ccc(-c2c3nc(c(-c4cccc(S(=O)(=O)[O-])c4F)c4ccc([nH]4)c(-c4cccc(S(=O)(=O)[O-])c4F)c4nc(c(-c5cccc(S(=O)(=O)[O-])c5F)c5ccc2[nH]5)C=C4)C=C3)cc1)C(F)(F)F
REMARK SMILES IDX 18 1 17 2 16 3 14 4 15 5 2 7 1 8 87 9 88 10 89 11 90 12 3 13
REMARK SMILES IDX 4 16 5 17 6 18 13 19 7 20 12 21 8 22 11 23 9 24 10 25 19 26
REMARK SMILES IDX 20 27 21 28 22 29 23 31 24 32 25 33 86 34 26 35 85 36 27 37
REMARK SMILES IDX 28 38 29 39 79 40 30 41 84 42 78 43 80 44 31 45 83 46 77 47
REMARK SMILES IDX 76 48 32 50 64 51 44 52 63 53 45 54 48 55 62 56 81 57 46 58
REMARK SMILES IDX 47 59 61 61 82 62 49 63 33 64 34 65 42 66 35 67 37 68 43 69
REMARK SMILES IDX 36 70 38 71 39 72 40 73 41 74 65 75 66 76 74 77 67 78 69 79
REMARK SMILES IDX 75 80 68 81 70 82 71 83 72 84 73 85 50 86 51 87 59 88 52 89
REMARK SMILES IDX 54 90 60 91 53 92 55 93 56 94 57 95 58 96
REMARK H PARENT 16 6 3 14 3 15 21 30 80 49 48 60
REMARK Flexibility Score: inf
ROOT
ATOM      1  C   UNL A   1      31.754  26.881  26.272  1.00  0.00     0.023 C 
ENDROOT
BRANCH   1   2
ATOM      2  C   UNL A   1      31.494  25.610  25.456  1.00  0.00     0.116 C 
BRANCH   2   3
ATOM      3  N   UNL A   1      32.149  25.684  24.160  1.00  0.00    -0.350 N 
ATOM      4  C   UNL A   1      33.218  25.055  23.593  1.00  0.00     0.290 C 
ATOM      5  O   UNL A   1      33.614  25.592  22.551  1.00  0.00    -0.267 OA
ATOM      6  H   UNL A   1      31.725  26.336  23.556  1.00  0.00     0.163 HD
BRANCH   4   7
ATOM      7  C   UNL A   1      33.963  23.825  24.192  1.00  0.00     0.268 C 
ATOM      8  C   UNL A   1      34.982  23.168  23.247  1.00  0.00     0.101 C 
BRANCH   7   9
ATOM      9  C   UNL A   1      34.809  24.454  25.355  1.00  0.00     0.453 C 
ATOM     10  F   UNL A   1      34.399  24.045  26.579  1.00  0.00    -0.164 F 
ATOM     11  F   UNL A   1      36.115  24.077  25.265  1.00  0.00    -0.164 F 
ATOM     12  F   UNL A   1      34.803  25.807  25.329  1.00  0.00    -0.164 F 
ENDBRANCH   7   9
BRANCH   7  13
ATOM     13  N   UNL A   1      33.014  22.779  24.752  1.00  0.00    -0.323 N 
ATOM     14  H   UNL A   1      32.083  22.959  24.376  1.00  0.00     0.347 HD
ATOM     15  H   UNL A   1      33.060  22.862  25.768  1.00  0.00     0.347 HD
BRANCH  13  16
ATOM     16  C   UNL A   1      33.372  21.393  24.436  1.00  0.00     0.307 C 
BRANCH  16  17
ATOM     17  C   UNL A   1      32.181  20.458  24.111  1.00  0.00     0.232 C 
ATOM     18  C   UNL A   1      32.476  19.577  22.878  1.00  0.00     0.090 C 
ATOM     19  O   UNL A   1      31.958  19.565  25.244  1.00  0.00    -0.484 OA
ATOM     20  C   UNL A   1      32.971  18.357  23.557  1.00  0.00    -0.002 A 
ATOM     21  C   UNL A   1      32.610  18.407  24.893  1.00  0.00     0.123 A 
ATOM     22  C   UNL A   1      33.639  17.262  23.037  1.00  0.00     0.007 A 
ATOM     23  C   UNL A   1      32.901  17.378  25.764  1.00  0.00     0.047 A 
ATOM     24  C   UNL A   1      33.955  16.212  23.903  1.00  0.00     0.001 A 
ATOM     25  C   UNL A   1      33.587  16.269  25.259  1.00  0.00     0.004 A 
ENDBRANCH  16  17
ENDBRANCH  13  16
ENDBRANCH   7  13
ENDBRANCH   4   7
ENDBRANCH   2   3
ENDBRANCH   1   2
BRANCH   1  26
ATOM     26  C   UNL A   1      31.526  28.186  25.524  1.00  0.00     0.023 C 
BRANCH  26  27
ATOM     27  C   UNL A   1      32.641  29.206  25.680  1.00  0.00     0.116 C 
BRANCH  27  28
ATOM     28  N   UNL A   1      32.169  30.522  26.095  1.00  0.00    -0.352 N 
ATOM     29  C   UNL A   1      32.777  31.415  26.945  1.00  0.00     0.251 C 
ATOM     30  H   UNL A   1      31.306  30.807  25.718  1.00  0.00     0.163 HD
ATOM     31  O   UNL A   1      32.203  32.449  27.278  1.00  0.00    -0.269 OA
BRANCH  29  32
ATOM     32  C   UNL A   1      34.111  31.088  27.483  1.00  0.00     0.039 A 
ATOM     33  C   UNL A   1      35.046  32.112  27.644  1.00  0.00     0.014 A 
ATOM     34  C   UNL A   1      34.401  29.787  27.906  1.00  0.00     0.014 A 
ATOM     35  C   UNL A   1      36.248  31.845  28.302  1.00  0.00     0.010 A 
ATOM     36  C   UNL A   1      35.555  29.547  28.638  1.00  0.00     0.010 A 
ATOM     37  C   UNL A   1      36.493  30.571  28.839  1.00  0.00    -0.014 A 
BRANCH  37  38
ATOM     38  C   UNL A   1      37.721  30.279  29.616  1.00  0.00     0.031 A 
ATOM     39  C   UNL A   1      38.763  29.355  29.049  1.00  0.00     0.074 A 
ATOM     40  C   UNL A   1      37.847  30.756  30.871  1.00  0.00     0.049 A 
ATOM     41  N   UNL A   1      39.860  28.909  29.602  1.00  0.00    -0.248 NA
ATOM     42  C   UNL A   1      38.522  28.832  27.692  1.00  0.00     0.031 C 
ATOM     43  C   UNL A   1      36.857  31.579  31.569  1.00  0.00     0.029 A 
ATOM     44  N   UNL A   1      38.849  30.590  31.794  1.00  0.00    -0.354 N 
ATOM     45  C   UNL A   1      40.414  28.025  28.686  1.00  0.00     0.074 A 
ATOM     46  C   UNL A   1      39.512  27.963  27.557  1.00  0.00     0.031 C 
ATOM     47  C   UNL A   1      37.303  31.849  32.807  1.00  0.00     0.029 A 
ATOM     48  C   UNL A   1      38.598  31.204  32.998  1.00  0.00     0.049 A 
ATOM     49  H   UNL A   1      39.671  30.080  31.610  1.00  0.00     0.167 HD
ATOM     50  C   UNL A   1      41.588  27.354  28.756  1.00  0.00     0.034 A 
ATOM     51  C   UNL A   1      39.330  31.243  34.130  1.00  0.00     0.034 A 
ATOM     52  C   UNL A   1      42.512  27.473  29.850  1.00  0.00     0.049 A 
ATOM     53  C   UNL A   1      40.669  30.556  34.152  1.00  0.00     0.074 A 
ATOM     54  C   UNL A   1      43.772  26.917  29.976  1.00  0.00     0.029 A 
ATOM     55  N   UNL A   1      42.279  28.205  31.004  1.00  0.00    -0.354 N 
ATOM     56  N   UNL A   1      41.254  29.861  33.207  1.00  0.00    -0.248 NA
ATOM     57  C   UNL A   1      41.468  30.695  35.378  1.00  0.00     0.031 C 
ATOM     58  C   UNL A   1      44.300  27.311  31.210  1.00  0.00     0.029 A 
ATOM     59  C   UNL A   1      43.372  28.120  31.847  1.00  0.00     0.049 A 
ATOM     60  H   UNL A   1      41.456  28.712  31.194  1.00  0.00     0.167 HD
ATOM     61  C   UNL A   1      42.500  29.505  33.710  1.00  0.00     0.074 A 
ATOM     62  C   UNL A   1      42.594  30.083  35.035  1.00  0.00     0.031 C 
ATOM     63  C   UNL A   1      43.471  28.753  33.136  1.00  0.00     0.034 A 
BRANCH  50  64
ATOM     64  C   UNL A   1      41.968  26.495  27.580  1.00  0.00     0.023 A 
ATOM     65  C   UNL A   1      42.668  27.075  26.502  1.00  0.00     0.012 A 
ATOM     66  C   UNL A   1      41.675  25.119  27.554  1.00  0.00     0.148 A 
ATOM     67  C   UNL A   1      43.037  26.309  25.399  1.00  0.00     0.002 A 
ATOM     68  C   UNL A   1      42.085  24.352  26.469  1.00  0.00     0.091 A 
ATOM     69  F   UNL A   1      40.987  24.590  28.575  1.00  0.00    -0.205 F 
ATOM     70  C   UNL A   1      42.755  24.946  25.386  1.00  0.00     0.022 A 
BRANCH  68  71
ATOM     71  S   UNL A   1      41.832  22.575  26.394  1.00  0.00     0.127 S 
ATOM     72  O   UNL A   1      42.466  22.134  27.635  1.00  0.00    -0.237 OA
ATOM     73  O   UNL A   1      40.373  22.469  26.384  1.00  0.00    -0.237 OA
ATOM     74  O   UNL A   1      42.478  22.132  25.166  1.00  0.00    -0.744 OA
ENDBRANCH  68  71
ENDBRANCH  50  64
BRANCH  51  75
ATOM     75  C   UNL A   1      38.850  32.032  35.299  1.00  0.00     0.023 A 
ATOM     76  C   UNL A   1      38.895  33.439  35.242  1.00  0.00     0.012 A 
ATOM     77  C   UNL A   1      38.311  31.408  36.440  1.00  0.00     0.148 A 
ATOM     78  C   UNL A   1      38.441  34.210  36.313  1.00  0.00     0.002 A 
ATOM     79  C   UNL A   1      37.812  32.184  37.482  1.00  0.00     0.091 A 
ATOM     80  F   UNL A   1      38.289  30.069  36.482  1.00  0.00    -0.205 F 
ATOM     81  C   UNL A   1      37.890  33.583  37.427  1.00  0.00     0.022 A 
BRANCH  79  82
ATOM     82  S   UNL A   1      36.963  31.460  38.891  1.00  0.00     0.127 S 
ATOM     83  O   UNL A   1      36.774  30.081  38.451  1.00  0.00    -0.237 OA
ATOM     84  O   UNL A   1      37.945  31.637  39.963  1.00  0.00    -0.237 OA
ATOM     85  O   UNL A   1      35.751  32.249  39.059  1.00  0.00    -0.744 OA
ENDBRANCH  79  82
ENDBRANCH  51  75
BRANCH  63  86
ATOM     86  C   UNL A   1      44.735  28.528  33.921  1.00  0.00     0.023 A 
ATOM     87  C   UNL A   1      45.777  29.474  33.846  1.00  0.00     0.012 A 
ATOM     88  C   UNL A   1      44.856  27.432  34.796  1.00  0.00     0.148 A 
ATOM     89  C   UNL A   1      46.930  29.317  34.612  1.00  0.00     0.002 A 
ATOM     90  C   UNL A   1      45.990  27.306  35.590  1.00  0.00     0.091 A 
ATOM     91  F   UNL A   1      43.861  26.533  34.838  1.00  0.00    -0.205 F 
ATOM     92  C   UNL A   1      47.032  28.243  35.492  1.00  0.00     0.022 A 
BRANCH  90  93
ATOM     93  S   UNL A   1      46.160  26.005  36.817  1.00  0.00     0.127 S 
ATOM     94  O   UNL A   1      46.199  24.809  35.979  1.00  0.00    -0.237 OA
ATOM     95  O   UNL A   1      47.432  26.342  37.457  1.00  0.00    -0.237 OA
ATOM     96  O   UNL A   1      44.999  26.126  37.688  1.00  0.00    -0.744 OA
ENDBRANCH  90  93
ENDBRANCH  63  86
ENDBRANCH  37  38
ENDBRANCH  29  32
ENDBRANCH  27  28
ENDBRANCH  26  27
ENDBRANCH   1  26
TORSDOF 18
ENDMDL
MODEL 2
REMARK VINA RESULT:     -12.0      5.286      7.490
REMARK SMILES C[C@]([NH2+]C[C@H]1Cc2ccccc2O1)(C(=O)NCCCCNC(=O)c1ccc(-c2c3nc(c(-c4cccc(S(=O)(=O)[O-])c4F)c4ccc([nH]4)c(-c4cccc(S(=O)(=O)[O-])c4F)c4nc(c(-c5cccc(S(=O)(=O)[O-])c5F)c5ccc2[nH]5)C=C4)C=C3)cc1)C(F)(F)F
REMARK SMILES IDX 18 1 17 2 16 3 14 4 15 5 2 7 1 8 87 9 88 10 89 11 90 12 3 13
REMARK SMILES IDX 4 16 5 17 6 18 13 19 7 20 12 21 8 22 11 23 9 24 10 25 19 26
REMARK SMILES IDX 20 27 21 28 22 29 23 31 24 32 25 33 86 34 26 35 85 36 27 37
REMARK SMILES IDX 28 38 29 39 79 40 30 41 84 42 78 43 80 44 31 45 83 46 77 47
REMARK SMILES IDX 76 48 32 50 64 51 44 52 63 53 45 54 48 55 62 56 81 57 46 58
REMARK SMILES IDX 47 59 61 61 82 62 49 63 33 64 34 65 42 66 35 67 37 68 43 69
REMARK SMILES IDX 36 70 38 71 39 72 40 73 41 74 65 75 66 76 74 77 67 78 69 79
REMARK SMILES IDX 75 80 68 81 70 82 71 83 72 84 73 85 50 86 51 87 59 88 52 89
REMARK SMILES IDX 54 90 60 91 53 92 55 93 56 94 57 95 58 96
REMARK H PARENT 16 6 3 14 3 15 21 30 80 49 48 60
REMARK Flexibility Score: inf
ROOT
ATOM      1  C   UNL A   1      36.639  23.208  23.643  1.00  0.00     0.023 C 
ENDROOT
BRANCH   1   2
ATOM      2  C   UNL A   1      35.307  23.789  24.130  1.00  0.00     0.116 C 
BRANCH   2   3
ATOM      3  N   UNL A   1      34.411  24.037  23.013  1.00  0.00    -0.350 N 
ATOM      4  C   UNL A   1      33.332  24.847  22.816  1.00  0.00     0.290 C 
ATOM      5  O   UNL A   1      32.683  24.572  21.799  1.00  0.00    -0.267 OA
ATOM      6  H   UNL A   1      34.633  23.499  22.220  1.00  0.00     0.163 HD
BRANCH   4   7
ATOM      7  C   UNL A   1      32.860  25.973  23.784  1.00  0.00     0.268 C 
ATOM      8  C   UNL A   1      33.811  26.253  24.959  1.00  0.00     0.101 C 
BRANCH   7   9
ATOM      9  C   UNL A   1      32.911  27.258  22.884  1.00  0.00     0.453 C 
ATOM     10  F   UNL A   1      31.807  27.399  22.111  1.00  0.00    -0.164 F 
ATOM     11  F   UNL A   1      32.963  28.385  23.648  1.00  0.00    -0.164 F 
ATOM     12  F   UNL A   1      34.002  27.291  22.085  1.00  0.00    -0.164 F 
ENDBRANCH   7   9
BRANCH   7  13
ATOM     13  N   UNL A   1      31.445  25.756  24.294  1.00  0.00    -0.323 N 
ATOM     14  H   UNL A   1      31.075  24.911  23.857  1.00  0.00     0.347 HD
ATOM     15  H   UNL A   1      30.919  26.596  24.052  1.00  0.00     0.347 HD
BRANCH  13  16
ATOM     16  C   UNL A   1      31.332  25.603  25.747  1.00  0.00     0.307 C 
BRANCH  16  17
ATOM     17  C   UNL A   1      30.631  24.308  26.225  1.00  0.00     0.232 C 
ATOM     18  C   UNL A   1      30.797  23.166  25.199  1.00  0.00     0.090 C 
ATOM     19  O   UNL A   1      31.251  23.869  27.472  1.00  0.00    -0.484 OA
ATOM     20  C   UNL A   1      31.979  22.484  25.773  1.00  0.00    -0.002 A 
ATOM     21  C   UNL A   1      32.155  22.911  27.080  1.00  0.00     0.123 A 
ATOM     22  C   UNL A   1      32.807  21.524  25.217  1.00  0.00     0.007 A 
ATOM     23  C   UNL A   1      33.159  22.407  27.880  1.00  0.00     0.047 A 
ATOM     24  C   UNL A   1      33.838  21.008  26.006  1.00  0.00     0.001 A 
ATOM     25  C   UNL A   1      34.013  21.447  27.330  1.00  0.00     0.004 A 
ENDBRANCH  16  17
ENDBRANCH  13  16
ENDBRANCH   7  13
ENDBRANCH   4   7
ENDBRANCH   2   3
ENDBRANCH   1   2
BRANCH   1  26
ATOM     26  C   UNL A   1      36.980  21.829  24.188  1.00  0.00     0.023 C 
BRANCH  26  27
ATOM     27  C   UNL A   1      37.497  21.827  25.617  1.00  0.00     0.116 C 
BRANCH  27  28
ATOM     28  N   UNL A   1      38.585  20.881  25.838  1.00  0.00    -0.352 N 
ATOM     29  C   UNL A   1      39.830  21.125  26.366  1.00  0.00     0.251 C 
ATOM     30  H   UNL A   1      38.405  19.950  25.575  1.00  0.00     0.163 HD
ATOM     31  O   UNL A   1      40.680  20.238  26.396  1.00  0.00    -0.269 OA
BRANCH  29  32
ATOM     32  C   UNL A   1      40.140  22.482  26.856  1.00  0.00     0.039 A 
ATOM     33  C   UNL A   1      41.027  22.630  27.924  1.00  0.00     0.014 A 
ATOM     34  C   UNL A   1      39.621  23.603  26.202  1.00  0.00     0.014 A 
ATOM     35  C   UNL A   1      41.453  23.908  28.289  1.00  0.00     0.010 A 
ATOM     36  C   UNL A   1      40.116  24.863  26.507  1.00  0.00     0.010 A 
ATOM     37  C   UNL A   1      41.032  25.030  27.556  1.00  0.00    -0.014 A 
BRANCH  37  38
ATOM     38  C   UNL A   1      41.534  26.391  27.864  1.00  0.00     0.031 A 
ATOM     39  C   UNL A   1      42.951  26.761  27.522  1.00  0.00     0.074 A 
ATOM     40  C   UNL A   1      40.754  27.252  28.547  1.00  0.00     0.049 A 
ATOM     41  N   UNL A   1      43.601  27.863  27.784  1.00  0.00    -0.248 NA
ATOM     42  C   UNL A   1      43.756  25.742  26.825  1.00  0.00     0.031 C 
ATOM     43  C   UNL A   1      39.397  26.972  29.024  1.00  0.00     0.029 A 
ATOM     44  N   UNL A   1      41.002  28.528  28.986  1.00  0.00    -0.354 N 
ATOM     45  C   UNL A   1      44.896  27.656  27.327  1.00  0.00     0.074 A 
ATOM     46  C   UNL A   1      44.953  26.307  26.809  1.00  0.00     0.031 C 
ATOM     47  C   UNL A   1      38.932  28.046  29.684  1.00  0.00     0.029 A 
ATOM     48  C   UNL A   1      39.962  29.080  29.697  1.00  0.00     0.049 A 
ATOM     49  H   UNL A   1      41.845  29.004  28.809  1.00  0.00     0.167 HD
ATOM     50  C   UNL A   1      45.937  28.521  27.302  1.00  0.00     0.034 A 
ATOM     51  C   UNL A   1      39.850  30.285  30.290  1.00  0.00     0.034 A 
ATOM     52  C   UNL A   1      45.855  29.883  27.755  1.00  0.00     0.049 A 
ATOM     53  C   UNL A   1      40.992  31.260  30.176  1.00  0.00     0.074 A 
ATOM     54  C   UNL A   1      46.818  30.873  27.683  1.00  0.00     0.029 A 
ATOM     55  N   UNL A   1      44.743  30.448  28.358  1.00  0.00    -0.354 N 
ATOM     56  N   UNL A   1      42.153  31.102  29.588  1.00  0.00    -0.248 NA
ATOM     57  C   UNL A   1      40.793  32.591  30.767  1.00  0.00     0.031 C 
ATOM     58  C   UNL A   1      46.287  32.038  28.247  1.00  0.00     0.029 A 
ATOM     59  C   UNL A   1      44.991  31.774  28.661  1.00  0.00     0.049 A 
ATOM     60  H   UNL A   1      43.899  29.974  28.543  1.00  0.00     0.167 HD
ATOM     61  C   UNL A   1      42.811  32.320  29.710  1.00  0.00     0.074 A 
ATOM     62  C   UNL A   1      41.909  33.213  30.408  1.00  0.00     0.031 C 
ATOM     63  C   UNL A   1      44.057  32.664  29.301  1.00  0.00     0.034 A 
BRANCH  50  64
ATOM     64  C   UNL A   1      47.227  28.040  26.693  1.00  0.00     0.023 A 
ATOM     65  C   UNL A   1      48.279  27.637  27.540  1.00  0.00     0.012 A 
ATOM     66  C   UNL A   1      47.388  27.947  25.298  1.00  0.00     0.148 A 
ATOM     67  C   UNL A   1      49.486  27.185  27.010  1.00  0.00     0.002 A 
ATOM     68  C   UNL A   1      48.579  27.455  24.777  1.00  0.00     0.091 A 
ATOM     69  F   UNL A   1      46.386  28.360  24.508  1.00  0.00    -0.205 F 
ATOM     70  C   UNL A   1      49.632  27.084  25.630  1.00  0.00     0.022 A 
BRANCH  68  71
ATOM     71  S   UNL A   1      48.837  27.219  23.015  1.00  0.00     0.127 S 
ATOM     72  O   UNL A   1      50.296  27.238  22.924  1.00  0.00    -0.237 OA
ATOM     73  O   UNL A   1      48.230  25.907  22.786  1.00  0.00    -0.237 OA
ATOM     74  O   UNL A   1      48.152  28.325  22.360  1.00  0.00    -0.744 OA
ENDBRANCH  68  71
ENDBRANCH  50  64
BRANCH  51  75
ATOM     75  C   UNL A   1      38.577  30.667  30.965  1.00  0.00     0.023 A 
ATOM     76  C   UNL A   1      38.427  30.411  32.342  1.00  0.00     0.012 A 
ATOM     77  C   UNL A   1      37.540  31.317  30.270  1.00  0.00     0.148 A 
ATOM     78  C   UNL A   1      37.254  30.768  33.009  1.00  0.00     0.002 A 
ATOM     79  C   UNL A   1      36.395  31.717  30.953  1.00  0.00     0.091 A 
ATOM     80  F   UNL A   1      37.695  31.541  28.958  1.00  0.00    -0.205 F 
ATOM     81  C   UNL A   1      36.244  31.430  32.317  1.00  0.00     0.022 A 
BRANCH  79  82
ATOM     82  S   UNL A   1      35.107  32.695  30.169  1.00  0.00     0.127 S 
ATOM     83  O   UNL A   1      34.188  32.925  31.280  1.00  0.00    -0.237 OA
ATOM     84  O   UNL A   1      35.848  33.879  29.727  1.00  0.00    -0.237 OA
ATOM     85  O   UNL A   1      34.602  31.870  29.081  1.00  0.00    -0.744 OA
ENDBRANCH  79  82
ENDBRANCH  51  75
BRANCH  63  86
ATOM     86  C   UNL A   1      44.516  34.072  29.567  1.00  0.00     0.023 A 
ATOM     87  C   UNL A   1      45.145  34.377  30.791  1.00  0.00     0.012 A 
ATOM     88  C   UNL A   1      44.405  35.067  28.577  1.00  0.00     0.148 A 
ATOM     89  C   UNL A   1      45.634  35.660  31.033  1.00  0.00     0.002 A 
ATOM     90  C   UNL A   1      44.934  36.331  28.809  1.00  0.00     0.091 A 
ATOM     91  F   UNL A   1      43.785  34.760  27.428  1.00  0.00    -0.205 F 
ATOM     92  C   UNL A   1      45.540  36.632  30.039  1.00  0.00     0.022 A 
BRANCH  90  93
ATOM     93  S   UNL A   1      44.939  37.612  27.549  1.00  0.00     0.127 S 
ATOM     94  O   UNL A   1      43.532  37.653  27.160  1.00  0.00    -0.237 OA
ATOM     95  O   UNL A   1      45.399  38.783  28.296  1.00  0.00    -0.237 OA
ATOM     96  O   UNL A   1      45.864  37.154  26.521  1.00  0.00    -0.744 OA
ENDBRANCH  90  93
ENDBRANCH  63  86
ENDBRANCH  37  38
ENDBRANCH  29  32
ENDBRANCH  27  28
ENDBRANCH  26  27
ENDBRANCH   1  26
TORSDOF 18
ENDMDL
MODEL 3
REMARK VINA RESULT:     -12.0      2.854      3.991
REMARK SMILES C[C@]([NH2+]C[C@H]1Cc2ccccc2O1)(C(=O)NCCCCNC(=O)c1ccc(-c2c3nc(c(-c4cccc(S(=O)(=O)[O-])c4F)c4ccc([nH]4)c(-c4cccc(S(=O)(=O)[O-])c4F)c4nc(c(-c5cccc(S(=O)(=O)[O-])c5F)c5ccc2[nH]5)C=C4)C=C3)cc1)C(F)(F)F
REMARK SMILES IDX 18 1 17 2 16 3 14 4 15 5 2 7 1 8 87 9 88 10 89 11 90 12 3 13
REMARK SMILES IDX 4 16 5 17 6 18 13 19 7 20 12 21 8 22 11 23 9 24 10 25 19 26
REMARK SMILES IDX 20 27 21 28 22 29 23 31 24 32 25 33 86 34 26 35 85 36 27 37
REMARK SMILES IDX 28 38 29 39 79 40 30 41 84 42 78 43 80 44 31 45 83 46 77 47
REMARK SMILES IDX 76 48 32 50 64 51 44 52 63 53 45 54 48 55 62 56 81 57 46 58
REMARK SMILES IDX 47 59 61 61 82 62 49 63 33 64 34 65 42 66 35 67 37 68 43 69
REMARK SMILES IDX 36 70 38 71 39 72 40 73 41 74 65 75 66 76 74 77 67 78 69 79
REMARK SMILES IDX 75 80 68 81 70 82 71 83 72 84 73 85 50 86 51 87 59 88 52 89
REMARK SMILES IDX 54 90 60 91 53 92 55 93 56 94 57 95 58 96
REMARK H PARENT 16 6 3 14 3 15 21 30 80 49 48 60
REMARK Flexibility Score: inf
ROOT
ATOM      1  C   UNL A   1      34.841  30.625  28.006  1.00  0.00     0.023 C 
ENDROOT
BRANCH   1   2
ATOM      2  C   UNL A   1      34.625  29.312  27.245  1.00  0.00     0.116 C 
BRANCH   2   3
ATOM      3  N   UNL A   1      33.433  28.629  27.719  1.00  0.00    -0.350 N 
ATOM      4  C   UNL A   1      32.329  28.105  27.115  1.00  0.00     0.290 C 
ATOM      5  O   UNL A   1      31.412  27.835  27.901  1.00  0.00    -0.267 OA
ATOM      6  H   UNL A   1      33.419  28.521  28.697  1.00  0.00     0.163 HD
BRANCH   4   7
ATOM      7  C   UNL A   1      32.145  27.915  25.579  1.00  0.00     0.268 C 
ATOM      8  C   UNL A   1      30.961  27.021  25.178  1.00  0.00     0.101 C 
BRANCH   7   9
ATOM      9  C   UNL A   1      31.772  29.358  25.085  1.00  0.00     0.453 C 
ATOM     10  F   UNL A   1      31.207  30.113  26.057  1.00  0.00    -0.164 F 
ATOM     11  F   UNL A   1      32.885  30.042  24.698  1.00  0.00    -0.164 F 
ATOM     12  F   UNL A   1      30.944  29.343  24.015  1.00  0.00    -0.164 F 
ENDBRANCH   7   9
BRANCH   7  13
ATOM     13  N   UNL A   1      33.415  27.446  24.889  1.00  0.00    -0.323 N 
ATOM     14  H   UNL A   1      33.965  26.913  25.563  1.00  0.00     0.347 HD
ATOM     15  H   UNL A   1      33.891  28.286  24.558  1.00  0.00     0.347 HD
BRANCH  13  16
ATOM     16  C   UNL A   1      33.198  26.603  23.710  1.00  0.00     0.307 C 
BRANCH  16  17
ATOM     17  C   UNL A   1      33.852  25.201  23.768  1.00  0.00     0.232 C 
ATOM     18  C   UNL A   1      34.285  24.840  25.205  1.00  0.00     0.090 C 
ATOM     19  O   UNL A   1      32.873  24.205  23.343  1.00  0.00    -0.484 OA
ATOM     20  C   UNL A   1      33.097  24.069  25.637  1.00  0.00    -0.002 A 
ATOM     21  C   UNL A   1      32.359  23.715  24.519  1.00  0.00     0.123 A 
ATOM     22  C   UNL A   1      32.717  23.660  26.904  1.00  0.00     0.007 A 
ATOM     23  C   UNL A   1      31.216  22.949  24.616  1.00  0.00     0.047 A 
ATOM     24  C   UNL A   1      31.555  22.893  27.026  1.00  0.00     0.001 A 
ATOM     25  C   UNL A   1      30.809  22.539  25.888  1.00  0.00     0.004 A 
ENDBRANCH  16  17
ENDBRANCH  13  16
ENDBRANCH   7  13
ENDBRANCH   4   7
ENDBRANCH   2   3
ENDBRANCH   1   2
BRANCH   1  26
ATOM     26  C   UNL A   1      34.263  31.862  27.334  1.00  0.00     0.023 C 
BRANCH  26  27
ATOM     27  C   UNL A   1      32.860  32.228  27.787  1.00  0.00     0.116 C 
BRANCH  27  28
ATOM     28  N   UNL A   1      32.619  33.667  27.822  1.00  0.00    -0.352 N 
ATOM     29  C   UNL A   1      33.257  34.618  28.581  1.00  0.00     0.251 C 
ATOM     30  H   UNL A   1      31.909  33.997  27.226  1.00  0.00     0.163 HD
ATOM     31  O   UNL A   1      32.871  35.784  28.574  1.00  0.00    -0.269 OA
BRANCH  29  32
ATOM     32  C   UNL A   1      34.385  34.204  29.438  1.00  0.00     0.039 A 
ATOM     33  C   UNL A   1      34.123  33.459  30.589  1.00  0.00     0.014 A 
ATOM     34  C   UNL A   1      35.700  34.482  29.054  1.00  0.00     0.014 A 
ATOM     35  C   UNL A   1      35.188  32.925  31.317  1.00  0.00     0.010 A 
ATOM     36  C   UNL A   1      36.751  33.874  29.727  1.00  0.00     0.010 A 
ATOM     37  C   UNL A   1      36.507  33.094  30.867  1.00  0.00    -0.014 A 
BRANCH  37  38
ATOM     38  C   UNL A   1      37.653  32.468  31.570  1.00  0.00     0.031 A 
ATOM     39  C   UNL A   1      38.391  31.326  30.926  1.00  0.00     0.074 A 
ATOM     40  C   UNL A   1      37.957  32.851  32.826  1.00  0.00     0.049 A 
ATOM     41  N   UNL A   1      39.358  30.593  31.409  1.00  0.00    -0.248 NA
ATOM     42  C   UNL A   1      37.959  30.932  29.573  1.00  0.00     0.031 C 
ATOM     43  C   UNL A   1      37.248  33.877  33.595  1.00  0.00     0.029 A 
ATOM     44  N   UNL A   1      38.923  32.399  33.689  1.00  0.00    -0.354 N 
ATOM     45  C   UNL A   1      39.620  29.629  30.444  1.00  0.00     0.074 A 
ATOM     46  C   UNL A   1      38.682  29.842  29.365  1.00  0.00     0.031 C 
ATOM     47  C   UNL A   1      37.807  33.979  34.812  1.00  0.00     0.029 A 
ATOM     48  C   UNL A   1      38.897  33.014  34.919  1.00  0.00     0.049 A 
ATOM     49  H   UNL A   1      39.575  31.700  33.450  1.00  0.00     0.167 HD
ATOM     50  C   UNL A   1      40.581  28.675  30.436  1.00  0.00     0.034 A 
ATOM     51  C   UNL A   1      39.665  32.822  36.009  1.00  0.00     0.034 A 
ATOM     52  C   UNL A   1      41.555  28.512  31.481  1.00  0.00     0.049 A 
ATOM     53  C   UNL A   1      40.780  31.812  35.944  1.00  0.00     0.074 A 
ATOM     54  C   UNL A   1      42.631  27.645  31.526  1.00  0.00     0.029 A 
ATOM     55  N   UNL A   1      41.574  29.238  32.661  1.00  0.00    -0.354 N 
ATOM     56  N   UNL A   1      41.119  31.023  34.953  1.00  0.00    -0.248 NA
ATOM     57  C   UNL A   1      41.643  31.696  37.128  1.00  0.00     0.031 C 
ATOM     58  C   UNL A   1      43.301  27.845  32.738  1.00  0.00     0.029 A 
ATOM     59  C   UNL A   1      42.645  28.843  33.442  1.00  0.00     0.049 A 
ATOM     60  H   UNL A   1      40.921  29.933  32.907  1.00  0.00     0.167 HD
ATOM     61  C   UNL A   1      42.252  30.340  35.380  1.00  0.00     0.074 A 
ATOM     62  C   UNL A   1      42.554  30.826  36.710  1.00  0.00     0.031 C 
ATOM     63  C   UNL A   1      42.965  29.383  34.738  1.00  0.00     0.034 A 
BRANCH  50  64
ATOM     64  C   UNL A   1      40.670  27.789  29.223  1.00  0.00     0.023 A 
ATOM     65  C   UNL A   1      39.843  26.650  29.140  1.00  0.00     0.012 A 
ATOM     66  C   UNL A   1      41.532  28.096  28.153  1.00  0.00     0.148 A 
ATOM     67  C   UNL A   1      39.899  25.809  28.031  1.00  0.00     0.002 A 
ATOM     68  C   UNL A   1      41.551  27.277  27.031  1.00  0.00     0.091 A 
ATOM     69  F   UNL A   1      42.330  29.169  28.261  1.00  0.00    -0.205 F 
ATOM     70  C   UNL A   1      40.745  26.127  26.972  1.00  0.00     0.022 A 
BRANCH  68  71
ATOM     71  S   UNL A   1      42.553  27.643  25.585  1.00  0.00     0.127 S 
ATOM     72  O   UNL A   1      43.895  27.692  26.161  1.00  0.00    -0.237 OA
ATOM     73  O   UNL A   1      42.298  26.483  24.730  1.00  0.00    -0.237 OA
ATOM     74  O   UNL A   1      42.048  28.904  25.060  1.00  0.00    -0.744 OA
ENDBRANCH  68  71
ENDBRANCH  50  64
BRANCH  51  75
ATOM     75  C   UNL A   1      39.462  33.667  37.220  1.00  0.00     0.023 A 
ATOM     76  C   UNL A   1      39.958  34.985  37.228  1.00  0.00     0.012 A 
ATOM     77  C   UNL A   1      38.749  33.195  38.338  1.00  0.00     0.148 A 
ATOM     78  C   UNL A   1      39.773  35.810  38.338  1.00  0.00     0.002 A 
ATOM     79  C   UNL A   1      38.524  34.039  39.421  1.00  0.00     0.091 A 
ATOM     80  F   UNL A   1      38.297  31.934  38.318  1.00  0.00    -0.205 F 
ATOM     81  C   UNL A   1      39.048  35.340  39.430  1.00  0.00     0.022 A 
BRANCH  79  82
ATOM     82  S   UNL A   1      37.485  33.560  40.807  1.00  0.00     0.127 S 
ATOM     83  O   UNL A   1      38.302  32.539  41.455  1.00  0.00    -0.237 OA
ATOM     84  O   UNL A   1      37.365  34.817  41.548  1.00  0.00    -0.237 OA
ATOM     85  O   UNL A   1      36.237  33.098  40.214  1.00  0.00    -0.744 OA
ENDBRANCH  79  82
ENDBRANCH  51  75
BRANCH  63  86
ATOM     86  C   UNL A   1      44.163  28.811  35.447  1.00  0.00     0.023 A 
ATOM     87  C   UNL A   1      45.435  29.378  35.231  1.00  0.00     0.012 A 
ATOM     88  C   UNL A   1      44.016  27.776  36.390  1.00  0.00     0.148 A 
ATOM     89  C   UNL A   1      46.546  28.905  35.925  1.00  0.00     0.002 A 
ATOM     90  C   UNL A   1      45.122  27.339  37.111  1.00  0.00     0.091 A 
ATOM     91  F   UNL A   1      42.801  27.237  36.566  1.00  0.00    -0.205 F 
ATOM     92  C   UNL A   1      46.389  27.896  36.873  1.00  0.00     0.022 A 
BRANCH  90  93
ATOM     93  S   UNL A   1      44.990  26.111  38.415  1.00  0.00     0.127 S 
ATOM     94  O   UNL A   1      44.093  26.773  39.359  1.00  0.00    -0.237 OA
ATOM     95  O   UNL A   1      44.403  24.970  37.713  1.00  0.00    -0.237 OA
ATOM     96  O   UNL A   1      46.349  25.889  38.890  1.00  0.00    -0.744 OA
ENDBRANCH  90  93
ENDBRANCH  63  86
ENDBRANCH  37  38
ENDBRANCH  29  32
ENDBRANCH  27  28
ENDBRANCH  26  27
ENDBRANCH   1  26
TORSDOF 18
ENDMDL
