MODEL 1
REMARK VINA RESULT:     -12.8      0.000      0.000
REMARK SMILES C[C@H]1[C@@H](C(=O)NCCCCNC(=O)c2ccc(-c3c4nc(c(-c5cccc(S(=O)(=O)[O-])c5F)c5ccc([nH]5)c(-c5cccc(S(=O)(=O)[O-])c5F)c5nc(c(-c6cccc(S(=O)(=O)[O-])c6F)c6ccc3[nH]6)C=C5)C=C4)cc2)CCN1C(=O)N[C@@H]1CC[N@H+]2CCCC[C@H]12
REMARK SMILES IDX 9 1 8 2 7 3 6 4 4 5 5 6 3 8 1 9 2 10 79 11 77 12 78 13 80 14
REMARK SMILES IDX 81 15 82 16 83 18 84 19 91 20 85 21 86 22 90 23 87 24 89 26
REMARK SMILES IDX 88 27 10 28 11 29 12 30 13 32 14 33 15 34 76 35 16 36 75 37
REMARK SMILES IDX 17 38 18 39 19 40 69 41 20 42 74 43 68 44 70 45 21 46 73 47
REMARK SMILES IDX 67 48 66 49 22 51 54 52 34 53 53 54 35 55 38 56 52 57 71 58
REMARK SMILES IDX 36 59 37 60 51 62 72 63 39 64 23 65 24 66 32 67 25 68 27 69
REMARK SMILES IDX 33 70 26 71 28 72 29 73 30 74 31 75 55 76 56 77 64 78 57 79
REMARK SMILES IDX 59 80 65 81 58 82 60 83 61 84 62 85 63 86 40 87 41 88 49 89
REMARK SMILES IDX 42 90 44 91 50 92 43 93 45 94 46 95 47 96 48 97
REMARK H PARENT 6 7 82 17 86 25 11 31 70 50 38 61
REMARK Flexibility Score: inf
ROOT
ATOM      1  C   UNL A   1      31.685  31.777  26.841  1.00  0.00     0.023 C 
ENDROOT
BRANCH   1   2
ATOM      2  C   UNL A   1      31.896  30.260  26.815  1.00  0.00     0.023 C 
BRANCH   2   3
ATOM      3  C   UNL A   1      32.491  29.709  25.522  1.00  0.00     0.116 C 
BRANCH   3   4
ATOM      4  N   UNL A   1      31.493  29.501  24.491  1.00  0.00    -0.356 N 
ATOM      5  C   UNL A   1      30.966  28.346  23.996  1.00  0.00     0.225 C 
ATOM      6  O   UNL A   1      29.956  28.440  23.303  1.00  0.00    -0.275 OA
ATOM      7  H   UNL A   1      31.141  30.325  24.083  1.00  0.00     0.163 HD
BRANCH   5   8
ATOM      8  C   UNL A   1      31.585  27.017  24.393  1.00  0.00     0.102 C 
ATOM      9  C   UNL A   1      33.146  27.308  22.324  1.00  0.00     0.032 C 
ATOM     10  C   UNL A   1      32.694  26.429  23.485  1.00  0.00     0.096 C 
ATOM     11  N   UNL A   1      32.193  25.134  23.024  1.00  0.00    -0.321 N 
ATOM     12  C   UNL A   1      30.496  25.939  24.433  1.00  0.00     0.037 C 
ATOM     13  C   UNL A   1      30.750  25.103  23.192  1.00  0.00     0.122 C 
BRANCH  11  14
ATOM     14  C   UNL A   1      32.811  24.087  22.413  1.00  0.00     0.318 C 
ATOM     15  O   UNL A   1      33.277  24.198  21.273  1.00  0.00    -0.249 OA
ATOM     16  N   UNL A   1      32.952  22.871  22.975  1.00  0.00    -0.329 N 
ATOM     17  H   UNL A   1      33.524  22.286  22.427  1.00  0.00     0.165 HD
BRANCH  16  18
ATOM     18  C   UNL A   1      32.485  22.188  24.177  1.00  0.00     0.147 C 
ATOM     19  C   UNL A   1      33.466  22.369  25.352  1.00  0.00     0.092 C 
ATOM     20  C   UNL A   1      32.377  20.652  24.046  1.00  0.00     0.207 C 
ATOM     21  C   UNL A   1      33.744  20.974  25.889  1.00  0.00     0.264 C 
ATOM     22  N   UNL A   1      33.597  20.148  24.698  1.00  0.00    -0.331 N 
ATOM     23  C   UNL A   1      32.252  20.030  22.660  1.00  0.00     0.067 C 
ATOM     24  C   UNL A   1      33.492  18.720  24.978  1.00  0.00     0.262 C 
ATOM     25  H   UNL A   1      34.427  20.220  24.111  1.00  0.00     0.348 HD
ATOM     26  C   UNL A   1      32.173  18.504  22.803  1.00  0.00     0.012 C 
ATOM     27  C   UNL A   1      33.319  17.955  23.661  1.00  0.00     0.062 C 
ENDBRANCH  16  18
ENDBRANCH  11  14
ENDBRANCH   5   8
ENDBRANCH   3   4
ENDBRANCH   2   3
ENDBRANCH   1   2
BRANCH   1  28
ATOM     28  C   UNL A   1      32.882  32.605  27.298  1.00  0.00     0.116 C 
BRANCH  28  29
ATOM     29  N   UNL A   1      32.533  33.977  27.630  1.00  0.00    -0.352 N 
ATOM     30  C   UNL A   1      33.083  34.797  28.587  1.00  0.00     0.251 C 
ATOM     31  H   UNL A   1      31.806  34.373  27.097  1.00  0.00     0.163 HD
ATOM     32  O   UNL A   1      32.587  35.898  28.807  1.00  0.00    -0.269 OA
BRANCH  30  33
ATOM     33  C   UNL A   1      34.246  34.331  29.371  1.00  0.00     0.039 A 
ATOM     34  C   UNL A   1      34.021  33.687  30.590  1.00  0.00     0.014 A 
ATOM     35  C   UNL A   1      35.550  34.502  28.896  1.00  0.00     0.014 A 
ATOM     36  C   UNL A   1      35.098  33.156  31.301  1.00  0.00     0.010 A 
ATOM     37  C   UNL A   1      36.614  33.907  29.569  1.00  0.00     0.010 A 
ATOM     38  C   UNL A   1      36.401  33.229  30.780  1.00  0.00    -0.014 A 
BRANCH  38  39
ATOM     39  C   UNL A   1      37.546  32.588  31.477  1.00  0.00     0.031 A 
ATOM     40  C   UNL A   1      38.278  31.437  30.840  1.00  0.00     0.074 A 
ATOM     41  C   UNL A   1      37.874  32.986  32.722  1.00  0.00     0.049 A 
ATOM     42  N   UNL A   1      39.268  30.726  31.315  1.00  0.00    -0.248 NA
ATOM     43  C   UNL A   1      37.822  31.013  29.506  1.00  0.00     0.031 C 
ATOM     44  C   UNL A   1      37.191  34.035  33.483  1.00  0.00     0.029 A 
ATOM     45  N   UNL A   1      38.849  32.539  33.580  1.00  0.00    -0.354 N 
ATOM     46  C   UNL A   1      39.530  29.753  30.359  1.00  0.00     0.074 A 
ATOM     47  C   UNL A   1      38.573  29.941  29.291  1.00  0.00     0.031 C 
ATOM     48  C   UNL A   1      37.769  34.154  34.688  1.00  0.00     0.029 A 
ATOM     49  C   UNL A   1      38.843  33.172  34.802  1.00  0.00     0.049 A 
ATOM     50  H   UNL A   1      39.493  31.833  33.343  1.00  0.00     0.167 HD
ATOM     51  C   UNL A   1      40.499  28.805  30.354  1.00  0.00     0.034 A 
ATOM     52  C   UNL A   1      39.608  32.978  35.894  1.00  0.00     0.034 A 
ATOM     53  C   UNL A   1      41.473  28.644  31.400  1.00  0.00     0.049 A 
ATOM     54  C   UNL A   1      40.699  31.942  35.849  1.00  0.00     0.074 A 
ATOM     55  C   UNL A   1      42.549  27.774  31.445  1.00  0.00     0.029 A 
ATOM     56  N   UNL A   1      41.487  29.358  32.588  1.00  0.00    -0.354 N 
ATOM     57  N   UNL A   1      41.037  31.142  34.867  1.00  0.00    -0.248 NA
ATOM     58  C   UNL A   1      41.538  31.807  37.048  1.00  0.00     0.031 C 
ATOM     59  C   UNL A   1      43.195  27.943  32.674  1.00  0.00     0.029 A 
ATOM     60  C   UNL A   1      42.543  28.942  33.379  1.00  0.00     0.049 A 
ATOM     61  H   UNL A   1      40.840  30.059  32.832  1.00  0.00     0.167 HD
ATOM     62  C   UNL A   1      42.148  30.436  35.315  1.00  0.00     0.074 A 
ATOM     63  C   UNL A   1      42.439  30.920  36.649  1.00  0.00     0.031 C 
ATOM     64  C   UNL A   1      42.854  29.465  34.684  1.00  0.00     0.034 A 
BRANCH  51  65
ATOM     65  C   UNL A   1      40.583  27.895  29.156  1.00  0.00     0.023 A 
ATOM     66  C   UNL A   1      39.712  26.790  29.058  1.00  0.00     0.012 A 
ATOM     67  C   UNL A   1      41.476  28.165  28.100  1.00  0.00     0.148 A 
ATOM     68  C   UNL A   1      39.754  25.947  27.949  1.00  0.00     0.002 A 
ATOM     69  C   UNL A   1      41.479  27.346  26.977  1.00  0.00     0.091 A 
ATOM     70  F   UNL A   1      42.310  29.208  28.219  1.00  0.00    -0.205 F 
ATOM     71  C   UNL A   1      40.629  26.231  26.905  1.00  0.00     0.022 A 
BRANCH  69  72
ATOM     72  S   UNL A   1      42.509  27.675  25.542  1.00  0.00     0.127 S 
ATOM     73  O   UNL A   1      42.276  26.478  24.733  1.00  0.00    -0.237 OA
ATOM     74  O   UNL A   1      41.909  28.897  25.006  1.00  0.00    -0.237 OA
ATOM     75  O   UNL A   1      43.865  27.833  26.046  1.00  0.00    -0.744 OA
ENDBRANCH  69  72
ENDBRANCH  51  65
BRANCH  52  76
ATOM     76  C   UNL A   1      39.410  33.827  37.104  1.00  0.00     0.023 A 
ATOM     77  C   UNL A   1      39.849  35.165  37.090  1.00  0.00     0.012 A 
ATOM     78  C   UNL A   1      38.772  33.326  38.255  1.00  0.00     0.148 A 
ATOM     79  C   UNL A   1      39.688  35.979  38.211  1.00  0.00     0.002 A 
ATOM     80  C   UNL A   1      38.563  34.159  39.348  1.00  0.00     0.091 A 
ATOM     81  F   UNL A   1      38.369  32.047  38.251  1.00  0.00    -0.205 F 
ATOM     82  C   UNL A   1      39.037  35.479  39.335  1.00  0.00     0.022 A 
BRANCH  80  83
ATOM     83  S   UNL A   1      37.615  33.643  40.784  1.00  0.00     0.127 S 
ATOM     84  O   UNL A   1      36.431  33.053  40.165  1.00  0.00    -0.237 OA
ATOM     85  O   UNL A   1      38.523  32.685  41.416  1.00  0.00    -0.237 OA
ATOM     86  O   UNL A   1      37.387  34.853  41.561  1.00  0.00    -0.744 OA
ENDBRANCH  80  83
ENDBRANCH  52  76
BRANCH  64  87
ATOM     87  C   UNL A   1      44.040  28.881  35.407  1.00  0.00     0.023 A 
ATOM     88  C   UNL A   1      45.315  29.461  35.253  1.00  0.00     0.012 A 
ATOM     89  C   UNL A   1      43.876  27.801  36.298  1.00  0.00     0.148 A 
ATOM     90  C   UNL A   1      46.412  28.955  35.947  1.00  0.00     0.002 A 
ATOM     91  C   UNL A   1      44.964  27.336  37.025  1.00  0.00     0.091 A 
ATOM     92  F   UNL A   1      42.659  27.252  36.419  1.00  0.00    -0.205 F 
ATOM     93  C   UNL A   1      46.236  27.901  36.841  1.00  0.00     0.022 A 
BRANCH  91  94
ATOM     94  S   UNL A   1      44.812  26.049  38.270  1.00  0.00     0.127 S 
ATOM     95  O   UNL A   1      43.917  26.677  39.240  1.00  0.00    -0.237 OA
ATOM     96  O   UNL A   1      44.214  24.952  37.510  1.00  0.00    -0.237 OA
ATOM     97  O   UNL A   1      46.164  25.788  38.745  1.00  0.00    -0.744 OA
ENDBRANCH  91  94
ENDBRANCH  64  87
ENDBRANCH  38  39
ENDBRANCH  30  33
ENDBRANCH  28  29
ENDBRANCH   1  28
TORSDOF 16
ENDMDL
MODEL 2
REMARK VINA RESULT:     -12.8      6.243     11.798
REMARK SMILES C[C@H]1[C@@H](C(=O)NCCCCNC(=O)c2ccc(-c3c4nc(c(-c5cccc(S(=O)(=O)[O-])c5F)c5ccc([nH]5)c(-c5cccc(S(=O)(=O)[O-])c5F)c5nc(c(-c6cccc(S(=O)(=O)[O-])c6F)c6ccc3[nH]6)C=C5)C=C4)cc2)CCN1C(=O)N[C@@H]1CC[N@H+]2CCCC[C@H]12
REMARK SMILES IDX 9 1 8 2 7 3 6 4 4 5 5 6 3 8 1 9 2 10 79 11 77 12 78 13 80 14
REMARK SMILES IDX 81 15 82 16 83 18 84 19 91 20 85 21 86 22 90 23 87 24 89 26
REMARK SMILES IDX 88 27 10 28 11 29 12 30 13 32 14 33 15 34 76 35 16 36 75 37
REMARK SMILES IDX 17 38 18 39 19 40 69 41 20 42 74 43 68 44 70 45 21 46 73 47
REMARK SMILES IDX 67 48 66 49 22 51 54 52 34 53 53 54 35 55 38 56 52 57 71 58
REMARK SMILES IDX 36 59 37 60 51 62 72 63 39 64 23 65 24 66 32 67 25 68 27 69
REMARK SMILES IDX 33 70 26 71 28 72 29 73 30 74 31 75 55 76 56 77 64 78 57 79
REMARK SMILES IDX 59 80 65 81 58 82 60 83 61 84 62 85 63 86 40 87 41 88 49 89
REMARK SMILES IDX 42 90 44 91 50 92 43 93 45 94 46 95 47 96 48 97
REMARK H PARENT 6 7 82 17 86 25 11 31 70 50 38 61
REMARK Flexibility Score: inf
ROOT
ATOM      1  C   UNL A   1      38.322  19.646  24.935  1.00  0.00     0.023 C 
ENDROOT
BRANCH   1   2
ATOM      2  C   UNL A   1      37.676  20.993  24.595  1.00  0.00     0.023 C 
BRANCH   2   3
ATOM      3  C   UNL A   1      36.604  21.464  25.574  1.00  0.00     0.116 C 
BRANCH   3   4
ATOM      4  N   UNL A   1      35.466  20.568  25.631  1.00  0.00    -0.356 N 
ATOM      5  C   UNL A   1      34.154  20.791  25.339  1.00  0.00     0.225 C 
ATOM      6  O   UNL A   1      33.427  19.807  25.226  1.00  0.00    -0.275 OA
ATOM      7  H   UNL A   1      35.673  19.653  25.929  1.00  0.00     0.163 HD
BRANCH   5   8
ATOM      8  C   UNL A   1      33.682  22.212  25.078  1.00  0.00     0.102 C 
ATOM      9  C   UNL A   1      33.384  22.416  27.661  1.00  0.00     0.032 C 
ATOM     10  C   UNL A   1      33.216  23.058  26.288  1.00  0.00     0.096 C 
ATOM     11  N   UNL A   1      31.821  23.411  26.019  1.00  0.00    -0.321 N 
ATOM     12  C   UNL A   1      32.479  22.183  24.129  1.00  0.00     0.037 C 
ATOM     13  C   UNL A   1      31.292  22.498  25.020  1.00  0.00     0.122 C 
BRANCH  11  14
ATOM     14  C   UNL A   1      30.987  24.318  26.596  1.00  0.00     0.318 C 
ATOM     15  O   UNL A   1      29.967  23.957  27.196  1.00  0.00    -0.249 OA
ATOM     16  N   UNL A   1      31.185  25.649  26.552  1.00  0.00    -0.329 N 
ATOM     17  H   UNL A   1      30.541  26.129  27.122  1.00  0.00     0.165 HD
BRANCH  16  18
ATOM     18  C   UNL A   1      32.099  26.573  25.887  1.00  0.00     0.147 C 
ATOM     19  C   UNL A   1      32.573  27.689  26.839  1.00  0.00     0.092 C 
ATOM     20  C   UNL A   1      31.481  27.358  24.709  1.00  0.00     0.207 C 
ATOM     21  C   UNL A   1      32.325  29.000  26.109  1.00  0.00     0.264 C 
ATOM     22  N   UNL A   1      31.171  28.679  25.280  1.00  0.00    -0.331 N 
ATOM     23  C   UNL A   1      30.241  26.805  24.016  1.00  0.00     0.067 C 
ATOM     24  C   UNL A   1      30.909  29.657  24.229  1.00  0.00     0.262 C 
ATOM     25  H   UNL A   1      30.318  28.688  25.838  1.00  0.00     0.348 HD
ATOM     26  C   UNL A   1      29.823  27.769  22.898  1.00  0.00     0.012 C 
ATOM     27  C   UNL A   1      29.693  29.209  23.410  1.00  0.00     0.062 C 
ENDBRANCH  16  18
ENDBRANCH  11  14
ENDBRANCH   5   8
ENDBRANCH   3   4
ENDBRANCH   2   3
ENDBRANCH   1   2
BRANCH   1  28
ATOM     28  C   UNL A   1      39.176  19.620  26.198  1.00  0.00     0.116 C 
BRANCH  28  29
ATOM     29  N   UNL A   1      40.425  18.893  26.028  1.00  0.00    -0.352 N 
ATOM     30  C   UNL A   1      41.712  19.375  26.058  1.00  0.00     0.251 C 
ATOM     31  H   UNL A   1      40.336  17.925  25.872  1.00  0.00     0.163 HD
ATOM     32  O   UNL A   1      42.650  18.632  25.782  1.00  0.00    -0.269 OA
BRANCH  30  33
ATOM     33  C   UNL A   1      41.955  20.796  26.385  1.00  0.00     0.039 A 
ATOM     34  C   UNL A   1      42.302  21.134  27.696  1.00  0.00     0.014 A 
ATOM     35  C   UNL A   1      41.869  21.787  25.402  1.00  0.00     0.014 A 
ATOM     36  C   UNL A   1      42.627  22.456  28.006  1.00  0.00     0.010 A 
ATOM     37  C   UNL A   1      42.265  23.088  25.698  1.00  0.00     0.010 A 
ATOM     38  C   UNL A   1      42.647  23.439  27.002  1.00  0.00    -0.014 A 
BRANCH  38  39
ATOM     39  C   UNL A   1      43.081  24.829  27.295  1.00  0.00     0.031 A 
ATOM     40  C   UNL A   1      42.136  25.799  27.952  1.00  0.00     0.074 A 
ATOM     41  C   UNL A   1      44.300  25.244  26.895  1.00  0.00     0.049 A 
ATOM     42  N   UNL A   1      42.323  27.061  28.244  1.00  0.00    -0.248 NA
ATOM     43  C   UNL A   1      40.799  25.295  28.302  1.00  0.00     0.031 C 
ATOM     44  C   UNL A   1      45.278  24.425  26.176  1.00  0.00     0.029 A 
ATOM     45  N   UNL A   1      44.915  26.466  27.011  1.00  0.00    -0.354 N 
ATOM     46  C   UNL A   1      41.121  27.509  28.779  1.00  0.00     0.074 A 
ATOM     47  C   UNL A   1      40.200  26.395  28.739  1.00  0.00     0.031 C 
ATOM     48  C   UNL A   1      46.370  25.163  25.921  1.00  0.00     0.029 A 
ATOM     49  C   UNL A   1      46.159  26.516  26.428  1.00  0.00     0.049 A 
ATOM     50  H   UNL A   1      44.504  27.235  27.469  1.00  0.00     0.167 HD
ATOM     51  C   UNL A   1      40.818  28.729  29.285  1.00  0.00     0.034 A 
ATOM     52  C   UNL A   1      47.031  27.537  26.305  1.00  0.00     0.034 A 
ATOM     53  C   UNL A   1      41.748  29.824  29.358  1.00  0.00     0.049 A 
ATOM     54  C   UNL A   1      46.684  28.872  26.908  1.00  0.00     0.074 A 
ATOM     55  C   UNL A   1      41.566  31.069  29.935  1.00  0.00     0.029 A 
ATOM     56  N   UNL A   1      43.030  29.813  28.830  1.00  0.00    -0.354 N 
ATOM     57  N   UNL A   1      45.602  29.227  27.558  1.00  0.00    -0.248 NA
ATOM     58  C   UNL A   1      47.691  29.936  26.792  1.00  0.00     0.031 C 
ATOM     59  C   UNL A   1      42.727  31.819  29.730  1.00  0.00     0.029 A 
ATOM     60  C   UNL A   1      43.646  31.031  29.056  1.00  0.00     0.049 A 
ATOM     61  H   UNL A   1      43.441  29.049  28.364  1.00  0.00     0.167 HD
ATOM     62  C   UNL A   1      45.813  30.542  27.960  1.00  0.00     0.074 A 
ATOM     63  C   UNL A   1      47.136  30.911  27.499  1.00  0.00     0.031 C 
ATOM     64  C   UNL A   1      44.982  31.371  28.637  1.00  0.00     0.034 A 
BRANCH  51  65
ATOM     65  C   UNL A   1      39.434  28.931  29.845  1.00  0.00     0.023 A 
ATOM     66  C   UNL A   1      39.137  28.478  31.148  1.00  0.00     0.012 A 
ATOM     67  C   UNL A   1      38.447  29.621  29.113  1.00  0.00     0.148 A 
ATOM     68  C   UNL A   1      37.871  28.674  31.697  1.00  0.00     0.002 A 
ATOM     69  C   UNL A   1      37.203  29.853  29.687  1.00  0.00     0.091 A 
ATOM     70  F   UNL A   1      38.741  30.027  27.870  1.00  0.00    -0.205 F 
ATOM     71  C   UNL A   1      36.909  29.369  30.972  1.00  0.00     0.022 A 
BRANCH  69  72
ATOM     72  S   UNL A   1      35.922  30.811  28.869  1.00  0.00     0.127 S 
ATOM     73  O   UNL A   1      35.202  29.772  28.134  1.00  0.00    -0.237 OA
ATOM     74  O   UNL A   1      35.189  31.375  30.002  1.00  0.00    -0.237 OA
ATOM     75  O   UNL A   1      36.616  31.791  28.045  1.00  0.00    -0.744 OA
ENDBRANCH  69  72
ENDBRANCH  51  65
BRANCH  52  76
ATOM     76  C   UNL A   1      48.346  27.319  25.637  1.00  0.00     0.023 A 
ATOM     77  C   UNL A   1      49.450  26.897  26.402  1.00  0.00     0.012 A 
ATOM     78  C   UNL A   1      48.503  27.505  24.250  1.00  0.00     0.148 A 
ATOM     79  C   UNL A   1      50.695  26.697  25.806  1.00  0.00     0.002 A 
ATOM     80  C   UNL A   1      49.731  27.248  23.653  1.00  0.00     0.091 A 
ATOM     81  F   UNL A   1      47.442  27.916  23.540  1.00  0.00    -0.205 F 
ATOM     82  C   UNL A   1      50.833  26.863  24.431  1.00  0.00     0.022 A 
BRANCH  80  83
ATOM     83  S   UNL A   1      49.967  27.305  21.873  1.00  0.00     0.127 S 
ATOM     84  O   UNL A   1      48.924  26.396  21.404  1.00  0.00    -0.237 OA
ATOM     85  O   UNL A   1      49.729  28.719  21.581  1.00  0.00    -0.237 OA
ATOM     86  O   UNL A   1      51.337  26.869  21.643  1.00  0.00    -0.744 OA
ENDBRANCH  80  83
ENDBRANCH  52  76
BRANCH  64  87
ATOM     87  C   UNL A   1      45.485  32.754  28.961  1.00  0.00     0.023 A 
ATOM     88  C   UNL A   1      46.206  32.981  30.149  1.00  0.00     0.012 A 
ATOM     89  C   UNL A   1      45.305  33.814  28.049  1.00  0.00     0.148 A 
ATOM     90  C   UNL A   1      46.711  34.247  30.442  1.00  0.00     0.002 A 
ATOM     91  C   UNL A   1      45.855  35.060  28.322  1.00  0.00     0.091 A 
ATOM     92  F   UNL A   1      44.601  33.583  26.931  1.00  0.00    -0.205 F 
ATOM     93  C   UNL A   1      46.547  35.283  29.524  1.00  0.00     0.022 A 
BRANCH  91  94
ATOM     94  S   UNL A   1      45.779  36.424  27.156  1.00  0.00     0.127 S 
ATOM     95  O   UNL A   1      46.713  37.378  27.751  1.00  0.00    -0.237 OA
ATOM     96  O   UNL A   1      46.248  35.801  25.919  1.00  0.00    -0.237 OA
ATOM     97  O   UNL A   1      44.385  36.850  27.127  1.00  0.00    -0.744 OA
ENDBRANCH  91  94
ENDBRANCH  64  87
ENDBRANCH  38  39
ENDBRANCH  30  33
ENDBRANCH  28  29
ENDBRANCH   1  28
TORSDOF 16
ENDMDL
MODEL 3
REMARK VINA RESULT:     -12.7      5.865     11.942
REMARK SMILES C[C@H]1[C@@H](C(=O)NCCCCNC(=O)c2ccc(-c3c4nc(c(-c5cccc(S(=O)(=O)[O-])c5F)c5ccc([nH]5)c(-c5cccc(S(=O)(=O)[O-])c5F)c5nc(c(-c6cccc(S(=O)(=O)[O-])c6F)c6ccc3[nH]6)C=C5)C=C4)cc2)CCN1C(=O)N[C@@H]1CC[N@H+]2CCCC[C@H]12
REMARK SMILES IDX 9 1 8 2 7 3 6 4 4 5 5 6 3 8 1 9 2 10 79 11 77 12 78 13 80 14
REMARK SMILES IDX 81 15 82 16 83 18 84 19 91 20 85 21 86 22 90 23 87 24 89 26
REMARK SMILES IDX 88 27 10 28 11 29 12 30 13 32 14 33 15 34 76 35 16 36 75 37
REMARK SMILES IDX 17 38 18 39 19 40 69 41 20 42 74 43 68 44 70 45 21 46 73 47
REMARK SMILES IDX 67 48 66 49 22 51 54 52 34 53 53 54 35 55 38 56 52 57 71 58
REMARK SMILES IDX 36 59 37 60 51 62 72 63 39 64 23 65 24 66 32 67 25 68 27 69
REMARK SMILES IDX 33 70 26 71 28 72 29 73 30 74 31 75 55 76 56 77 64 78 57 79
REMARK SMILES IDX 59 80 65 81 58 82 60 83 61 84 62 85 63 86 40 87 41 88 49 89
REMARK SMILES IDX 42 90 44 91 50 92 43 93 45 94 46 95 47 96 48 97
REMARK H PARENT 6 7 82 17 86 25 11 31 70 50 38 61
REMARK Flexibility Score: inf
ROOT
ATOM      1  C   UNL A   1      38.221  20.572  25.027  1.00  0.00     0.023 C 
ENDROOT
BRANCH   1   2
ATOM      2  C   UNL A   1      37.484  21.887  24.755  1.00  0.00     0.023 C 
BRANCH   2   3
ATOM      3  C   UNL A   1      36.342  22.203  25.718  1.00  0.00     0.116 C 
BRANCH   3   4
ATOM      4  N   UNL A   1      35.451  21.077  25.918  1.00  0.00    -0.356 N 
ATOM      5  C   UNL A   1      34.113  20.962  25.686  1.00  0.00     0.225 C 
ATOM      6  O   UNL A   1      33.635  19.830  25.700  1.00  0.00    -0.275 OA
ATOM      7  H   UNL A   1      35.880  20.268  26.278  1.00  0.00     0.163 HD
BRANCH   5   8
ATOM      8  C   UNL A   1      33.310  22.203  25.337  1.00  0.00     0.102 C 
ATOM      9  C   UNL A   1      32.915  22.474  27.901  1.00  0.00     0.032 C 
ATOM     10  C   UNL A   1      32.623  22.975  26.491  1.00  0.00     0.096 C 
ATOM     11  N   UNL A   1      31.190  22.953  26.192  1.00  0.00    -0.321 N 
ATOM     12  C   UNL A   1      32.172  21.822  24.384  1.00  0.00     0.037 C 
ATOM     13  C   UNL A   1      30.925  21.882  25.247  1.00  0.00     0.122 C 
BRANCH  11  14
ATOM     14  C   UNL A   1      30.145  23.656  26.707  1.00  0.00     0.318 C 
ATOM     15  O   UNL A   1      29.476  23.209  27.647  1.00  0.00    -0.249 OA
ATOM     16  N   UNL A   1      29.750  24.857  26.243  1.00  0.00    -0.329 N 
ATOM     17  H   UNL A   1      29.055  25.254  26.816  1.00  0.00     0.165 HD
BRANCH  16  18
ATOM     18  C   UNL A   1      30.076  25.728  25.118  1.00  0.00     0.147 C 
ATOM     19  C   UNL A   1      30.268  24.927  23.815  1.00  0.00     0.092 C 
ATOM     20  C   UNL A   1      31.412  26.492  25.259  1.00  0.00     0.207 C 
ATOM     21  C   UNL A   1      31.605  25.372  23.240  1.00  0.00     0.264 C 
ATOM     22  N   UNL A   1      32.357  25.718  24.437  1.00  0.00    -0.331 N 
ATOM     23  C   UNL A   1      32.005  26.704  26.646  1.00  0.00     0.067 C 
ATOM     24  C   UNL A   1      33.570  26.484  24.171  1.00  0.00     0.262 C 
ATOM     25  H   UNL A   1      32.698  24.876  24.900  1.00  0.00     0.348 HD
ATOM     26  C   UNL A   1      33.326  27.473  26.512  1.00  0.00     0.012 C 
ATOM     27  C   UNL A   1      34.267  26.811  25.498  1.00  0.00     0.062 C 
ENDBRANCH  16  18
ENDBRANCH  11  14
ENDBRANCH   5   8
ENDBRANCH   3   4
ENDBRANCH   2   3
ENDBRANCH   1   2
BRANCH   1  28
ATOM     28  C   UNL A   1      39.290  20.624  26.113  1.00  0.00     0.116 C 
BRANCH  28  29
ATOM     29  N   UNL A   1      40.238  19.523  26.035  1.00  0.00    -0.352 N 
ATOM     30  C   UNL A   1      41.610  19.563  26.112  1.00  0.00     0.251 C 
ATOM     31  H   UNL A   1      39.844  18.630  25.910  1.00  0.00     0.163 HD
ATOM     32  O   UNL A   1      42.263  18.542  25.913  1.00  0.00    -0.269 OA
BRANCH  30  33
ATOM     33  C   UNL A   1      42.292  20.842  26.399  1.00  0.00     0.039 A 
ATOM     34  C   UNL A   1      42.600  21.693  25.334  1.00  0.00     0.014 A 
ATOM     35  C   UNL A   1      42.603  21.215  27.710  1.00  0.00     0.014 A 
ATOM     36  C   UNL A   1      43.158  22.947  25.590  1.00  0.00     0.010 A 
ATOM     37  C   UNL A   1      43.090  22.494  27.967  1.00  0.00     0.010 A 
ATOM     38  C   UNL A   1      43.375  23.374  26.911  1.00  0.00    -0.014 A 
BRANCH  38  39
ATOM     39  C   UNL A   1      43.881  24.740  27.205  1.00  0.00     0.031 A 
ATOM     40  C   UNL A   1      42.957  25.790  27.760  1.00  0.00     0.074 A 
ATOM     41  C   UNL A   1      45.152  25.060  26.893  1.00  0.00     0.049 A 
ATOM     42  N   UNL A   1      43.207  27.045  28.035  1.00  0.00    -0.248 NA
ATOM     43  C   UNL A   1      41.564  25.388  28.014  1.00  0.00     0.031 C 
ATOM     44  C   UNL A   1      46.125  24.156  26.275  1.00  0.00     0.029 A 
ATOM     45  N   UNL A   1      45.840  26.240  27.028  1.00  0.00    -0.354 N 
ATOM     46  C   UNL A   1      42.001  27.588  28.461  1.00  0.00     0.074 A 
ATOM     47  C   UNL A   1      41.011  26.538  28.374  1.00  0.00     0.031 C 
ATOM     48  C   UNL A   1      47.282  24.811  26.090  1.00  0.00     0.029 A 
ATOM     49  C   UNL A   1      47.127  26.190  26.546  1.00  0.00     0.049 A 
ATOM     50  H   UNL A   1      45.449  27.048  27.433  1.00  0.00     0.167 HD
ATOM     51  C   UNL A   1      41.745  28.841  28.911  1.00  0.00     0.034 A 
ATOM     52  C   UNL A   1      48.074  27.145  26.469  1.00  0.00     0.034 A 
ATOM     53  C   UNL A   1      42.740  29.872  29.032  1.00  0.00     0.049 A 
ATOM     54  C   UNL A   1      47.774  28.518  27.009  1.00  0.00     0.074 A 
ATOM     55  C   UNL A   1      42.600  31.143  29.562  1.00  0.00     0.029 A 
ATOM     56  N   UNL A   1      44.055  29.759  28.609  1.00  0.00    -0.354 N 
ATOM     57  N   UNL A   1      46.672  28.965  27.562  1.00  0.00    -0.248 NA
ATOM     58  C   UNL A   1      48.859  29.508  26.948  1.00  0.00     0.031 C 
ATOM     59  C   UNL A   1      43.823  31.807  29.432  1.00  0.00     0.029 A 
ATOM     60  C   UNL A   1      44.735  30.939  28.854  1.00  0.00     0.049 A 
ATOM     61  H   UNL A   1      44.447  28.956  28.196  1.00  0.00     0.167 HD
ATOM     62  C   UNL A   1      46.942  30.273  27.947  1.00  0.00     0.074 A 
ATOM     63  C   UNL A   1      48.319  30.539  27.585  1.00  0.00     0.031 C 
ATOM     64  C   UNL A   1      46.119  31.176  28.535  1.00  0.00     0.034 A 
BRANCH  51  65
ATOM     65  C   UNL A   1      40.338  29.152  29.354  1.00  0.00     0.023 A 
ATOM     66  C   UNL A   1      39.390  29.586  28.404  1.00  0.00     0.012 A 
ATOM     67  C   UNL A   1      39.937  28.958  30.690  1.00  0.00     0.148 A 
ATOM     68  C   UNL A   1      38.076  29.858  28.784  1.00  0.00     0.002 A 
ATOM     69  C   UNL A   1      38.614  29.186  31.051  1.00  0.00     0.091 A 
ATOM     70  F   UNL A   1      40.857  28.563  31.582  1.00  0.00    -0.205 F 
ATOM     71  C   UNL A   1      37.687  29.648  30.103  1.00  0.00     0.022 A 
BRANCH  69  72
ATOM     72  S   UNL A   1      37.992  28.866  32.705  1.00  0.00     0.127 S 
ATOM     73  O   UNL A   1      36.610  29.331  32.594  1.00  0.00    -0.237 OA
ATOM     74  O   UNL A   1      38.139  27.414  32.813  1.00  0.00    -0.237 OA
ATOM     75  O   UNL A   1      38.838  29.631  33.609  1.00  0.00    -0.744 OA
ENDBRANCH  69  72
ENDBRANCH  51  65
BRANCH  52  76
ATOM     76  C   UNL A   1      49.420  26.820  25.914  1.00  0.00     0.023 A 
ATOM     77  C   UNL A   1      50.340  26.105  26.704  1.00  0.00     0.012 A 
ATOM     78  C   UNL A   1      49.782  27.193  24.605  1.00  0.00     0.148 A 
ATOM     79  C   UNL A   1      51.610  25.797  26.214  1.00  0.00     0.002 A 
ATOM     80  C   UNL A   1      51.027  26.833  24.103  1.00  0.00     0.091 A 
ATOM     81  F   UNL A   1      48.894  27.881  23.872  1.00  0.00    -0.205 F 
ATOM     82  C   UNL A   1      51.949  26.153  24.912  1.00  0.00     0.022 A 
BRANCH  80  83
ATOM     83  S   UNL A   1      51.499  27.129  22.396  1.00  0.00     0.127 S 
ATOM     84  O   UNL A   1      51.731  28.571  22.395  1.00  0.00    -0.237 OA
ATOM     85  O   UNL A   1      52.705  26.310  22.269  1.00  0.00    -0.237 OA
ATOM     86  O   UNL A   1      50.376  26.669  21.591  1.00  0.00    -0.744 OA
ENDBRANCH  80  83
ENDBRANCH  52  76
BRANCH  64  87
ATOM     87  C   UNL A   1      46.690  32.532  28.864  1.00  0.00     0.023 A 
ATOM     88  C   UNL A   1      47.340  32.742  30.097  1.00  0.00     0.012 A 
ATOM     89  C   UNL A   1      46.647  33.576  27.919  1.00  0.00     0.148 A 
ATOM     90  C   UNL A   1      47.906  33.979  30.397  1.00  0.00     0.002 A 
ATOM     91  C   UNL A   1      47.259  34.790  28.205  1.00  0.00     0.091 A 
ATOM     92  F   UNL A   1      46.009  33.363  26.759  1.00  0.00    -0.205 F 
ATOM     93  C   UNL A   1      47.877  34.999  29.448  1.00  0.00     0.022 A 
BRANCH  91  94
ATOM     94  S   UNL A   1      47.357  36.126  27.007  1.00  0.00     0.127 S 
ATOM     95  O   UNL A   1      45.945  36.370  26.718  1.00  0.00    -0.237 OA
ATOM     96  O   UNL A   1      48.013  37.183  27.776  1.00  0.00    -0.237 OA
ATOM     97  O   UNL A   1      48.143  35.611  25.894  1.00  0.00    -0.744 OA
ENDBRANCH  91  94
ENDBRANCH  64  87
ENDBRANCH  38  39
ENDBRANCH  30  33
ENDBRANCH  28  29
ENDBRANCH   1  28
TORSDOF 16
ENDMDL
