MODEL 1
REMARK VINA RESULT:     -11.5      0.000      0.000
REMARK SMILES O=C(COc1ncc(C(F)(F)F)cc1Cl)NCCCCNC(=O)c1ccc(-c2c3nc(c(-c4cccc(S(=O)(=O)[O-])c4F)c4ccc([nH]4)c(-c4cccc(S(=O)(=O)[O-])c4F)c4nc(c(-c5cccc(S(=O)(=O)[O-])c5F)c5ccc2[nH]5)C=C4)C=C3)cc1
REMARK SMILES IDX 18 1 17 2 16 3 1 4 2 5 3 7 4 8 5 9 6 10 14 11 7 12 13 13
REMARK SMILES IDX 15 14 8 15 9 16 10 17 11 18 12 19 19 20 20 21 21 22 22 23
REMARK SMILES IDX 23 25 24 26 25 27 86 28 26 29 85 30 27 31 28 32 29 33 79 34
REMARK SMILES IDX 30 35 84 36 78 37 80 38 31 39 83 40 77 41 76 42 32 44 64 45
REMARK SMILES IDX 44 46 63 47 45 48 48 49 62 50 81 51 46 52 47 53 61 55 82 56
REMARK SMILES IDX 49 57 33 58 34 59 42 60 35 61 37 62 43 63 36 64 38 65 39 66
REMARK SMILES IDX 40 67 41 68 65 69 66 70 74 71 67 72 69 73 75 74 68 75 70 76
REMARK SMILES IDX 71 77 72 78 73 79 50 80 51 81 59 82 52 83 54 84 60 85 53 86
REMARK SMILES IDX 55 87 56 88 57 89 58 90
REMARK H PARENT 16 6 21 24 80 43 48 54
REMARK Flexibility Score: inf
ROOT
ATOM      1  C   UNL A   1      35.602  23.369  23.763  1.00  0.00     0.023 C 
ENDROOT
BRANCH   1   2
ATOM      2  C   UNL A   1      34.372  23.196  22.887  1.00  0.00     0.116 C 
BRANCH   2   3
ATOM      3  N   UNL A   1      33.298  24.118  23.185  1.00  0.00    -0.353 N 
ATOM      4  O   UNL A   1      33.696  25.620  21.478  1.00  0.00    -0.271 OA
ATOM      5  C   UNL A   1      32.951  25.153  22.334  1.00  0.00     0.258 C 
ATOM      6  H   UNL A   1      32.795  24.005  24.024  1.00  0.00     0.163 HD
BRANCH   5   7
ATOM      7  C   UNL A   1      31.510  25.631  22.518  1.00  0.00     0.331 C 
BRANCH   7   8
ATOM      8  O   UNL A   1      31.509  26.838  23.282  1.00  0.00    -0.467 OA
BRANCH   8   9
ATOM      9  C   UNL A   1      30.584  27.757  22.867  1.00  0.00     0.233 A 
ATOM     10  N   UNL A   1      31.130  28.824  22.238  1.00  0.00    -0.220 NA
ATOM     11  C   UNL A   1      29.251  27.734  23.282  1.00  0.00     0.103 A 
ATOM     12  C   UNL A   1      30.346  29.915  22.054  1.00  0.00     0.128 A 
ATOM     13  C   UNL A   1      28.468  28.866  23.065  1.00  0.00     0.041 A 
ATOM     14  Cl  UNL A   1      28.493  26.434  24.105  1.00  0.00    -0.078 Cl
ATOM     15  C   UNL A   1      29.025  29.997  22.468  1.00  0.00     0.076 A 
BRANCH  15  16
ATOM     16  C   UNL A   1      28.247  31.265  22.309  1.00  0.00     0.417 C 
ATOM     17  F   UNL A   1      27.091  31.265  23.024  1.00  0.00    -0.166 F 
ATOM     18  F   UNL A   1      28.945  32.360  22.715  1.00  0.00    -0.166 F 
ATOM     19  F   UNL A   1      27.886  31.513  21.018  1.00  0.00    -0.166 F 
ENDBRANCH  15  16
ENDBRANCH   8   9
ENDBRANCH   7   8
ENDBRANCH   5   7
ENDBRANCH   2   3
ENDBRANCH   1   2
BRANCH   1  20
ATOM     20  C   UNL A   1      36.392  22.088  24.037  1.00  0.00     0.023 C 
BRANCH  20  21
ATOM     21  C   UNL A   1      36.718  21.805  25.501  1.00  0.00     0.116 C 
BRANCH  21  22
ATOM     22  N   UNL A   1      37.780  20.823  25.673  1.00  0.00    -0.352 N 
ATOM     23  C   UNL A   1      39.085  21.005  26.065  1.00  0.00     0.251 C 
ATOM     24  H   UNL A   1      37.525  19.892  25.480  1.00  0.00     0.163 HD
ATOM     25  O   UNL A   1      39.874  20.061  26.014  1.00  0.00    -0.269 OA
BRANCH  23  26
ATOM     26  C   UNL A   1      39.555  22.333  26.523  1.00  0.00     0.039 A 
ATOM     27  C   UNL A   1      40.590  22.397  27.461  1.00  0.00     0.014 A 
ATOM     28  C   UNL A   1      38.985  23.510  26.032  1.00  0.00     0.014 A 
ATOM     29  C   UNL A   1      41.102  23.640  27.846  1.00  0.00     0.010 A 
ATOM     30  C   UNL A   1      39.550  24.743  26.356  1.00  0.00     0.010 A 
ATOM     31  C   UNL A   1      40.615  24.823  27.266  1.00  0.00    -0.014 A 
BRANCH  31  32
ATOM     32  C   UNL A   1      41.222  26.146  27.581  1.00  0.00     0.031 A 
ATOM     33  C   UNL A   1      42.648  26.444  27.198  1.00  0.00     0.074 A 
ATOM     34  C   UNL A   1      40.517  27.052  28.289  1.00  0.00     0.049 A 
ATOM     35  N   UNL A   1      43.360  27.514  27.440  1.00  0.00    -0.248 NA
ATOM     36  C   UNL A   1      43.376  25.393  26.469  1.00  0.00     0.031 C 
ATOM     37  C   UNL A   1      39.155  26.858  28.791  1.00  0.00     0.029 A 
ATOM     38  N   UNL A   1      40.859  28.305  28.736  1.00  0.00    -0.354 N 
ATOM     39  C   UNL A   1      44.625  27.255  26.925  1.00  0.00     0.074 A 
ATOM     40  C   UNL A   1      44.593  25.912  26.389  1.00  0.00     0.031 C 
ATOM     41  C   UNL A   1      38.777  27.951  29.473  1.00  0.00     0.029 A 
ATOM     42  C   UNL A   1      39.879  28.908  29.490  1.00  0.00     0.049 A 
ATOM     43  H   UNL A   1      41.724  28.731  28.536  1.00  0.00     0.167 HD
ATOM     44  C   UNL A   1      45.708  28.069  26.875  1.00  0.00     0.034 A 
ATOM     45  C   UNL A   1      39.870  30.091  30.136  1.00  0.00     0.034 A 
ATOM     46  C   UNL A   1      45.729  29.416  27.382  1.00  0.00     0.049 A 
ATOM     47  C   UNL A   1      41.076  30.987  30.046  1.00  0.00     0.074 A 
ATOM     48  C   UNL A   1      46.752  30.345  27.306  1.00  0.00     0.029 A 
ATOM     49  N   UNL A   1      44.690  30.021  28.070  1.00  0.00    -0.354 N 
ATOM     50  N   UNL A   1      42.210  30.783  29.421  1.00  0.00    -0.248 NA
ATOM     51  C   UNL A   1      40.988  32.291  30.718  1.00  0.00     0.031 C 
ATOM     52  C   UNL A   1      46.343  31.502  27.978  1.00  0.00     0.029 A 
ATOM     53  C   UNL A   1      45.049  31.308  28.436  1.00  0.00     0.049 A 
ATOM     54  H   UNL A   1      43.823  29.600  28.268  1.00  0.00     0.167 HD
ATOM     55  C   UNL A   1      42.955  31.945  29.594  1.00  0.00     0.074 A 
ATOM     56  C   UNL A   1      42.135  32.856  30.364  1.00  0.00     0.031 C 
ATOM     57  C   UNL A   1      44.209  32.226  29.162  1.00  0.00     0.034 A 
BRANCH  44  58
ATOM     58  C   UNL A   1      46.951  27.540  26.206  1.00  0.00     0.023 A 
ATOM     59  C   UNL A   1      47.169  27.795  24.836  1.00  0.00     0.012 A 
ATOM     60  C   UNL A   1      47.928  26.839  26.940  1.00  0.00     0.148 A 
ATOM     61  C   UNL A   1      48.317  27.328  24.198  1.00  0.00     0.002 A 
ATOM     62  C   UNL A   1      49.094  26.420  26.308  1.00  0.00     0.091 A 
ATOM     63  F   UNL A   1      47.698  26.590  28.236  1.00  0.00    -0.205 F 
ATOM     64  C   UNL A   1      49.283  26.650  24.936  1.00  0.00     0.022 A 
BRANCH  62  65
ATOM     65  S   UNL A   1      50.436  25.611  27.186  1.00  0.00     0.127 S 
ATOM     66  O   UNL A   1      51.439  25.473  26.130  1.00  0.00    -0.237 OA
ATOM     67  O   UNL A   1      50.767  26.596  28.216  1.00  0.00    -0.237 OA
ATOM     68  O   UNL A   1      49.890  24.360  27.693  1.00  0.00    -0.744 OA
ENDBRANCH  62  65
ENDBRANCH  44  58
BRANCH  45  69
ATOM     69  C   UNL A   1      38.656  30.518  30.890  1.00  0.00     0.023 A 
ATOM     70  C   UNL A   1      38.556  30.235  32.266  1.00  0.00     0.012 A 
ATOM     71  C   UNL A   1      37.614  31.221  30.254  1.00  0.00     0.148 A 
ATOM     72  C   UNL A   1      37.425  30.614  32.989  1.00  0.00     0.002 A 
ATOM     73  C   UNL A   1      36.517  31.647  30.993  1.00  0.00     0.091 A 
ATOM     74  F   UNL A   1      37.725  31.471  28.943  1.00  0.00    -0.205 F 
ATOM     75  C   UNL A   1      36.411  31.328  32.356  1.00  0.00     0.022 A 
BRANCH  73  76
ATOM     76  S   UNL A   1      35.227  32.684  30.293  1.00  0.00     0.127 S 
ATOM     77  O   UNL A   1      34.359  32.899  31.446  1.00  0.00    -0.237 OA
ATOM     78  O   UNL A   1      35.988  33.859  29.864  1.00  0.00    -0.237 OA
ATOM     79  O   UNL A   1      34.649  31.912  29.202  1.00  0.00    -0.744 OA
ENDBRANCH  73  76
ENDBRANCH  45  69
BRANCH  57  80
ATOM     80  C   UNL A   1      44.767  33.591  29.471  1.00  0.00     0.023 A 
ATOM     81  C   UNL A   1      45.478  33.811  30.667  1.00  0.00     0.012 A 
ATOM     82  C   UNL A   1      44.647  34.640  28.536  1.00  0.00     0.148 A 
ATOM     83  C   UNL A   1      46.028  35.062  30.946  1.00  0.00     0.002 A 
ATOM     84  C   UNL A   1      45.243  35.868  28.796  1.00  0.00     0.091 A 
ATOM     85  F   UNL A   1      43.952  34.417  27.411  1.00  0.00    -0.205 F 
ATOM     86  C   UNL A   1      45.921  36.086  30.006  1.00  0.00     0.022 A 
BRANCH  84  87
ATOM     87  S   UNL A   1      45.243  37.212  27.605  1.00  0.00     0.127 S 
ATOM     88  O   UNL A   1      46.103  36.676  26.551  1.00  0.00    -0.237 OA
ATOM     89  O   UNL A   1      43.828  37.310  27.249  1.00  0.00    -0.237 OA
ATOM     90  O   UNL A   1      45.772  38.374  28.308  1.00  0.00    -0.744 OA
ENDBRANCH  84  87
ENDBRANCH  57  80
ENDBRANCH  31  32
ENDBRANCH  23  26
ENDBRANCH  21  22
ENDBRANCH  20  21
ENDBRANCH   1  20
TORSDOF 17
ENDMDL
MODEL 2
REMARK VINA RESULT:     -11.3      2.663      3.011
REMARK SMILES O=C(COc1ncc(C(F)(F)F)cc1Cl)NCCCCNC(=O)c1ccc(-c2c3nc(c(-c4cccc(S(=O)(=O)[O-])c4F)c4ccc([nH]4)c(-c4cccc(S(=O)(=O)[O-])c4F)c4nc(c(-c5cccc(S(=O)(=O)[O-])c5F)c5ccc2[nH]5)C=C4)C=C3)cc1
REMARK SMILES IDX 18 1 17 2 16 3 1 4 2 5 3 7 4 8 5 9 6 10 14 11 7 12 13 13
REMARK SMILES IDX 15 14 8 15 9 16 10 17 11 18 12 19 19 20 20 21 21 22 22 23
REMARK SMILES IDX 23 25 24 26 25 27 86 28 26 29 85 30 27 31 28 32 29 33 79 34
REMARK SMILES IDX 30 35 84 36 78 37 80 38 31 39 83 40 77 41 76 42 32 44 64 45
REMARK SMILES IDX 44 46 63 47 45 48 48 49 62 50 81 51 46 52 47 53 61 55 82 56
REMARK SMILES IDX 49 57 33 58 34 59 42 60 35 61 37 62 43 63 36 64 38 65 39 66
REMARK SMILES IDX 40 67 41 68 65 69 66 70 74 71 67 72 69 73 75 74 68 75 70 76
REMARK SMILES IDX 71 77 72 78 73 79 50 80 51 81 59 82 52 83 54 84 60 85 53 86
REMARK SMILES IDX 55 87 56 88 57 89 58 90
REMARK H PARENT 16 6 21 24 80 43 48 54
REMARK Flexibility Score: inf
ROOT
ATOM      1  C   UNL A   1      35.405  20.702  25.087  1.00  0.00     0.023 C 
ENDROOT
BRANCH   1   2
ATOM      2  C   UNL A   1      34.127  20.627  25.906  1.00  0.00     0.116 C 
BRANCH   2   3
ATOM      3  N   UNL A   1      33.444  21.894  26.056  1.00  0.00    -0.353 N 
ATOM      4  O   UNL A   1      31.386  21.236  25.242  1.00  0.00    -0.271 OA
ATOM      5  C   UNL A   1      32.078  22.026  25.877  1.00  0.00     0.258 C 
ATOM      6  H   UNL A   1      33.971  22.691  26.294  1.00  0.00     0.163 HD
BRANCH   5   7
ATOM      7  C   UNL A   1      31.487  23.235  26.605  1.00  0.00     0.331 C 
BRANCH   7   8
ATOM      8  O   UNL A   1      31.372  24.325  25.688  1.00  0.00    -0.467 OA
BRANCH   8   9
ATOM      9  C   UNL A   1      32.027  25.459  26.089  1.00  0.00     0.233 A 
ATOM     10  N   UNL A   1      31.300  26.232  26.930  1.00  0.00    -0.220 NA
ATOM     11  C   UNL A   1      33.205  25.908  25.490  1.00  0.00     0.103 A 
ATOM     12  C   UNL A   1      31.728  27.499  27.148  1.00  0.00     0.128 A 
ATOM     13  C   UNL A   1      33.625  27.210  25.746  1.00  0.00     0.041 A 
ATOM     14  Cl  UNL A   1      34.168  25.001  24.397  1.00  0.00    -0.078 Cl
ATOM     15  C   UNL A   1      32.863  28.043  26.566  1.00  0.00     0.076 A 
BRANCH  15  16
ATOM     16  C   UNL A   1      33.226  29.478  26.785  1.00  0.00     0.417 C 
ATOM     17  F   UNL A   1      34.405  29.626  27.445  1.00  0.00    -0.166 F 
ATOM     18  F   UNL A   1      33.355  30.168  25.620  1.00  0.00    -0.166 F 
ATOM     19  F   UNL A   1      32.301  30.158  27.518  1.00  0.00    -0.166 F 
ENDBRANCH  15  16
ENDBRANCH   8   9
ENDBRANCH   7   8
ENDBRANCH   5   7
ENDBRANCH   2   3
ENDBRANCH   1   2
BRANCH   1  20
ATOM     20  C   UNL A   1      35.959  22.111  24.871  1.00  0.00     0.023 C 
BRANCH  20  21
ATOM     21  C   UNL A   1      37.468  22.212  24.669  1.00  0.00     0.116 C 
BRANCH  21  22
ATOM     22  N   UNL A   1      38.214  21.181  25.378  1.00  0.00    -0.352 N 
ATOM     23  C   UNL A   1      39.257  21.307  26.264  1.00  0.00     0.251 C 
ATOM     24  H   UNL A   1      37.928  20.257  25.195  1.00  0.00     0.163 HD
ATOM     25  O   UNL A   1      39.852  20.303  26.652  1.00  0.00    -0.269 OA
BRANCH  23  26
ATOM     26  C   UNL A   1      39.686  22.645  26.734  1.00  0.00     0.039 A 
ATOM     27  C   UNL A   1      40.703  22.731  27.690  1.00  0.00     0.014 A 
ATOM     28  C   UNL A   1      39.095  23.810  26.238  1.00  0.00     0.014 A 
ATOM     29  C   UNL A   1      41.178  23.984  28.089  1.00  0.00     0.010 A 
ATOM     30  C   UNL A   1      39.625  25.055  26.576  1.00  0.00     0.010 A 
ATOM     31  C   UNL A   1      40.671  25.158  27.505  1.00  0.00    -0.014 A 
BRANCH  31  32
ATOM     32  C   UNL A   1      41.241  26.493  27.834  1.00  0.00     0.031 A 
ATOM     33  C   UNL A   1      42.668  26.825  27.486  1.00  0.00     0.074 A 
ATOM     34  C   UNL A   1      40.498  27.382  28.526  1.00  0.00     0.049 A 
ATOM     35  N   UNL A   1      43.350  27.910  27.745  1.00  0.00    -0.248 NA
ATOM     36  C   UNL A   1      43.437  25.791  26.773  1.00  0.00     0.031 C 
ATOM     37  C   UNL A   1      39.129  27.158  28.994  1.00  0.00     0.029 A 
ATOM     38  N   UNL A   1      40.801  28.642  28.981  1.00  0.00    -0.354 N 
ATOM     39  C   UNL A   1      44.632  27.681  27.261  1.00  0.00     0.074 A 
ATOM     40  C   UNL A   1      44.644  26.337  26.723  1.00  0.00     0.031 C 
ATOM     41  C   UNL A   1      38.711  28.241  29.667  1.00  0.00     0.029 A 
ATOM     42  C   UNL A   1      39.790  29.223  29.711  1.00  0.00     0.049 A 
ATOM     43  H   UNL A   1      41.660  29.088  28.802  1.00  0.00     0.167 HD
ATOM     44  C   UNL A   1      45.697  28.519  27.236  1.00  0.00     0.034 A 
ATOM     45  C   UNL A   1      39.738  30.405  30.357  1.00  0.00     0.034 A 
ATOM     46  C   UNL A   1      45.676  29.866  27.745  1.00  0.00     0.049 A 
ATOM     47  C   UNL A   1      40.925  31.328  30.297  1.00  0.00     0.074 A 
ATOM     48  C   UNL A   1      46.678  30.818  27.694  1.00  0.00     0.029 A 
ATOM     49  N   UNL A   1      44.606  30.446  28.407  1.00  0.00    -0.354 N 
ATOM     50  N   UNL A   1      42.078  31.150  29.699  1.00  0.00    -0.248 NA
ATOM     51  C   UNL A   1      40.791  32.629  30.967  1.00  0.00     0.031 C 
ATOM     52  C   UNL A   1      46.227  31.964  28.356  1.00  0.00     0.029 A 
ATOM     53  C   UNL A   1      44.927  31.740  28.782  1.00  0.00     0.049 A 
ATOM     54  H   UNL A   1      43.744  30.005  28.585  1.00  0.00     0.167 HD
ATOM     55  C   UNL A   1      42.792  32.329  29.890  1.00  0.00     0.074 A 
ATOM     56  C   UNL A   1      41.933  33.220  30.641  1.00  0.00     0.031 C 
ATOM     57  C   UNL A   1      44.049  32.638  29.489  1.00  0.00     0.034 A 
BRANCH  44  58
ATOM     58  C   UNL A   1      46.967  28.019  26.597  1.00  0.00     0.023 A 
ATOM     59  C   UNL A   1      47.979  27.457  27.404  1.00  0.00     0.012 A 
ATOM     60  C   UNL A   1      47.140  28.052  25.200  1.00  0.00     0.148 A 
ATOM     61  C   UNL A   1      49.157  26.974  26.835  1.00  0.00     0.002 A 
ATOM     62  C   UNL A   1      48.296  27.523  24.636  1.00  0.00     0.091 A 
ATOM     63  F   UNL A   1      46.177  28.605  24.449  1.00  0.00    -0.205 F 
ATOM     64  C   UNL A   1      49.311  26.998  25.453  1.00  0.00     0.022 A 
BRANCH  62  65
ATOM     65  S   UNL A   1      48.556  27.431  22.861  1.00  0.00     0.127 S 
ATOM     66  O   UNL A   1      48.425  25.994  22.618  1.00  0.00    -0.237 OA
ATOM     67  O   UNL A   1      47.451  28.239  22.347  1.00  0.00    -0.237 OA
ATOM     68  O   UNL A   1      49.880  27.985  22.618  1.00  0.00    -0.744 OA
ENDBRANCH  62  65
ENDBRANCH  44  58
BRANCH  45  69
ATOM     69  C   UNL A   1      38.497  30.803  31.082  1.00  0.00     0.023 A 
ATOM     70  C   UNL A   1      38.373  30.523  32.457  1.00  0.00     0.012 A 
ATOM     71  C   UNL A   1      37.452  31.476  30.420  1.00  0.00     0.148 A 
ATOM     72  C   UNL A   1      37.217  30.876  33.153  1.00  0.00     0.002 A 
ATOM     73  C   UNL A   1      36.328  31.877  31.133  1.00  0.00     0.091 A 
ATOM     74  F   UNL A   1      37.585  31.724  29.111  1.00  0.00    -0.205 F 
ATOM     75  C   UNL A   1      36.199  31.560  32.494  1.00  0.00     0.022 A 
BRANCH  73  76
ATOM     76  S   UNL A   1      35.028  32.877  30.400  1.00  0.00     0.127 S 
ATOM     77  O   UNL A   1      34.125  33.069  31.531  1.00  0.00    -0.237 OA
ATOM     78  O   UNL A   1      35.766  34.073  29.989  1.00  0.00    -0.237 OA
ATOM     79  O   UNL A   1      34.498  32.089  29.295  1.00  0.00    -0.744 OA
ENDBRANCH  73  76
ENDBRANCH  45  69
BRANCH  57  80
ATOM     80  C   UNL A   1      44.569  34.016  29.811  1.00  0.00     0.023 A 
ATOM     81  C   UNL A   1      45.301  34.237  30.994  1.00  0.00     0.012 A 
ATOM     82  C   UNL A   1      44.389  35.079  28.901  1.00  0.00     0.148 A 
ATOM     83  C   UNL A   1      45.815  35.500  31.284  1.00  0.00     0.002 A 
ATOM     84  C   UNL A   1      44.950  36.321  29.172  1.00  0.00     0.091 A 
ATOM     85  F   UNL A   1      43.674  34.853  27.789  1.00  0.00    -0.205 F 
ATOM     86  C   UNL A   1      45.650  36.538  30.368  1.00  0.00     0.022 A 
BRANCH  84  87
ATOM     87  S   UNL A   1      44.875  37.687  28.008  1.00  0.00     0.127 S 
ATOM     88  O   UNL A   1      45.405  38.789  28.808  1.00  0.00    -0.237 OA
ATOM     89  O   UNL A   1      45.759  37.229  26.936  1.00  0.00    -0.237 OA
ATOM     90  O   UNL A   1      43.474  37.814  27.625  1.00  0.00    -0.744 OA
ENDBRANCH  84  87
ENDBRANCH  57  80
ENDBRANCH  31  32
ENDBRANCH  23  26
ENDBRANCH  21  22
ENDBRANCH  20  21
ENDBRANCH   1  20
TORSDOF 17
ENDMDL
MODEL 3
REMARK VINA RESULT:     -11.2      2.405      8.062
REMARK SMILES O=C(COc1ncc(C(F)(F)F)cc1Cl)NCCCCNC(=O)c1ccc(-c2c3nc(c(-c4cccc(S(=O)(=O)[O-])c4F)c4ccc([nH]4)c(-c4cccc(S(=O)(=O)[O-])c4F)c4nc(c(-c5cccc(S(=O)(=O)[O-])c5F)c5ccc2[nH]5)C=C4)C=C3)cc1
REMARK SMILES IDX 18 1 17 2 16 3 1 4 2 5 3 7 4 8 5 9 6 10 14 11 7 12 13 13
REMARK SMILES IDX 15 14 8 15 9 16 10 17 11 18 12 19 19 20 20 21 21 22 22 23
REMARK SMILES IDX 23 25 24 26 25 27 86 28 26 29 85 30 27 31 28 32 29 33 79 34
REMARK SMILES IDX 30 35 84 36 78 37 80 38 31 39 83 40 77 41 76 42 32 44 64 45
REMARK SMILES IDX 44 46 63 47 45 48 48 49 62 50 81 51 46 52 47 53 61 55 82 56
REMARK SMILES IDX 49 57 33 58 34 59 42 60 35 61 37 62 43 63 36 64 38 65 39 66
REMARK SMILES IDX 40 67 41 68 65 69 66 70 74 71 67 72 69 73 75 74 68 75 70 76
REMARK SMILES IDX 71 77 72 78 73 79 50 80 51 81 59 82 52 83 54 84 60 85 53 86
REMARK SMILES IDX 55 87 56 88 57 89 58 90
REMARK H PARENT 16 6 21 24 80 43 48 54
REMARK Flexibility Score: inf
ROOT
ATOM      1  C   UNL A   1      33.973  21.413  24.922  1.00  0.00     0.023 C 
ENDROOT
BRANCH   1   2
ATOM      2  C   UNL A   1      32.858  21.607  23.906  1.00  0.00     0.116 C 
BRANCH   2   3
ATOM      3  N   UNL A   1      32.451  22.984  23.730  1.00  0.00    -0.353 N 
ATOM      4  O   UNL A   1      33.647  23.418  21.804  1.00  0.00    -0.271 OA
ATOM      5  C   UNL A   1      32.745  23.704  22.586  1.00  0.00     0.258 C 
ATOM      6  H   UNL A   1      31.945  23.425  24.451  1.00  0.00     0.163 HD
BRANCH   5   7
ATOM      7  C   UNL A   1      31.791  24.876  22.345  1.00  0.00     0.331 C 
BRANCH   7   8
ATOM      8  O   UNL A   1      32.537  26.094  22.334  1.00  0.00    -0.467 OA
BRANCH   8   9
ATOM      9  C   UNL A   1      32.654  26.685  23.564  1.00  0.00     0.233 A 
ATOM     10  N   UNL A   1      31.822  26.160  24.494  1.00  0.00    -0.220 NA
ATOM     11  C   UNL A   1      33.356  27.873  23.771  1.00  0.00     0.103 A 
ATOM     12  C   UNL A   1      31.647  26.857  25.644  1.00  0.00     0.128 A 
ATOM     13  C   UNL A   1      33.165  28.556  24.970  1.00  0.00     0.041 A 
ATOM     14  Cl  UNL A   1      34.408  28.613  22.637  1.00  0.00    -0.078 Cl
ATOM     15  C   UNL A   1      32.271  28.063  25.921  1.00  0.00     0.076 A 
BRANCH  15  16
ATOM     16  C   UNL A   1      31.962  28.818  27.176  1.00  0.00     0.417 C 
ATOM     17  F   UNL A   1      31.482  30.067  26.932  1.00  0.00    -0.166 F 
ATOM     18  F   UNL A   1      31.028  28.195  27.943  1.00  0.00    -0.166 F 
ATOM     19  F   UNL A   1      33.049  28.988  27.980  1.00  0.00    -0.166 F 
ENDBRANCH  15  16
ENDBRANCH   8   9
ENDBRANCH   7   8
ENDBRANCH   5   7
ENDBRANCH   2   3
ENDBRANCH   1   2
BRANCH   1  20
ATOM     20  C   UNL A   1      35.356  21.882  24.469  1.00  0.00     0.023 C 
BRANCH  20  21
ATOM     21  C   UNL A   1      36.398  22.051  25.570  1.00  0.00     0.116 C 
BRANCH  21  22
ATOM     22  N   UNL A   1      37.381  20.976  25.603  1.00  0.00    -0.352 N 
ATOM     23  C   UNL A   1      38.717  21.020  25.922  1.00  0.00     0.251 C 
ATOM     24  H   UNL A   1      37.036  20.087  25.359  1.00  0.00     0.163 HD
ATOM     25  O   UNL A   1      39.417  20.023  25.752  1.00  0.00    -0.269 OA
BRANCH  23  26
ATOM     26  C   UNL A   1      39.324  22.266  26.445  1.00  0.00     0.039 A 
ATOM     27  C   UNL A   1      40.424  22.173  27.302  1.00  0.00     0.014 A 
ATOM     28  C   UNL A   1      38.817  23.520  26.094  1.00  0.00     0.014 A 
ATOM     29  C   UNL A   1      41.062  23.337  27.744  1.00  0.00     0.010 A 
ATOM     30  C   UNL A   1      39.503  24.675  26.469  1.00  0.00     0.010 A 
ATOM     31  C   UNL A   1      40.632  24.598  27.297  1.00  0.00    -0.014 A 
BRANCH  31  32
ATOM     32  C   UNL A   1      41.366  25.840  27.666  1.00  0.00     0.031 A 
ATOM     33  C   UNL A   1      40.673  26.943  28.423  1.00  0.00     0.074 A 
ATOM     34  C   UNL A   1      42.635  26.015  27.245  1.00  0.00     0.049 A 
ATOM     35  N   UNL A   1      41.132  28.115  28.778  1.00  0.00    -0.248 NA
ATOM     36  C   UNL A   1      39.272  26.707  28.810  1.00  0.00     0.031 C 
ATOM     37  C   UNL A   1      43.397  25.060  26.437  1.00  0.00     0.029 A 
ATOM     38  N   UNL A   1      43.499  27.069  27.413  1.00  0.00    -0.354 N 
ATOM     39  C   UNL A   1      40.074  28.768  29.398  1.00  0.00     0.074 A 
ATOM     40  C   UNL A   1      38.937  27.875  29.339  1.00  0.00     0.031 C 
ATOM     41  C   UNL A   1      44.612  25.570  26.182  1.00  0.00     0.029 A 
ATOM     42  C   UNL A   1      44.706  26.901  26.775  1.00  0.00     0.049 A 
ATOM     43  H   UNL A   1      43.277  27.870  27.940  1.00  0.00     0.167 HD
ATOM     44  C   UNL A   1      40.054  29.987  29.991  1.00  0.00     0.034 A 
ATOM     45  C   UNL A   1      45.766  27.727  26.664  1.00  0.00     0.034 A 
ATOM     46  C   UNL A   1      41.194  30.862  30.075  1.00  0.00     0.049 A 
ATOM     47  C   UNL A   1      45.728  29.066  27.349  1.00  0.00     0.074 A 
ATOM     48  C   UNL A   1      41.294  32.080  30.723  1.00  0.00     0.029 A 
ATOM     49  N   UNL A   1      42.424  30.621  29.484  1.00  0.00    -0.354 N 
ATOM     50  N   UNL A   1      44.768  29.600  28.063  1.00  0.00    -0.248 NA
ATOM     51  C   UNL A   1      46.934  29.900  27.247  1.00  0.00     0.031 C 
ATOM     52  C   UNL A   1      42.576  32.593  30.496  1.00  0.00     0.029 A 
ATOM     53  C   UNL A   1      43.287  31.674  29.741  1.00  0.00     0.049 A 
ATOM     54  H   UNL A   1      42.652  29.820  28.960  1.00  0.00     0.167 HD
ATOM     55  C   UNL A   1      45.265  30.815  28.523  1.00  0.00     0.074 A 
ATOM     56  C   UNL A   1      46.620  30.926  28.025  1.00  0.00     0.031 C 
ATOM     57  C   UNL A   1      44.650  31.756  29.281  1.00  0.00     0.034 A 
BRANCH  44  58
ATOM     58  C   UNL A   1      38.766  30.430  30.637  1.00  0.00     0.023 A 
ATOM     59  C   UNL A   1      38.571  30.223  32.019  1.00  0.00     0.012 A 
ATOM     60  C   UNL A   1      37.773  31.100  29.895  1.00  0.00     0.148 A 
ATOM     61  C   UNL A   1      37.394  30.636  32.642  1.00  0.00     0.002 A 
ATOM     62  C   UNL A   1      36.625  31.553  30.534  1.00  0.00     0.091 A 
ATOM     63  F   UNL A   1      37.967  31.274  28.580  1.00  0.00    -0.205 F 
ATOM     64  C   UNL A   1      36.428  31.309  31.902  1.00  0.00     0.022 A 
BRANCH  62  65
ATOM     65  S   UNL A   1      35.356  32.504  29.689  1.00  0.00     0.127 S 
ATOM     66  O   UNL A   1      34.396  32.737  30.768  1.00  0.00    -0.237 OA
ATOM     67  O   UNL A   1      36.095  33.692  29.262  1.00  0.00    -0.237 OA
ATOM     68  O   UNL A   1      34.878  31.661  28.602  1.00  0.00    -0.744 OA
ENDBRANCH  62  65
ENDBRANCH  44  58
BRANCH  45  69
ATOM     69  C   UNL A   1      46.974  27.290  25.907  1.00  0.00     0.023 A 
ATOM     70  C   UNL A   1      47.930  26.468  26.535  1.00  0.00     0.012 A 
ATOM     71  C   UNL A   1      47.167  27.667  24.563  1.00  0.00     0.148 A 
ATOM     72  C   UNL A   1      49.074  26.057  25.850  1.00  0.00     0.002 A 
ATOM     73  C   UNL A   1      48.280  27.206  23.869  1.00  0.00     0.091 A 
ATOM     74  F   UNL A   1      46.251  28.456  23.988  1.00  0.00    -0.205 F 
ATOM     75  C   UNL A   1      49.244  26.417  24.516  1.00  0.00     0.022 A 
BRANCH  73  76
ATOM     76  S   UNL A   1      48.514  27.508  22.114  1.00  0.00     0.127 S 
ATOM     77  O   UNL A   1      49.741  28.298  22.108  1.00  0.00    -0.237 OA
ATOM     78  O   UNL A   1      48.652  26.148  21.592  1.00  0.00    -0.237 OA
ATOM     79  O   UNL A   1      47.313  28.203  21.670  1.00  0.00    -0.744 OA
ENDBRANCH  73  76
ENDBRANCH  45  69
BRANCH  57  80
ATOM     80  C   UNL A   1      45.445  32.979  29.662  1.00  0.00     0.023 A 
ATOM     81  C   UNL A   1      46.217  32.980  30.840  1.00  0.00     0.012 A 
ATOM     82  C   UNL A   1      45.480  34.103  28.811  1.00  0.00     0.148 A 
ATOM     83  C   UNL A   1      46.983  34.094  31.184  1.00  0.00     0.002 A 
ATOM     84  C   UNL A   1      46.286  35.187  29.134  1.00  0.00     0.091 A 
ATOM     85  F   UNL A   1      44.724  34.089  27.703  1.00  0.00    -0.205 F 
ATOM     86  C   UNL A   1      47.027  35.192  30.326  1.00  0.00     0.022 A 
BRANCH  84  87
ATOM     87  S   UNL A   1      46.483  36.600  28.043  1.00  0.00     0.127 S 
ATOM     88  O   UNL A   1      47.432  37.424  28.790  1.00  0.00    -0.237 OA
ATOM     89  O   UNL A   1      47.029  35.984  26.833  1.00  0.00    -0.237 OA
ATOM     90  O   UNL A   1      45.153  37.174  27.882  1.00  0.00    -0.744 OA
ENDBRANCH  84  87
ENDBRANCH  57  80
ENDBRANCH  31  32
ENDBRANCH  23  26
ENDBRANCH  21  22
ENDBRANCH  20  21
ENDBRANCH   1  20
TORSDOF 17
ENDMDL
