MODEL 1
REMARK VINA RESULT:     -11.8      0.000      0.000
REMARK SMILES COc1ccc(Cl)c2sc(N3CC(C(=O)NCCCCNC(=O)c4ccc(-c5c6nc(c(-c7cccc(S(=O)(=O)[O-])c7F)c7ccc([nH]7)c(-c7cccc(S(=O)(=O)[O-])c7F)c7nc(c(-c8cccc(S(=O)(=O)[O-])c8F)c8ccc5[nH]8)C=C7)C=C6)cc4)C3)nc12
REMARK SMILES IDX 19 1 18 2 17 3 16 4 14 5 15 6 13 8 11 9 12 10 87 11 10 12
REMARK SMILES IDX 3 13 4 14 89 15 5 16 8 17 88 18 6 19 9 20 7 21 2 22 1 23
REMARK SMILES IDX 20 24 21 25 22 26 23 28 24 29 25 30 86 31 26 32 85 33 27 34
REMARK SMILES IDX 28 35 29 36 79 37 30 38 84 39 78 40 80 41 31 42 83 43 77 44
REMARK SMILES IDX 76 45 32 47 64 48 44 49 63 50 45 51 48 52 62 53 81 54 46 55
REMARK SMILES IDX 47 56 61 58 82 59 49 60 33 61 34 62 42 63 35 64 37 65 43 66
REMARK SMILES IDX 36 67 38 68 39 69 40 70 41 71 65 72 66 73 74 74 67 75 69 76
REMARK SMILES IDX 75 77 68 78 70 79 71 80 72 81 73 82 50 83 51 84 59 85 52 86
REMARK SMILES IDX 54 87 60 88 53 89 55 90 56 91 57 92 58 93
REMARK H PARENT 16 7 21 27 80 46 48 57
REMARK Flexibility Score: inf
ROOT
ATOM      1  C   UNL A   1      38.176  19.617  24.666  1.00  0.00     0.023 C 
ENDROOT
BRANCH   1   2
ATOM      2  C   UNL A   1      36.700  19.241  24.878  1.00  0.00     0.023 C 
BRANCH   2   3
ATOM      3  C   UNL A   1      35.756  20.403  25.218  1.00  0.00     0.116 C 
BRANCH   3   4
ATOM      4  N   UNL A   1      34.363  20.015  25.107  1.00  0.00    -0.356 N 
ATOM      5  C   UNL A   1      33.200  20.716  25.310  1.00  0.00     0.226 C 
ATOM      6  O   UNL A   1      32.157  20.049  25.214  1.00  0.00    -0.275 OA
ATOM      7  H   UNL A   1      34.227  19.079  24.835  1.00  0.00     0.163 HD
BRANCH   5   8
ATOM      8  C   UNL A   1      33.149  22.202  25.666  1.00  0.00     0.117 C 
ATOM      9  N   UNL A   1      32.226  23.907  24.953  1.00  0.00    -0.346 N 
ATOM     10  C   UNL A   1      31.831  22.933  25.919  1.00  0.00     0.134 C 
ATOM     11  C   UNL A   1      33.472  23.282  24.641  1.00  0.00     0.134 C 
BRANCH   9  12
ATOM     12  C   UNL A   1      31.970  25.233  24.915  1.00  0.00     0.186 A 
ATOM     13  C   UNL A   1      32.151  28.619  26.149  1.00  0.00     0.146 A 
ATOM     14  C   UNL A   1      31.604  29.818  25.664  1.00  0.00     0.050 A 
ATOM     15  C   UNL A   1      31.898  27.403  25.452  1.00  0.00     0.127 A 
ATOM     16  C   UNL A   1      30.800  29.827  24.530  1.00  0.00     0.026 A 
ATOM     17  C   UNL A   1      31.128  27.449  24.285  1.00  0.00     0.079 A 
ATOM     18  N   UNL A   1      32.333  26.125  25.810  1.00  0.00    -0.216 NA
ATOM     19  C   UNL A   1      30.558  28.648  23.825  1.00  0.00     0.060 A 
ATOM     20  S   UNL A   1      31.073  25.875  23.593  1.00  0.00    -0.095 S 
ATOM     21  Cl  UNL A   1      29.584  28.715  22.405  1.00  0.00    -0.083 Cl
BRANCH  13  22
ATOM     22  O   UNL A   1      33.009  28.599  27.225  1.00  0.00    -0.494 OA
ATOM     23  C   UNL A   1      34.021  29.601  27.207  1.00  0.00     0.278 C 
ENDBRANCH  13  22
ENDBRANCH   9  12
ENDBRANCH   5   8
ENDBRANCH   3   4
ENDBRANCH   2   3
ENDBRANCH   1   2
BRANCH   1  24
ATOM     24  C   UNL A   1      39.008  19.665  25.942  1.00  0.00     0.116 C 
BRANCH  24  25
ATOM     25  N   UNL A   1      40.230  18.872  25.835  1.00  0.00    -0.352 N 
ATOM     26  C   UNL A   1      41.536  19.299  25.928  1.00  0.00     0.251 C 
ATOM     27  H   UNL A   1      40.104  17.908  25.676  1.00  0.00     0.163 HD
ATOM     28  O   UNL A   1      42.446  18.610  25.480  1.00  0.00    -0.269 OA
BRANCH  26  29
ATOM     29  C   UNL A   1      41.828  20.594  26.567  1.00  0.00     0.039 A 
ATOM     30  C   UNL A   1      42.503  21.595  25.859  1.00  0.00     0.014 A 
ATOM     31  C   UNL A   1      41.440  20.796  27.891  1.00  0.00     0.014 A 
ATOM     32  C   UNL A   1      42.729  22.825  26.471  1.00  0.00     0.010 A 
ATOM     33  C   UNL A   1      41.569  22.041  28.461  1.00  0.00     0.010 A 
ATOM     34  C   UNL A   1      42.251  23.041  27.769  1.00  0.00    -0.014 A 
BRANCH  34  35
ATOM     35  C   UNL A   1      42.417  24.337  28.412  1.00  0.00     0.031 A 
ATOM     36  C   UNL A   1      41.309  25.312  28.217  1.00  0.00     0.074 A 
ATOM     37  C   UNL A   1      43.383  24.556  29.326  1.00  0.00     0.049 A 
ATOM     38  N   UNL A   1      41.353  26.457  27.615  1.00  0.00    -0.248 NA
ATOM     39  C   UNL A   1      39.967  24.930  28.683  1.00  0.00     0.031 C 
ATOM     40  C   UNL A   1      44.334  23.586  29.882  1.00  0.00     0.029 A 
ATOM     41  N   UNL A   1      43.612  25.670  30.071  1.00  0.00    -0.354 N 
ATOM     42  C   UNL A   1      40.099  27.033  27.813  1.00  0.00     0.074 A 
ATOM     43  C   UNL A   1      39.244  25.992  28.325  1.00  0.00     0.031 C 
ATOM     44  C   UNL A   1      44.851  24.076  31.029  1.00  0.00     0.029 A 
ATOM     45  C   UNL A   1      44.400  25.443  31.195  1.00  0.00     0.049 A 
ATOM     46  H   UNL A   1      43.253  26.556  29.836  1.00  0.00     0.167 HD
ATOM     47  C   UNL A   1      39.899  28.380  27.759  1.00  0.00     0.034 A 
ATOM     48  C   UNL A   1      44.602  26.315  32.210  1.00  0.00     0.034 A 
ATOM     49  C   UNL A   1      41.024  29.079  27.204  1.00  0.00     0.049 A 
ATOM     50  C   UNL A   1      44.310  27.663  31.670  1.00  0.00     0.074 A 
ATOM     51  C   UNL A   1      41.692  29.076  25.998  1.00  0.00     0.029 A 
ATOM     52  N   UNL A   1      41.864  29.691  28.102  1.00  0.00    -0.354 N 
ATOM     53  N   UNL A   1      45.004  28.234  30.725  1.00  0.00    -0.248 NA
ATOM     54  C   UNL A   1      43.011  28.256  31.936  1.00  0.00     0.031 C 
ATOM     55  C   UNL A   1      43.066  29.264  26.336  1.00  0.00     0.029 A 
ATOM     56  C   UNL A   1      43.149  29.405  27.723  1.00  0.00     0.049 A 
ATOM     57  H   UNL A   1      41.592  30.235  28.877  1.00  0.00     0.167 HD
ATOM     58  C   UNL A   1      44.072  28.959  29.998  1.00  0.00     0.074 A 
ATOM     59  C   UNL A   1      42.906  29.052  30.870  1.00  0.00     0.031 C 
ATOM     60  C   UNL A   1      44.229  29.160  28.656  1.00  0.00     0.034 A 
BRANCH  47  61
ATOM     61  C   UNL A   1      38.821  29.109  28.519  1.00  0.00     0.023 A 
ATOM     62  C   UNL A   1      38.005  30.022  27.818  1.00  0.00     0.012 A 
ATOM     63  C   UNL A   1      38.736  29.117  29.928  1.00  0.00     0.148 A 
ATOM     64  C   UNL A   1      37.142  30.897  28.490  1.00  0.00     0.002 A 
ATOM     65  C   UNL A   1      37.818  29.927  30.587  1.00  0.00     0.091 A 
ATOM     66  F   UNL A   1      39.638  28.440  30.650  1.00  0.00    -0.205 F 
ATOM     67  C   UNL A   1      37.033  30.835  29.875  1.00  0.00     0.022 A 
BRANCH  65  68
ATOM     68  S   UNL A   1      37.600  29.826  32.367  1.00  0.00     0.127 S 
ATOM     69  O   UNL A   1      38.864  30.373  32.848  1.00  0.00    -0.237 OA
ATOM     70  O   UNL A   1      36.432  30.682  32.579  1.00  0.00    -0.237 OA
ATOM     71  O   UNL A   1      37.357  28.414  32.635  1.00  0.00    -0.744 OA
ENDBRANCH  65  68
ENDBRANCH  47  61
BRANCH  48  72
ATOM     72  C   UNL A   1      44.777  26.075  33.663  1.00  0.00     0.023 A 
ATOM     73  C   UNL A   1      46.083  26.107  34.199  1.00  0.00     0.012 A 
ATOM     74  C   UNL A   1      43.691  26.127  34.566  1.00  0.00     0.148 A 
ATOM     75  C   UNL A   1      46.301  26.271  35.570  1.00  0.00     0.002 A 
ATOM     76  C   UNL A   1      43.915  26.275  35.933  1.00  0.00     0.091 A 
ATOM     77  F   UNL A   1      42.441  26.138  34.087  1.00  0.00    -0.205 F 
ATOM     78  C   UNL A   1      45.218  26.371  36.437  1.00  0.00     0.022 A 
BRANCH  76  79
ATOM     79  S   UNL A   1      42.556  26.409  37.104  1.00  0.00     0.127 S 
ATOM     80  O   UNL A   1      43.245  26.326  38.392  1.00  0.00    -0.237 OA
ATOM     81  O   UNL A   1      42.009  27.724  36.785  1.00  0.00    -0.237 OA
ATOM     82  O   UNL A   1      41.689  25.269  36.820  1.00  0.00    -0.744 OA
ENDBRANCH  76  79
ENDBRANCH  48  72
BRANCH  60  83
ATOM     83  C   UNL A   1      45.569  28.815  28.052  1.00  0.00     0.023 A 
ATOM     84  C   UNL A   1      46.668  29.698  28.123  1.00  0.00     0.012 A 
ATOM     85  C   UNL A   1      45.772  27.519  27.552  1.00  0.00     0.148 A 
ATOM     86  C   UNL A   1      47.935  29.305  27.687  1.00  0.00     0.002 A 
ATOM     87  C   UNL A   1      47.043  27.119  27.151  1.00  0.00     0.091 A 
ATOM     88  F   UNL A   1      44.721  26.687  27.507  1.00  0.00    -0.205 F 
ATOM     89  C   UNL A   1      48.125  28.012  27.211  1.00  0.00     0.022 A 
BRANCH  87  90
ATOM     90  S   UNL A   1      47.387  25.438  26.626  1.00  0.00     0.127 S 
ATOM     91  O   UNL A   1      46.586  25.328  25.407  1.00  0.00    -0.237 OA
ATOM     92  O   UNL A   1      48.833  25.471  26.403  1.00  0.00    -0.237 OA
ATOM     93  O   UNL A   1      46.971  24.577  27.726  1.00  0.00    -0.744 OA
ENDBRANCH  87  90
ENDBRANCH  60  83
ENDBRANCH  34  35
ENDBRANCH  26  29
ENDBRANCH  24  25
ENDBRANCH   1  24
TORSDOF 16
ENDMDL
MODEL 2
REMARK VINA RESULT:     -11.5      2.989      8.198
REMARK SMILES COc1ccc(Cl)c2sc(N3CC(C(=O)NCCCCNC(=O)c4ccc(-c5c6nc(c(-c7cccc(S(=O)(=O)[O-])c7F)c7ccc([nH]7)c(-c7cccc(S(=O)(=O)[O-])c7F)c7nc(c(-c8cccc(S(=O)(=O)[O-])c8F)c8ccc5[nH]8)C=C7)C=C6)cc4)C3)nc12
REMARK SMILES IDX 19 1 18 2 17 3 16 4 14 5 15 6 13 8 11 9 12 10 87 11 10 12
REMARK SMILES IDX 3 13 4 14 89 15 5 16 8 17 88 18 6 19 9 20 7 21 2 22 1 23
REMARK SMILES IDX 20 24 21 25 22 26 23 28 24 29 25 30 86 31 26 32 85 33 27 34
REMARK SMILES IDX 28 35 29 36 79 37 30 38 84 39 78 40 80 41 31 42 83 43 77 44
REMARK SMILES IDX 76 45 32 47 64 48 44 49 63 50 45 51 48 52 62 53 81 54 46 55
REMARK SMILES IDX 47 56 61 58 82 59 49 60 33 61 34 62 42 63 35 64 37 65 43 66
REMARK SMILES IDX 36 67 38 68 39 69 40 70 41 71 65 72 66 73 74 74 67 75 69 76
REMARK SMILES IDX 75 77 68 78 70 79 71 80 72 81 73 82 50 83 51 84 59 85 52 86
REMARK SMILES IDX 54 87 60 88 53 89 55 90 56 91 57 92 58 93
REMARK H PARENT 16 7 21 27 80 46 48 57
REMARK Flexibility Score: inf
ROOT
ATOM      1  C   UNL A   1      33.033  29.168  27.393  1.00  0.00     0.023 C 
ENDROOT
BRANCH   1   2
ATOM      2  C   UNL A   1      31.690  29.607  26.787  1.00  0.00     0.023 C 
BRANCH   2   3
ATOM      3  C   UNL A   1      31.759  30.226  25.384  1.00  0.00     0.116 C 
BRANCH   3   4
ATOM      4  N   UNL A   1      30.902  29.529  24.445  1.00  0.00    -0.356 N 
ATOM      5  C   UNL A   1      31.051  28.333  23.785  1.00  0.00     0.226 C 
ATOM      6  O   UNL A   1      30.155  28.066  22.968  1.00  0.00    -0.275 OA
ATOM      7  H   UNL A   1      30.061  29.998  24.243  1.00  0.00     0.163 HD
BRANCH   5   8
ATOM      8  C   UNL A   1      32.236  27.389  23.986  1.00  0.00     0.117 C 
ATOM      9  N   UNL A   1      32.553  25.352  24.124  1.00  0.00    -0.346 N 
ATOM     10  C   UNL A   1      32.542  26.250  23.014  1.00  0.00     0.134 C 
ATOM     11  C   UNL A   1      32.253  26.350  25.101  1.00  0.00     0.134 C 
BRANCH   9  12
ATOM     12  C   UNL A   1      33.296  24.242  24.324  1.00  0.00     0.186 A 
ATOM     13  C   UNL A   1      36.385  22.425  24.739  1.00  0.00     0.146 A 
ATOM     14  C   UNL A   1      36.645  21.057  24.927  1.00  0.00     0.050 A 
ATOM     15  C   UNL A   1      35.040  22.867  24.586  1.00  0.00     0.127 A 
ATOM     16  C   UNL A   1      35.608  20.132  24.941  1.00  0.00     0.026 A 
ATOM     17  C   UNL A   1      34.013  21.920  24.656  1.00  0.00     0.079 A 
ATOM     18  N   UNL A   1      34.608  24.176  24.359  1.00  0.00    -0.216 NA
ATOM     19  C   UNL A   1      34.284  20.549  24.812  1.00  0.00     0.060 A 
ATOM     20  S   UNL A   1      32.500  22.732  24.552  1.00  0.00    -0.095 S 
ATOM     21  Cl  UNL A   1      33.030  19.368  24.871  1.00  0.00    -0.083 Cl
BRANCH  13  22
ATOM     22  O   UNL A   1      37.389  23.365  24.797  1.00  0.00    -0.494 OA
ATOM     23  C   UNL A   1      37.732  23.801  26.109  1.00  0.00     0.278 C 
ENDBRANCH  13  22
ENDBRANCH   9  12
ENDBRANCH   5   8
ENDBRANCH   3   4
ENDBRANCH   2   3
ENDBRANCH   1   2
BRANCH   1  24
ATOM     24  C   UNL A   1      34.170  30.166  27.206  1.00  0.00     0.116 C 
BRANCH  24  25
ATOM     25  N   UNL A   1      34.066  31.299  28.122  1.00  0.00    -0.352 N 
ATOM     26  C   UNL A   1      34.874  31.606  29.196  1.00  0.00     0.251 C 
ATOM     27  H   UNL A   1      33.325  31.924  27.950  1.00  0.00     0.163 HD
ATOM     28  O   UNL A   1      34.477  32.369  30.069  1.00  0.00    -0.269 OA
BRANCH  26  29
ATOM     29  C   UNL A   1      36.216  31.004  29.285  1.00  0.00     0.039 A 
ATOM     30  C   UNL A   1      37.355  31.784  29.060  1.00  0.00     0.014 A 
ATOM     31  C   UNL A   1      36.327  29.645  29.576  1.00  0.00     0.014 A 
ATOM     32  C   UNL A   1      38.613  31.201  29.192  1.00  0.00     0.010 A 
ATOM     33  C   UNL A   1      37.565  29.094  29.809  1.00  0.00     0.010 A 
ATOM     34  C   UNL A   1      38.708  29.858  29.575  1.00  0.00    -0.014 A 
BRANCH  34  35
ATOM     35  C   UNL A   1      40.009  29.238  29.783  1.00  0.00     0.031 A 
ATOM     36  C   UNL A   1      40.497  29.193  31.189  1.00  0.00     0.074 A 
ATOM     37  C   UNL A   1      40.619  28.529  28.812  1.00  0.00     0.049 A 
ATOM     38  N   UNL A   1      41.541  29.772  31.687  1.00  0.00    -0.248 NA
ATOM     39  C   UNL A   1      39.677  28.478  32.178  1.00  0.00     0.031 C 
ATOM     40  C   UNL A   1      40.099  28.189  27.482  1.00  0.00     0.029 A 
ATOM     41  N   UNL A   1      41.781  27.825  28.875  1.00  0.00    -0.354 N 
ATOM     42  C   UNL A   1      41.628  29.320  33.003  1.00  0.00     0.074 A 
ATOM     43  C   UNL A   1      40.377  28.667  33.297  1.00  0.00     0.031 C 
ATOM     44  C   UNL A   1      40.810  27.159  26.976  1.00  0.00     0.029 A 
ATOM     45  C   UNL A   1      41.923  26.883  27.861  1.00  0.00     0.049 A 
ATOM     46  H   UNL A   1      42.458  27.969  29.574  1.00  0.00     0.167 HD
ATOM     47  C   UNL A   1      42.802  29.310  33.694  1.00  0.00     0.034 A 
ATOM     48  C   UNL A   1      42.866  25.913  27.808  1.00  0.00     0.034 A 
ATOM     49  C   UNL A   1      43.832  30.063  33.036  1.00  0.00     0.049 A 
ATOM     50  C   UNL A   1      43.979  26.361  28.675  1.00  0.00     0.074 A 
ATOM     51  C   UNL A   1      44.005  31.378  32.657  1.00  0.00     0.029 A 
ATOM     52  N   UNL A   1      44.760  29.339  32.329  1.00  0.00    -0.354 N 
ATOM     53  N   UNL A   1      44.710  27.415  28.435  1.00  0.00    -0.248 NA
ATOM     54  C   UNL A   1      44.069  25.833  30.026  1.00  0.00     0.031 C 
ATOM     55  C   UNL A   1      44.702  31.315  31.414  1.00  0.00     0.029 A 
ATOM     56  C   UNL A   1      44.944  29.970  31.127  1.00  0.00     0.049 A 
ATOM     57  H   UNL A   1      45.210  28.517  32.631  1.00  0.00     0.167 HD
ATOM     58  C   UNL A   1      44.999  27.931  29.690  1.00  0.00     0.074 A 
ATOM     59  C   UNL A   1      44.708  26.843  30.619  1.00  0.00     0.031 C 
ATOM     60  C   UNL A   1      45.166  29.273  29.877  1.00  0.00     0.034 A 
BRANCH  47  61
ATOM     61  C   UNL A   1      43.128  28.339  34.800  1.00  0.00     0.023 A 
ATOM     62  C   UNL A   1      43.586  28.852  36.032  1.00  0.00     0.012 A 
ATOM     63  C   UNL A   1      43.234  26.945  34.601  1.00  0.00     0.148 A 
ATOM     64  C   UNL A   1      44.120  28.015  37.019  1.00  0.00     0.002 A 
ATOM     65  C   UNL A   1      43.686  26.108  35.616  1.00  0.00     0.091 A 
ATOM     66  F   UNL A   1      43.028  26.431  33.383  1.00  0.00    -0.205 F 
ATOM     67  C   UNL A   1      44.151  26.639  36.820  1.00  0.00     0.022 A 
BRANCH  65  68
ATOM     68  S   UNL A   1      43.676  24.323  35.421  1.00  0.00     0.127 S 
ATOM     69  O   UNL A   1      44.409  23.895  36.609  1.00  0.00    -0.237 OA
ATOM     70  O   UNL A   1      42.243  24.024  35.434  1.00  0.00    -0.237 OA
ATOM     71  O   UNL A   1      44.321  24.083  34.136  1.00  0.00    -0.744 OA
ENDBRANCH  65  68
ENDBRANCH  47  61
BRANCH  48  72
ATOM     72  C   UNL A   1      42.790  24.528  27.283  1.00  0.00     0.023 A 
ATOM     73  C   UNL A   1      41.537  23.879  27.271  1.00  0.00     0.012 A 
ATOM     74  C   UNL A   1      43.836  23.958  26.522  1.00  0.00     0.148 A 
ATOM     75  C   UNL A   1      41.307  22.759  26.467  1.00  0.00     0.002 A 
ATOM     76  C   UNL A   1      43.606  22.832  25.735  1.00  0.00     0.091 A 
ATOM     77  F   UNL A   1      45.026  24.571  26.482  1.00  0.00    -0.205 F 
ATOM     78  C   UNL A   1      42.336  22.243  25.687  1.00  0.00     0.022 A 
BRANCH  76  79
ATOM     79  S   UNL A   1      44.896  22.120  24.704  1.00  0.00     0.127 S 
ATOM     80  O   UNL A   1      44.324  20.823  24.339  1.00  0.00    -0.237 OA
ATOM     81  O   UNL A   1      44.979  23.083  23.612  1.00  0.00    -0.237 OA
ATOM     82  O   UNL A   1      46.071  22.027  25.567  1.00  0.00    -0.744 OA
ENDBRANCH  76  79
ENDBRANCH  48  72
BRANCH  60  83
ATOM     83  C   UNL A   1      45.302  30.137  28.646  1.00  0.00     0.023 A 
ATOM     84  C   UNL A   1      44.182  30.519  27.876  1.00  0.00     0.012 A 
ATOM     85  C   UNL A   1      46.552  30.707  28.355  1.00  0.00     0.148 A 
ATOM     86  C   UNL A   1      44.309  31.432  26.827  1.00  0.00     0.002 A 
ATOM     87  C   UNL A   1      46.668  31.643  27.332  1.00  0.00     0.091 A 
ATOM     88  F   UNL A   1      47.602  30.346  29.107  1.00  0.00    -0.205 F 
ATOM     89  C   UNL A   1      45.550  32.003  26.562  1.00  0.00     0.022 A 
BRANCH  87  90
ATOM     90  S   UNL A   1      48.210  32.498  27.000  1.00  0.00     0.127 S 
ATOM     91  O   UNL A   1      49.072  31.409  26.544  1.00  0.00    -0.237 OA
ATOM     92  O   UNL A   1      47.821  33.447  25.955  1.00  0.00    -0.237 OA
ATOM     93  O   UNL A   1      48.605  33.123  28.256  1.00  0.00    -0.744 OA
ENDBRANCH  87  90
ENDBRANCH  60  83
ENDBRANCH  34  35
ENDBRANCH  26  29
ENDBRANCH  24  25
ENDBRANCH   1  24
TORSDOF 16
ENDMDL
MODEL 3
REMARK VINA RESULT:     -11.4      3.275      8.147
REMARK SMILES COc1ccc(Cl)c2sc(N3CC(C(=O)NCCCCNC(=O)c4ccc(-c5c6nc(c(-c7cccc(S(=O)(=O)[O-])c7F)c7ccc([nH]7)c(-c7cccc(S(=O)(=O)[O-])c7F)c7nc(c(-c8cccc(S(=O)(=O)[O-])c8F)c8ccc5[nH]8)C=C7)C=C6)cc4)C3)nc12
REMARK SMILES IDX 19 1 18 2 17 3 16 4 14 5 15 6 13 8 11 9 12 10 87 11 10 12
REMARK SMILES IDX 3 13 4 14 89 15 5 16 8 17 88 18 6 19 9 20 7 21 2 22 1 23
REMARK SMILES IDX 20 24 21 25 22 26 23 28 24 29 25 30 86 31 26 32 85 33 27 34
REMARK SMILES IDX 28 35 29 36 79 37 30 38 84 39 78 40 80 41 31 42 83 43 77 44
REMARK SMILES IDX 76 45 32 47 64 48 44 49 63 50 45 51 48 52 62 53 81 54 46 55
REMARK SMILES IDX 47 56 61 58 82 59 49 60 33 61 34 62 42 63 35 64 37 65 43 66
REMARK SMILES IDX 36 67 38 68 39 69 40 70 41 71 65 72 66 73 74 74 67 75 69 76
REMARK SMILES IDX 75 77 68 78 70 79 71 80 72 81 73 82 50 83 51 84 59 85 52 86
REMARK SMILES IDX 54 87 60 88 53 89 55 90 56 91 57 92 58 93
REMARK H PARENT 16 7 21 27 80 46 48 57
REMARK Flexibility Score: inf
ROOT
ATOM      1  C   UNL A   1      33.045  29.908  27.148  1.00  0.00     0.023 C 
ENDROOT
BRANCH   1   2
ATOM      2  C   UNL A   1      32.165  30.235  25.929  1.00  0.00     0.023 C 
BRANCH   2   3
ATOM      3  C   UNL A   1      31.426  29.047  25.300  1.00  0.00     0.116 C 
BRANCH   3   4
ATOM      4  N   UNL A   1      30.868  29.385  24.005  1.00  0.00    -0.356 N 
ATOM      5  C   UNL A   1      30.723  28.653  22.852  1.00  0.00     0.226 C 
ATOM      6  O   UNL A   1      30.279  29.283  21.878  1.00  0.00    -0.275 OA
ATOM      7  H   UNL A   1      30.530  30.308  23.941  1.00  0.00     0.163 HD
BRANCH   5   8
ATOM      8  C   UNL A   1      31.103  27.179  22.724  1.00  0.00     0.117 C 
ATOM      9  N   UNL A   1      32.094  25.759  23.851  1.00  0.00    -0.346 N 
ATOM     10  C   UNL A   1      30.722  26.146  23.784  1.00  0.00     0.134 C 
ATOM     11  C   UNL A   1      32.543  26.706  22.881  1.00  0.00     0.134 C 
BRANCH   9  12
ATOM     12  C   UNL A   1      32.635  24.543  24.085  1.00  0.00     0.186 A 
ATOM     13  C   UNL A   1      35.081  22.281  25.467  1.00  0.00     0.146 A 
ATOM     14  C   UNL A   1      35.215  20.885  25.380  1.00  0.00     0.050 A 
ATOM     15  C   UNL A   1      34.004  22.923  24.793  1.00  0.00     0.127 A 
ATOM     16  C   UNL A   1      34.324  20.130  24.626  1.00  0.00     0.026 A 
ATOM     17  C   UNL A   1      33.092  22.134  24.085  1.00  0.00     0.079 A 
ATOM     18  N   UNL A   1      33.742  24.295  24.746  1.00  0.00    -0.216 NA
ATOM     19  C   UNL A   1      33.252  20.741  23.976  1.00  0.00     0.060 A 
ATOM     20  S   UNL A   1      31.844  23.144  23.468  1.00  0.00    -0.095 S 
ATOM     21  Cl  UNL A   1      32.153  19.759  23.083  1.00  0.00    -0.083 Cl
BRANCH  13  22
ATOM     22  O   UNL A   1      35.907  23.037  26.267  1.00  0.00    -0.494 OA
ATOM     23  C   UNL A   1      36.962  23.706  25.582  1.00  0.00     0.278 C 
ENDBRANCH  13  22
ENDBRANCH   9  12
ENDBRANCH   5   8
ENDBRANCH   3   4
ENDBRANCH   2   3
ENDBRANCH   1   2
BRANCH   1  24
ATOM     24  C   UNL A   1      34.319  30.737  27.251  1.00  0.00     0.116 C 
BRANCH  24  25
ATOM     25  N   UNL A   1      34.212  31.793  28.255  1.00  0.00    -0.352 N 
ATOM     26  C   UNL A   1      34.948  31.952  29.409  1.00  0.00     0.251 C 
ATOM     27  H   UNL A   1      33.526  32.479  28.085  1.00  0.00     0.163 HD
ATOM     28  O   UNL A   1      34.529  32.663  30.316  1.00  0.00    -0.269 OA
BRANCH  26  29
ATOM     29  C   UNL A   1      36.239  31.255  29.543  1.00  0.00     0.039 A 
ATOM     30  C   UNL A   1      36.277  29.870  29.739  1.00  0.00     0.014 A 
ATOM     31  C   UNL A   1      37.416  32.001  29.493  1.00  0.00     0.014 A 
ATOM     32  C   UNL A   1      37.511  29.230  29.821  1.00  0.00     0.010 A 
ATOM     33  C   UNL A   1      38.632  31.360  29.469  1.00  0.00     0.010 A 
ATOM     34  C   UNL A   1      38.683  29.982  29.677  1.00  0.00    -0.014 A 
BRANCH  34  35
ATOM     35  C   UNL A   1      39.986  29.332  29.694  1.00  0.00     0.031 A 
ATOM     36  C   UNL A   1      40.572  29.073  31.038  1.00  0.00     0.074 A 
ATOM     37  C   UNL A   1      40.515  28.777  28.586  1.00  0.00     0.049 A 
ATOM     38  N   UNL A   1      41.658  29.565  31.541  1.00  0.00    -0.248 NA
ATOM     39  C   UNL A   1      39.813  28.220  31.966  1.00  0.00     0.031 C 
ATOM     40  C   UNL A   1      39.896  28.644  27.261  1.00  0.00     0.029 A 
ATOM     41  N   UNL A   1      41.667  28.067  28.458  1.00  0.00    -0.354 N 
ATOM     42  C   UNL A   1      41.831  28.919  32.764  1.00  0.00     0.074 A 
ATOM     43  C   UNL A   1      40.594  28.234  33.047  1.00  0.00     0.031 C 
ATOM     44  C   UNL A   1      40.554  27.699  26.555  1.00  0.00     0.029 A 
ATOM     45  C   UNL A   1      41.723  27.288  27.306  1.00  0.00     0.049 A 
ATOM     46  H   UNL A   1      42.395  28.100  29.120  1.00  0.00     0.167 HD
ATOM     47  C   UNL A   1      43.051  28.799  33.359  1.00  0.00     0.034 A 
ATOM     48  C   UNL A   1      42.645  26.334  27.039  1.00  0.00     0.034 A 
ATOM     49  C   UNL A   1      44.043  29.640  32.749  1.00  0.00     0.049 A 
ATOM     50  C   UNL A   1      43.824  26.641  27.881  1.00  0.00     0.074 A 
ATOM     51  C   UNL A   1      44.208  30.996  32.561  1.00  0.00     0.029 A 
ATOM     52  N   UNL A   1      44.907  29.027  31.876  1.00  0.00    -0.354 N 
ATOM     53  N   UNL A   1      44.551  27.715  27.750  1.00  0.00    -0.248 NA
ATOM     54  C   UNL A   1      44.001  25.913  29.126  1.00  0.00     0.031 C 
ATOM     55  C   UNL A   1      44.814  31.120  31.276  1.00  0.00     0.029 A 
ATOM     56  C   UNL A   1      45.015  29.832  30.772  1.00  0.00     0.049 A 
ATOM     57  H   UNL A   1      45.365  28.167  32.016  1.00  0.00     0.167 HD
ATOM     58  C   UNL A   1      44.936  28.034  29.045  1.00  0.00     0.074 A 
ATOM     59  C   UNL A   1      44.696  26.819  29.817  1.00  0.00     0.031 C 
ATOM     60  C   UNL A   1      45.136  29.332  29.418  1.00  0.00     0.034 A 
BRANCH  47  61
ATOM     61  C   UNL A   1      43.439  27.671  34.279  1.00  0.00     0.023 A 
ATOM     62  C   UNL A   1      43.932  27.989  35.562  1.00  0.00     0.012 A 
ATOM     63  C   UNL A   1      43.569  26.331  33.852  1.00  0.00     0.148 A 
ATOM     64  C   UNL A   1      44.522  27.018  36.381  1.00  0.00     0.002 A 
ATOM     65  C   UNL A   1      44.077  25.354  34.700  1.00  0.00     0.091 A 
ATOM     66  F   UNL A   1      43.328  26.018  32.573  1.00  0.00    -0.205 F 
ATOM     67  C   UNL A   1      44.576  25.694  35.958  1.00  0.00     0.022 A 
BRANCH  65  68
ATOM     68  S   UNL A   1      44.100  23.625  34.216  1.00  0.00     0.127 S 
ATOM     69  O   UNL A   1      45.013  23.056  35.202  1.00  0.00    -0.237 OA
ATOM     70  O   UNL A   1      42.695  23.245  34.378  1.00  0.00    -0.237 OA
ATOM     71  O   UNL A   1      44.556  23.629  32.831  1.00  0.00    -0.744 OA
ENDBRANCH  65  68
ENDBRANCH  47  61
BRANCH  48  72
ATOM     72  C   UNL A   1      42.512  25.044  26.318  1.00  0.00     0.023 A 
ATOM     73  C   UNL A   1      43.482  24.711  25.349  1.00  0.00     0.012 A 
ATOM     74  C   UNL A   1      41.652  24.018  26.773  1.00  0.00     0.148 A 
ATOM     75  C   UNL A   1      43.649  23.393  24.913  1.00  0.00     0.002 A 
ATOM     76  C   UNL A   1      41.814  22.710  26.323  1.00  0.00     0.091 A 
ATOM     77  F   UNL A   1      40.747  24.294  27.720  1.00  0.00    -0.205 F 
ATOM     78  C   UNL A   1      42.826  22.389  25.411  1.00  0.00     0.022 A 
BRANCH  76  79
ATOM     79  S   UNL A   1      40.780  21.368  26.930  1.00  0.00     0.127 S 
ATOM     80  O   UNL A   1      40.982  21.450  28.377  1.00  0.00    -0.237 OA
ATOM     81  O   UNL A   1      39.456  21.774  26.472  1.00  0.00    -0.237 OA
ATOM     82  O   UNL A   1      41.325  20.158  26.323  1.00  0.00    -0.744 OA
ENDBRANCH  76  79
ENDBRANCH  48  72
BRANCH  60  83
ATOM     83  C   UNL A   1      45.198  30.371  28.325  1.00  0.00     0.023 A 
ATOM     84  C   UNL A   1      44.033  30.865  27.701  1.00  0.00     0.012 A 
ATOM     85  C   UNL A   1      46.430  30.980  28.039  1.00  0.00     0.148 A 
ATOM     86  C   UNL A   1      44.097  31.926  26.795  1.00  0.00     0.002 A 
ATOM     87  C   UNL A   1      46.487  32.060  27.164  1.00  0.00     0.091 A 
ATOM     88  F   UNL A   1      47.525  30.510  28.654  1.00  0.00    -0.205 F 
ATOM     89  C   UNL A   1      45.323  32.531  26.535  1.00  0.00     0.022 A 
BRANCH  87  90
ATOM     90  S   UNL A   1      48.011  32.955  26.859  1.00  0.00     0.127 S 
ATOM     91  O   UNL A   1      48.933  31.879  26.501  1.00  0.00    -0.237 OA
ATOM     92  O   UNL A   1      47.640  33.834  25.749  1.00  0.00    -0.237 OA
ATOM     93  O   UNL A   1      48.322  33.657  28.098  1.00  0.00    -0.744 OA
ENDBRANCH  87  90
ENDBRANCH  60  83
ENDBRANCH  34  35
ENDBRANCH  26  29
ENDBRANCH  24  25
ENDBRANCH   1  24
TORSDOF 16
ENDMDL
