MODEL 1
REMARK VINA RESULT:     -12.4      0.000      0.000
REMARK SMILES O=C(NCCCCNC(=O)[C@H]1CC[C@H]2CCCC[C@@H]2[N@H+]1[C@@H]1CCCSC1)c1ccc(-c2c3nc(c(-c4cccc(S(=O)(=O)[O-])c4F)c4ccc([nH]4)c(-c4cccc(S(=O)(=O)[O-])c4F)c4nc(c(-c5cccc(S(=O)(=O)[O-])c5F)c5ccc2[nH]5)C=C4)C=C3)cc1
REMARK SMILES IDX 4 1 3 2 1 3 2 4 27 6 28 7 89 8 29 9 88 10 30 11 31 12 32 13
REMARK SMILES IDX 82 14 33 15 87 16 81 17 83 18 34 19 86 20 80 21 79 22 35 24
REMARK SMILES IDX 67 25 47 26 66 27 48 28 51 29 65 30 84 31 49 32 50 33 64 35
REMARK SMILES IDX 85 36 52 37 36 38 37 39 45 40 38 41 40 42 46 43 39 44 41 45
REMARK SMILES IDX 42 46 43 47 44 48 68 49 69 50 77 51 70 52 72 53 78 54 71 55
REMARK SMILES IDX 73 56 74 57 75 58 76 59 53 60 54 61 62 62 55 63 57 64 63 65
REMARK SMILES IDX 56 66 58 67 59 68 60 69 61 70 5 71 6 72 7 73 8 74 9 75 10 77
REMARK SMILES IDX 11 78 12 79 20 80 13 81 19 82 14 84 18 85 15 86 17 87 16 88
REMARK SMILES IDX 21 89 22 90 26 91 23 92 25 93 24 94
REMARK H PARENT 3 5 83 23 51 34 8 76 20 83
REMARK Flexibility Score: inf
ROOT
ATOM      1  C   UNL A   1      32.383  30.555  26.302  1.00  0.00     0.116 C 
ENDROOT
BRANCH   1   2
ATOM      2  N   UNL A   1      32.138  31.928  26.730  1.00  0.00    -0.352 N 
ATOM      3  O   UNL A   1      32.625  33.873  27.786  1.00  0.00    -0.269 OA
ATOM      4  C   UNL A   1      32.982  32.750  27.447  1.00  0.00     0.251 C 
ATOM      5  H   UNL A   1      31.268  32.313  26.479  1.00  0.00     0.163 HD
BRANCH   4   6
ATOM      6  C   UNL A   1      34.305  32.219  27.838  1.00  0.00     0.039 A 
ATOM      7  C   UNL A   1      34.405  30.914  28.319  1.00  0.00     0.014 A 
ATOM      8  C   UNL A   1      35.411  33.072  27.857  1.00  0.00     0.014 A 
ATOM      9  C   UNL A   1      35.553  30.529  28.999  1.00  0.00     0.010 A 
ATOM     10  C   UNL A   1      36.600  32.643  28.454  1.00  0.00     0.010 A 
ATOM     11  C   UNL A   1      36.663  31.389  29.080  1.00  0.00    -0.014 A 
BRANCH  11  12
ATOM     12  C   UNL A   1      37.878  30.917  29.797  1.00  0.00     0.031 A 
ATOM     13  C   UNL A   1      38.152  31.291  31.231  1.00  0.00     0.074 A 
ATOM     14  C   UNL A   1      38.713  30.084  29.147  1.00  0.00     0.049 A 
ATOM     15  N   UNL A   1      39.119  30.881  32.012  1.00  0.00    -0.248 NA
ATOM     16  C   UNL A   1      37.236  32.248  31.871  1.00  0.00     0.031 C 
ATOM     17  C   UNL A   1      38.580  29.696  27.740  1.00  0.00     0.029 A 
ATOM     18  N   UNL A   1      39.818  29.396  29.577  1.00  0.00    -0.354 N 
ATOM     19  C   UNL A   1      38.956  31.554  33.217  1.00  0.00     0.074 A 
ATOM     20  C   UNL A   1      37.796  32.408  33.065  1.00  0.00     0.031 C 
ATOM     21  C   UNL A   1      39.528  28.801  27.438  1.00  0.00     0.029 A 
ATOM     22  C   UNL A   1      40.369  28.588  28.612  1.00  0.00     0.049 A 
ATOM     23  H   UNL A   1      40.181  29.474  30.489  1.00  0.00     0.167 HD
ATOM     24  C   UNL A   1      39.690  31.455  34.351  1.00  0.00     0.034 A 
ATOM     25  C   UNL A   1      41.432  27.763  28.658  1.00  0.00     0.034 A 
ATOM     26  C   UNL A   1      40.817  30.570  34.513  1.00  0.00     0.049 A 
ATOM     27  C   UNL A   1      42.178  27.617  29.951  1.00  0.00     0.074 A 
ATOM     28  C   UNL A   1      41.607  30.378  35.634  1.00  0.00     0.029 A 
ATOM     29  N   UNL A   1      41.307  29.723  33.531  1.00  0.00    -0.354 N 
ATOM     30  N   UNL A   1      41.939  28.187  31.107  1.00  0.00    -0.248 NA
ATOM     31  C   UNL A   1      43.321  26.695  29.955  1.00  0.00     0.031 C 
ATOM     32  C   UNL A   1      42.573  29.413  35.329  1.00  0.00     0.029 A 
ATOM     33  C   UNL A   1      42.382  29.000  34.021  1.00  0.00     0.049 A 
ATOM     34  H   UNL A   1      40.943  29.646  32.619  1.00  0.00     0.167 HD
ATOM     35  C   UNL A   1      42.903  27.694  31.977  1.00  0.00     0.074 A 
ATOM     36  C   UNL A   1      43.696  26.742  31.227  1.00  0.00     0.031 C 
ATOM     37  C   UNL A   1      43.134  28.027  33.271  1.00  0.00     0.034 A 
BRANCH  24  38
ATOM     38  C   UNL A   1      39.270  32.280  35.541  1.00  0.00     0.023 A 
ATOM     39  C   UNL A   1      38.456  31.691  36.531  1.00  0.00     0.012 A 
ATOM     40  C   UNL A   1      39.746  33.593  35.729  1.00  0.00     0.148 A 
ATOM     41  C   UNL A   1      38.106  32.402  37.679  1.00  0.00     0.002 A 
ATOM     42  C   UNL A   1      39.420  34.283  36.893  1.00  0.00     0.091 A 
ATOM     43  F   UNL A   1      40.501  34.144  34.769  1.00  0.00    -0.205 F 
ATOM     44  C   UNL A   1      38.597  33.691  37.865  1.00  0.00     0.022 A 
BRANCH  42  45
ATOM     45  S   UNL A   1      40.059  35.924  37.257  1.00  0.00     0.127 S 
ATOM     46  O   UNL A   1      39.347  36.250  38.492  1.00  0.00    -0.237 OA
ATOM     47  O   UNL A   1      41.490  35.670  37.428  1.00  0.00    -0.237 OA
ATOM     48  O   UNL A   1      39.725  36.746  36.103  1.00  0.00    -0.744 OA
ENDBRANCH  42  45
ENDBRANCH  24  38
BRANCH  25  49
ATOM     49  C   UNL A   1      41.799  26.979  27.447  1.00  0.00     0.023 A 
ATOM     50  C   UNL A   1      42.433  27.620  26.367  1.00  0.00     0.012 A 
ATOM     51  C   UNL A   1      41.600  25.587  27.397  1.00  0.00     0.148 A 
ATOM     52  C   UNL A   1      42.848  26.889  25.253  1.00  0.00     0.002 A 
ATOM     53  C   UNL A   1      42.075  24.856  26.315  1.00  0.00     0.091 A 
ATOM     54  F   UNL A   1      40.972  24.991  28.423  1.00  0.00    -0.205 F 
ATOM     55  C   UNL A   1      42.686  25.505  25.234  1.00  0.00     0.022 A 
BRANCH  53  56
ATOM     56  S   UNL A   1      42.049  23.060  26.330  1.00  0.00     0.127 S 
ATOM     57  O   UNL A   1      42.670  22.736  25.050  1.00  0.00    -0.237 OA
ATOM     58  O   UNL A   1      42.860  22.741  27.506  1.00  0.00    -0.237 OA
ATOM     59  O   UNL A   1      40.640  22.712  26.473  1.00  0.00    -0.744 OA
ENDBRANCH  53  56
ENDBRANCH  25  49
BRANCH  37  60
ATOM     60  C   UNL A   1      44.303  27.365  33.946  1.00  0.00     0.023 A 
ATOM     61  C   UNL A   1      45.577  27.961  33.850  1.00  0.00     0.012 A 
ATOM     62  C   UNL A   1      44.143  26.189  34.700  1.00  0.00     0.148 A 
ATOM     63  C   UNL A   1      46.681  27.374  34.467  1.00  0.00     0.002 A 
ATOM     64  C   UNL A   1      45.242  25.631  35.344  1.00  0.00     0.091 A 
ATOM     65  F   UNL A   1      42.928  25.623  34.758  1.00  0.00    -0.205 F 
ATOM     66  C   UNL A   1      46.512  26.216  35.222  1.00  0.00     0.022 A 
BRANCH  64  67
ATOM     67  S   UNL A   1      45.087  24.180  36.394  1.00  0.00     0.127 S 
ATOM     68  O   UNL A   1      46.482  23.894  36.716  1.00  0.00    -0.237 OA
ATOM     69  O   UNL A   1      44.292  24.682  37.516  1.00  0.00    -0.237 OA
ATOM     70  O   UNL A   1      44.405  23.183  35.579  1.00  0.00    -0.744 OA
ENDBRANCH  64  67
ENDBRANCH  37  60
ENDBRANCH  11  12
ENDBRANCH   4   6
ENDBRANCH   1   2
BRANCH   1  71
ATOM     71  C   UNL A   1      31.401  30.035  25.257  1.00  0.00     0.023 C 
BRANCH  71  72
ATOM     72  C   UNL A   1      31.741  28.681  24.649  1.00  0.00     0.023 C 
BRANCH  72  73
ATOM     73  C   UNL A   1      33.197  28.271  24.780  1.00  0.00     0.116 C 
BRANCH  73  74
ATOM     74  N   UNL A   1      33.798  27.795  23.560  1.00  0.00    -0.351 N 
ATOM     75  C   UNL A   1      33.553  26.646  22.865  1.00  0.00     0.278 C 
ATOM     76  H   UNL A   1      34.485  28.383  23.172  1.00  0.00     0.163 HD
ATOM     77  O   UNL A   1      33.989  26.605  21.706  1.00  0.00    -0.268 OA
BRANCH  75  78
ATOM     78  C   UNL A   1      32.816  25.418  23.464  1.00  0.00     0.274 C 
ATOM     79  C   UNL A   1      32.101  24.501  22.455  1.00  0.00     0.076 C 
ATOM     80  N   UNL A   1      33.502  24.742  24.601  1.00  0.00    -0.319 N 
ATOM     81  C   UNL A   1      31.512  23.244  23.107  1.00  0.00     0.016 C 
ATOM     82  C   UNL A   1      32.624  23.792  25.310  1.00  0.00     0.188 C 
ATOM     83  H   UNL A   1      33.679  25.520  25.237  1.00  0.00     0.349 HD
ATOM     84  C   UNL A   1      31.284  23.482  24.596  1.00  0.00     0.048 C 
ATOM     85  C   UNL A   1      32.289  24.289  26.726  1.00  0.00     0.065 C 
ATOM     86  C   UNL A   1      30.616  22.297  25.298  1.00  0.00     0.010 C 
ATOM     87  C   UNL A   1      31.541  23.199  27.504  1.00  0.00     0.006 C 
ATOM     88  C   UNL A   1      30.322  22.648  26.758  1.00  0.00     0.001 C 
BRANCH  80  89
ATOM     89  C   UNL A   1      34.897  24.279  24.408  1.00  0.00     0.194 C 
ATOM     90  C   UNL A   1      35.059  23.038  23.493  1.00  0.00     0.067 C 
ATOM     91  C   UNL A   1      35.585  24.003  25.767  1.00  0.00     0.134 C 
ATOM     92  C   UNL A   1      36.521  22.761  23.138  1.00  0.00     0.017 C 
ATOM     93  S   UNL A   1      37.380  23.708  25.599  1.00  0.00    -0.156 SA
ATOM     94  C   UNL A   1      37.356  22.387  24.354  1.00  0.00     0.070 C 
ENDBRANCH  80  89
ENDBRANCH  75  78
ENDBRANCH  73  74
ENDBRANCH  72  73
ENDBRANCH  71  72
ENDBRANCH   1  71
TORSDOF 15
ENDMDL
MODEL 2
REMARK VINA RESULT:     -12.4      4.751      9.970
REMARK SMILES O=C(NCCCCNC(=O)[C@H]1CC[C@H]2CCCC[C@@H]2[N@H+]1[C@@H]1CCCSC1)c1ccc(-c2c3nc(c(-c4cccc(S(=O)(=O)[O-])c4F)c4ccc([nH]4)c(-c4cccc(S(=O)(=O)[O-])c4F)c4nc(c(-c5cccc(S(=O)(=O)[O-])c5F)c5ccc2[nH]5)C=C4)C=C3)cc1
REMARK SMILES IDX 4 1 3 2 1 3 2 4 27 6 28 7 89 8 29 9 88 10 30 11 31 12 32 13
REMARK SMILES IDX 82 14 33 15 87 16 81 17 83 18 34 19 86 20 80 21 79 22 35 24
REMARK SMILES IDX 67 25 47 26 66 27 48 28 51 29 65 30 84 31 49 32 50 33 64 35
REMARK SMILES IDX 85 36 52 37 36 38 37 39 45 40 38 41 40 42 46 43 39 44 41 45
REMARK SMILES IDX 42 46 43 47 44 48 68 49 69 50 77 51 70 52 72 53 78 54 71 55
REMARK SMILES IDX 73 56 74 57 75 58 76 59 53 60 54 61 62 62 55 63 57 64 63 65
REMARK SMILES IDX 56 66 58 67 59 68 60 69 61 70 5 71 6 72 7 73 8 74 9 75 10 77
REMARK SMILES IDX 11 78 12 79 20 80 13 81 19 82 14 84 18 85 15 86 17 87 16 88
REMARK SMILES IDX 21 89 22 90 26 91 23 92 25 93 24 94
REMARK H PARENT 3 5 83 23 51 34 8 76 20 83
REMARK Flexibility Score: inf
ROOT
ATOM      1  C   UNL A   1      36.064  22.179  26.060  1.00  0.00     0.116 C 
ENDROOT
BRANCH   1   2
ATOM      2  N   UNL A   1      37.074  21.233  25.597  1.00  0.00    -0.352 N 
ATOM      3  O   UNL A   1      39.182  20.476  25.253  1.00  0.00    -0.269 OA
ATOM      4  C   UNL A   1      38.443  21.324  25.740  1.00  0.00     0.251 C 
ATOM      5  H   UNL A   1      36.739  20.436  25.127  1.00  0.00     0.163 HD
BRANCH   4   6
ATOM      6  C   UNL A   1      38.992  22.499  26.450  1.00  0.00     0.039 A 
ATOM      7  C   UNL A   1      38.540  23.775  26.115  1.00  0.00     0.014 A 
ATOM      8  C   UNL A   1      40.053  22.330  27.342  1.00  0.00     0.014 A 
ATOM      9  C   UNL A   1      39.278  24.881  26.516  1.00  0.00     0.010 A 
ATOM     10  C   UNL A   1      40.730  23.454  27.825  1.00  0.00     0.010 A 
ATOM     11  C   UNL A   1      40.385  24.736  27.371  1.00  0.00    -0.014 A 
BRANCH  11  12
ATOM     12  C   UNL A   1      41.123  25.956  27.793  1.00  0.00     0.031 A 
ATOM     13  C   UNL A   1      42.535  26.228  27.341  1.00  0.00     0.074 A 
ATOM     14  C   UNL A   1      40.473  26.860  28.551  1.00  0.00     0.049 A 
ATOM     15  N   UNL A   1      43.271  27.289  27.553  1.00  0.00    -0.248 NA
ATOM     16  C   UNL A   1      43.214  25.179  26.563  1.00  0.00     0.031 C 
ATOM     17  C   UNL A   1      39.124  26.680  29.093  1.00  0.00     0.029 A 
ATOM     18  N   UNL A   1      40.838  28.110  28.977  1.00  0.00    -0.354 N 
ATOM     19  C   UNL A   1      44.506  27.027  26.973  1.00  0.00     0.074 A 
ATOM     20  C   UNL A   1      44.426  25.698  26.402  1.00  0.00     0.031 C 
ATOM     21  C   UNL A   1      38.753  27.797  29.732  1.00  0.00     0.029 A 
ATOM     22  C   UNL A   1      39.855  28.753  29.690  1.00  0.00     0.049 A 
ATOM     23  H   UNL A   1      41.719  28.508  28.790  1.00  0.00     0.167 HD
ATOM     24  C   UNL A   1      45.599  27.825  26.903  1.00  0.00     0.034 A 
ATOM     25  C   UNL A   1      39.833  29.977  30.251  1.00  0.00     0.034 A 
ATOM     26  C   UNL A   1      45.659  29.165  27.433  1.00  0.00     0.049 A 
ATOM     27  C   UNL A   1      41.030  30.867  30.090  1.00  0.00     0.074 A 
ATOM     28  C   UNL A   1      46.712  30.063  27.386  1.00  0.00     0.029 A 
ATOM     29  N   UNL A   1      44.622  29.802  28.096  1.00  0.00    -0.354 N 
ATOM     30  N   UNL A   1      42.148  30.634  29.446  1.00  0.00    -0.248 NA
ATOM     31  C   UNL A   1      40.953  32.197  30.708  1.00  0.00     0.031 C 
ATOM     32  C   UNL A   1      46.309  31.244  28.019  1.00  0.00     0.029 A 
ATOM     33  C   UNL A   1      45.005  31.084  28.456  1.00  0.00     0.049 A 
ATOM     34  H   UNL A   1      43.741  29.403  28.282  1.00  0.00     0.167 HD
ATOM     35  C   UNL A   1      42.909  31.787  29.581  1.00  0.00     0.074 A 
ATOM     36  C   UNL A   1      42.104  32.735  30.325  1.00  0.00     0.031 C 
ATOM     37  C   UNL A   1      44.175  32.027  29.160  1.00  0.00     0.034 A 
BRANCH  24  38
ATOM     38  C   UNL A   1      46.811  27.304  26.175  1.00  0.00     0.023 A 
ATOM     39  C   UNL A   1      46.943  27.556  24.794  1.00  0.00     0.012 A 
ATOM     40  C   UNL A   1      47.855  26.651  26.861  1.00  0.00     0.148 A 
ATOM     41  C   UNL A   1      48.086  27.150  24.103  1.00  0.00     0.002 A 
ATOM     42  C   UNL A   1      49.005  26.279  26.171  1.00  0.00     0.091 A 
ATOM     43  F   UNL A   1      47.703  26.402  28.169  1.00  0.00    -0.205 F 
ATOM     44  C   UNL A   1      49.119  26.524  24.792  1.00  0.00     0.022 A 
BRANCH  42  45
ATOM     45  S   UNL A   1      50.421  25.527  26.985  1.00  0.00     0.127 S 
ATOM     46  O   UNL A   1      50.808  26.573  27.930  1.00  0.00    -0.237 OA
ATOM     47  O   UNL A   1      49.831  24.338  27.601  1.00  0.00    -0.237 OA
ATOM     48  O   UNL A   1      51.384  25.246  25.929  1.00  0.00    -0.744 OA
ENDBRANCH  42  45
ENDBRANCH  24  38
BRANCH  25  49
ATOM     49  C   UNL A   1      38.607  30.432  30.961  1.00  0.00     0.023 A 
ATOM     50  C   UNL A   1      38.515  30.286  32.357  1.00  0.00     0.012 A 
ATOM     51  C   UNL A   1      37.569  31.085  30.270  1.00  0.00     0.148 A 
ATOM     52  C   UNL A   1      37.404  30.771  33.050  1.00  0.00     0.002 A 
ATOM     53  C   UNL A   1      36.497  31.623  30.973  1.00  0.00     0.091 A 
ATOM     54  F   UNL A   1      37.657  31.195  28.935  1.00  0.00    -0.205 F 
ATOM     55  C   UNL A   1      36.404  31.454  32.361  1.00  0.00     0.022 A 
BRANCH  53  56
ATOM     56  S   UNL A   1      35.283  32.661  30.153  1.00  0.00     0.127 S 
ATOM     57  O   UNL A   1      34.786  31.777  29.104  1.00  0.00    -0.237 OA
ATOM     58  O   UNL A   1      34.327  32.940  31.227  1.00  0.00    -0.237 OA
ATOM     59  O   UNL A   1      36.033  33.832  29.714  1.00  0.00    -0.744 OA
ENDBRANCH  53  56
ENDBRANCH  25  49
BRANCH  37  60
ATOM     60  C   UNL A   1      44.768  33.364  29.512  1.00  0.00     0.023 A 
ATOM     61  C   UNL A   1      45.489  33.499  30.716  1.00  0.00     0.012 A 
ATOM     62  C   UNL A   1      44.649  34.467  28.647  1.00  0.00     0.148 A 
ATOM     63  C   UNL A   1      46.053  34.724  31.069  1.00  0.00     0.002 A 
ATOM     64  C   UNL A   1      45.248  35.675  28.989  1.00  0.00     0.091 A 
ATOM     65  F   UNL A   1      43.938  34.326  27.518  1.00  0.00    -0.205 F 
ATOM     66  C   UNL A   1      45.942  35.807  30.202  1.00  0.00     0.022 A 
BRANCH  64  67
ATOM     67  S   UNL A   1      45.209  37.095  27.888  1.00  0.00     0.127 S 
ATOM     68  O   UNL A   1      45.888  38.112  28.687  1.00  0.00    -0.237 OA
ATOM     69  O   UNL A   1      45.969  36.621  26.730  1.00  0.00    -0.237 OA
ATOM     70  O   UNL A   1      43.798  37.337  27.617  1.00  0.00    -0.744 OA
ENDBRANCH  64  67
ENDBRANCH  37  60
ENDBRANCH  11  12
ENDBRANCH   4   6
ENDBRANCH   1   2
BRANCH   1  71
ATOM     71  C   UNL A   1      35.305  22.888  24.944  1.00  0.00     0.023 C 
BRANCH  71  72
ATOM     72  C   UNL A   1      34.774  24.274  25.285  1.00  0.00     0.023 C 
BRANCH  72  73
ATOM     73  C   UNL A   1      33.515  24.676  24.535  1.00  0.00     0.116 C 
BRANCH  73  74
ATOM     74  N   UNL A   1      33.742  25.151  23.194  1.00  0.00    -0.351 N 
ATOM     75  C   UNL A   1      33.050  26.083  22.476  1.00  0.00     0.278 C 
ATOM     76  H   UNL A   1      34.508  24.746  22.728  1.00  0.00     0.163 HD
ATOM     77  O   UNL A   1      33.611  26.520  21.463  1.00  0.00    -0.268 OA
BRANCH  75  78
ATOM     78  C   UNL A   1      31.619  26.563  22.844  1.00  0.00     0.274 C 
ATOM     79  C   UNL A   1      30.622  25.463  23.252  1.00  0.00     0.076 C 
ATOM     80  N   UNL A   1      31.541  27.841  23.604  1.00  0.00    -0.319 N 
ATOM     81  C   UNL A   1      29.277  26.026  23.727  1.00  0.00     0.016 C 
ATOM     82  C   UNL A   1      30.172  28.389  23.655  1.00  0.00     0.188 C 
ATOM     83  H   UNL A   1      32.095  28.470  23.023  1.00  0.00     0.349 HD
ATOM     84  C   UNL A   1      29.064  27.426  23.161  1.00  0.00     0.048 C 
ATOM     85  C   UNL A   1      30.058  29.685  22.836  1.00  0.00     0.065 C 
ATOM     86  C   UNL A   1      27.700  28.019  23.524  1.00  0.00     0.010 C 
ATOM     87  C   UNL A   1      28.686  30.333  23.064  1.00  0.00     0.006 C 
ATOM     88  C   UNL A   1      27.515  29.372  22.834  1.00  0.00     0.001 C 
BRANCH  80  89
ATOM     89  C   UNL A   1      32.308  27.958  24.868  1.00  0.00     0.194 C 
ATOM     90  C   UNL A   1      31.454  27.938  26.162  1.00  0.00     0.067 C 
ATOM     91  C   UNL A   1      33.197  29.226  24.865  1.00  0.00     0.134 C 
ATOM     92  C   UNL A   1      32.309  27.815  27.424  1.00  0.00     0.017 C 
ATOM     93  S   UNL A   1      34.369  29.266  26.266  1.00  0.00    -0.156 SA
ATOM     94  C   UNL A   1      33.208  29.023  27.640  1.00  0.00     0.070 C 
ENDBRANCH  80  89
ENDBRANCH  75  78
ENDBRANCH  73  74
ENDBRANCH  72  73
ENDBRANCH  71  72
ENDBRANCH   1  71
TORSDOF 15
ENDMDL
MODEL 3
REMARK VINA RESULT:     -12.3      1.271      1.444
REMARK SMILES O=C(NCCCCNC(=O)[C@H]1CC[C@H]2CCCC[C@@H]2[N@H+]1[C@@H]1CCCSC1)c1ccc(-c2c3nc(c(-c4cccc(S(=O)(=O)[O-])c4F)c4ccc([nH]4)c(-c4cccc(S(=O)(=O)[O-])c4F)c4nc(c(-c5cccc(S(=O)(=O)[O-])c5F)c5ccc2[nH]5)C=C4)C=C3)cc1
REMARK SMILES IDX 4 1 3 2 1 3 2 4 27 6 28 7 89 8 29 9 88 10 30 11 31 12 32 13
REMARK SMILES IDX 82 14 33 15 87 16 81 17 83 18 34 19 86 20 80 21 79 22 35 24
REMARK SMILES IDX 67 25 47 26 66 27 48 28 51 29 65 30 84 31 49 32 50 33 64 35
REMARK SMILES IDX 85 36 52 37 36 38 37 39 45 40 38 41 40 42 46 43 39 44 41 45
REMARK SMILES IDX 42 46 43 47 44 48 68 49 69 50 77 51 70 52 72 53 78 54 71 55
REMARK SMILES IDX 73 56 74 57 75 58 76 59 53 60 54 61 62 62 55 63 57 64 63 65
REMARK SMILES IDX 56 66 58 67 59 68 60 69 61 70 5 71 6 72 7 73 8 74 9 75 10 77
REMARK SMILES IDX 11 78 12 79 20 80 13 81 19 82 14 84 18 85 15 86 17 87 16 88
REMARK SMILES IDX 21 89 22 90 26 91 23 92 25 93 24 94
REMARK H PARENT 3 5 83 23 51 34 8 76 20 83
REMARK Flexibility Score: inf
ROOT
ATOM      1  C   UNL A   1      32.487  30.417  26.380  1.00  0.00     0.116 C 
ENDROOT
BRANCH   1   2
ATOM      2  N   UNL A   1      32.238  31.791  26.803  1.00  0.00    -0.352 N 
ATOM      3  O   UNL A   1      32.723  33.745  27.842  1.00  0.00    -0.269 OA
ATOM      4  C   UNL A   1      33.084  32.623  27.506  1.00  0.00     0.251 C 
ATOM      5  H   UNL A   1      31.363  32.169  26.558  1.00  0.00     0.163 HD
BRANCH   4   6
ATOM      6  C   UNL A   1      34.414  32.102  27.887  1.00  0.00     0.039 A 
ATOM      7  C   UNL A   1      34.530  30.794  28.357  1.00  0.00     0.014 A 
ATOM      8  C   UNL A   1      35.511  32.966  27.907  1.00  0.00     0.014 A 
ATOM      9  C   UNL A   1      35.685  30.416  29.028  1.00  0.00     0.010 A 
ATOM     10  C   UNL A   1      36.708  32.544  28.495  1.00  0.00     0.010 A 
ATOM     11  C   UNL A   1      36.787  31.287  29.111  1.00  0.00    -0.014 A 
BRANCH  11  12
ATOM     12  C   UNL A   1      38.010  30.821  29.818  1.00  0.00     0.031 A 
ATOM     13  C   UNL A   1      38.295  31.200  31.249  1.00  0.00     0.074 A 
ATOM     14  C   UNL A   1      38.843  29.990  29.163  1.00  0.00     0.049 A 
ATOM     15  N   UNL A   1      39.271  30.796  32.022  1.00  0.00    -0.248 NA
ATOM     16  C   UNL A   1      37.380  32.155  31.894  1.00  0.00     0.031 C 
ATOM     17  C   UNL A   1      38.699  29.599  27.758  1.00  0.00     0.029 A 
ATOM     18  N   UNL A   1      39.954  29.309  29.585  1.00  0.00    -0.354 N 
ATOM     19  C   UNL A   1      39.115  31.471  33.226  1.00  0.00     0.074 A 
ATOM     20  C   UNL A   1      37.950  32.319  33.083  1.00  0.00     0.031 C 
ATOM     21  C   UNL A   1      39.648  28.707  27.450  1.00  0.00     0.029 A 
ATOM     22  C   UNL A   1      40.500  28.500  28.616  1.00  0.00     0.049 A 
ATOM     23  H   UNL A   1      40.325  29.390  30.493  1.00  0.00     0.167 HD
ATOM     24  C   UNL A   1      39.860  31.378  34.355  1.00  0.00     0.034 A 
ATOM     25  C   UNL A   1      41.567  27.681  28.655  1.00  0.00     0.034 A 
ATOM     26  C   UNL A   1      40.991  30.499  34.509  1.00  0.00     0.049 A 
ATOM     27  C   UNL A   1      42.325  27.540  29.941  1.00  0.00     0.074 A 
ATOM     28  C   UNL A   1      41.792  30.312  35.623  1.00  0.00     0.029 A 
ATOM     29  N   UNL A   1      41.476  29.651  33.524  1.00  0.00    -0.354 N 
ATOM     30  N   UNL A   1      42.094  28.112  31.099  1.00  0.00    -0.248 NA
ATOM     31  C   UNL A   1      43.472  26.623  29.937  1.00  0.00     0.031 C 
ATOM     32  C   UNL A   1      42.760  29.350  35.312  1.00  0.00     0.029 A 
ATOM     33  C   UNL A   1      42.559  28.934  34.006  1.00  0.00     0.049 A 
ATOM     34  H   UNL A   1      41.105  29.570  32.616  1.00  0.00     0.167 HD
ATOM     35  C   UNL A   1      43.067  27.625  31.961  1.00  0.00     0.074 A 
ATOM     36  C   UNL A   1      43.858  26.675  31.206  1.00  0.00     0.031 C 
ATOM     37  C   UNL A   1      43.308  27.963  33.252  1.00  0.00     0.034 A 
BRANCH  24  38
ATOM     38  C   UNL A   1      39.446  32.203  35.546  1.00  0.00     0.023 A 
ATOM     39  C   UNL A   1      39.835  33.558  35.611  1.00  0.00     0.012 A 
ATOM     40  C   UNL A   1      38.608  31.677  36.550  1.00  0.00     0.148 A 
ATOM     41  C   UNL A   1      39.411  34.369  36.663  1.00  0.00     0.002 A 
ATOM     42  C   UNL A   1      38.162  32.503  37.578  1.00  0.00     0.091 A 
ATOM     43  F   UNL A   1      38.265  30.383  36.483  1.00  0.00    -0.205 F 
ATOM     44  C   UNL A   1      38.568  33.846  37.638  1.00  0.00     0.022 A 
BRANCH  42  45
ATOM     45  S   UNL A   1      37.017  31.939  38.844  1.00  0.00     0.127 S 
ATOM     46  O   UNL A   1      37.002  30.497  38.607  1.00  0.00    -0.237 OA
ATOM     47  O   UNL A   1      37.693  32.346  40.078  1.00  0.00    -0.237 OA
ATOM     48  O   UNL A   1      35.764  32.633  38.585  1.00  0.00    -0.744 OA
ENDBRANCH  42  45
ENDBRANCH  24  38
BRANCH  25  49
ATOM     49  C   UNL A   1      41.927  26.895  27.443  1.00  0.00     0.023 A 
ATOM     50  C   UNL A   1      42.606  27.522  26.382  1.00  0.00     0.012 A 
ATOM     51  C   UNL A   1      41.675  25.512  27.373  1.00  0.00     0.148 A 
ATOM     52  C   UNL A   1      43.015  26.787  25.268  1.00  0.00     0.002 A 
ATOM     53  C   UNL A   1      42.143  24.774  26.292  1.00  0.00     0.091 A 
ATOM     54  F   UNL A   1      41.005  24.931  28.381  1.00  0.00    -0.205 F 
ATOM     55  C   UNL A   1      42.799  25.411  25.231  1.00  0.00     0.022 A 
BRANCH  53  56
ATOM     56  S   UNL A   1      42.046  22.980  26.287  1.00  0.00     0.127 S 
ATOM     57  O   UNL A   1      42.684  22.646  25.018  1.00  0.00    -0.237 OA
ATOM     58  O   UNL A   1      42.818  22.618  27.478  1.00  0.00    -0.237 OA
ATOM     59  O   UNL A   1      40.623  22.686  26.395  1.00  0.00    -0.744 OA
ENDBRANCH  53  56
ENDBRANCH  25  49
BRANCH  37  60
ATOM     60  C   UNL A   1      44.487  27.307  33.918  1.00  0.00     0.023 A 
ATOM     61  C   UNL A   1      45.759  27.904  33.804  1.00  0.00     0.012 A 
ATOM     62  C   UNL A   1      44.337  26.136  34.683  1.00  0.00     0.148 A 
ATOM     63  C   UNL A   1      46.870  27.323  34.413  1.00  0.00     0.002 A 
ATOM     64  C   UNL A   1      45.444  25.584  35.318  1.00  0.00     0.091 A 
ATOM     65  F   UNL A   1      43.123  25.568  34.759  1.00  0.00    -0.205 F 
ATOM     66  C   UNL A   1      46.712  26.171  35.177  1.00  0.00     0.022 A 
BRANCH  64  67
ATOM     67  S   UNL A   1      45.304  24.141  36.380  1.00  0.00     0.127 S 
ATOM     68  O   UNL A   1      46.647  24.054  36.946  1.00  0.00    -0.237 OA
ATOM     69  O   UNL A   1      44.265  24.544  37.330  1.00  0.00    -0.237 OA
ATOM     70  O   UNL A   1      44.914  23.047  35.498  1.00  0.00    -0.744 OA
ENDBRANCH  64  67
ENDBRANCH  37  60
ENDBRANCH  11  12
ENDBRANCH   4   6
ENDBRANCH   1   2
BRANCH   1  71
ATOM     71  C   UNL A   1      31.484  29.877  25.366  1.00  0.00     0.023 C 
BRANCH  71  72
ATOM     72  C   UNL A   1      31.849  28.547  24.721  1.00  0.00     0.023 C 
BRANCH  72  73
ATOM     73  C   UNL A   1      33.331  28.213  24.744  1.00  0.00     0.116 C 
BRANCH  73  74
ATOM     74  N   UNL A   1      33.858  27.740  23.490  1.00  0.00    -0.351 N 
ATOM     75  C   UNL A   1      33.551  26.607  22.793  1.00  0.00     0.278 C 
ATOM     76  H   UNL A   1      34.539  28.316  23.074  1.00  0.00     0.163 HD
ATOM     77  O   UNL A   1      33.927  26.571  21.614  1.00  0.00    -0.268 OA
BRANCH  75  78
ATOM     78  C   UNL A   1      32.815  25.388  23.414  1.00  0.00     0.274 C 
ATOM     79  C   UNL A   1      32.115  24.444  22.420  1.00  0.00     0.076 C 
ATOM     80  N   UNL A   1      33.495  24.743  24.571  1.00  0.00    -0.319 N 
ATOM     81  C   UNL A   1      31.528  23.199  23.095  1.00  0.00     0.016 C 
ATOM     82  C   UNL A   1      32.616  23.803  25.295  1.00  0.00     0.188 C 
ATOM     83  H   UNL A   1      33.662  25.536  25.191  1.00  0.00     0.349 HD
ATOM     84  C   UNL A   1      31.284  23.469  24.576  1.00  0.00     0.048 C 
ATOM     85  C   UNL A   1      32.266  24.331  26.696  1.00  0.00     0.065 C 
ATOM     86  C   UNL A   1      30.617  22.296  25.299  1.00  0.00     0.010 C 
ATOM     87  C   UNL A   1      31.517  23.254  27.492  1.00  0.00     0.006 C 
ATOM     88  C   UNL A   1      30.308  22.679  26.748  1.00  0.00     0.001 C 
BRANCH  80  89
ATOM     89  C   UNL A   1      34.894  24.283  24.402  1.00  0.00     0.194 C 
ATOM     90  C   UNL A   1      35.081  23.075  23.449  1.00  0.00     0.067 C 
ATOM     91  C   UNL A   1      35.544  23.959  25.770  1.00  0.00     0.134 C 
ATOM     92  C   UNL A   1      36.552  22.807  23.126  1.00  0.00     0.017 C 
ATOM     93  S   UNL A   1      37.343  23.666  25.642  1.00  0.00    -0.156 SA
ATOM     94  C   UNL A   1      37.352  22.390  24.351  1.00  0.00     0.070 C 
ENDBRANCH  80  89
ENDBRANCH  75  78
ENDBRANCH  73  74
ENDBRANCH  72  73
ENDBRANCH  71  72
ENDBRANCH   1  71
TORSDOF 15
ENDMDL
