MODEL 1
REMARK VINA RESULT:     -11.7      0.000      0.000
REMARK SMILES CCC1(CC)CCN(C(=O)NC(CC)(CC)C(=O)NCCCCNC(=O)c2ccc(-c3c4nc(c(-c5cccc(S(=O)(=O)[O-])c5F)c5ccc([nH]5)c(-c5cccc(S(=O)(=O)[O-])c5F)c5nc(c(-c6cccc(S(=O)(=O)[O-])c6F)c6ccc3[nH]6)C=C5)C=C4)cc2)CC1
REMARK SMILES IDX 22 1 21 2 20 3 19 4 17 5 18 6 12 8 11 9 3 10 6 11 91 12 7 13
REMARK SMILES IDX 90 14 8 15 9 16 10 17 2 19 1 20 4 21 5 22 13 23 14 24 15 25
REMARK SMILES IDX 16 26 23 27 24 28 25 29 26 31 27 32 28 33 89 34 29 35 88 36
REMARK SMILES IDX 30 37 31 38 32 39 82 40 33 41 87 42 81 43 83 44 34 45 86 46
REMARK SMILES IDX 80 47 79 48 35 50 67 51 47 52 66 53 48 54 51 55 65 56 84 57
REMARK SMILES IDX 49 58 50 59 64 61 85 62 52 63 36 64 37 65 45 66 38 67 40 68
REMARK SMILES IDX 46 69 39 70 41 71 42 72 43 73 44 74 68 75 69 76 77 77 70 78
REMARK SMILES IDX 72 79 78 80 71 81 73 82 74 83 75 84 76 85 53 86 54 87 62 88
REMARK SMILES IDX 55 89 57 90 63 91 56 92 58 93 59 94 60 95 61 96
REMARK H PARENT 19 7 11 18 24 30 83 49 51 60
REMARK Flexibility Score: inf
ROOT
ATOM      1  C   UNL A   1      31.597  31.844  26.850  1.00  0.00     0.023 C 
ENDROOT
BRANCH   1   2
ATOM      2  C   UNL A   1      31.784  30.337  26.628  1.00  0.00     0.023 C 
BRANCH   2   3
ATOM      3  C   UNL A   1      33.128  29.936  26.015  1.00  0.00     0.116 C 
BRANCH   3   4
ATOM      4  N   UNL A   1      33.019  29.704  24.589  1.00  0.00    -0.354 N 
ATOM      5  C   UNL A   1      33.136  28.426  24.094  1.00  0.00     0.245 C 
ATOM      6  O   UNL A   1      34.257  28.037  23.780  1.00  0.00    -0.272 OA
ATOM      7  H   UNL A   1      32.863  30.458  23.976  1.00  0.00     0.163 HD
BRANCH   5   8
ATOM      8  C   UNL A   1      31.844  27.558  23.969  1.00  0.00     0.120 C 
BRANCH   8   9
ATOM      9  N   UNL A   1      31.795  26.679  22.754  1.00  0.00    -0.323 N 
ATOM     10  C   UNL A   1      33.415  22.322  24.211  1.00  0.00    -0.027 C 
ATOM     11  C   UNL A   1      32.995  22.390  22.709  1.00  0.00     0.028 C 
ATOM     12  C   UNL A   1      33.289  23.757  24.809  1.00  0.00     0.028 C 
ATOM     13  C   UNL A   1      33.602  23.572  21.932  1.00  0.00     0.122 C 
ATOM     14  C   UNL A   1      33.943  24.839  23.943  1.00  0.00     0.122 C 
ATOM     15  N   UNL A   1      33.333  24.833  22.635  1.00  0.00    -0.325 N 
ATOM     16  C   UNL A   1      32.426  25.693  22.101  1.00  0.00     0.318 C 
ATOM     17  O   UNL A   1      32.048  25.573  20.927  1.00  0.00    -0.249 OA
ATOM     18  H   UNL A   1      30.991  26.919  22.238  1.00  0.00     0.166 HD
BRANCH  10  19
ATOM     19  C   UNL A   1      34.871  21.826  24.464  1.00  0.00     0.004 C 
ATOM     20  C   UNL A   1      35.369  21.833  25.901  1.00  0.00     0.004 C 
ENDBRANCH  10  19
BRANCH  10  21
ATOM     21  C   UNL A   1      32.393  21.438  25.003  1.00  0.00     0.004 C 
ATOM     22  C   UNL A   1      32.397  19.947  24.709  1.00  0.00     0.004 C 
ENDBRANCH  10  21
ENDBRANCH   8   9
BRANCH   8  23
ATOM     23  C   UNL A   1      30.531  28.406  24.022  1.00  0.00     0.035 C 
ATOM     24  C   UNL A   1      29.415  27.975  23.071  1.00  0.00     0.007 C 
ENDBRANCH   8  23
BRANCH   8  25
ATOM     25  C   UNL A   1      31.939  26.589  25.207  1.00  0.00     0.035 C 
ATOM     26  C   UNL A   1      30.775  26.662  26.204  1.00  0.00     0.007 C 
ENDBRANCH   8  25
ENDBRANCH   5   8
ENDBRANCH   3   4
ENDBRANCH   2   3
ENDBRANCH   1   2
BRANCH   1  27
ATOM     27  C   UNL A   1      32.857  32.610  27.242  1.00  0.00     0.116 C 
BRANCH  27  28
ATOM     28  N   UNL A   1      32.577  33.987  27.618  1.00  0.00    -0.352 N 
ATOM     29  C   UNL A   1      33.140  34.757  28.600  1.00  0.00     0.251 C 
ATOM     30  H   UNL A   1      31.877  34.431  27.088  1.00  0.00     0.163 HD
ATOM     31  O   UNL A   1      32.651  35.857  28.864  1.00  0.00    -0.269 OA
BRANCH  29  32
ATOM     32  C   UNL A   1      34.310  34.266  29.353  1.00  0.00     0.039 A 
ATOM     33  C   UNL A   1      34.105  33.681  30.606  1.00  0.00     0.014 A 
ATOM     34  C   UNL A   1      35.603  34.388  28.834  1.00  0.00     0.014 A 
ATOM     35  C   UNL A   1      35.190  33.161  31.311  1.00  0.00     0.010 A 
ATOM     36  C   UNL A   1      36.676  33.818  29.514  1.00  0.00     0.010 A 
ATOM     37  C   UNL A   1      36.480  33.199  30.757  1.00  0.00    -0.014 A 
BRANCH  37  38
ATOM     38  C   UNL A   1      37.629  32.567  31.451  1.00  0.00     0.031 A 
ATOM     39  C   UNL A   1      38.351  31.405  30.825  1.00  0.00     0.074 A 
ATOM     40  C   UNL A   1      37.965  32.987  32.687  1.00  0.00     0.049 A 
ATOM     41  N   UNL A   1      39.336  30.694  31.307  1.00  0.00    -0.248 NA
ATOM     42  C   UNL A   1      37.890  30.971  29.496  1.00  0.00     0.031 C 
ATOM     43  C   UNL A   1      37.283  34.049  33.431  1.00  0.00     0.029 A 
ATOM     44  N   UNL A   1      38.941  32.553  33.547  1.00  0.00    -0.354 N 
ATOM     45  C   UNL A   1      39.595  29.712  30.359  1.00  0.00     0.074 A 
ATOM     46  C   UNL A   1      38.643  29.900  29.286  1.00  0.00     0.031 C 
ATOM     47  C   UNL A   1      37.858  34.178  34.637  1.00  0.00     0.029 A 
ATOM     48  C   UNL A   1      38.932  33.199  34.761  1.00  0.00     0.049 A 
ATOM     49  H   UNL A   1      39.586  31.846  33.317  1.00  0.00     0.167 HD
ATOM     50  C   UNL A   1      40.560  28.761  30.365  1.00  0.00     0.034 A 
ATOM     51  C   UNL A   1      39.699  33.017  35.854  1.00  0.00     0.034 A 
ATOM     52  C   UNL A   1      41.534  28.608  31.412  1.00  0.00     0.049 A 
ATOM     53  C   UNL A   1      40.795  31.989  35.812  1.00  0.00     0.074 A 
ATOM     54  C   UNL A   1      42.602  27.731  31.471  1.00  0.00     0.029 A 
ATOM     55  N   UNL A   1      41.560  29.350  32.583  1.00  0.00    -0.354 N 
ATOM     56  N   UNL A   1      41.130  31.180  34.836  1.00  0.00    -0.248 NA
ATOM     57  C   UNL A   1      41.645  31.872  37.007  1.00  0.00     0.031 C 
ATOM     58  C   UNL A   1      43.270  27.938  32.684  1.00  0.00     0.029 A 
ATOM     59  C   UNL A   1      42.623  28.949  33.373  1.00  0.00     0.049 A 
ATOM     60  H   UNL A   1      40.916  30.057  32.817  1.00  0.00     0.167 HD
ATOM     61  C   UNL A   1      42.243  30.480  35.286  1.00  0.00     0.074 A 
ATOM     62  C   UNL A   1      42.543  30.980  36.613  1.00  0.00     0.031 C 
ATOM     63  C   UNL A   1      42.942  29.497  34.667  1.00  0.00     0.034 A 
BRANCH  50  64
ATOM     64  C   UNL A   1      40.656  27.855  29.167  1.00  0.00     0.023 A 
ATOM     65  C   UNL A   1      39.794  26.743  29.075  1.00  0.00     0.012 A 
ATOM     66  C   UNL A   1      41.540  28.134  28.106  1.00  0.00     0.148 A 
ATOM     67  C   UNL A   1      39.827  25.906  27.961  1.00  0.00     0.002 A 
ATOM     68  C   UNL A   1      41.540  27.317  26.981  1.00  0.00     0.091 A 
ATOM     69  F   UNL A   1      42.367  29.183  28.221  1.00  0.00    -0.205 F 
ATOM     70  C   UNL A   1      40.692  26.200  26.910  1.00  0.00     0.022 A 
BRANCH  68  71
ATOM     71  S   UNL A   1      42.566  27.647  25.544  1.00  0.00     0.127 S 
ATOM     72  O   UNL A   1      42.300  26.473  24.714  1.00  0.00    -0.237 OA
ATOM     73  O   UNL A   1      41.995  28.894  25.035  1.00  0.00    -0.237 OA
ATOM     74  O   UNL A   1      43.930  27.764  26.043  1.00  0.00    -0.744 OA
ENDBRANCH  68  71
ENDBRANCH  50  64
BRANCH  51  75
ATOM     75  C   UNL A   1      39.500  33.879  37.052  1.00  0.00     0.023 A 
ATOM     76  C   UNL A   1      39.929  35.221  37.017  1.00  0.00     0.012 A 
ATOM     77  C   UNL A   1      38.864  33.392  38.211  1.00  0.00     0.148 A 
ATOM     78  C   UNL A   1      39.754  36.053  38.123  1.00  0.00     0.002 A 
ATOM     79  C   UNL A   1      38.645  34.242  39.290  1.00  0.00     0.091 A 
ATOM     80  F   UNL A   1      38.479  32.109  38.234  1.00  0.00    -0.205 F 
ATOM     81  C   UNL A   1      39.104  35.568  39.254  1.00  0.00     0.022 A 
BRANCH  79  82
ATOM     82  S   UNL A   1      37.696  33.729  40.726  1.00  0.00     0.127 S 
ATOM     83  O   UNL A   1      36.507  33.150  40.109  1.00  0.00    -0.237 OA
ATOM     84  O   UNL A   1      38.594  32.764  41.361  1.00  0.00    -0.237 OA
ATOM     85  O   UNL A   1      37.487  34.945  41.501  1.00  0.00    -0.744 OA
ENDBRANCH  79  82
ENDBRANCH  51  75
BRANCH  63  86
ATOM     86  C   UNL A   1      44.113  28.905  35.403  1.00  0.00     0.023 A 
ATOM     87  C   UNL A   1      45.399  29.450  35.214  1.00  0.00     0.012 A 
ATOM     88  C   UNL A   1      43.932  27.864  36.335  1.00  0.00     0.148 A 
ATOM     89  C   UNL A   1      46.491  28.950  35.919  1.00  0.00     0.002 A 
ATOM     90  C   UNL A   1      45.019  27.400  37.067  1.00  0.00     0.091 A 
ATOM     91  F   UNL A   1      42.705  27.345  36.485  1.00  0.00    -0.205 F 
ATOM     92  C   UNL A   1      46.300  27.935  36.853  1.00  0.00     0.022 A 
BRANCH  90  93
ATOM     93  S   UNL A   1      44.848  26.158  38.354  1.00  0.00     0.127 S 
ATOM     94  O   UNL A   1      44.524  24.965  37.575  1.00  0.00    -0.237 OA
ATOM     95  O   UNL A   1      46.180  26.149  38.959  1.00  0.00    -0.237 OA
ATOM     96  O   UNL A   1      43.791  26.640  39.234  1.00  0.00    -0.744 OA
ENDBRANCH  90  93
ENDBRANCH  63  86
ENDBRANCH  37  38
ENDBRANCH  29  32
ENDBRANCH  27  28
ENDBRANCH   1  27
TORSDOF 19
ENDMDL
MODEL 2
REMARK VINA RESULT:     -11.5      6.146     11.359
REMARK SMILES CCC1(CC)CCN(C(=O)NC(CC)(CC)C(=O)NCCCCNC(=O)c2ccc(-c3c4nc(c(-c5cccc(S(=O)(=O)[O-])c5F)c5ccc([nH]5)c(-c5cccc(S(=O)(=O)[O-])c5F)c5nc(c(-c6cccc(S(=O)(=O)[O-])c6F)c6ccc3[nH]6)C=C5)C=C4)cc2)CC1
REMARK SMILES IDX 22 1 21 2 20 3 19 4 17 5 18 6 12 8 11 9 3 10 6 11 91 12 7 13
REMARK SMILES IDX 90 14 8 15 9 16 10 17 2 19 1 20 4 21 5 22 13 23 14 24 15 25
REMARK SMILES IDX 16 26 23 27 24 28 25 29 26 31 27 32 28 33 89 34 29 35 88 36
REMARK SMILES IDX 30 37 31 38 32 39 82 40 33 41 87 42 81 43 83 44 34 45 86 46
REMARK SMILES IDX 80 47 79 48 35 50 67 51 47 52 66 53 48 54 51 55 65 56 84 57
REMARK SMILES IDX 49 58 50 59 64 61 85 62 52 63 36 64 37 65 45 66 38 67 40 68
REMARK SMILES IDX 46 69 39 70 41 71 42 72 43 73 44 74 68 75 69 76 77 77 70 78
REMARK SMILES IDX 72 79 78 80 71 81 73 82 74 83 75 84 76 85 53 86 54 87 62 88
REMARK SMILES IDX 55 89 57 90 63 91 56 92 58 93 59 94 60 95 61 96
REMARK H PARENT 19 7 11 18 24 30 83 49 51 60
REMARK Flexibility Score: inf
ROOT
ATOM      1  C   UNL A   1      38.033  20.953  25.984  1.00  0.00     0.023 C 
ENDROOT
BRANCH   1   2
ATOM      2  C   UNL A   1      38.052  22.469  25.747  1.00  0.00     0.023 C 
BRANCH   2   3
ATOM      3  C   UNL A   1      36.674  23.137  25.731  1.00  0.00     0.116 C 
BRANCH   3   4
ATOM      4  N   UNL A   1      35.752  22.441  24.857  1.00  0.00    -0.354 N 
ATOM      5  C   UNL A   1      34.455  22.228  25.262  1.00  0.00     0.245 C 
ATOM      6  O   UNL A   1      34.212  21.189  25.870  1.00  0.00    -0.272 OA
ATOM      7  H   UNL A   1      36.052  22.122  23.975  1.00  0.00     0.163 HD
BRANCH   5   8
ATOM      8  C   UNL A   1      33.385  23.315  24.930  1.00  0.00     0.120 C 
BRANCH   8   9
ATOM      9  N   UNL A   1      33.596  24.026  23.626  1.00  0.00    -0.323 N 
ATOM     10  C   UNL A   1      30.625  27.884  23.730  1.00  0.00    -0.027 C 
ATOM     11  C   UNL A   1      31.490  27.765  22.436  1.00  0.00     0.028 C 
ATOM     12  C   UNL A   1      30.896  26.622  24.606  1.00  0.00     0.028 C 
ATOM     13  C   UNL A   1      31.449  26.378  21.770  1.00  0.00     0.122 C 
ATOM     14  C   UNL A   1      30.815  25.307  23.823  1.00  0.00     0.122 C 
ATOM     15  N   UNL A   1      31.779  25.334  22.748  1.00  0.00    -0.325 N 
ATOM     16  C   UNL A   1      32.982  24.710  22.652  1.00  0.00     0.318 C 
ATOM     17  O   UNL A   1      33.664  24.797  21.620  1.00  0.00    -0.249 OA
ATOM     18  H   UNL A   1      34.553  23.965  23.399  1.00  0.00     0.166 HD
BRANCH  10  19
ATOM     19  C   UNL A   1      29.088  27.974  23.487  1.00  0.00     0.004 C 
ATOM     20  C   UNL A   1      28.599  29.008  22.484  1.00  0.00     0.004 C 
ENDBRANCH  10  19
BRANCH  10  21
ATOM     21  C   UNL A   1      31.114  29.106  24.579  1.00  0.00     0.004 C 
ATOM     22  C   UNL A   1      31.728  28.802  25.936  1.00  0.00     0.004 C 
ENDBRANCH  10  21
ENDBRANCH   8   9
BRANCH   8  23
ATOM     23  C   UNL A   1      33.232  24.385  26.060  1.00  0.00     0.035 C 
ATOM     24  C   UNL A   1      34.010  25.687  25.863  1.00  0.00     0.007 C 
ENDBRANCH   8  23
BRANCH   8  25
ATOM     25  C   UNL A   1      32.060  22.479  24.764  1.00  0.00     0.035 C 
ATOM     26  C   UNL A   1      31.079  22.540  25.943  1.00  0.00     0.007 C 
ENDBRANCH   8  25
ENDBRANCH   5   8
ENDBRANCH   3   4
ENDBRANCH   2   3
ENDBRANCH   1   2
BRANCH   1  27
ATOM     27  C   UNL A   1      38.909  20.131  25.042  1.00  0.00     0.116 C 
BRANCH  27  28
ATOM     28  N   UNL A   1      39.849  19.282  25.756  1.00  0.00    -0.352 N 
ATOM     29  C   UNL A   1      40.985  19.619  26.441  1.00  0.00     0.251 C 
ATOM     30  H   UNL A   1      39.636  18.321  25.746  1.00  0.00     0.163 HD
ATOM     31  O   UNL A   1      41.735  18.729  26.849  1.00  0.00    -0.269 OA
BRANCH  29  32
ATOM     32  C   UNL A   1      41.323  21.036  26.673  1.00  0.00     0.039 A 
ATOM     33  C   UNL A   1      41.160  21.564  27.957  1.00  0.00     0.014 A 
ATOM     34  C   UNL A   1      41.792  21.844  25.632  1.00  0.00     0.014 A 
ATOM     35  C   UNL A   1      41.526  22.886  28.212  1.00  0.00     0.010 A 
ATOM     36  C   UNL A   1      42.209  23.145  25.902  1.00  0.00     0.010 A 
ATOM     37  C   UNL A   1      42.081  23.677  27.194  1.00  0.00    -0.014 A 
BRANCH  37  38
ATOM     38  C   UNL A   1      42.563  25.054  27.470  1.00  0.00     0.031 A 
ATOM     39  C   UNL A   1      41.643  26.072  28.085  1.00  0.00     0.074 A 
ATOM     40  C   UNL A   1      43.804  25.407  27.083  1.00  0.00     0.049 A 
ATOM     41  N   UNL A   1      41.870  27.333  28.346  1.00  0.00    -0.248 NA
ATOM     42  C   UNL A   1      40.285  25.623  28.431  1.00  0.00     0.031 C 
ATOM     43  C   UNL A   1      44.757  24.530  26.399  1.00  0.00     0.029 A 
ATOM     44  N   UNL A   1      44.466  26.605  27.180  1.00  0.00    -0.354 N 
ATOM     45  C   UNL A   1      40.680  27.835  28.857  1.00  0.00     0.074 A 
ATOM     46  C   UNL A   1      39.723  26.750  28.842  1.00  0.00     0.031 C 
ATOM     47  C   UNL A   1      45.877  25.220  26.133  1.00  0.00     0.029 A 
ATOM     48  C   UNL A   1      45.716  26.591  26.606  1.00  0.00     0.049 A 
ATOM     49  H   UNL A   1      44.082  27.399  27.617  1.00  0.00     0.167 HD
ATOM     50  C   UNL A   1      40.417  29.078  29.327  1.00  0.00     0.034 A 
ATOM     51  C   UNL A   1      46.627  27.574  26.472  1.00  0.00     0.034 A 
ATOM     52  C   UNL A   1      41.386  30.140  29.383  1.00  0.00     0.049 A 
ATOM     53  C   UNL A   1      46.328  28.930  27.049  1.00  0.00     0.074 A 
ATOM     54  C   UNL A   1      41.242  31.407  29.919  1.00  0.00     0.029 A 
ATOM     55  N   UNL A   1      42.678  30.059  28.888  1.00  0.00    -0.354 N 
ATOM     56  N   UNL A   1      45.253  29.338  27.680  1.00  0.00    -0.248 NA
ATOM     57  C   UNL A   1      47.380  29.951  26.933  1.00  0.00     0.031 C 
ATOM     58  C   UNL A   1      42.447  32.096  29.739  1.00  0.00     0.029 A 
ATOM     59  C   UNL A   1      43.342  31.254  29.101  1.00  0.00     0.049 A 
ATOM     60  H   UNL A   1      43.065  29.268  28.449  1.00  0.00     0.167 HD
ATOM     61  C   UNL A   1      45.509  30.650  28.059  1.00  0.00     0.074 A 
ATOM     62  C   UNL A   1      46.852  30.960  27.611  1.00  0.00     0.031 C 
ATOM     63  C   UNL A   1      44.698  31.528  28.700  1.00  0.00     0.034 A 
BRANCH  50  64
ATOM     64  C   UNL A   1      39.044  29.338  29.887  1.00  0.00     0.023 A 
ATOM     65  C   UNL A   1      38.737  28.888  31.188  1.00  0.00     0.012 A 
ATOM     66  C   UNL A   1      38.087  30.079  29.167  1.00  0.00     0.148 A 
ATOM     67  C   UNL A   1      37.490  29.147  31.754  1.00  0.00     0.002 A 
ATOM     68  C   UNL A   1      36.859  30.367  29.754  1.00  0.00     0.091 A 
ATOM     69  F   UNL A   1      38.390  30.480  27.925  1.00  0.00    -0.205 F 
ATOM     70  C   UNL A   1      36.557  29.895  31.042  1.00  0.00     0.022 A 
BRANCH  68  71
ATOM     71  S   UNL A   1      35.614  31.381  28.949  1.00  0.00     0.127 S 
ATOM     72  O   UNL A   1      34.944  30.402  28.094  1.00  0.00    -0.237 OA
ATOM     73  O   UNL A   1      34.815  31.848  30.082  1.00  0.00    -0.237 OA
ATOM     74  O   UNL A   1      36.343  32.429  28.247  1.00  0.00    -0.744 OA
ENDBRANCH  68  71
ENDBRANCH  50  64
BRANCH  51  75
ATOM     75  C   UNL A   1      47.937  27.289  25.822  1.00  0.00     0.023 A 
ATOM     76  C   UNL A   1      48.992  26.766  26.597  1.00  0.00     0.012 A 
ATOM     77  C   UNL A   1      48.136  27.500  24.444  1.00  0.00     0.148 A 
ATOM     78  C   UNL A   1      50.230  26.487  26.017  1.00  0.00     0.002 A 
ATOM     79  C   UNL A   1      49.355  27.169  23.862  1.00  0.00     0.091 A 
ATOM     80  F   UNL A   1      47.128  28.015  23.727  1.00  0.00    -0.205 F 
ATOM     81  C   UNL A   1      50.408  26.679  24.649  1.00  0.00     0.022 A 
BRANCH  79  82
ATOM     82  S   UNL A   1      49.616  27.260  22.087  1.00  0.00     0.127 S 
ATOM     83  O   UNL A   1      49.367  28.673  21.819  1.00  0.00    -0.237 OA
ATOM     84  O   UNL A   1      51.012  26.844  21.959  1.00  0.00    -0.237 OA
ATOM     85  O   UNL A   1      48.661  26.321  21.512  1.00  0.00    -0.744 OA
ENDBRANCH  79  82
ENDBRANCH  51  75
BRANCH  63  86
ATOM     86  C   UNL A   1      45.242  32.903  28.977  1.00  0.00     0.023 A 
ATOM     87  C   UNL A   1      45.971  33.135  30.160  1.00  0.00     0.012 A 
ATOM     88  C   UNL A   1      45.097  33.942  28.037  1.00  0.00     0.148 A 
ATOM     89  C   UNL A   1      46.524  34.388  30.417  1.00  0.00     0.002 A 
ATOM     90  C   UNL A   1      45.688  35.177  28.280  1.00  0.00     0.091 A 
ATOM     91  F   UNL A   1      44.382  33.707  26.927  1.00  0.00    -0.205 F 
ATOM     92  C   UNL A   1      46.393  35.404  29.474  1.00  0.00     0.022 A 
BRANCH  90  93
ATOM     93  S   UNL A   1      45.647  36.512  27.079  1.00  0.00     0.127 S 
ATOM     94  O   UNL A   1      46.465  37.529  27.736  1.00  0.00    -0.237 OA
ATOM     95  O   UNL A   1      46.266  35.896  25.905  1.00  0.00    -0.237 OA
ATOM     96  O   UNL A   1      44.240  36.851  26.909  1.00  0.00    -0.744 OA
ENDBRANCH  90  93
ENDBRANCH  63  86
ENDBRANCH  37  38
ENDBRANCH  29  32
ENDBRANCH  27  28
ENDBRANCH   1  27
TORSDOF 19
ENDMDL
MODEL 3
REMARK VINA RESULT:     -11.4      2.197      3.180
REMARK SMILES CCC1(CC)CCN(C(=O)NC(CC)(CC)C(=O)NCCCCNC(=O)c2ccc(-c3c4nc(c(-c5cccc(S(=O)(=O)[O-])c5F)c5ccc([nH]5)c(-c5cccc(S(=O)(=O)[O-])c5F)c5nc(c(-c6cccc(S(=O)(=O)[O-])c6F)c6ccc3[nH]6)C=C5)C=C4)cc2)CC1
REMARK SMILES IDX 22 1 21 2 20 3 19 4 17 5 18 6 12 8 11 9 3 10 6 11 91 12 7 13
REMARK SMILES IDX 90 14 8 15 9 16 10 17 2 19 1 20 4 21 5 22 13 23 14 24 15 25
REMARK SMILES IDX 16 26 23 27 24 28 25 29 26 31 27 32 28 33 89 34 29 35 88 36
REMARK SMILES IDX 30 37 31 38 32 39 82 40 33 41 87 42 81 43 83 44 34 45 86 46
REMARK SMILES IDX 80 47 79 48 35 50 67 51 47 52 66 53 48 54 51 55 65 56 84 57
REMARK SMILES IDX 49 58 50 59 64 61 85 62 52 63 36 64 37 65 45 66 38 67 40 68
REMARK SMILES IDX 46 69 39 70 41 71 42 72 43 73 44 74 68 75 69 76 77 77 70 78
REMARK SMILES IDX 72 79 78 80 71 81 73 82 74 83 75 84 76 85 53 86 54 87 62 88
REMARK SMILES IDX 55 89 57 90 63 91 56 92 58 93 59 94 60 95 61 96
REMARK H PARENT 19 7 11 18 24 30 83 49 51 60
REMARK Flexibility Score: inf
ROOT
ATOM      1  C   UNL A   1      33.374  29.222  24.797  1.00  0.00     0.023 C 
ENDROOT
BRANCH   1   2
ATOM      2  C   UNL A   1      33.795  27.776  24.500  1.00  0.00     0.023 C 
BRANCH   2   3
ATOM      3  C   UNL A   1      33.476  27.290  23.084  1.00  0.00     0.116 C 
BRANCH   3   4
ATOM      4  N   UNL A   1      32.333  27.981  22.524  1.00  0.00    -0.354 N 
ATOM      5  C   UNL A   1      31.121  27.339  22.436  1.00  0.00     0.245 C 
ATOM      6  O   UNL A   1      30.881  26.712  21.408  1.00  0.00    -0.272 OA
ATOM      7  H   UNL A   1      32.424  28.909  22.207  1.00  0.00     0.163 HD
BRANCH   5   8
ATOM      8  C   UNL A   1      30.136  27.443  23.643  1.00  0.00     0.120 C 
BRANCH   8   9
ATOM      9  N   UNL A   1      30.677  26.918  24.941  1.00  0.00    -0.323 N 
ATOM     10  C   UNL A   1      33.052  22.816  23.819  1.00  0.00    -0.027 C 
ATOM     11  C   UNL A   1      33.093  23.197  25.332  1.00  0.00     0.028 C 
ATOM     12  C   UNL A   1      32.134  23.846  23.090  1.00  0.00     0.028 C 
ATOM     13  C   UNL A   1      31.719  23.527  25.942  1.00  0.00     0.122 C 
ATOM     14  C   UNL A   1      30.794  24.075  23.795  1.00  0.00     0.122 C 
ATOM     15  N   UNL A   1      31.037  24.548  25.137  1.00  0.00    -0.325 N 
ATOM     16  C   UNL A   1      30.922  25.804  25.643  1.00  0.00     0.318 C 
ATOM     17  O   UNL A   1      31.116  26.025  26.848  1.00  0.00    -0.249 OA
ATOM     18  H   UNL A   1      30.960  27.689  25.485  1.00  0.00     0.166 HD
BRANCH  10  19
ATOM     19  C   UNL A   1      32.502  21.389  23.515  1.00  0.00     0.004 C 
ATOM     20  C   UNL A   1      32.821  20.291  24.518  1.00  0.00     0.004 C 
ENDBRANCH  10  19
BRANCH  10  21
ATOM     21  C   UNL A   1      34.476  22.995  23.193  1.00  0.00     0.004 C 
ATOM     22  C   UNL A   1      35.548  23.606  24.081  1.00  0.00     0.004 C 
ENDBRANCH  10  21
ENDBRANCH   8   9
BRANCH   8  23
ATOM     23  C   UNL A   1      28.758  26.757  23.367  1.00  0.00     0.035 C 
ATOM     24  C   UNL A   1      27.517  27.592  23.681  1.00  0.00     0.007 C 
ENDBRANCH   8  23
BRANCH   8  25
ATOM     25  C   UNL A   1      29.964  28.996  23.836  1.00  0.00     0.035 C 
ATOM     26  C   UNL A   1      29.843  29.820  22.547  1.00  0.00     0.007 C 
ENDBRANCH   8  25
ENDBRANCH   5   8
ENDBRANCH   3   4
ENDBRANCH   2   3
ENDBRANCH   1   2
BRANCH   1  27
ATOM     27  C   UNL A   1      32.702  29.445  26.149  1.00  0.00     0.116 C 
BRANCH  27  28
ATOM     28  N   UNL A   1      32.419  30.849  26.405  1.00  0.00    -0.352 N 
ATOM     29  C   UNL A   1      33.105  31.754  27.169  1.00  0.00     0.251 C 
ATOM     30  H   UNL A   1      31.614  31.200  25.961  1.00  0.00     0.163 HD
ATOM     31  O   UNL A   1      32.612  32.863  27.385  1.00  0.00    -0.269 OA
BRANCH  29  32
ATOM     32  C   UNL A   1      34.414  31.399  27.749  1.00  0.00     0.039 A 
ATOM     33  C   UNL A   1      35.372  32.405  27.909  1.00  0.00     0.014 A 
ATOM     34  C   UNL A   1      34.702  30.084  28.128  1.00  0.00     0.014 A 
ATOM     35  C   UNL A   1      36.596  32.104  28.505  1.00  0.00     0.010 A 
ATOM     36  C   UNL A   1      35.901  29.799  28.775  1.00  0.00     0.010 A 
ATOM     37  C   UNL A   1      36.859  30.805  28.971  1.00  0.00    -0.014 A 
BRANCH  37  38
ATOM     38  C   UNL A   1      38.117  30.490  29.692  1.00  0.00     0.031 A 
ATOM     39  C   UNL A   1      39.127  29.555  29.087  1.00  0.00     0.074 A 
ATOM     40  C   UNL A   1      38.305  30.980  30.933  1.00  0.00     0.049 A 
ATOM     41  N   UNL A   1      40.252  29.120  29.593  1.00  0.00    -0.248 NA
ATOM     42  C   UNL A   1      38.824  29.019  27.750  1.00  0.00     0.031 C 
ATOM     43  C   UNL A   1      37.356  31.829  31.658  1.00  0.00     0.029 A 
ATOM     44  N   UNL A   1      39.341  30.811  31.816  1.00  0.00    -0.354 N 
ATOM     45  C   UNL A   1      40.775  28.240  28.654  1.00  0.00     0.074 A 
ATOM     46  C   UNL A   1      39.831  28.179  27.560  1.00  0.00     0.031 C 
ATOM     47  C   UNL A   1      37.852  32.100  32.876  1.00  0.00     0.029 A 
ATOM     48  C   UNL A   1      39.138  31.429  33.028  1.00  0.00     0.049 A 
ATOM     49  H   UNL A   1      40.151  30.294  31.603  1.00  0.00     0.167 HD
ATOM     50  C   UNL A   1      41.952  27.570  28.685  1.00  0.00     0.034 A 
ATOM     51  C   UNL A   1      39.902  31.449  34.138  1.00  0.00     0.034 A 
ATOM     52  C   UNL A   1      42.909  27.672  29.754  1.00  0.00     0.049 A 
ATOM     53  C   UNL A   1      41.227  30.739  34.124  1.00  0.00     0.074 A 
ATOM     54  C   UNL A   1      44.166  27.100  29.839  1.00  0.00     0.029 A 
ATOM     55  N   UNL A   1      42.717  28.393  30.922  1.00  0.00    -0.354 N 
ATOM     56  N   UNL A   1      41.781  30.045  33.159  1.00  0.00    -0.248 NA
ATOM     57  C   UNL A   1      42.052  30.843  35.338  1.00  0.00     0.031 C 
ATOM     58  C   UNL A   1      44.731  27.469  31.066  1.00  0.00     0.029 A 
ATOM     59  C   UNL A   1      43.830  28.278  31.737  1.00  0.00     0.049 A 
ATOM     60  H   UNL A   1      41.908  28.909  31.140  1.00  0.00     0.167 HD
ATOM     61  C   UNL A   1      43.026  29.655  33.636  1.00  0.00     0.074 A 
ATOM     62  C   UNL A   1      43.158  30.213  34.966  1.00  0.00     0.031 C 
ATOM     63  C   UNL A   1      43.968  28.887  33.036  1.00  0.00     0.034 A 
BRANCH  50  64
ATOM     64  C   UNL A   1      42.306  26.722  27.493  1.00  0.00     0.023 A 
ATOM     65  C   UNL A   1      43.012  27.304  26.421  1.00  0.00     0.012 A 
ATOM     66  C   UNL A   1      42.005  25.346  27.457  1.00  0.00     0.148 A 
ATOM     67  C   UNL A   1      43.392  26.538  25.319  1.00  0.00     0.002 A 
ATOM     68  C   UNL A   1      42.421  24.581  26.373  1.00  0.00     0.091 A 
ATOM     69  F   UNL A   1      41.314  24.816  28.476  1.00  0.00    -0.205 F 
ATOM     70  C   UNL A   1      43.106  25.177  25.301  1.00  0.00     0.022 A 
BRANCH  68  71
ATOM     71  S   UNL A   1      42.163  22.806  26.284  1.00  0.00     0.127 S 
ATOM     72  O   UNL A   1      40.703  22.718  26.308  1.00  0.00    -0.237 OA
ATOM     73  O   UNL A   1      42.772  22.469  24.997  1.00  0.00    -0.237 OA
ATOM     74  O   UNL A   1      42.843  22.242  27.443  1.00  0.00    -0.744 OA
ENDBRANCH  68  71
ENDBRANCH  50  64
BRANCH  51  75
ATOM     75  C   UNL A   1      39.461  32.228  35.328  1.00  0.00     0.023 A 
ATOM     76  C   UNL A   1      39.756  33.604  35.401  1.00  0.00     0.012 A 
ATOM     77  C   UNL A   1      38.727  31.628  36.370  1.00  0.00     0.148 A 
ATOM     78  C   UNL A   1      39.355  34.361  36.502  1.00  0.00     0.002 A 
ATOM     79  C   UNL A   1      38.284  32.399  37.439  1.00  0.00     0.091 A 
ATOM     80  F   UNL A   1      38.471  30.314  36.293  1.00  0.00    -0.205 F 
ATOM     81  C   UNL A   1      38.611  33.761  37.515  1.00  0.00     0.022 A 
BRANCH  79  82
ATOM     82  S   UNL A   1      37.207  31.730  38.711  1.00  0.00     0.127 S 
ATOM     83  O   UNL A   1      36.967  30.376  38.220  1.00  0.00    -0.237 OA
ATOM     84  O   UNL A   1      38.050  31.812  39.904  1.00  0.00    -0.237 OA
ATOM     85  O   UNL A   1      36.051  32.615  38.738  1.00  0.00    -0.744 OA
ENDBRANCH  79  82
ENDBRANCH  51  75
BRANCH  63  86
ATOM     86  C   UNL A   1      45.235  28.615  33.800  1.00  0.00     0.023 A 
ATOM     87  C   UNL A   1      46.309  29.524  33.708  1.00  0.00     0.012 A 
ATOM     88  C   UNL A   1      45.338  27.507  34.664  1.00  0.00     0.148 A 
ATOM     89  C   UNL A   1      47.475  29.319  34.442  1.00  0.00     0.002 A 
ATOM     90  C   UNL A   1      46.488  27.333  35.425  1.00  0.00     0.091 A 
ATOM     91  F   UNL A   1      44.314  26.643  34.720  1.00  0.00    -0.205 F 
ATOM     92  C   UNL A   1      47.560  28.232  35.308  1.00  0.00     0.022 A 
BRANCH  90  93
ATOM     93  S   UNL A   1      46.646  26.012  36.633  1.00  0.00     0.127 S 
ATOM     94  O   UNL A   1      45.613  26.370  37.603  1.00  0.00    -0.237 OA
ATOM     95  O   UNL A   1      46.347  24.822  35.835  1.00  0.00    -0.237 OA
ATOM     96  O   UNL A   1      48.017  26.080  37.120  1.00  0.00    -0.744 OA
ENDBRANCH  90  93
ENDBRANCH  63  86
ENDBRANCH  37  38
ENDBRANCH  29  32
ENDBRANCH  27  28
ENDBRANCH   1  27
TORSDOF 19
ENDMDL
