MODEL 1
REMARK VINA RESULT:     -11.4      0.000      0.000
REMARK SMILES C[C@H](Cc1ccco1)[NH2+]Cc1cc(C(=O)NCCCCNC(=O)c2ccc(-c3c4nc(c(-c5cccc(S(=O)(=O)[O-])c5F)c5ccc([nH]5)c(-c5cccc(S(=O)(=O)[O-])c5F)c5nc(c(-c6cccc(S(=O)(=O)[O-])c6F)c6ccc3[nH]6)C=C5)C=C4)cc2)cs1
REMARK SMILES IDX 17 1 16 2 14 3 15 4 13 6 11 7 12 8 88 9 87 10 10 11 9 12
REMARK SMILES IDX 2 15 1 16 3 17 4 18 5 19 8 20 6 21 7 22 18 23 19 24 20 25
REMARK SMILES IDX 21 26 22 27 23 29 24 30 25 31 86 32 26 33 85 34 27 35 28 36
REMARK SMILES IDX 29 37 79 38 30 39 84 40 78 41 80 42 31 43 83 44 77 45 76 46
REMARK SMILES IDX 32 48 64 49 44 50 63 51 45 52 48 53 62 54 81 55 46 56 47 57
REMARK SMILES IDX 61 59 82 60 49 61 33 62 34 63 42 64 35 65 37 66 43 67 36 68
REMARK SMILES IDX 38 69 39 70 40 71 41 72 65 73 66 74 74 75 67 76 69 77 75 78
REMARK SMILES IDX 68 79 70 80 71 81 72 82 73 83 50 84 51 85 59 86 52 87 54 88
REMARK SMILES IDX 60 89 53 90 55 91 56 92 57 93 58 94
REMARK H PARENT 16 5 9 13 9 14 21 28 80 47 48 58
REMARK Flexibility Score: inf
ROOT
ATOM      1  C   UNL A   1      31.437  27.654  26.511  1.00  0.00     0.116 C 
ENDROOT
BRANCH   1   2
ATOM      2  N   UNL A   1      30.872  26.336  26.669  1.00  0.00    -0.352 N 
ATOM      3  C   UNL A   1      31.317  25.093  26.294  1.00  0.00     0.252 C 
ATOM      4  O   UNL A   1      30.628  24.136  26.639  1.00  0.00    -0.269 OA
ATOM      5  H   UNL A   1      30.005  26.326  27.135  1.00  0.00     0.163 HD
BRANCH   3   6
ATOM      6  C   UNL A   1      32.584  24.891  25.574  1.00  0.00     0.051 A 
ATOM      7  C   UNL A   1      34.783  24.247  25.021  1.00  0.00     0.059 A 
ATOM      8  C   UNL A   1      33.920  24.629  26.036  1.00  0.00     0.035 A 
ATOM      9  S   UNL A   1      34.117  24.627  23.492  1.00  0.00    -0.142 S 
ATOM     10  C   UNL A   1      32.598  24.962  24.187  1.00  0.00     0.079 A 
BRANCH   7  11
ATOM     11  C   UNL A   1      36.136  23.604  25.124  1.00  0.00     0.308 C 
BRANCH  11  12
ATOM     12  N   UNL A   1      36.173  22.485  26.068  1.00  0.00    -0.339 N 
ATOM     13  H   UNL A   1      37.037  22.565  26.603  1.00  0.00     0.346 HD
ATOM     14  H   UNL A   1      35.312  22.575  26.608  1.00  0.00     0.346 HD
BRANCH  12  15
ATOM     15  C   UNL A   1      36.122  21.119  25.515  1.00  0.00     0.187 C 
ATOM     16  C   UNL A   1      37.344  20.655  24.712  1.00  0.00     0.075 C 
BRANCH  15  17
ATOM     17  C   UNL A   1      34.824  20.894  24.688  1.00  0.00     0.140 C 
BRANCH  17  18
ATOM     18  C   UNL A   1      34.079  19.621  24.921  1.00  0.00     0.109 A 
ATOM     19  C   UNL A   1      32.889  19.270  25.524  1.00  0.00     0.046 A 
ATOM     20  O   UNL A   1      34.684  18.493  24.441  1.00  0.00    -0.469 OA
ATOM     21  C   UNL A   1      32.780  17.863  25.448  1.00  0.00     0.042 A 
ATOM     22  C   UNL A   1      33.892  17.439  24.765  1.00  0.00     0.195 A 
ENDBRANCH  17  18
ENDBRANCH  15  17
ENDBRANCH  12  15
ENDBRANCH  11  12
ENDBRANCH   7  11
ENDBRANCH   3   6
ENDBRANCH   1   2
BRANCH   1  23
ATOM     23  C   UNL A   1      31.099  28.250  25.147  1.00  0.00     0.023 C 
BRANCH  23  24
ATOM     24  C   UNL A   1      31.777  29.597  24.883  1.00  0.00     0.023 C 
BRANCH  24  25
ATOM     25  C   UNL A   1      32.768  30.042  25.954  1.00  0.00     0.116 C 
BRANCH  25  26
ATOM     26  N   UNL A   1      32.546  31.405  26.418  1.00  0.00    -0.352 N 
ATOM     27  C   UNL A   1      33.316  32.141  27.289  1.00  0.00     0.251 C 
ATOM     28  H   UNL A   1      31.745  31.856  26.064  1.00  0.00     0.163 HD
ATOM     29  O   UNL A   1      32.941  33.245  27.668  1.00  0.00    -0.269 OA
BRANCH  27  30
ATOM     30  C   UNL A   1      34.580  31.563  27.789  1.00  0.00     0.039 A 
ATOM     31  C   UNL A   1      35.686  32.399  27.961  1.00  0.00     0.014 A 
ATOM     32  C   UNL A   1      34.648  30.214  28.149  1.00  0.00     0.014 A 
ATOM     33  C   UNL A   1      36.841  31.895  28.561  1.00  0.00     0.010 A 
ATOM     34  C   UNL A   1      35.770  29.738  28.818  1.00  0.00     0.010 A 
ATOM     35  C   UNL A   1      36.878  30.572  29.032  1.00  0.00    -0.014 A 
BRANCH  35  36
ATOM     36  C   UNL A   1      38.059  30.048  29.767  1.00  0.00     0.031 A 
ATOM     37  C   UNL A   1      38.358  30.529  31.162  1.00  0.00     0.074 A 
ATOM     38  C   UNL A   1      38.912  29.209  29.146  1.00  0.00     0.049 A 
ATOM     39  N   UNL A   1      39.368  30.230  31.936  1.00  0.00    -0.248 NA
ATOM     40  C   UNL A   1      37.415  31.492  31.753  1.00  0.00     0.031 C 
ATOM     41  C   UNL A   1      38.779  28.733  27.767  1.00  0.00     0.029 A 
ATOM     42  N   UNL A   1      40.076  28.626  29.585  1.00  0.00    -0.354 N 
ATOM     43  C   UNL A   1      39.202  30.991  33.088  1.00  0.00     0.074 A 
ATOM     44  C   UNL A   1      38.015  31.794  32.895  1.00  0.00     0.031 C 
ATOM     45  C   UNL A   1      39.812  27.927  27.476  1.00  0.00     0.029 A 
ATOM     46  C   UNL A   1      40.702  27.857  28.630  1.00  0.00     0.049 A 
ATOM     47  H   UNL A   1      40.429  28.750  30.494  1.00  0.00     0.167 HD
ATOM     48  C   UNL A   1      39.952  31.001  34.214  1.00  0.00     0.034 A 
ATOM     49  C   UNL A   1      41.866  27.180  28.677  1.00  0.00     0.034 A 
ATOM     50  C   UNL A   1      41.112  30.175  34.415  1.00  0.00     0.049 A 
ATOM     51  C   UNL A   1      42.665  27.184  29.951  1.00  0.00     0.074 A 
ATOM     52  C   UNL A   1      41.889  30.049  35.554  1.00  0.00     0.029 A 
ATOM     53  N   UNL A   1      41.671  29.347  33.456  1.00  0.00    -0.354 N 
ATOM     54  N   UNL A   1      42.407  27.789  31.086  1.00  0.00    -0.248 NA
ATOM     55  C   UNL A   1      43.899  26.384  29.967  1.00  0.00     0.031 C 
ATOM     56  C   UNL A   1      42.939  29.170  35.270  1.00  0.00     0.029 A 
ATOM     57  C   UNL A   1      42.790  28.715  33.970  1.00  0.00     0.049 A 
ATOM     58  H   UNL A   1      41.324  29.226  32.542  1.00  0.00     0.167 HD
ATOM     59  C   UNL A   1      43.418  27.410  31.960  1.00  0.00     0.074 A 
ATOM     60  C   UNL A   1      44.285  26.509  31.230  1.00  0.00     0.031 C 
ATOM     61  C   UNL A   1      43.616  27.781  33.249  1.00  0.00     0.034 A 
BRANCH  48  62
ATOM     62  C   UNL A   1      39.518  31.904  35.339  1.00  0.00     0.023 A 
ATOM     63  C   UNL A   1      39.861  33.272  35.312  1.00  0.00     0.012 A 
ATOM     64  C   UNL A   1      38.720  31.415  36.392  1.00  0.00     0.148 A 
ATOM     65  C   UNL A   1      39.450  34.130  36.330  1.00  0.00     0.002 A 
ATOM     66  C   UNL A   1      38.271  32.286  37.378  1.00  0.00     0.091 A 
ATOM     67  F   UNL A   1      38.419  30.109  36.413  1.00  0.00    -0.205 F 
ATOM     68  C   UNL A   1      38.647  33.640  37.356  1.00  0.00     0.022 A 
BRANCH  66  69
ATOM     69  S   UNL A   1      37.164  31.774  38.696  1.00  0.00     0.127 S 
ATOM     70  O   UNL A   1      36.857  30.399  38.303  1.00  0.00    -0.237 OA
ATOM     71  O   UNL A   1      38.016  31.895  39.878  1.00  0.00    -0.237 OA
ATOM     72  O   UNL A   1      36.039  32.699  38.659  1.00  0.00    -0.744 OA
ENDBRANCH  66  69
ENDBRANCH  48  62
BRANCH  49  73
ATOM     73  C   UNL A   1      42.322  26.394  27.493  1.00  0.00     0.023 A 
ATOM     74  C   UNL A   1      43.085  27.026  26.493  1.00  0.00     0.012 A 
ATOM     75  C   UNL A   1      42.017  25.026  27.363  1.00  0.00     0.148 A 
ATOM     76  C   UNL A   1      43.505  26.319  25.364  1.00  0.00     0.002 A 
ATOM     77  C   UNL A   1      42.487  24.313  26.266  1.00  0.00     0.091 A 
ATOM     78  F   UNL A   1      41.281  24.445  28.321  1.00  0.00    -0.205 F 
ATOM     79  C   UNL A   1      43.215  24.962  25.256  1.00  0.00     0.022 A 
BRANCH  77  80
ATOM     80  S   UNL A   1      42.275  22.537  26.109  1.00  0.00     0.127 S 
ATOM     81  O   UNL A   1      40.821  22.407  26.130  1.00  0.00    -0.237 OA
ATOM     82  O   UNL A   1      42.900  22.273  24.813  1.00  0.00    -0.237 OA
ATOM     83  O   UNL A   1      42.979  21.955  27.243  1.00  0.00    -0.744 OA
ENDBRANCH  77  80
ENDBRANCH  49  73
BRANCH  61  84
ATOM     84  C   UNL A   1      44.786  27.177  33.982  1.00  0.00     0.023 A 
ATOM     85  C   UNL A   1      46.043  27.813  33.957  1.00  0.00     0.012 A 
ATOM     86  C   UNL A   1      44.614  26.015  34.761  1.00  0.00     0.148 A 
ATOM     87  C   UNL A   1      47.118  27.284  34.669  1.00  0.00     0.002 A 
ATOM     88  C   UNL A   1      45.676  25.524  35.510  1.00  0.00     0.091 A 
ATOM     89  F   UNL A   1      43.415  25.415  34.757  1.00  0.00    -0.205 F 
ATOM     90  C   UNL A   1      46.932  26.147  35.454  1.00  0.00     0.022 A 
BRANCH  88  91
ATOM     91  S   UNL A   1      45.502  24.128  36.627  1.00  0.00     0.127 S 
ATOM     92  O   UNL A   1      46.851  24.018  37.178  1.00  0.00    -0.237 OA
ATOM     93  O   UNL A   1      44.495  24.614  37.572  1.00  0.00    -0.237 OA
ATOM     94  O   UNL A   1      45.070  23.005  35.806  1.00  0.00    -0.744 OA
ENDBRANCH  88  91
ENDBRANCH  61  84
ENDBRANCH  35  36
ENDBRANCH  27  30
ENDBRANCH  25  26
ENDBRANCH  24  25
ENDBRANCH  23  24
ENDBRANCH   1  23
TORSDOF 19
ENDMDL
MODEL 2
REMARK VINA RESULT:     -11.2      2.272      8.152
REMARK SMILES C[C@H](Cc1ccco1)[NH2+]Cc1cc(C(=O)NCCCCNC(=O)c2ccc(-c3c4nc(c(-c5cccc(S(=O)(=O)[O-])c5F)c5ccc([nH]5)c(-c5cccc(S(=O)(=O)[O-])c5F)c5nc(c(-c6cccc(S(=O)(=O)[O-])c6F)c6ccc3[nH]6)C=C5)C=C4)cc2)cs1
REMARK SMILES IDX 17 1 16 2 14 3 15 4 13 6 11 7 12 8 88 9 87 10 10 11 9 12
REMARK SMILES IDX 2 15 1 16 3 17 4 18 5 19 8 20 6 21 7 22 18 23 19 24 20 25
REMARK SMILES IDX 21 26 22 27 23 29 24 30 25 31 86 32 26 33 85 34 27 35 28 36
REMARK SMILES IDX 29 37 79 38 30 39 84 40 78 41 80 42 31 43 83 44 77 45 76 46
REMARK SMILES IDX 32 48 64 49 44 50 63 51 45 52 48 53 62 54 81 55 46 56 47 57
REMARK SMILES IDX 61 59 82 60 49 61 33 62 34 63 42 64 35 65 37 66 43 67 36 68
REMARK SMILES IDX 38 69 39 70 40 71 41 72 65 73 66 74 74 75 67 76 69 77 75 78
REMARK SMILES IDX 68 79 70 80 71 81 72 82 73 83 50 84 51 85 59 86 52 87 54 88
REMARK SMILES IDX 60 89 53 90 55 91 56 92 57 93 58 94
REMARK H PARENT 16 5 9 13 9 14 21 28 80 47 48 58
REMARK Flexibility Score: inf
ROOT
ATOM      1  C   UNL A   1      31.902  29.837  27.269  1.00  0.00     0.116 C 
ENDROOT
BRANCH   1   2
ATOM      2  N   UNL A   1      33.320  29.670  27.474  1.00  0.00    -0.352 N 
ATOM      3  C   UNL A   1      34.238  28.822  26.907  1.00  0.00     0.252 C 
ATOM      4  O   UNL A   1      35.409  28.971  27.249  1.00  0.00    -0.269 OA
ATOM      5  H   UNL A   1      33.702  30.280  28.146  1.00  0.00     0.163 HD
BRANCH   3   6
ATOM      6  C   UNL A   1      33.870  27.823  25.891  1.00  0.00     0.051 A 
ATOM      7  C   UNL A   1      33.030  25.894  24.830  1.00  0.00     0.059 A 
ATOM      8  C   UNL A   1      33.588  26.416  25.985  1.00  0.00     0.035 A 
ATOM      9  S   UNL A   1      33.254  26.966  23.516  1.00  0.00    -0.142 S 
ATOM     10  C   UNL A   1      33.765  28.211  24.562  1.00  0.00     0.079 A 
BRANCH   7  11
ATOM     11  C   UNL A   1      32.325  24.583  24.630  1.00  0.00     0.308 C 
BRANCH  11  12
ATOM     12  N   UNL A   1      32.936  23.481  25.377  1.00  0.00    -0.339 N 
ATOM     13  H   UNL A   1      33.830  23.815  25.737  1.00  0.00     0.346 HD
ATOM     14  H   UNL A   1      32.243  23.233  26.083  1.00  0.00     0.346 HD
BRANCH  12  15
ATOM     15  C   UNL A   1      33.195  22.222  24.654  1.00  0.00     0.187 C 
ATOM     16  C   UNL A   1      32.710  22.150  23.200  1.00  0.00     0.075 C 
BRANCH  15  17
ATOM     17  C   UNL A   1      32.670  20.995  25.452  1.00  0.00     0.140 C 
BRANCH  17  18
ATOM     18  C   UNL A   1      33.102  19.643  24.987  1.00  0.00     0.109 A 
ATOM     19  C   UNL A   1      34.293  19.068  24.596  1.00  0.00     0.046 A 
ATOM     20  O   UNL A   1      32.108  18.707  24.906  1.00  0.00    -0.469 OA
ATOM     21  C   UNL A   1      34.011  17.735  24.220  1.00  0.00     0.042 A 
ATOM     22  C   UNL A   1      32.668  17.561  24.442  1.00  0.00     0.195 A 
ENDBRANCH  17  18
ENDBRANCH  15  17
ENDBRANCH  12  15
ENDBRANCH  11  12
ENDBRANCH   7  11
ENDBRANCH   3   6
ENDBRANCH   1   2
BRANCH   1  23
ATOM     23  C   UNL A   1      31.607  30.916  26.231  1.00  0.00     0.023 C 
BRANCH  23  24
ATOM     24  C   UNL A   1      31.399  32.307  26.836  1.00  0.00     0.023 C 
BRANCH  24  25
ATOM     25  C   UNL A   1      32.672  33.128  27.020  1.00  0.00     0.116 C 
BRANCH  25  26
ATOM     26  N   UNL A   1      32.456  34.379  27.735  1.00  0.00    -0.352 N 
ATOM     27  C   UNL A   1      33.134  34.856  28.832  1.00  0.00     0.251 C 
ATOM     28  H   UNL A   1      31.735  34.954  27.390  1.00  0.00     0.163 HD
ATOM     29  O   UNL A   1      32.766  35.885  29.390  1.00  0.00    -0.269 OA
BRANCH  27  30
ATOM     30  C   UNL A   1      34.288  34.092  29.349  1.00  0.00     0.039 A 
ATOM     31  C   UNL A   1      35.577  34.476  28.976  1.00  0.00     0.014 A 
ATOM     32  C   UNL A   1      34.094  33.044  30.253  1.00  0.00     0.014 A 
ATOM     33  C   UNL A   1      36.678  33.852  29.565  1.00  0.00     0.010 A 
ATOM     34  C   UNL A   1      35.190  32.480  30.895  1.00  0.00     0.010 A 
ATOM     35  C   UNL A   1      36.494  32.876  30.559  1.00  0.00    -0.014 A 
BRANCH  35  36
ATOM     36  C   UNL A   1      37.650  32.275  31.273  1.00  0.00     0.031 A 
ATOM     37  C   UNL A   1      38.410  31.131  30.655  1.00  0.00     0.074 A 
ATOM     38  C   UNL A   1      37.961  32.697  32.515  1.00  0.00     0.049 A 
ATOM     39  N   UNL A   1      39.407  30.444  31.148  1.00  0.00    -0.248 NA
ATOM     40  C   UNL A   1      37.976  30.683  29.322  1.00  0.00     0.031 C 
ATOM     41  C   UNL A   1      37.250  33.742  33.256  1.00  0.00     0.029 A 
ATOM     42  N   UNL A   1      38.939  32.283  33.385  1.00  0.00    -0.354 N 
ATOM     43  C   UNL A   1      39.696  29.464  30.206  1.00  0.00     0.074 A 
ATOM     44  C   UNL A   1      38.744  29.621  29.128  1.00  0.00     0.031 C 
ATOM     45  C   UNL A   1      37.819  33.891  34.463  1.00  0.00     0.029 A 
ATOM     46  C   UNL A   1      38.910  32.932  34.598  1.00  0.00     0.049 A 
ATOM     47  H   UNL A   1      39.598  31.587  33.162  1.00  0.00     0.167 HD
ATOM     48  C   UNL A   1      40.680  28.534  30.221  1.00  0.00     0.034 A 
ATOM     49  C   UNL A   1      39.669  32.766  35.699  1.00  0.00     0.034 A 
ATOM     50  C   UNL A   1      41.646  28.404  31.279  1.00  0.00     0.049 A 
ATOM     51  C   UNL A   1      40.775  31.746  35.679  1.00  0.00     0.074 A 
ATOM     52  C   UNL A   1      42.735  27.552  31.346  1.00  0.00     0.029 A 
ATOM     53  N   UNL A   1      41.634  29.133  32.457  1.00  0.00    -0.354 N 
ATOM     54  N   UNL A   1      41.131  30.934  34.713  1.00  0.00    -0.248 NA
ATOM     55  C   UNL A   1      41.609  31.644  36.885  1.00  0.00     0.031 C 
ATOM     56  C   UNL A   1      43.360  27.742  32.583  1.00  0.00     0.029 A 
ATOM     57  C   UNL A   1      42.688  28.743  33.265  1.00  0.00     0.049 A 
ATOM     58  H   UNL A   1      40.974  29.826  32.686  1.00  0.00     0.167 HD
ATOM     59  C   UNL A   1      42.252  30.257  35.177  1.00  0.00     0.074 A 
ATOM     60  C   UNL A   1      42.527  30.766  36.504  1.00  0.00     0.031 C 
ATOM     61  C   UNL A   1      42.983  29.294  34.563  1.00  0.00     0.034 A 
BRANCH  48  62
ATOM     62  C   UNL A   1      40.792  27.610  29.037  1.00  0.00     0.023 A 
ATOM     63  C   UNL A   1      39.942  26.488  28.943  1.00  0.00     0.012 A 
ATOM     64  C   UNL A   1      41.693  27.882  27.990  1.00  0.00     0.148 A 
ATOM     65  C   UNL A   1      40.012  25.633  27.844  1.00  0.00     0.002 A 
ATOM     66  C   UNL A   1      41.724  27.053  26.875  1.00  0.00     0.091 A 
ATOM     67  F   UNL A   1      42.507  28.941  28.105  1.00  0.00    -0.205 F 
ATOM     68  C   UNL A   1      40.894  25.921  26.807  1.00  0.00     0.022 A 
BRANCH  66  69
ATOM     69  S   UNL A   1      42.763  27.383  25.447  1.00  0.00     0.127 S 
ATOM     70  O   UNL A   1      42.189  28.633  24.950  1.00  0.00    -0.237 OA
ATOM     71  O   UNL A   1      44.086  27.519  26.055  1.00  0.00    -0.237 OA
ATOM     72  O   UNL A   1      42.612  26.234  24.565  1.00  0.00    -0.744 OA
ENDBRANCH  66  69
ENDBRANCH  48  62
BRANCH  49  73
ATOM     73  C   UNL A   1      39.444  33.623  36.899  1.00  0.00     0.023 A 
ATOM     74  C   UNL A   1      39.872  34.965  36.884  1.00  0.00     0.012 A 
ATOM     75  C   UNL A   1      38.797  33.122  38.045  1.00  0.00     0.148 A 
ATOM     76  C   UNL A   1      39.694  35.782  38.002  1.00  0.00     0.002 A 
ATOM     77  C   UNL A   1      38.570  33.957  39.132  1.00  0.00     0.091 A 
ATOM     78  F   UNL A   1      38.405  31.840  38.042  1.00  0.00    -0.205 F 
ATOM     79  C   UNL A   1      39.035  35.281  39.121  1.00  0.00     0.022 A 
BRANCH  77  80
ATOM     80  S   UNL A   1      37.615  33.438  40.562  1.00  0.00     0.127 S 
ATOM     81  O   UNL A   1      38.485  32.423  41.150  1.00  0.00    -0.237 OA
ATOM     82  O   UNL A   1      37.514  34.682  41.324  1.00  0.00    -0.237 OA
ATOM     83  O   UNL A   1      36.347  32.954  40.033  1.00  0.00    -0.744 OA
ENDBRANCH  77  80
ENDBRANCH  49  73
BRANCH  61  84
ATOM     84  C   UNL A   1      44.188  28.755  35.290  1.00  0.00     0.023 A 
ATOM     85  C   UNL A   1      45.442  29.380  35.144  1.00  0.00     0.012 A 
ATOM     86  C   UNL A   1      44.053  27.673  36.183  1.00  0.00     0.148 A 
ATOM     87  C   UNL A   1      46.551  28.914  35.848  1.00  0.00     0.002 A 
ATOM     88  C   UNL A   1      45.151  27.248  36.921  1.00  0.00     0.091 A 
ATOM     89  F   UNL A   1      42.855  27.081  36.295  1.00  0.00    -0.205 F 
ATOM     90  C   UNL A   1      46.403  27.857  36.746  1.00  0.00     0.022 A 
BRANCH  88  91
ATOM     91  S   UNL A   1      45.032  25.965  38.173  1.00  0.00     0.127 S 
ATOM     92  O   UNL A   1      46.438  25.740  38.502  1.00  0.00    -0.237 OA
ATOM     93  O   UNL A   1      44.259  26.629  39.222  1.00  0.00    -0.237 OA
ATOM     94  O   UNL A   1      44.353  24.844  37.538  1.00  0.00    -0.744 OA
ENDBRANCH  88  91
ENDBRANCH  61  84
ENDBRANCH  35  36
ENDBRANCH  27  30
ENDBRANCH  25  26
ENDBRANCH  24  25
ENDBRANCH  23  24
ENDBRANCH   1  23
TORSDOF 19
ENDMDL
MODEL 3
REMARK VINA RESULT:     -10.8      5.189     10.160
REMARK SMILES C[C@H](Cc1ccco1)[NH2+]Cc1cc(C(=O)NCCCCNC(=O)c2ccc(-c3c4nc(c(-c5cccc(S(=O)(=O)[O-])c5F)c5ccc([nH]5)c(-c5cccc(S(=O)(=O)[O-])c5F)c5nc(c(-c6cccc(S(=O)(=O)[O-])c6F)c6ccc3[nH]6)C=C5)C=C4)cc2)cs1
REMARK SMILES IDX 17 1 16 2 14 3 15 4 13 6 11 7 12 8 88 9 87 10 10 11 9 12
REMARK SMILES IDX 2 15 1 16 3 17 4 18 5 19 8 20 6 21 7 22 18 23 19 24 20 25
REMARK SMILES IDX 21 26 22 27 23 29 24 30 25 31 86 32 26 33 85 34 27 35 28 36
REMARK SMILES IDX 29 37 79 38 30 39 84 40 78 41 80 42 31 43 83 44 77 45 76 46
REMARK SMILES IDX 32 48 64 49 44 50 63 51 45 52 48 53 62 54 81 55 46 56 47 57
REMARK SMILES IDX 61 59 82 60 49 61 33 62 34 63 42 64 35 65 37 66 43 67 36 68
REMARK SMILES IDX 38 69 39 70 40 71 41 72 65 73 66 74 74 75 67 76 69 77 75 78
REMARK SMILES IDX 68 79 70 80 71 81 72 82 73 83 50 84 51 85 59 86 52 87 54 88
REMARK SMILES IDX 60 89 53 90 55 91 56 92 57 93 58 94
REMARK H PARENT 16 5 9 13 9 14 21 28 80 47 48 58
REMARK Flexibility Score: inf
ROOT
ATOM      1  C   UNL A   1      34.499  20.908  24.828  1.00  0.00     0.116 C 
ENDROOT
BRANCH   1   2
ATOM      2  N   UNL A   1      33.962  21.497  26.031  1.00  0.00    -0.352 N 
ATOM      3  C   UNL A   1      33.125  22.564  26.238  1.00  0.00     0.252 C 
ATOM      4  O   UNL A   1      32.788  22.781  27.400  1.00  0.00    -0.269 OA
ATOM      5  H   UNL A   1      34.250  21.049  26.859  1.00  0.00     0.163 HD
BRANCH   3   6
ATOM      6  C   UNL A   1      32.591  23.377  25.134  1.00  0.00     0.051 A 
ATOM      7  C   UNL A   1      32.420  24.768  23.239  1.00  0.00     0.059 A 
ATOM      8  C   UNL A   1      33.168  24.441  24.359  1.00  0.00     0.035 A 
ATOM      9  S   UNL A   1      30.841  24.121  23.362  1.00  0.00    -0.142 S 
ATOM     10  C   UNL A   1      31.291  23.161  24.697  1.00  0.00     0.079 A 
BRANCH   7  11
ATOM     11  C   UNL A   1      32.818  25.580  22.041  1.00  0.00     0.308 C 
BRANCH  11  12
ATOM     12  N   UNL A   1      31.912  26.702  21.778  1.00  0.00    -0.339 N 
ATOM     13  H   UNL A   1      31.978  26.922  20.785  1.00  0.00     0.346 HD
ATOM     14  H   UNL A   1      30.999  26.375  22.096  1.00  0.00     0.346 HD
BRANCH  12  15
ATOM     15  C   UNL A   1      32.137  27.955  22.523  1.00  0.00     0.187 C 
ATOM     16  C   UNL A   1      33.554  28.191  23.061  1.00  0.00     0.075 C 
BRANCH  15  17
ATOM     17  C   UNL A   1      31.098  28.124  23.668  1.00  0.00     0.140 C 
BRANCH  17  18
ATOM     18  C   UNL A   1      29.751  28.651  23.294  1.00  0.00     0.109 A 
ATOM     19  C   UNL A   1      28.473  28.136  23.230  1.00  0.00     0.046 A 
ATOM     20  O   UNL A   1      29.722  29.962  22.906  1.00  0.00    -0.469 OA
ATOM     21  C   UNL A   1      27.632  29.161  22.743  1.00  0.00     0.042 A 
ATOM     22  C   UNL A   1      28.439  30.258  22.576  1.00  0.00     0.195 A 
ENDBRANCH  17  18
ENDBRANCH  15  17
ENDBRANCH  12  15
ENDBRANCH  11  12
ENDBRANCH   7  11
ENDBRANCH   3   6
ENDBRANCH   1   2
BRANCH   1  23
ATOM     23  C   UNL A   1      36.004  21.138  24.712  1.00  0.00     0.023 C 
BRANCH  23  24
ATOM     24  C   UNL A   1      36.382  22.601  24.474  1.00  0.00     0.023 C 
BRANCH  24  25
ATOM     25  C   UNL A   1      37.347  23.194  25.497  1.00  0.00     0.116 C 
BRANCH  25  26
ATOM     26  N   UNL A   1      38.516  22.359  25.741  1.00  0.00    -0.352 N 
ATOM     27  C   UNL A   1      39.718  22.726  26.300  1.00  0.00     0.251 C 
ATOM     28  H   UNL A   1      38.436  21.415  25.473  1.00  0.00     0.163 HD
ATOM     29  O   UNL A   1      40.651  21.931  26.345  1.00  0.00    -0.269 OA
BRANCH  27  30
ATOM     30  C   UNL A   1      39.879  24.103  26.810  1.00  0.00     0.039 A 
ATOM     31  C   UNL A   1      39.699  24.346  28.173  1.00  0.00     0.014 A 
ATOM     32  C   UNL A   1      40.274  25.134  25.953  1.00  0.00     0.014 A 
ATOM     33  C   UNL A   1      39.982  25.612  28.690  1.00  0.00     0.010 A 
ATOM     34  C   UNL A   1      40.631  26.369  26.482  1.00  0.00     0.010 A 
ATOM     35  C   UNL A   1      40.490  26.622  27.855  1.00  0.00    -0.014 A 
BRANCH  35  36
ATOM     36  C   UNL A   1      40.897  27.942  28.403  1.00  0.00     0.031 A 
ATOM     37  C   UNL A   1      42.354  28.264  28.600  1.00  0.00     0.074 A 
ATOM     38  C   UNL A   1      39.953  28.816  28.808  1.00  0.00     0.049 A 
ATOM     39  N   UNL A   1      42.897  29.337  29.114  1.00  0.00    -0.248 NA
ATOM     40  C   UNL A   1      43.326  27.238  28.191  1.00  0.00     0.031 C 
ATOM     41  C   UNL A   1      38.507  28.588  28.747  1.00  0.00     0.029 A 
ATOM     42  N   UNL A   1      40.067  30.061  29.375  1.00  0.00    -0.354 N 
ATOM     43  C   UNL A   1      44.267  29.102  29.123  1.00  0.00     0.074 A 
ATOM     44  C   UNL A   1      44.470  27.769  28.598  1.00  0.00     0.031 C 
ATOM     45  C   UNL A   1      37.870  29.658  29.248  1.00  0.00     0.029 A 
ATOM     46  C   UNL A   1      38.858  30.633  29.700  1.00  0.00     0.049 A 
ATOM     47  H   UNL A   1      40.932  30.502  29.536  1.00  0.00     0.167 HD
ATOM     48  C   UNL A   1      45.269  29.928  29.507  1.00  0.00     0.034 A 
ATOM     49  C   UNL A   1      38.577  31.805  30.302  1.00  0.00     0.034 A 
ATOM     50  C   UNL A   1      45.064  31.265  29.996  1.00  0.00     0.049 A 
ATOM     51  C   UNL A   1      39.708  32.717  30.692  1.00  0.00     0.074 A 
ATOM     52  C   UNL A   1      46.018  32.212  30.329  1.00  0.00     0.029 A 
ATOM     53  N   UNL A   1      43.828  31.840  30.236  1.00  0.00    -0.354 N 
ATOM     54  N   UNL A   1      40.999  32.540  30.547  1.00  0.00    -0.248 NA
ATOM     55  C   UNL A   1      39.345  34.008  31.295  1.00  0.00     0.031 C 
ATOM     56  C   UNL A   1      45.355  33.348  30.803  1.00  0.00     0.029 A 
ATOM     57  C   UNL A   1      43.990  33.125  30.724  1.00  0.00     0.049 A 
ATOM     58  H   UNL A   1      42.960  31.401  30.082  1.00  0.00     0.167 HD
ATOM     59  C   UNL A   1      41.599  33.709  31.000  1.00  0.00     0.074 A 
ATOM     60  C   UNL A   1      40.529  34.596  31.408  1.00  0.00     0.031 C 
ATOM     61  C   UNL A   1      42.916  34.017  31.078  1.00  0.00     0.034 A 
BRANCH  48  62
ATOM     62  C   UNL A   1      46.683  29.427  29.373  1.00  0.00     0.023 A 
ATOM     63  C   UNL A   1      47.312  28.806  30.472  1.00  0.00     0.012 A 
ATOM     64  C   UNL A   1      47.368  29.515  28.146  1.00  0.00     0.148 A 
ATOM     65  C   UNL A   1      48.612  28.314  30.364  1.00  0.00     0.002 A 
ATOM     66  C   UNL A   1      48.645  28.979  28.030  1.00  0.00     0.091 A 
ATOM     67  F   UNL A   1      46.763  30.126  27.118  1.00  0.00    -0.205 F 
ATOM     68  C   UNL A   1      49.273  28.390  29.141  1.00  0.00     0.022 A 
BRANCH  66  69
ATOM     69  S   UNL A   1      49.550  28.950  26.479  1.00  0.00     0.127 S 
ATOM     70  O   UNL A   1      50.044  30.324  26.401  1.00  0.00    -0.237 OA
ATOM     71  O   UNL A   1      50.580  27.946  26.743  1.00  0.00    -0.237 OA
ATOM     72  O   UNL A   1      48.583  28.576  25.456  1.00  0.00    -0.744 OA
ENDBRANCH  66  69
ENDBRANCH  48  62
BRANCH  49  73
ATOM     73  C   UNL A   1      37.159  32.209  30.527  1.00  0.00     0.023 A 
ATOM     74  C   UNL A   1      36.559  31.972  31.779  1.00  0.00     0.012 A 
ATOM     75  C   UNL A   1      36.409  32.839  29.515  1.00  0.00     0.148 A 
ATOM     76  C   UNL A   1      35.227  32.321  32.008  1.00  0.00     0.002 A 
ATOM     77  C   UNL A   1      35.102  33.237  29.768  1.00  0.00     0.091 A 
ATOM     78  F   UNL A   1      36.995  33.048  28.328  1.00  0.00    -0.205 F 
ATOM     79  C   UNL A   1      34.502  32.961  31.007  1.00  0.00     0.022 A 
BRANCH  77  80
ATOM     80  S   UNL A   1      34.137  34.183  28.586  1.00  0.00     0.127 S 
ATOM     81  O   UNL A   1      34.984  35.355  28.381  1.00  0.00    -0.237 OA
ATOM     82  O   UNL A   1      34.067  33.265  27.450  1.00  0.00    -0.237 OA
ATOM     83  O   UNL A   1      32.857  34.434  29.235  1.00  0.00    -0.744 OA
ENDBRANCH  77  80
ENDBRANCH  49  73
BRANCH  61  84
ATOM     84  C   UNL A   1      43.288  35.390  31.577  1.00  0.00     0.023 A 
ATOM     85  C   UNL A   1      43.464  35.621  32.955  1.00  0.00     0.012 A 
ATOM     86  C   UNL A   1      43.538  36.434  30.663  1.00  0.00     0.148 A 
ATOM     87  C   UNL A   1      43.850  36.877  33.419  1.00  0.00     0.002 A 
ATOM     88  C   UNL A   1      43.974  37.668  31.129  1.00  0.00     0.091 A 
ATOM     89  F   UNL A   1      43.348  36.199  29.357  1.00  0.00    -0.205 F 
ATOM     90  C   UNL A   1      44.118  37.896  32.507  1.00  0.00     0.022 A 
BRANCH  88  91
ATOM     91  S   UNL A   1      44.440  39.005  30.023  1.00  0.00     0.127 S 
ATOM     92  O   UNL A   1      43.158  39.339  29.406  1.00  0.00    -0.237 OA
ATOM     93  O   UNL A   1      44.949  40.012  30.955  1.00  0.00    -0.237 OA
ATOM     94  O   UNL A   1      45.441  38.453  29.122  1.00  0.00    -0.744 OA
ENDBRANCH  88  91
ENDBRANCH  61  84
ENDBRANCH  35  36
ENDBRANCH  27  30
ENDBRANCH  25  26
ENDBRANCH  24  25
ENDBRANCH  23  24
ENDBRANCH   1  23
TORSDOF 19
ENDMDL
