MODEL 1
REMARK VINA RESULT:     -12.3      0.000      0.000
REMARK SMILES Cn1cc([N+](=O)[O-])cc1C(=O)N1CCC[C@@H](C(=O)NCCCCNC(=O)c2ccc(-c3c4nc(c(-c5cccc(S(=O)(=O)[O-])c5F)c5ccc([nH]5)c(-c5cccc(S(=O)(=O)[O-])c5F)c5nc(c(-c6cccc(S(=O)(=O)[O-])c6F)c6ccc3[nH]6)C=C5)C=C4)cc2)C1
REMARK SMILES IDX 21 1 20 2 19 3 17 4 18 5 16 7 12 8 13 9 90 10 14 11 15 12
REMARK SMILES IDX 10 13 11 14 9 15 1 16 2 17 3 18 4 19 8 20 5 21 6 22 7 23
REMARK SMILES IDX 22 24 23 25 24 26 25 27 26 29 27 30 28 31 89 32 29 33 88 34
REMARK SMILES IDX 30 35 31 36 32 37 82 38 33 39 87 40 81 41 83 42 34 43 86 44
REMARK SMILES IDX 80 45 79 46 35 48 67 49 47 50 66 51 48 52 51 53 65 54 84 55
REMARK SMILES IDX 49 56 50 57 64 59 85 60 52 61 36 62 37 63 45 64 38 65 40 66
REMARK SMILES IDX 46 67 39 68 41 69 42 70 43 71 44 72 68 73 69 74 77 75 70 76
REMARK SMILES IDX 72 77 78 78 71 79 73 80 74 81 75 82 76 83 53 84 54 85 62 86
REMARK SMILES IDX 55 87 57 88 63 89 56 90 58 91 59 92 60 93 61 94
REMARK H PARENT 19 6 24 28 83 47 51 58
REMARK Flexibility Score: inf
ROOT
ATOM      1  C   UNL A   1      32.821  29.009  24.289  1.00  0.00     0.023 C 
ENDROOT
BRANCH   1   2
ATOM      2  C   UNL A   1      32.337  28.882  22.847  1.00  0.00     0.116 C 
BRANCH   2   3
ATOM      3  N   UNL A   1      33.058  27.865  22.099  1.00  0.00    -0.356 N 
ATOM      4  C   UNL A   1      32.927  26.509  22.057  1.00  0.00     0.224 C 
ATOM      5  O   UNL A   1      33.646  25.886  21.273  1.00  0.00    -0.275 OA
ATOM      6  H   UNL A   1      33.770  28.219  21.518  1.00  0.00     0.163 HD
BRANCH   4   7
ATOM      7  C   UNL A   1      31.938  25.763  22.944  1.00  0.00     0.098 C 
ATOM      8  N   UNL A   1      31.615  25.068  25.332  1.00  0.00    -0.337 N 
ATOM      9  C   UNL A   1      30.438  25.922  25.423  1.00  0.00     0.120 C 
ATOM     10  C   UNL A   1      32.587  25.421  24.297  1.00  0.00     0.133 C 
ATOM     11  C   UNL A   1      29.684  25.937  24.107  1.00  0.00     0.022 C 
ATOM     12  C   UNL A   1      30.576  26.473  22.994  1.00  0.00     0.017 C 
BRANCH   8  13
ATOM     13  C   UNL A   1      31.669  23.941  26.151  1.00  0.00     0.270 C 
ATOM     14  O   UNL A   1      31.155  23.968  27.270  1.00  0.00    -0.267 OA
BRANCH  13  15
ATOM     15  C   UNL A   1      32.374  22.743  25.711  1.00  0.00     0.114 A 
ATOM     16  C   UNL A   1      34.641  23.008  26.833  1.00  0.00     0.150 C 
ATOM     17  N   UNL A   1      33.659  22.327  26.015  1.00  0.00    -0.340 N 
ATOM     18  C   UNL A   1      33.861  21.041  25.563  1.00  0.00     0.172 A 
ATOM     19  C   UNL A   1      32.681  20.586  25.013  1.00  0.00     0.287 A 
ATOM     20  C   UNL A   1      31.764  21.664  25.072  1.00  0.00     0.119 A 
BRANCH  19  21
ATOM     21  N   UNL A   1      32.436  19.247  24.539  1.00  0.00     0.064 N 
ATOM     22  O   UNL A   1      32.553  19.044  23.323  1.00  0.00    -0.258 OA
ATOM     23  O   UNL A   1      32.150  18.395  25.392  1.00  0.00    -0.258 OA
ENDBRANCH  19  21
ENDBRANCH  13  15
ENDBRANCH   8  13
ENDBRANCH   4   7
ENDBRANCH   2   3
ENDBRANCH   1   2
BRANCH   1  24
ATOM     24  C   UNL A   1      31.729  29.255  25.331  1.00  0.00     0.023 C 
BRANCH  24  25
ATOM     25  C   UNL A   1      32.202  29.813  26.669  1.00  0.00     0.116 C 
BRANCH  25  26
ATOM     26  N   UNL A   1      32.230  31.268  26.708  1.00  0.00    -0.352 N 
ATOM     27  C   UNL A   1      33.166  32.108  27.264  1.00  0.00     0.251 C 
ATOM     28  H   UNL A   1      31.468  31.715  26.274  1.00  0.00     0.163 HD
ATOM     29  O   UNL A   1      32.954  33.317  27.287  1.00  0.00    -0.269 OA
BRANCH  27  30
ATOM     30  C   UNL A   1      34.406  31.558  27.858  1.00  0.00     0.039 A 
ATOM     31  C   UNL A   1      35.503  32.407  28.031  1.00  0.00     0.014 A 
ATOM     32  C   UNL A   1      34.490  30.219  28.246  1.00  0.00     0.014 A 
ATOM     33  C   UNL A   1      36.659  31.931  28.657  1.00  0.00     0.010 A 
ATOM     34  C   UNL A   1      35.615  29.765  28.930  1.00  0.00     0.010 A 
ATOM     35  C   UNL A   1      36.713  30.614  29.141  1.00  0.00    -0.014 A 
BRANCH  35  36
ATOM     36  C   UNL A   1      37.898  30.104  29.877  1.00  0.00     0.031 A 
ATOM     37  C   UNL A   1      38.173  30.568  31.282  1.00  0.00     0.074 A 
ATOM     38  C   UNL A   1      38.782  29.304  29.249  1.00  0.00     0.049 A 
ATOM     39  N   UNL A   1      39.196  30.304  32.052  1.00  0.00    -0.248 NA
ATOM     40  C   UNL A   1      37.183  31.474  31.889  1.00  0.00     0.031 C 
ATOM     41  C   UNL A   1      38.676  28.852  27.860  1.00  0.00     0.029 A 
ATOM     42  N   UNL A   1      39.962  28.755  29.687  1.00  0.00    -0.354 N 
ATOM     43  C   UNL A   1      38.999  31.043  33.212  1.00  0.00     0.074 A 
ATOM     44  C   UNL A   1      37.770  31.787  33.036  1.00  0.00     0.031 C 
ATOM     45  C   UNL A   1      39.745  28.097  27.560  1.00  0.00     0.029 A 
ATOM     46  C   UNL A   1      40.622  28.025  28.726  1.00  0.00     0.049 A 
ATOM     47  H   UNL A   1      40.304  28.874  30.602  1.00  0.00     0.167 HD
ATOM     48  C   UNL A   1      39.752  31.077  34.336  1.00  0.00     0.034 A 
ATOM     49  C   UNL A   1      41.797  27.368  28.778  1.00  0.00     0.034 A 
ATOM     50  C   UNL A   1      40.933  30.282  34.541  1.00  0.00     0.049 A 
ATOM     51  C   UNL A   1      42.569  27.348  30.071  1.00  0.00     0.074 A 
ATOM     52  C   UNL A   1      41.711  30.173  35.679  1.00  0.00     0.029 A 
ATOM     53  N   UNL A   1      41.500  29.451  33.588  1.00  0.00    -0.354 N 
ATOM     54  N   UNL A   1      42.280  27.925  31.211  1.00  0.00    -0.248 NA
ATOM     55  C   UNL A   1      43.807  26.556  30.095  1.00  0.00     0.031 C 
ATOM     56  C   UNL A   1      42.748  29.270  35.415  1.00  0.00     0.029 A 
ATOM     57  C   UNL A   1      42.613  28.818  34.113  1.00  0.00     0.049 A 
ATOM     58  H   UNL A   1      41.160  29.327  32.672  1.00  0.00     0.167 HD
ATOM     59  C   UNL A   1      43.276  27.538  32.098  1.00  0.00     0.074 A 
ATOM     60  C   UNL A   1      44.169  26.661  31.368  1.00  0.00     0.031 C 
ATOM     61  C   UNL A   1      43.449  27.892  33.396  1.00  0.00     0.034 A 
BRANCH  48  62
ATOM     62  C   UNL A   1      39.277  31.947  35.468  1.00  0.00     0.023 A 
ATOM     63  C   UNL A   1      38.368  31.417  36.406  1.00  0.00     0.012 A 
ATOM     64  C   UNL A   1      39.757  33.259  35.636  1.00  0.00     0.148 A 
ATOM     65  C   UNL A   1      37.920  32.188  37.477  1.00  0.00     0.002 A 
ATOM     66  C   UNL A   1      39.335  34.010  36.728  1.00  0.00     0.091 A 
ATOM     67  F   UNL A   1      40.599  33.757  34.719  1.00  0.00    -0.205 F 
ATOM     68  C   UNL A   1      38.412  33.480  37.644  1.00  0.00     0.022 A 
BRANCH  66  69
ATOM     69  S   UNL A   1      39.967  35.660  37.060  1.00  0.00     0.127 S 
ATOM     70  O   UNL A   1      39.236  36.018  38.274  1.00  0.00    -0.237 OA
ATOM     71  O   UNL A   1      41.396  35.413  37.260  1.00  0.00    -0.237 OA
ATOM     72  O   UNL A   1      39.652  36.447  35.876  1.00  0.00    -0.744 OA
ENDBRANCH  66  69
ENDBRANCH  48  62
BRANCH  49  73
ATOM     73  C   UNL A   1      42.264  26.591  27.597  1.00  0.00     0.023 A 
ATOM     74  C   UNL A   1      43.082  27.224  26.641  1.00  0.00     0.012 A 
ATOM     75  C   UNL A   1      41.947  25.229  27.434  1.00  0.00     0.148 A 
ATOM     76  C   UNL A   1      43.553  26.523  25.530  1.00  0.00     0.002 A 
ATOM     77  C   UNL A   1      42.461  24.523  26.351  1.00  0.00     0.091 A 
ATOM     78  F   UNL A   1      41.154  24.645  28.345  1.00  0.00    -0.205 F 
ATOM     79  C   UNL A   1      43.253  25.171  25.391  1.00  0.00     0.022 A 
BRANCH  77  80
ATOM     80  S   UNL A   1      42.231  22.750  26.175  1.00  0.00     0.127 S 
ATOM     81  O   UNL A   1      42.906  22.483  24.910  1.00  0.00    -0.237 OA
ATOM     82  O   UNL A   1      42.913  22.230  27.361  1.00  0.00    -0.237 OA
ATOM     83  O   UNL A   1      40.786  22.548  26.187  1.00  0.00    -0.744 OA
ENDBRANCH  77  80
ENDBRANCH  49  73
BRANCH  61  84
ATOM     84  C   UNL A   1      44.627  27.310  34.130  1.00  0.00     0.023 A 
ATOM     85  C   UNL A   1      45.854  28.001  34.129  1.00  0.00     0.012 A 
ATOM     86  C   UNL A   1      44.495  26.130  34.888  1.00  0.00     0.148 A 
ATOM     87  C   UNL A   1      46.939  27.514  34.856  1.00  0.00     0.002 A 
ATOM     88  C   UNL A   1      45.570  25.672  35.641  1.00  0.00     0.091 A 
ATOM     89  F   UNL A   1      43.326  25.473  34.856  1.00  0.00    -0.205 F 
ATOM     90  C   UNL A   1      46.795  26.358  35.621  1.00  0.00     0.022 A 
BRANCH  88  91
ATOM     91  S   UNL A   1      45.432  24.242  36.719  1.00  0.00     0.127 S 
ATOM     92  O   UNL A   1      45.274  23.155  35.755  1.00  0.00    -0.237 OA
ATOM     93  O   UNL A   1      46.715  24.249  37.424  1.00  0.00    -0.237 OA
ATOM     94  O   UNL A   1      44.280  24.504  37.572  1.00  0.00    -0.744 OA
ENDBRANCH  88  91
ENDBRANCH  61  84
ENDBRANCH  35  36
ENDBRANCH  27  30
ENDBRANCH  25  26
ENDBRANCH  24  25
ENDBRANCH   1  24
TORSDOF 17
ENDMDL
MODEL 2
REMARK VINA RESULT:     -12.1      3.325      8.933
REMARK SMILES Cn1cc([N+](=O)[O-])cc1C(=O)N1CCC[C@@H](C(=O)NCCCCNC(=O)c2ccc(-c3c4nc(c(-c5cccc(S(=O)(=O)[O-])c5F)c5ccc([nH]5)c(-c5cccc(S(=O)(=O)[O-])c5F)c5nc(c(-c6cccc(S(=O)(=O)[O-])c6F)c6ccc3[nH]6)C=C5)C=C4)cc2)C1
REMARK SMILES IDX 21 1 20 2 19 3 17 4 18 5 16 7 12 8 13 9 90 10 14 11 15 12
REMARK SMILES IDX 10 13 11 14 9 15 1 16 2 17 3 18 4 19 8 20 5 21 6 22 7 23
REMARK SMILES IDX 22 24 23 25 24 26 25 27 26 29 27 30 28 31 89 32 29 33 88 34
REMARK SMILES IDX 30 35 31 36 32 37 82 38 33 39 87 40 81 41 83 42 34 43 86 44
REMARK SMILES IDX 80 45 79 46 35 48 67 49 47 50 66 51 48 52 51 53 65 54 84 55
REMARK SMILES IDX 49 56 50 57 64 59 85 60 52 61 36 62 37 63 45 64 38 65 40 66
REMARK SMILES IDX 46 67 39 68 41 69 42 70 43 71 44 72 68 73 69 74 77 75 70 76
REMARK SMILES IDX 72 77 78 78 71 79 73 80 74 81 75 82 76 83 53 84 54 85 62 86
REMARK SMILES IDX 55 87 57 88 63 89 56 90 58 91 59 92 60 93 61 94
REMARK H PARENT 19 6 24 28 83 47 51 58
REMARK Flexibility Score: inf
ROOT
ATOM      1  C   UNL A   1      34.563  30.918  27.732  1.00  0.00     0.023 C 
ENDROOT
BRANCH   1   2
ATOM      2  C   UNL A   1      34.228  29.525  27.204  1.00  0.00     0.116 C 
BRANCH   2   3
ATOM      3  N   UNL A   1      33.010  28.982  27.783  1.00  0.00    -0.356 N 
ATOM      4  C   UNL A   1      32.048  28.166  27.268  1.00  0.00     0.224 C 
ATOM      5  O   UNL A   1      31.137  27.807  28.017  1.00  0.00    -0.275 OA
ATOM      6  H   UNL A   1      32.851  29.253  28.717  1.00  0.00     0.163 HD
BRANCH   4   7
ATOM      7  C   UNL A   1      32.070  27.704  25.817  1.00  0.00     0.098 C 
ATOM      8  N   UNL A   1      31.544  28.532  23.509  1.00  0.00    -0.337 N 
ATOM      9  C   UNL A   1      32.951  28.422  23.147  1.00  0.00     0.120 C 
ATOM     10  C   UNL A   1      31.257  28.669  24.937  1.00  0.00     0.133 C 
ATOM     11  C   UNL A   1      33.589  27.229  23.834  1.00  0.00     0.022 C 
ATOM     12  C   UNL A   1      33.498  27.382  25.348  1.00  0.00     0.017 C 
BRANCH   8  13
ATOM     13  C   UNL A   1      30.597  28.393  22.496  1.00  0.00     0.270 C 
ATOM     14  O   UNL A   1      30.689  27.467  21.689  1.00  0.00    -0.267 OA
BRANCH  13  15
ATOM     15  C   UNL A   1      29.522  29.367  22.354  1.00  0.00     0.114 A 
ATOM     16  C   UNL A   1      27.565  28.176  23.459  1.00  0.00     0.150 C 
ATOM     17  N   UNL A   1      28.208  29.283  22.782  1.00  0.00    -0.340 N 
ATOM     18  C   UNL A   1      27.581  30.502  22.632  1.00  0.00     0.172 A 
ATOM     19  C   UNL A   1      28.506  31.408  22.161  1.00  0.00     0.287 A 
ATOM     20  C   UNL A   1      29.708  30.689  21.951  1.00  0.00     0.119 A 
BRANCH  19  21
ATOM     21  N   UNL A   1      28.286  32.822  21.988  1.00  0.00     0.064 N 
ATOM     22  O   UNL A   1      27.686  33.183  20.967  1.00  0.00    -0.258 OA
ATOM     23  O   UNL A   1      28.693  33.567  22.890  1.00  0.00    -0.258 OA
ENDBRANCH  19  21
ENDBRANCH  13  15
ENDBRANCH   8  13
ENDBRANCH   4   7
ENDBRANCH   2   3
ENDBRANCH   1   2
BRANCH   1  24
ATOM     24  C   UNL A   1      33.804  32.071  27.074  1.00  0.00     0.023 C 
BRANCH  24  25
ATOM     25  C   UNL A   1      32.576  32.574  27.827  1.00  0.00     0.116 C 
BRANCH  25  26
ATOM     26  N   UNL A   1      32.509  34.025  27.913  1.00  0.00    -0.352 N 
ATOM     27  C   UNL A   1      33.288  34.891  28.643  1.00  0.00     0.251 C 
ATOM     28  H   UNL A   1      31.805  34.447  27.371  1.00  0.00     0.163 HD
ATOM     29  O   UNL A   1      33.003  36.086  28.667  1.00  0.00    -0.269 OA
BRANCH  27  30
ATOM     30  C   UNL A   1      34.443  34.386  29.421  1.00  0.00     0.039 A 
ATOM     31  C   UNL A   1      34.206  33.774  30.656  1.00  0.00     0.014 A 
ATOM     32  C   UNL A   1      35.748  34.510  28.941  1.00  0.00     0.014 A 
ATOM     33  C   UNL A   1      35.272  33.224  31.375  1.00  0.00     0.010 A 
ATOM     34  C   UNL A   1      36.799  33.903  29.625  1.00  0.00     0.010 A 
ATOM     35  C   UNL A   1      36.573  33.254  30.849  1.00  0.00    -0.014 A 
BRANCH  35  36
ATOM     36  C   UNL A   1      37.712  32.612  31.554  1.00  0.00     0.031 A 
ATOM     37  C   UNL A   1      38.439  31.457  30.919  1.00  0.00     0.074 A 
ATOM     38  C   UNL A   1      38.026  32.997  32.806  1.00  0.00     0.049 A 
ATOM     39  N   UNL A   1      39.397  30.715  31.412  1.00  0.00    -0.248 NA
ATOM     40  C   UNL A   1      38.013  31.065  29.565  1.00  0.00     0.031 C 
ATOM     41  C   UNL A   1      37.342  34.045  33.566  1.00  0.00     0.029 A 
ATOM     42  N   UNL A   1      38.983  32.529  33.674  1.00  0.00    -0.354 N 
ATOM     43  C   UNL A   1      39.655  29.743  30.453  1.00  0.00     0.074 A 
ATOM     44  C   UNL A   1      38.736  29.974  29.358  1.00  0.00     0.031 C 
ATOM     45  C   UNL A   1      37.899  34.140  34.785  1.00  0.00     0.029 A 
ATOM     46  C   UNL A   1      38.967  33.150  34.901  1.00  0.00     0.049 A 
ATOM     47  H   UNL A   1      39.620  31.817  33.439  1.00  0.00     0.167 HD
ATOM     48  C   UNL A   1      40.593  28.767  30.464  1.00  0.00     0.034 A 
ATOM     49  C   UNL A   1      39.727  32.948  35.995  1.00  0.00     0.034 A 
ATOM     50  C   UNL A   1      41.553  28.583  31.518  1.00  0.00     0.049 A 
ATOM     51  C   UNL A   1      40.822  31.916  35.947  1.00  0.00     0.074 A 
ATOM     52  C   UNL A   1      42.603  27.684  31.578  1.00  0.00     0.029 A 
ATOM     53  N   UNL A   1      41.589  29.318  32.691  1.00  0.00    -0.354 N 
ATOM     54  N   UNL A   1      41.155  31.115  34.964  1.00  0.00    -0.248 NA
ATOM     55  C   UNL A   1      41.670  31.787  37.141  1.00  0.00     0.031 C 
ATOM     56  C   UNL A   1      43.277  27.881  32.789  1.00  0.00     0.029 A 
ATOM     57  C   UNL A   1      42.647  28.901  33.480  1.00  0.00     0.049 A 
ATOM     58  H   UNL A   1      40.955  30.034  32.929  1.00  0.00     0.167 HD
ATOM     59  C   UNL A   1      42.271  30.415  35.405  1.00  0.00     0.074 A 
ATOM     60  C   UNL A   1      42.569  30.899  36.738  1.00  0.00     0.031 C 
ATOM     61  C   UNL A   1      42.974  29.444  34.772  1.00  0.00     0.034 A 
BRANCH  48  62
ATOM     62  C   UNL A   1      40.676  27.868  29.260  1.00  0.00     0.023 A 
ATOM     63  C   UNL A   1      39.840  26.735  29.190  1.00  0.00     0.012 A 
ATOM     64  C   UNL A   1      41.534  28.161  28.184  1.00  0.00     0.148 A 
ATOM     65  C   UNL A   1      39.877  25.891  28.081  1.00  0.00     0.002 A 
ATOM     66  C   UNL A   1      41.540  27.335  27.065  1.00  0.00     0.091 A 
ATOM     67  F   UNL A   1      42.343  29.226  28.279  1.00  0.00    -0.205 F 
ATOM     68  C   UNL A   1      40.719  26.197  27.015  1.00  0.00     0.022 A 
BRANCH  66  69
ATOM     69  S   UNL A   1      42.543  27.689  25.616  1.00  0.00     0.127 S 
ATOM     70  O   UNL A   1      41.984  28.965  25.174  1.00  0.00    -0.237 OA
ATOM     71  O   UNL A   1      43.889  27.776  26.182  1.00  0.00    -0.237 OA
ATOM     72  O   UNL A   1      42.341  26.564  24.713  1.00  0.00    -0.744 OA
ENDBRANCH  66  69
ENDBRANCH  48  62
BRANCH  49  73
ATOM     73  C   UNL A   1      39.543  33.812  37.195  1.00  0.00     0.023 A 
ATOM     74  C   UNL A   1      39.992  35.146  37.153  1.00  0.00     0.012 A 
ATOM     75  C   UNL A   1      38.893  33.344  38.352  1.00  0.00     0.148 A 
ATOM     76  C   UNL A   1      39.822  35.990  38.250  1.00  0.00     0.002 A 
ATOM     77  C   UNL A   1      38.682  34.204  39.424  1.00  0.00     0.091 A 
ATOM     78  F   UNL A   1      38.487  32.065  38.382  1.00  0.00    -0.205 F 
ATOM     79  C   UNL A   1      39.157  35.524  39.381  1.00  0.00     0.022 A 
BRANCH  77  80
ATOM     80  S   UNL A   1      37.716  33.719  40.859  1.00  0.00     0.127 S 
ATOM     81  O   UNL A   1      37.523  34.996  41.537  1.00  0.00    -0.237 OA
ATOM     82  O   UNL A   1      36.512  33.156  40.247  1.00  0.00    -0.237 OA
ATOM     83  O   UNL A   1      38.538  32.738  41.559  1.00  0.00    -0.744 OA
ENDBRANCH  77  80
ENDBRANCH  49  73
BRANCH  61  84
ATOM     84  C   UNL A   1      44.158  28.855  35.491  1.00  0.00     0.023 A 
ATOM     85  C   UNL A   1      45.435  29.416  35.299  1.00  0.00     0.012 A 
ATOM     86  C   UNL A   1      43.993  27.808  36.418  1.00  0.00     0.148 A 
ATOM     87  C   UNL A   1      46.535  28.929  36.004  1.00  0.00     0.002 A 
ATOM     88  C   UNL A   1      45.087  27.353  37.146  1.00  0.00     0.091 A 
ATOM     89  F   UNL A   1      42.774  27.270  36.570  1.00  0.00    -0.205 F 
ATOM     90  C   UNL A   1      46.360  27.907  36.935  1.00  0.00     0.022 A 
BRANCH  88  91
ATOM     91  S   UNL A   1      44.922  26.103  38.425  1.00  0.00     0.127 S 
ATOM     92  O   UNL A   1      43.770  26.595  39.178  1.00  0.00    -0.237 OA
ATOM     93  O   UNL A   1      44.669  24.886  37.651  1.00  0.00    -0.237 OA
ATOM     94  O   UNL A   1      46.192  26.103  39.139  1.00  0.00    -0.744 OA
ENDBRANCH  88  91
ENDBRANCH  61  84
ENDBRANCH  35  36
ENDBRANCH  27  30
ENDBRANCH  25  26
ENDBRANCH  24  25
ENDBRANCH   1  24
TORSDOF 17
ENDMDL
MODEL 3
REMARK VINA RESULT:     -11.8      5.244      8.849
REMARK SMILES Cn1cc([N+](=O)[O-])cc1C(=O)N1CCC[C@@H](C(=O)NCCCCNC(=O)c2ccc(-c3c4nc(c(-c5cccc(S(=O)(=O)[O-])c5F)c5ccc([nH]5)c(-c5cccc(S(=O)(=O)[O-])c5F)c5nc(c(-c6cccc(S(=O)(=O)[O-])c6F)c6ccc3[nH]6)C=C5)C=C4)cc2)C1
REMARK SMILES IDX 21 1 20 2 19 3 17 4 18 5 16 7 12 8 13 9 90 10 14 11 15 12
REMARK SMILES IDX 10 13 11 14 9 15 1 16 2 17 3 18 4 19 8 20 5 21 6 22 7 23
REMARK SMILES IDX 22 24 23 25 24 26 25 27 26 29 27 30 28 31 89 32 29 33 88 34
REMARK SMILES IDX 30 35 31 36 32 37 82 38 33 39 87 40 81 41 83 42 34 43 86 44
REMARK SMILES IDX 80 45 79 46 35 48 67 49 47 50 66 51 48 52 51 53 65 54 84 55
REMARK SMILES IDX 49 56 50 57 64 59 85 60 52 61 36 62 37 63 45 64 38 65 40 66
REMARK SMILES IDX 46 67 39 68 41 69 42 70 43 71 44 72 68 73 69 74 77 75 70 76
REMARK SMILES IDX 72 77 78 78 71 79 73 80 74 81 75 82 76 83 53 84 54 85 62 86
REMARK SMILES IDX 55 87 57 88 63 89 56 90 58 91 59 92 60 93 61 94
REMARK H PARENT 19 6 24 28 83 47 51 58
REMARK Flexibility Score: inf
ROOT
ATOM      1  C   UNL A   1      36.410  19.924  24.979  1.00  0.00     0.023 C 
ENDROOT
BRANCH   1   2
ATOM      2  C   UNL A   1      36.329  21.440  25.135  1.00  0.00     0.116 C 
BRANCH   2   3
ATOM      3  N   UNL A   1      35.628  21.843  26.344  1.00  0.00    -0.356 N 
ATOM      4  C   UNL A   1      34.424  22.452  26.531  1.00  0.00     0.224 C 
ATOM      5  O   UNL A   1      34.040  22.624  27.690  1.00  0.00    -0.275 OA
ATOM      6  H   UNL A   1      36.111  21.640  27.178  1.00  0.00     0.163 HD
BRANCH   4   7
ATOM      7  C   UNL A   1      33.563  22.921  25.365  1.00  0.00     0.098 C 
ATOM      8  N   UNL A   1      33.717  24.280  23.263  1.00  0.00    -0.337 N 
ATOM      9  C   UNL A   1      33.437  23.090  22.471  1.00  0.00     0.120 C 
ATOM     10  C   UNL A   1      34.274  24.048  24.596  1.00  0.00     0.133 C 
ATOM     11  C   UNL A   1      32.461  22.182  23.197  1.00  0.00     0.022 C 
ATOM     12  C   UNL A   1      33.047  21.737  24.531  1.00  0.00     0.017 C 
BRANCH   8  13
ATOM     13  C   UNL A   1      33.341  25.516  22.739  1.00  0.00     0.270 C 
ATOM     14  O   UNL A   1      33.777  25.880  21.646  1.00  0.00    -0.267 OA
BRANCH  13  15
ATOM     15  C   UNL A   1      32.472  26.405  23.500  1.00  0.00     0.114 A 
ATOM     16  C   UNL A   1      30.276  25.123  23.524  1.00  0.00     0.150 C 
ATOM     17  N   UNL A   1      31.146  26.233  23.855  1.00  0.00    -0.340 N 
ATOM     18  C   UNL A   1      30.762  27.211  24.747  1.00  0.00     0.172 A 
ATOM     19  C   UNL A   1      31.861  27.994  25.029  1.00  0.00     0.287 A 
ATOM     20  C   UNL A   1      32.920  27.513  24.220  1.00  0.00     0.119 A 
BRANCH  19  21
ATOM     21  N   UNL A   1      31.913  29.048  26.010  1.00  0.00     0.064 N 
ATOM     22  O   UNL A   1      32.350  28.758  27.132  1.00  0.00    -0.258 OA
ATOM     23  O   UNL A   1      31.540  30.172  25.646  1.00  0.00    -0.258 OA
ENDBRANCH  19  21
ENDBRANCH  13  15
ENDBRANCH   8  13
ENDBRANCH   4   7
ENDBRANCH   2   3
ENDBRANCH   1   2
BRANCH   1  24
ATOM     24  C   UNL A   1      37.822  19.349  24.854  1.00  0.00     0.023 C 
BRANCH  24  25
ATOM     25  C   UNL A   1      38.899  20.048  25.677  1.00  0.00     0.116 C 
BRANCH  25  26
ATOM     26  N   UNL A   1      40.054  19.205  25.946  1.00  0.00    -0.352 N 
ATOM     27  C   UNL A   1      41.319  19.562  26.350  1.00  0.00     0.251 C 
ATOM     28  H   UNL A   1      39.908  18.240  25.822  1.00  0.00     0.163 HD
ATOM     29  O   UNL A   1      42.195  18.705  26.421  1.00  0.00    -0.269 OA
BRANCH  27  30
ATOM     30  C   UNL A   1      41.633  20.975  26.666  1.00  0.00     0.039 A 
ATOM     31  C   UNL A   1      42.115  21.288  27.941  1.00  0.00     0.014 A 
ATOM     32  C   UNL A   1      41.458  21.985  25.718  1.00  0.00     0.014 A 
ATOM     33  C   UNL A   1      42.488  22.601  28.241  1.00  0.00     0.010 A 
ATOM     34  C   UNL A   1      41.893  23.279  25.995  1.00  0.00     0.010 A 
ATOM     35  C   UNL A   1      42.411  23.602  27.259  1.00  0.00    -0.014 A 
BRANCH  35  36
ATOM     36  C   UNL A   1      42.871  24.989  27.524  1.00  0.00     0.031 A 
ATOM     37  C   UNL A   1      41.940  25.985  28.162  1.00  0.00     0.074 A 
ATOM     38  C   UNL A   1      44.088  25.383  27.100  1.00  0.00     0.049 A 
ATOM     39  N   UNL A   1      42.129  27.258  28.395  1.00  0.00    -0.248 NA
ATOM     40  C   UNL A   1      40.611  25.493  28.562  1.00  0.00     0.031 C 
ATOM     41  C   UNL A   1      45.051  24.537  26.392  1.00  0.00     0.029 A 
ATOM     42  N   UNL A   1      44.710  26.604  27.175  1.00  0.00    -0.354 N 
ATOM     43  C   UNL A   1      40.933  27.729  28.923  1.00  0.00     0.074 A 
ATOM     44  C   UNL A   1      40.015  26.610  28.954  1.00  0.00     0.031 C 
ATOM     45  C   UNL A   1      46.141  25.265  26.096  1.00  0.00     0.029 A 
ATOM     46  C   UNL A   1      45.949  26.631  26.577  1.00  0.00     0.049 A 
ATOM     47  H   UNL A   1      44.308  27.387  27.615  1.00  0.00     0.167 HD
ATOM     48  C   UNL A   1      40.633  28.970  29.373  1.00  0.00     0.034 A 
ATOM     49  C   UNL A   1      46.832  27.639  26.434  1.00  0.00     0.034 A 
ATOM     50  C   UNL A   1      41.567  30.062  29.410  1.00  0.00     0.049 A 
ATOM     51  C   UNL A   1      46.508  28.985  27.024  1.00  0.00     0.074 A 
ATOM     52  C   UNL A   1      41.389  31.330  29.935  1.00  0.00     0.029 A 
ATOM     53  N   UNL A   1      42.860  30.013  28.913  1.00  0.00    -0.354 N 
ATOM     54  N   UNL A   1      45.431  29.365  27.667  1.00  0.00    -0.248 NA
ATOM     55  C   UNL A   1      47.537  30.030  26.906  1.00  0.00     0.031 C 
ATOM     56  C   UNL A   1      42.579  32.046  29.758  1.00  0.00     0.029 A 
ATOM     57  C   UNL A   1      43.495  31.224  29.125  1.00  0.00     0.049 A 
ATOM     58  H   UNL A   1      43.267  29.231  28.474  1.00  0.00     0.167 HD
ATOM     59  C   UNL A   1      45.665  30.677  28.061  1.00  0.00     0.074 A 
ATOM     60  C   UNL A   1      46.995  31.022  27.600  1.00  0.00     0.031 C 
ATOM     61  C   UNL A   1      44.845  31.527  28.726  1.00  0.00     0.034 A 
BRANCH  48  62
ATOM     62  C   UNL A   1      39.256  29.193  29.936  1.00  0.00     0.023 A 
ATOM     63  C   UNL A   1      38.956  28.708  31.226  1.00  0.00     0.012 A 
ATOM     64  C   UNL A   1      38.281  29.915  29.225  1.00  0.00     0.148 A 
ATOM     65  C   UNL A   1      37.696  28.913  31.787  1.00  0.00     0.002 A 
ATOM     66  C   UNL A   1      37.038  30.148  29.806  1.00  0.00     0.091 A 
ATOM     67  F   UNL A   1      38.573  30.344  27.989  1.00  0.00    -0.205 F 
ATOM     68  C   UNL A   1      36.742  29.641  31.082  1.00  0.00     0.022 A 
BRANCH  66  69
ATOM     69  S   UNL A   1      35.770  31.133  28.999  1.00  0.00     0.127 S 
ATOM     70  O   UNL A   1      35.025  30.112  28.265  1.00  0.00    -0.237 OA
ATOM     71  O   UNL A   1      35.053  31.712  30.135  1.00  0.00    -0.237 OA
ATOM     72  O   UNL A   1      36.486  32.103  28.182  1.00  0.00    -0.744 OA
ENDBRANCH  66  69
ENDBRANCH  48  62
BRANCH  49  73
ATOM     73  C   UNL A   1      48.150  27.383  25.789  1.00  0.00     0.023 A 
ATOM     74  C   UNL A   1      49.226  26.944  26.583  1.00  0.00     0.012 A 
ATOM     75  C   UNL A   1      48.335  27.527  24.401  1.00  0.00     0.148 A 
ATOM     76  C   UNL A   1      50.471  26.677  26.011  1.00  0.00     0.002 A 
ATOM     77  C   UNL A   1      49.564  27.212  23.831  1.00  0.00     0.091 A 
ATOM     78  F   UNL A   1      47.304  27.963  23.662  1.00  0.00    -0.205 F 
ATOM     79  C   UNL A   1      50.637  26.800  24.635  1.00  0.00     0.022 A 
BRANCH  77  80
ATOM     80  S   UNL A   1      49.816  27.216  22.051  1.00  0.00     0.127 S 
ATOM     81  O   UNL A   1      48.808  26.261  21.603  1.00  0.00    -0.237 OA
ATOM     82  O   UNL A   1      49.545  28.611  21.703  1.00  0.00    -0.237 OA
ATOM     83  O   UNL A   1      51.207  26.817  21.861  1.00  0.00    -0.744 OA
ENDBRANCH  77  80
ENDBRANCH  49  73
BRANCH  61  84
ATOM     84  C   UNL A   1      45.364  32.906  29.031  1.00  0.00     0.023 A 
ATOM     85  C   UNL A   1      46.119  33.120  30.201  1.00  0.00     0.012 A 
ATOM     86  C   UNL A   1      45.181  33.965  28.121  1.00  0.00     0.148 A 
ATOM     87  C   UNL A   1      46.665  34.374  30.471  1.00  0.00     0.002 A 
ATOM     88  C   UNL A   1      45.761  35.202  28.378  1.00  0.00     0.091 A 
ATOM     89  F   UNL A   1      44.439  33.749  27.025  1.00  0.00    -0.205 F 
ATOM     90  C   UNL A   1      46.497  35.411  29.556  1.00  0.00     0.022 A 
BRANCH  88  91
ATOM     91  S   UNL A   1      45.663  36.558  27.204  1.00  0.00     0.127 S 
ATOM     92  O   UNL A   1      46.386  37.616  27.906  1.00  0.00    -0.237 OA
ATOM     93  O   UNL A   1      46.360  36.018  26.034  1.00  0.00    -0.237 OA
ATOM     94  O   UNL A   1      44.240  36.793  26.994  1.00  0.00    -0.744 OA
ENDBRANCH  88  91
ENDBRANCH  61  84
ENDBRANCH  35  36
ENDBRANCH  27  30
ENDBRANCH  25  26
ENDBRANCH  24  25
ENDBRANCH   1  24
TORSDOF 17
ENDMDL
