MODEL 1
REMARK VINA RESULT:     -12.6      0.000      0.000
REMARK SMILES Cc1ccnc(C(=O)c2[nH]c3ccc(F)cc3c2CC(=O)NCCCCNC(=O)c2ccc(-c3c4nc(c(-c5cccc(S(=O)(=O)[O-])c5F)c5ccc([nH]5)c(-c5cccc(S(=O)(=O)[O-])c5F)c5nc(c(-c6cccc(S(=O)(=O)[O-])c6F)c6ccc3[nH]6)C=C5)C=C4)cc2)c1
REMARK SMILES IDX 24 1 23 2 22 3 20 4 21 5 19 7 18 8 9 9 10 10 11 11 17 13
REMARK SMILES IDX 12 14 16 15 13 16 14 17 15 18 7 19 8 20 6 21 1 22 2 23 3 24
REMARK SMILES IDX 93 25 4 26 5 27 25 28 26 29 27 30 28 31 29 33 30 34 31 35
REMARK SMILES IDX 92 36 32 37 91 38 33 39 34 40 35 41 85 42 36 43 90 44 84 45
REMARK SMILES IDX 86 46 37 47 89 48 83 49 82 50 38 52 70 53 50 54 69 55 51 56
REMARK SMILES IDX 54 57 68 58 87 59 52 60 53 61 67 63 88 64 55 65 39 66 40 67
REMARK SMILES IDX 48 68 41 69 43 70 49 71 42 72 44 73 45 74 46 75 47 76 71 77
REMARK SMILES IDX 72 78 80 79 73 80 75 81 81 82 74 83 76 84 77 85 78 86 79 87
REMARK SMILES IDX 56 88 57 89 65 90 58 91 60 92 66 93 59 94 61 95 62 96 63 97
REMARK SMILES IDX 64 98
REMARK H PARENT 22 6 10 12 27 32 86 51 54 62
REMARK Flexibility Score: inf
ROOT
ATOM      1  C   UNL A   1      36.635  20.552  24.690  1.00  0.00     0.023 C 
ENDROOT
BRANCH   1   2
ATOM      2  C   UNL A   1      36.968  21.984  24.261  1.00  0.00     0.116 C 
BRANCH   2   3
ATOM      3  N   UNL A   1      35.932  22.650  23.500  1.00  0.00    -0.356 N 
ATOM      4  C   UNL A   1      35.187  23.758  23.784  1.00  0.00     0.224 C 
ATOM      5  O   UNL A   1      34.526  24.239  22.860  1.00  0.00    -0.275 OA
ATOM      6  H   UNL A   1      35.729  22.234  22.631  1.00  0.00     0.163 HD
BRANCH   4   7
ATOM      7  C   UNL A   1      35.200  24.439  25.140  1.00  0.00     0.138 C 
BRANCH   7   8
ATOM      8  C   UNL A   1      33.865  24.776  25.744  1.00  0.00    -0.002 A 
ATOM      9  C   UNL A   1      32.933  23.941  26.364  1.00  0.00     0.093 A 
ATOM     10  N   UNL A   1      31.831  24.722  26.655  1.00  0.00    -0.352 N 
ATOM     11  C   UNL A   1      32.033  26.032  26.312  1.00  0.00     0.046 A 
ATOM     12  H   UNL A   1      31.001  24.379  27.059  1.00  0.00     0.167 HD
ATOM     13  C   UNL A   1      33.266  26.091  25.670  1.00  0.00     0.007 A 
ATOM     14  C   UNL A   1      31.213  27.152  26.505  1.00  0.00     0.030 A 
ATOM     15  C   UNL A   1      33.678  27.333  25.140  1.00  0.00     0.049 A 
ATOM     16  C   UNL A   1      31.672  28.380  26.020  1.00  0.00     0.041 A 
ATOM     17  C   UNL A   1      32.878  28.457  25.340  1.00  0.00     0.123 A 
ATOM     18  F   UNL A   1      33.294  29.644  24.877  1.00  0.00    -0.207 F 
BRANCH   9  19
ATOM     19  C   UNL A   1      32.850  22.506  26.635  1.00  0.00     0.227 C 
ATOM     20  O   UNL A   1      32.929  22.117  27.801  1.00  0.00    -0.285 OA
BRANCH  19  21
ATOM     21  C   UNL A   1      32.806  21.478  25.538  1.00  0.00     0.113 A 
ATOM     22  C   UNL A   1      33.607  17.836  24.810  1.00  0.00     0.044 C 
ATOM     23  C   UNL A   1      33.120  19.248  24.684  1.00  0.00    -0.047 A 
ATOM     24  C   UNL A   1      32.564  19.677  23.480  1.00  0.00     0.023 A 
ATOM     25  C   UNL A   1      33.186  20.157  25.747  1.00  0.00     0.036 A 
ATOM     26  C   UNL A   1      32.153  20.994  23.373  1.00  0.00     0.112 A 
ATOM     27  N   UNL A   1      32.275  21.905  24.361  1.00  0.00    -0.253 NA
ENDBRANCH  19  21
ENDBRANCH   9  19
ENDBRANCH   7   8
ENDBRANCH   4   7
ENDBRANCH   2   3
ENDBRANCH   1   2
BRANCH   1  28
ATOM     28  C   UNL A   1      37.804  19.600  24.947  1.00  0.00     0.023 C 
BRANCH  28  29
ATOM     29  C   UNL A   1      38.959  20.162  25.759  1.00  0.00     0.116 C 
BRANCH  29  30
ATOM     30  N   UNL A   1      40.027  19.195  25.933  1.00  0.00    -0.352 N 
ATOM     31  C   UNL A   1      41.362  19.418  26.166  1.00  0.00     0.251 C 
ATOM     32  H   UNL A   1      39.758  18.251  25.875  1.00  0.00     0.163 HD
ATOM     33  O   UNL A   1      42.147  18.476  26.119  1.00  0.00    -0.269 OA
BRANCH  31  34
ATOM     34  C   UNL A   1      41.856  20.786  26.444  1.00  0.00     0.039 A 
ATOM     35  C   UNL A   1      42.081  21.645  25.366  1.00  0.00     0.014 A 
ATOM     36  C   UNL A   1      42.121  21.217  27.748  1.00  0.00     0.014 A 
ATOM     37  C   UNL A   1      42.526  22.949  25.597  1.00  0.00     0.010 A 
ATOM     38  C   UNL A   1      42.507  22.537  27.981  1.00  0.00     0.010 A 
ATOM     39  C   UNL A   1      42.720  23.414  26.907  1.00  0.00    -0.014 A 
BRANCH  39  40
ATOM     40  C   UNL A   1      43.117  24.823  27.162  1.00  0.00     0.031 A 
ATOM     41  C   UNL A   1      42.162  25.789  27.810  1.00  0.00     0.074 A 
ATOM     42  C   UNL A   1      44.325  25.252  26.747  1.00  0.00     0.049 A 
ATOM     43  N   UNL A   1      42.345  27.050  28.110  1.00  0.00    -0.248 NA
ATOM     44  C   UNL A   1      40.822  25.283  28.144  1.00  0.00     0.031 C 
ATOM     45  C   UNL A   1      45.308  24.438  26.027  1.00  0.00     0.029 A 
ATOM     46  N   UNL A   1      44.925  26.482  26.849  1.00  0.00    -0.354 N 
ATOM     47  C   UNL A   1      41.141  27.495  28.641  1.00  0.00     0.074 A 
ATOM     48  C   UNL A   1      40.222  26.378  28.594  1.00  0.00     0.031 C 
ATOM     49  C   UNL A   1      46.388  25.189  25.760  1.00  0.00     0.029 A 
ATOM     50  C   UNL A   1      46.170  26.540  26.269  1.00  0.00     0.049 A 
ATOM     51  H   UNL A   1      44.503  27.251  27.298  1.00  0.00     0.167 HD
ATOM     52  C   UNL A   1      40.836  28.712  29.152  1.00  0.00     0.034 A 
ATOM     53  C   UNL A   1      47.039  27.562  26.159  1.00  0.00     0.034 A 
ATOM     54  C   UNL A   1      41.762  29.810  29.237  1.00  0.00     0.049 A 
ATOM     55  C   UNL A   1      46.696  28.887  26.782  1.00  0.00     0.074 A 
ATOM     56  C   UNL A   1      41.575  31.051  29.822  1.00  0.00     0.029 A 
ATOM     57  N   UNL A   1      43.046  29.806  28.715  1.00  0.00    -0.354 N 
ATOM     58  N   UNL A   1      45.616  29.234  27.441  1.00  0.00    -0.248 NA
ATOM     59  C   UNL A   1      47.707  29.950  26.683  1.00  0.00     0.031 C 
ATOM     60  C   UNL A   1      42.741  31.802  29.638  1.00  0.00     0.029 A 
ATOM     61  C   UNL A   1      43.660  31.024  28.954  1.00  0.00     0.049 A 
ATOM     62  H   UNL A   1      43.460  29.048  28.244  1.00  0.00     0.167 HD
ATOM     63  C   UNL A   1      45.829  30.543  27.857  1.00  0.00     0.074 A 
ATOM     64  C   UNL A   1      47.153  30.916  27.403  1.00  0.00     0.031 C 
ATOM     65  C   UNL A   1      44.995  31.369  28.536  1.00  0.00     0.034 A 
BRANCH  52  66
ATOM     66  C   UNL A   1      39.453  28.906  29.721  1.00  0.00     0.023 A 
ATOM     67  C   UNL A   1      39.189  28.505  31.047  1.00  0.00     0.012 A 
ATOM     68  C   UNL A   1      38.439  29.537  28.975  1.00  0.00     0.148 A 
ATOM     69  C   UNL A   1      37.930  28.701  31.613  1.00  0.00     0.002 A 
ATOM     70  C   UNL A   1      37.197  29.766  29.559  1.00  0.00     0.091 A 
ATOM     71  F   UNL A   1      38.700  29.891  27.710  1.00  0.00    -0.205 F 
ATOM     72  C   UNL A   1      36.938  29.341  30.873  1.00  0.00     0.022 A 
BRANCH  70  73
ATOM     73  S   UNL A   1      35.879  30.648  28.717  1.00  0.00     0.127 S 
ATOM     74  O   UNL A   1      35.214  29.565  27.995  1.00  0.00    -0.237 OA
ATOM     75  O   UNL A   1      35.110  31.197  29.835  1.00  0.00    -0.237 OA
ATOM     76  O   UNL A   1      36.533  31.648  27.885  1.00  0.00    -0.744 OA
ENDBRANCH  70  73
ENDBRANCH  52  66
BRANCH  53  77
ATOM     77  C   UNL A   1      48.355  27.346  25.496  1.00  0.00     0.023 A 
ATOM     78  C   UNL A   1      49.463  26.948  26.271  1.00  0.00     0.012 A 
ATOM     79  C   UNL A   1      48.508  27.496  24.105  1.00  0.00     0.148 A 
ATOM     80  C   UNL A   1      50.706  26.733  25.675  1.00  0.00     0.002 A 
ATOM     81  C   UNL A   1      49.735  27.225  23.510  1.00  0.00     0.091 A 
ATOM     82  F   UNL A   1      47.446  27.891  23.387  1.00  0.00    -0.205 F 
ATOM     83  C   UNL A   1      50.840  26.859  24.295  1.00  0.00     0.022 A 
BRANCH  81  84
ATOM     84  S   UNL A   1      49.957  27.228  21.728  1.00  0.00     0.127 S 
ATOM     85  O   UNL A   1      49.748  28.636  21.402  1.00  0.00    -0.237 OA
ATOM     86  O   UNL A   1      51.336  26.759  21.593  1.00  0.00    -0.237 OA
ATOM     87  O   UNL A   1      48.959  26.299  21.210  1.00  0.00    -0.744 OA
ENDBRANCH  81  84
ENDBRANCH  53  77
BRANCH  65  88
ATOM     88  C   UNL A   1      45.494  32.759  28.843  1.00  0.00     0.023 A 
ATOM     89  C   UNL A   1      46.248  32.985  30.013  1.00  0.00     0.012 A 
ATOM     90  C   UNL A   1      45.261  33.827  27.955  1.00  0.00     0.148 A 
ATOM     91  C   UNL A   1      46.727  34.259  30.313  1.00  0.00     0.002 A 
ATOM     92  C   UNL A   1      45.783  35.084  28.237  1.00  0.00     0.091 A 
ATOM     93  F   UNL A   1      44.524  33.599  26.858  1.00  0.00    -0.205 F 
ATOM     94  C   UNL A   1      46.505  35.305  29.421  1.00  0.00     0.022 A 
BRANCH  92  95
ATOM     95  S   UNL A   1      45.621  36.464  27.099  1.00  0.00     0.127 S 
ATOM     96  O   UNL A   1      46.282  37.539  27.835  1.00  0.00    -0.237 OA
ATOM     97  O   UNL A   1      46.353  35.990  25.923  1.00  0.00    -0.237 OA
ATOM     98  O   UNL A   1      44.189  36.635  26.885  1.00  0.00    -0.744 OA
ENDBRANCH  92  95
ENDBRANCH  65  88
ENDBRANCH  39  40
ENDBRANCH  31  34
ENDBRANCH  29  30
ENDBRANCH  28  29
ENDBRANCH   1  28
TORSDOF 17
ENDMDL
MODEL 2
REMARK VINA RESULT:     -12.5      5.421      9.000
REMARK SMILES Cc1ccnc(C(=O)c2[nH]c3ccc(F)cc3c2CC(=O)NCCCCNC(=O)c2ccc(-c3c4nc(c(-c5cccc(S(=O)(=O)[O-])c5F)c5ccc([nH]5)c(-c5cccc(S(=O)(=O)[O-])c5F)c5nc(c(-c6cccc(S(=O)(=O)[O-])c6F)c6ccc3[nH]6)C=C5)C=C4)cc2)c1
REMARK SMILES IDX 24 1 23 2 22 3 20 4 21 5 19 7 18 8 9 9 10 10 11 11 17 13
REMARK SMILES IDX 12 14 16 15 13 16 14 17 15 18 7 19 8 20 6 21 1 22 2 23 3 24
REMARK SMILES IDX 93 25 4 26 5 27 25 28 26 29 27 30 28 31 29 33 30 34 31 35
REMARK SMILES IDX 92 36 32 37 91 38 33 39 34 40 35 41 85 42 36 43 90 44 84 45
REMARK SMILES IDX 86 46 37 47 89 48 83 49 82 50 38 52 70 53 50 54 69 55 51 56
REMARK SMILES IDX 54 57 68 58 87 59 52 60 53 61 67 63 88 64 55 65 39 66 40 67
REMARK SMILES IDX 48 68 41 69 43 70 49 71 42 72 44 73 45 74 46 75 47 76 71 77
REMARK SMILES IDX 72 78 80 79 73 80 75 81 81 82 74 83 76 84 77 85 78 86 79 87
REMARK SMILES IDX 56 88 57 89 65 90 58 91 60 92 66 93 59 94 61 95 62 96 63 97
REMARK SMILES IDX 64 98
REMARK H PARENT 22 6 10 12 27 32 86 51 54 62
REMARK Flexibility Score: inf
ROOT
ATOM      1  C   UNL A   1      31.821  27.873  27.387  1.00  0.00     0.023 C 
ENDROOT
BRANCH   1   2
ATOM      2  C   UNL A   1      31.856  26.745  26.352  1.00  0.00     0.116 C 
BRANCH   2   3
ATOM      3  N   UNL A   1      31.360  25.468  26.822  1.00  0.00    -0.356 N 
ATOM      4  C   UNL A   1      31.880  24.212  26.709  1.00  0.00     0.224 C 
ATOM      5  O   UNL A   1      31.360  23.328  27.396  1.00  0.00    -0.275 OA
ATOM      6  H   UNL A   1      30.503  25.513  27.304  1.00  0.00     0.163 HD
BRANCH   4   7
ATOM      7  C   UNL A   1      33.088  23.890  25.848  1.00  0.00     0.138 C 
BRANCH   7   8
ATOM      8  C   UNL A   1      32.830  23.145  24.568  1.00  0.00    -0.002 A 
ATOM      9  C   UNL A   1      32.626  23.638  23.277  1.00  0.00     0.093 A 
ATOM     10  N   UNL A   1      32.334  22.550  22.478  1.00  0.00    -0.352 N 
ATOM     11  C   UNL A   1      32.404  21.374  23.176  1.00  0.00     0.046 A 
ATOM     12  H   UNL A   1      32.103  22.612  21.522  1.00  0.00     0.167 HD
ATOM     13  C   UNL A   1      32.638  21.712  24.504  1.00  0.00     0.007 A 
ATOM     14  C   UNL A   1      32.259  20.052  22.733  1.00  0.00     0.030 A 
ATOM     15  C   UNL A   1      32.673  20.670  25.457  1.00  0.00     0.049 A 
ATOM     16  C   UNL A   1      32.355  19.037  23.688  1.00  0.00     0.041 A 
ATOM     17  C   UNL A   1      32.547  19.350  25.025  1.00  0.00     0.123 A 
ATOM     18  F   UNL A   1      32.628  18.360  25.925  1.00  0.00    -0.207 F 
BRANCH   9  19
ATOM     19  C   UNL A   1      32.549  24.971  22.681  1.00  0.00     0.227 C 
ATOM     20  O   UNL A   1      33.511  25.390  22.036  1.00  0.00    -0.285 OA
BRANCH  19  21
ATOM     21  C   UNL A   1      31.396  25.903  22.933  1.00  0.00     0.113 A 
ATOM     22  C   UNL A   1      30.215  29.455  22.278  1.00  0.00     0.044 C 
ATOM     23  C   UNL A   1      30.266  28.018  22.701  1.00  0.00    -0.047 A 
ATOM     24  C   UNL A   1      29.177  27.461  23.369  1.00  0.00     0.023 A 
ATOM     25  C   UNL A   1      31.370  27.200  22.431  1.00  0.00     0.036 A 
ATOM     26  C   UNL A   1      29.258  26.143  23.782  1.00  0.00     0.112 A 
ATOM     27  N   UNL A   1      30.341  25.359  23.597  1.00  0.00    -0.253 NA
ENDBRANCH  19  21
ENDBRANCH   9  19
ENDBRANCH   7   8
ENDBRANCH   4   7
ENDBRANCH   2   3
ENDBRANCH   1   2
BRANCH   1  28
ATOM     28  C   UNL A   1      31.438  29.271  26.900  1.00  0.00     0.023 C 
BRANCH  28  29
ATOM     29  C   UNL A   1      32.532  30.057  26.196  1.00  0.00     0.116 C 
BRANCH  29  30
ATOM     30  N   UNL A   1      32.425  31.483  26.442  1.00  0.00    -0.352 N 
ATOM     31  C   UNL A   1      33.198  32.278  27.253  1.00  0.00     0.251 C 
ATOM     32  H   UNL A   1      31.700  31.944  25.964  1.00  0.00     0.163 HD
ATOM     33  O   UNL A   1      32.854  33.436  27.466  1.00  0.00    -0.269 OA
BRANCH  31  34
ATOM     34  C   UNL A   1      34.423  31.736  27.886  1.00  0.00     0.039 A 
ATOM     35  C   UNL A   1      35.536  32.572  28.007  1.00  0.00     0.014 A 
ATOM     36  C   UNL A   1      34.490  30.414  28.336  1.00  0.00     0.014 A 
ATOM     37  C   UNL A   1      36.699  32.098  28.619  1.00  0.00     0.010 A 
ATOM     38  C   UNL A   1      35.630  29.961  29.001  1.00  0.00     0.010 A 
ATOM     39  C   UNL A   1      36.748  30.796  29.143  1.00  0.00    -0.014 A 
BRANCH  39  40
ATOM     40  C   UNL A   1      37.953  30.314  29.865  1.00  0.00     0.031 A 
ATOM     41  C   UNL A   1      38.253  30.779  31.264  1.00  0.00     0.074 A 
ATOM     42  C   UNL A   1      38.819  29.500  29.229  1.00  0.00     0.049 A 
ATOM     43  N   UNL A   1      39.256  30.456  32.041  1.00  0.00    -0.248 NA
ATOM     44  C   UNL A   1      37.322  31.749  31.861  1.00  0.00     0.031 C 
ATOM     45  C   UNL A   1      38.689  29.047  27.843  1.00  0.00     0.029 A 
ATOM     46  N   UNL A   1      39.990  28.926  29.657  1.00  0.00    -0.354 N 
ATOM     47  C   UNL A   1      39.092  31.199  33.204  1.00  0.00     0.074 A 
ATOM     48  C   UNL A   1      37.912  32.014  33.019  1.00  0.00     0.031 C 
ATOM     49  C   UNL A   1      39.734  28.262  27.536  1.00  0.00     0.029 A 
ATOM     50  C   UNL A   1      40.618  28.170  28.695  1.00  0.00     0.049 A 
ATOM     51  H   UNL A   1      40.346  29.044  30.567  1.00  0.00     0.167 HD
ATOM     52  C   UNL A   1      39.839  31.181  34.335  1.00  0.00     0.034 A 
ATOM     53  C   UNL A   1      41.773  27.479  28.739  1.00  0.00     0.034 A 
ATOM     54  C   UNL A   1      40.989  30.339  34.534  1.00  0.00     0.049 A 
ATOM     55  C   UNL A   1      42.553  27.435  30.024  1.00  0.00     0.074 A 
ATOM     56  C   UNL A   1      41.753  30.181  35.677  1.00  0.00     0.029 A 
ATOM     57  N   UNL A   1      41.547  29.520  33.566  1.00  0.00    -0.354 N 
ATOM     58  N   UNL A   1      42.282  28.005  31.174  1.00  0.00    -0.248 NA
ATOM     59  C   UNL A   1      43.775  26.617  30.032  1.00  0.00     0.031 C 
ATOM     60  C   UNL A   1      42.784  29.279  35.394  1.00  0.00     0.029 A 
ATOM     61  C   UNL A   1      42.652  28.862  34.080  1.00  0.00     0.049 A 
ATOM     62  H   UNL A   1      41.209  29.420  32.647  1.00  0.00     0.167 HD
ATOM     63  C   UNL A   1      43.283  27.595  32.047  1.00  0.00     0.074 A 
ATOM     64  C   UNL A   1      44.148  26.703  31.301  1.00  0.00     0.031 C 
ATOM     65  C   UNL A   1      43.481  27.942  33.342  1.00  0.00     0.034 A 
BRANCH  52  66
ATOM     66  C   UNL A   1      39.396  32.057  35.479  1.00  0.00     0.023 A 
ATOM     67  C   UNL A   1      38.549  31.523  36.472  1.00  0.00     0.012 A 
ATOM     68  C   UNL A   1      39.864  33.380  35.609  1.00  0.00     0.148 A 
ATOM     69  C   UNL A   1      38.149  32.299  37.559  1.00  0.00     0.002 A 
ATOM     70  C   UNL A   1      39.493  34.135  36.717  1.00  0.00     0.091 A 
ATOM     71  F   UNL A   1      40.649  33.878  34.644  1.00  0.00    -0.205 F 
ATOM     72  C   UNL A   1      38.630  33.600  37.687  1.00  0.00     0.022 A 
BRANCH  70  73
ATOM     73  S   UNL A   1      40.118  35.793  37.011  1.00  0.00     0.127 S 
ATOM     74  O   UNL A   1      39.443  36.145  38.259  1.00  0.00    -0.237 OA
ATOM     75  O   UNL A   1      41.558  35.563  37.140  1.00  0.00    -0.237 OA
ATOM     76  O   UNL A   1      39.733  36.578  35.847  1.00  0.00    -0.744 OA
ENDBRANCH  70  73
ENDBRANCH  52  66
BRANCH  53  77
ATOM     77  C   UNL A   1      42.220  26.709  27.545  1.00  0.00     0.023 A 
ATOM     78  C   UNL A   1      42.950  27.363  26.533  1.00  0.00     0.012 A 
ATOM     79  C   UNL A   1      41.958  25.331  27.422  1.00  0.00     0.148 A 
ATOM     80  C   UNL A   1      43.386  26.664  25.407  1.00  0.00     0.002 A 
ATOM     81  C   UNL A   1      42.445  24.629  26.325  1.00  0.00     0.091 A 
ATOM     82  F   UNL A   1      41.248  24.730  28.388  1.00  0.00    -0.205 F 
ATOM     83  C   UNL A   1      43.145  25.297  25.308  1.00  0.00     0.022 A 
BRANCH  81  84
ATOM     84  S   UNL A   1      42.299  22.844  26.188  1.00  0.00     0.127 S 
ATOM     85  O   UNL A   1      43.078  22.391  27.337  1.00  0.00    -0.237 OA
ATOM     86  O   UNL A   1      40.854  22.648  26.304  1.00  0.00    -0.237 OA
ATOM     87  O   UNL A   1      42.842  22.509  24.877  1.00  0.00    -0.744 OA
ENDBRANCH  81  84
ENDBRANCH  53  77
BRANCH  65  88
ATOM     88  C   UNL A   1      44.673  27.345  34.046  1.00  0.00     0.023 A 
ATOM     89  C   UNL A   1      45.905  28.030  34.032  1.00  0.00     0.012 A 
ATOM     90  C   UNL A   1      44.564  26.135  34.760  1.00  0.00     0.148 A 
ATOM     91  C   UNL A   1      47.019  27.502  34.683  1.00  0.00     0.002 A 
ATOM     92  C   UNL A   1      45.667  25.639  35.446  1.00  0.00     0.091 A 
ATOM     93  F   UNL A   1      43.392  25.485  34.744  1.00  0.00    -0.205 F 
ATOM     94  C   UNL A   1      46.897  26.313  35.398  1.00  0.00     0.022 A 
BRANCH  92  95
ATOM     95  S   UNL A   1      45.573  24.163  36.465  1.00  0.00     0.127 S 
ATOM     96  O   UNL A   1      46.978  23.938  36.797  1.00  0.00    -0.237 OA
ATOM     97  O   UNL A   1      44.745  24.608  37.587  1.00  0.00    -0.237 OA
ATOM     98  O   UNL A   1      44.951  23.143  35.630  1.00  0.00    -0.744 OA
ENDBRANCH  92  95
ENDBRANCH  65  88
ENDBRANCH  39  40
ENDBRANCH  31  34
ENDBRANCH  29  30
ENDBRANCH  28  29
ENDBRANCH   1  28
TORSDOF 17
ENDMDL
MODEL 3
REMARK VINA RESULT:     -12.4      5.163      8.607
REMARK SMILES Cc1ccnc(C(=O)c2[nH]c3ccc(F)cc3c2CC(=O)NCCCCNC(=O)c2ccc(-c3c4nc(c(-c5cccc(S(=O)(=O)[O-])c5F)c5ccc([nH]5)c(-c5cccc(S(=O)(=O)[O-])c5F)c5nc(c(-c6cccc(S(=O)(=O)[O-])c6F)c6ccc3[nH]6)C=C5)C=C4)cc2)c1
REMARK SMILES IDX 24 1 23 2 22 3 20 4 21 5 19 7 18 8 9 9 10 10 11 11 17 13
REMARK SMILES IDX 12 14 16 15 13 16 14 17 15 18 7 19 8 20 6 21 1 22 2 23 3 24
REMARK SMILES IDX 93 25 4 26 5 27 25 28 26 29 27 30 28 31 29 33 30 34 31 35
REMARK SMILES IDX 92 36 32 37 91 38 33 39 34 40 35 41 85 42 36 43 90 44 84 45
REMARK SMILES IDX 86 46 37 47 89 48 83 49 82 50 38 52 70 53 50 54 69 55 51 56
REMARK SMILES IDX 54 57 68 58 87 59 52 60 53 61 67 63 88 64 55 65 39 66 40 67
REMARK SMILES IDX 48 68 41 69 43 70 49 71 42 72 44 73 45 74 46 75 47 76 71 77
REMARK SMILES IDX 72 78 80 79 73 80 75 81 81 82 74 83 76 84 77 85 78 86 79 87
REMARK SMILES IDX 56 88 57 89 65 90 58 91 60 92 66 93 59 94 61 95 62 96 63 97
REMARK SMILES IDX 64 98
REMARK H PARENT 22 6 10 12 27 32 86 51 54 62
REMARK Flexibility Score: inf
ROOT
ATOM      1  C   UNL A   1      31.805  27.342  26.820  1.00  0.00     0.023 C 
ENDROOT
BRANCH   1   2
ATOM      2  C   UNL A   1      30.685  26.478  26.235  1.00  0.00     0.116 C 
BRANCH   2   3
ATOM      3  N   UNL A   1      31.035  25.090  26.014  1.00  0.00    -0.356 N 
ATOM      4  C   UNL A   1      30.930  24.309  24.901  1.00  0.00     0.224 C 
ATOM      5  O   UNL A   1      31.509  23.219  24.925  1.00  0.00    -0.275 OA
ATOM      6  H   UNL A   1      31.413  24.632  26.800  1.00  0.00     0.163 HD
BRANCH   4   7
ATOM      7  C   UNL A   1      30.205  24.752  23.644  1.00  0.00     0.138 C 
BRANCH   7   8
ATOM      8  C   UNL A   1      30.654  26.045  23.020  1.00  0.00    -0.002 A 
ATOM      9  C   UNL A   1      31.886  26.378  22.452  1.00  0.00     0.093 A 
ATOM     10  N   UNL A   1      31.818  27.716  22.115  1.00  0.00    -0.352 N 
ATOM     11  C   UNL A   1      30.584  28.245  22.378  1.00  0.00     0.046 A 
ATOM     12  H   UNL A   1      32.568  28.227  21.732  1.00  0.00     0.167 HD
ATOM     13  C   UNL A   1      29.851  27.248  23.015  1.00  0.00     0.007 A 
ATOM     14  C   UNL A   1      30.076  29.525  22.118  1.00  0.00     0.030 A 
ATOM     15  C   UNL A   1      28.553  27.569  23.470  1.00  0.00     0.049 A 
ATOM     16  C   UNL A   1      28.768  29.796  22.528  1.00  0.00     0.041 A 
ATOM     17  C   UNL A   1      28.031  28.834  23.202  1.00  0.00     0.123 A 
ATOM     18  F   UNL A   1      26.781  29.120  23.592  1.00  0.00    -0.207 F 
BRANCH   9  19
ATOM     19  C   UNL A   1      33.160  25.684  22.268  1.00  0.00     0.227 C 
ATOM     20  O   UNL A   1      33.591  25.527  21.125  1.00  0.00    -0.285 OA
BRANCH  19  21
ATOM     21  C   UNL A   1      33.900  25.039  23.407  1.00  0.00     0.113 A 
ATOM     22  C   UNL A   1      35.885  21.928  24.312  1.00  0.00     0.044 C 
ATOM     23  C   UNL A   1      35.236  23.278  24.365  1.00  0.00    -0.047 A 
ATOM     24  C   UNL A   1      35.312  24.031  25.535  1.00  0.00     0.023 A 
ATOM     25  C   UNL A   1      34.563  23.825  23.265  1.00  0.00     0.036 A 
ATOM     26  C   UNL A   1      34.676  25.259  25.575  1.00  0.00     0.112 A 
ATOM     27  N   UNL A   1      33.962  25.772  24.551  1.00  0.00    -0.253 NA
ENDBRANCH  19  21
ENDBRANCH   9  19
ENDBRANCH   7   8
ENDBRANCH   4   7
ENDBRANCH   2   3
ENDBRANCH   1   2
BRANCH   1  28
ATOM     28  C   UNL A   1      32.416  28.416  25.917  1.00  0.00     0.023 C 
BRANCH  28  29
ATOM     29  C   UNL A   1      33.786  28.932  26.324  1.00  0.00     0.116 C 
BRANCH  29  30
ATOM     30  N   UNL A   1      33.755  30.334  26.694  1.00  0.00    -0.352 N 
ATOM     31  C   UNL A   1      34.588  31.021  27.542  1.00  0.00     0.251 C 
ATOM     32  H   UNL A   1      33.037  30.866  26.282  1.00  0.00     0.163 HD
ATOM     33  O   UNL A   1      34.306  32.171  27.864  1.00  0.00    -0.269 OA
BRANCH  31  34
ATOM     34  C   UNL A   1      35.805  30.373  28.085  1.00  0.00     0.039 A 
ATOM     35  C   UNL A   1      36.965  30.378  27.307  1.00  0.00     0.014 A 
ATOM     36  C   UNL A   1      35.803  29.744  29.333  1.00  0.00     0.014 A 
ATOM     37  C   UNL A   1      38.135  29.794  27.799  1.00  0.00     0.010 A 
ATOM     38  C   UNL A   1      36.987  29.215  29.849  1.00  0.00     0.010 A 
ATOM     39  C   UNL A   1      38.163  29.228  29.084  1.00  0.00    -0.014 A 
BRANCH  39  40
ATOM     40  C   UNL A   1      39.423  28.677  29.644  1.00  0.00     0.031 A 
ATOM     41  C   UNL A   1      40.062  29.292  30.859  1.00  0.00     0.074 A 
ATOM     42  C   UNL A   1      40.032  27.654  29.013  1.00  0.00     0.049 A 
ATOM     43  N   UNL A   1      41.157  28.936  31.482  1.00  0.00    -0.248 NA
ATOM     44  C   UNL A   1      39.402  30.472  31.439  1.00  0.00     0.031 C 
ATOM     45  C   UNL A   1      39.562  27.027  27.775  1.00  0.00     0.029 A 
ATOM     46  N   UNL A   1      41.187  26.975  29.310  1.00  0.00    -0.354 N 
ATOM     47  C   UNL A   1      41.332  29.859  32.506  1.00  0.00     0.074 A 
ATOM     48  C   UNL A   1      40.248  30.812  32.403  1.00  0.00     0.031 C 
ATOM     49  C   UNL A   1      40.416  26.053  27.424  1.00  0.00     0.029 A 
ATOM     50  C   UNL A   1      41.504  25.997  28.396  1.00  0.00     0.049 A 
ATOM     51  H   UNL A   1      41.737  27.170  30.104  1.00  0.00     0.167 HD
ATOM     52  C   UNL A   1      42.289  29.894  33.465  1.00  0.00     0.034 A 
ATOM     53  C   UNL A   1      42.550  25.150  28.347  1.00  0.00     0.034 A 
ATOM     54  C   UNL A   1      43.343  28.922  33.593  1.00  0.00     0.049 A 
ATOM     55  C   UNL A   1      43.568  25.176  29.453  1.00  0.00     0.074 A 
ATOM     56  C   UNL A   1      44.303  28.819  34.584  1.00  0.00     0.029 A 
ATOM     57  N   UNL A   1      43.584  27.892  32.697  1.00  0.00    -0.354 N 
ATOM     58  N   UNL A   1      43.614  25.945  30.515  1.00  0.00    -0.248 NA
ATOM     59  C   UNL A   1      44.655  24.189  29.378  1.00  0.00     0.031 C 
ATOM     60  C   UNL A   1      45.135  27.736  34.278  1.00  0.00     0.029 A 
ATOM     61  C   UNL A   1      44.682  27.154  33.105  1.00  0.00     0.049 A 
ATOM     62  H   UNL A   1      43.052  27.712  31.889  1.00  0.00     0.167 HD
ATOM     63  C   UNL A   1      44.717  25.519  31.246  1.00  0.00     0.074 A 
ATOM     64  C   UNL A   1      45.292  24.403  30.522  1.00  0.00     0.031 C 
ATOM     65  C   UNL A   1      45.221  26.019  32.401  1.00  0.00     0.034 A 
BRANCH  52  66
ATOM     66  C   UNL A   1      42.205  30.988  34.498  1.00  0.00     0.023 A 
ATOM     67  C   UNL A   1      41.501  30.753  35.698  1.00  0.00     0.012 A 
ATOM     68  C   UNL A   1      42.869  32.216  34.317  1.00  0.00     0.148 A 
ATOM     69  C   UNL A   1      41.434  31.733  36.687  1.00  0.00     0.002 A 
ATOM     70  C   UNL A   1      42.830  33.175  35.324  1.00  0.00     0.091 A 
ATOM     71  F   UNL A   1      43.513  32.431  33.161  1.00  0.00    -0.205 F 
ATOM     72  C   UNL A   1      42.107  32.939  36.505  1.00  0.00     0.022 A 
BRANCH  70  73
ATOM     73  S   UNL A   1      43.726  34.728  35.217  1.00  0.00     0.127 S 
ATOM     74  O   UNL A   1      43.499  35.291  36.547  1.00  0.00    -0.237 OA
ATOM     75  O   UNL A   1      45.097  34.279  34.971  1.00  0.00    -0.237 OA
ATOM     76  O   UNL A   1      43.123  35.463  34.114  1.00  0.00    -0.744 OA
ENDBRANCH  70  73
ENDBRANCH  52  66
BRANCH  53  77
ATOM     77  C   UNL A   1      42.640  24.151  27.245  1.00  0.00     0.023 A 
ATOM     78  C   UNL A   1      43.360  24.473  26.078  1.00  0.00     0.012 A 
ATOM     79  C   UNL A   1      42.052  22.878  27.360  1.00  0.00     0.148 A 
ATOM     80  C   UNL A   1      43.467  23.555  25.033  1.00  0.00     0.002 A 
ATOM     81  C   UNL A   1      42.210  21.947  26.340  1.00  0.00     0.091 A 
ATOM     82  F   UNL A   1      41.358  22.596  28.473  1.00  0.00    -0.205 F 
ATOM     83  C   UNL A   1      42.903  22.289  25.168  1.00  0.00     0.022 A 
BRANCH  81  84
ATOM     84  S   UNL A   1      41.637  20.252  26.492  1.00  0.00     0.127 S 
ATOM     85  O   UNL A   1      40.187  20.424  26.487  1.00  0.00    -0.237 OA
ATOM     86  O   UNL A   1      42.191  19.635  25.287  1.00  0.00    -0.237 OA
ATOM     87  O   UNL A   1      42.214  19.756  27.735  1.00  0.00    -0.744 OA
ENDBRANCH  81  84
ENDBRANCH  53  77
BRANCH  65  88
ATOM     88  C   UNL A   1      46.451  25.355  32.965  1.00  0.00     0.023 A 
ATOM     89  C   UNL A   1      47.727  25.807  32.574  1.00  0.00     0.012 A 
ATOM     90  C   UNL A   1      46.346  24.321  33.917  1.00  0.00     0.148 A 
ATOM     91  C   UNL A   1      48.879  25.214  33.089  1.00  0.00     0.002 A 
ATOM     92  C   UNL A   1      47.499  23.767  34.462  1.00  0.00     0.091 A 
ATOM     93  F   UNL A   1      45.125  23.888  34.261  1.00  0.00    -0.205 F 
ATOM     94  C   UNL A   1      48.766  24.203  34.041  1.00  0.00     0.022 A 
BRANCH  92  95
ATOM     95  S   UNL A   1      47.442  22.525  35.757  1.00  0.00     0.127 S 
ATOM     96  O   UNL A   1      48.857  22.196  35.920  1.00  0.00    -0.237 OA
ATOM     97  O   UNL A   1      46.855  23.264  36.876  1.00  0.00    -0.237 OA
ATOM     98  O   UNL A   1      46.602  21.452  35.241  1.00  0.00    -0.744 OA
ENDBRANCH  92  95
ENDBRANCH  65  88
ENDBRANCH  39  40
ENDBRANCH  31  34
ENDBRANCH  29  30
ENDBRANCH  28  29
ENDBRANCH   1  28
TORSDOF 17
ENDMDL
