MODEL 1
REMARK VINA RESULT:     -11.7      0.000      0.000
REMARK SMILES CC(C)c1nc(N(C)C[C@@H]2CC[N@@H+](C)C2)sc1C(=O)NCCCCNC(=O)c1ccc(-c2c3nc(c(-c4cccc(S(=O)(=O)[O-])c4F)c4ccc([nH]4)c(-c4cccc(S(=O)(=O)[O-])c4F)c4nc(c(-c5cccc(S(=O)(=O)[O-])c5F)c5ccc2[nH]5)C=C4)C=C3)cc1
REMARK SMILES IDX 22 1 21 2 20 3 18 4 19 5 17 7 4 8 5 9 6 10 16 11 2 12 1 13
REMARK SMILES IDX 3 14 7 15 8 16 9 17 10 18 11 19 15 20 12 21 13 22 14 23
REMARK SMILES IDX 23 25 24 26 25 27 26 28 27 30 28 31 29 32 90 33 30 34 89 35
REMARK SMILES IDX 31 36 32 37 33 38 83 39 34 40 88 41 82 42 84 43 35 44 87 45
REMARK SMILES IDX 81 46 80 47 36 49 68 50 48 51 67 52 49 53 52 54 66 55 85 56
REMARK SMILES IDX 50 57 51 58 65 60 86 61 53 62 37 63 38 64 46 65 39 66 41 67
REMARK SMILES IDX 47 68 40 69 42 70 43 71 44 72 45 73 69 74 70 75 78 76 71 77
REMARK SMILES IDX 73 78 79 79 72 80 74 81 75 82 76 83 77 84 54 85 55 86 63 87
REMARK SMILES IDX 56 88 58 89 64 90 57 91 59 92 60 93 61 94 62 95
REMARK H PARENT 20 6 13 24 25 29 84 48 52 59
REMARK Flexibility Score: inf
ROOT
ATOM      1  C   UNL A   1      31.802  26.839  25.696  1.00  0.00     0.023 C 
ENDROOT
BRANCH   1   2
ATOM      2  C   UNL A   1      33.221  26.521  25.246  1.00  0.00     0.116 C 
BRANCH   2   3
ATOM      3  N   UNL A   1      33.495  26.692  23.843  1.00  0.00    -0.351 N 
ATOM      4  C   UNL A   1      33.690  25.735  22.870  1.00  0.00     0.263 C 
ATOM      5  O   UNL A   1      33.894  26.175  21.735  1.00  0.00    -0.268 OA
ATOM      6  H   UNL A   1      33.552  27.626  23.535  1.00  0.00     0.163 HD
BRANCH   4   7
ATOM      7  C   UNL A   1      33.719  24.309  23.174  1.00  0.00     0.117 A 
ATOM      8  C   UNL A   1      34.611  23.434  23.789  1.00  0.00     0.069 A 
ATOM      9  N   UNL A   1      34.180  22.110  23.806  1.00  0.00    -0.224 NA
ATOM     10  C   UNL A   1      32.982  21.954  23.294  1.00  0.00     0.186 A 
ATOM     11  S   UNL A   1      32.281  23.432  22.772  1.00  0.00    -0.091 S 
BRANCH   8  12
ATOM     12  C   UNL A   1      35.960  23.687  24.420  1.00  0.00     0.034 C 
ATOM     13  C   UNL A   1      35.888  23.781  25.944  1.00  0.00     0.014 C 
ATOM     14  C   UNL A   1      37.029  22.660  24.021  1.00  0.00     0.014 C 
ENDBRANCH   8  12
BRANCH  10  15
ATOM     15  N   UNL A   1      32.402  20.730  23.146  1.00  0.00    -0.351 N 
ATOM     16  C   UNL A   1      31.803  20.276  21.904  1.00  0.00     0.146 C 
BRANCH  15  17
ATOM     17  C   UNL A   1      32.206  19.881  24.325  1.00  0.00     0.128 C 
BRANCH  17  18
ATOM     18  C   UNL A   1      33.314  18.825  24.489  1.00  0.00     0.069 C 
ATOM     19  C   UNL A   1      33.487  17.929  23.252  1.00  0.00     0.072 C 
ATOM     20  C   UNL A   1      32.990  17.846  25.622  1.00  0.00     0.267 C 
ATOM     21  C   UNL A   1      33.325  16.507  23.763  1.00  0.00     0.262 C 
ATOM     22  N   UNL A   1      32.445  16.682  24.919  1.00  0.00    -0.337 N 
ATOM     23  C   UNL A   1      32.399  15.492  25.756  1.00  0.00     0.332 C 
ATOM     24  H   UNL A   1      31.473  16.828  24.646  1.00  0.00     0.347 HD
ENDBRANCH  17  18
ENDBRANCH  15  17
ENDBRANCH  10  15
ENDBRANCH   4   7
ENDBRANCH   2   3
ENDBRANCH   1   2
BRANCH   1  25
ATOM     25  C   UNL A   1      31.552  28.272  26.170  1.00  0.00     0.023 C 
BRANCH  25  26
ATOM     26  C   UNL A   1      32.663  29.291  25.919  1.00  0.00     0.116 C 
BRANCH  26  27
ATOM     27  N   UNL A   1      32.353  30.642  26.371  1.00  0.00    -0.352 N 
ATOM     28  C   UNL A   1      33.097  31.525  27.121  1.00  0.00     0.251 C 
ATOM     29  H   UNL A   1      31.469  30.978  26.094  1.00  0.00     0.163 HD
ATOM     30  O   UNL A   1      32.610  32.607  27.446  1.00  0.00    -0.269 OA
BRANCH  28  31
ATOM     31  C   UNL A   1      34.457  31.164  27.582  1.00  0.00     0.039 A 
ATOM     32  C   UNL A   1      35.374  32.187  27.844  1.00  0.00     0.014 A 
ATOM     33  C   UNL A   1      34.823  29.834  27.788  1.00  0.00     0.014 A 
ATOM     34  C   UNL A   1      36.610  31.881  28.420  1.00  0.00     0.010 A 
ATOM     35  C   UNL A   1      36.016  29.539  28.444  1.00  0.00     0.010 A 
ATOM     36  C   UNL A   1      36.918  30.559  28.782  1.00  0.00    -0.014 A 
BRANCH  36  37
ATOM     37  C   UNL A   1      38.148  30.230  29.555  1.00  0.00     0.031 A 
ATOM     38  C   UNL A   1      39.168  29.270  29.001  1.00  0.00     0.074 A 
ATOM     39  C   UNL A   1      38.296  30.709  30.808  1.00  0.00     0.049 A 
ATOM     40  N   UNL A   1      40.255  28.808  29.564  1.00  0.00    -0.248 NA
ATOM     41  C   UNL A   1      38.918  28.735  27.653  1.00  0.00     0.031 C 
ATOM     42  C   UNL A   1      37.337  31.574  31.502  1.00  0.00     0.029 A 
ATOM     43  N   UNL A   1      39.291  30.512  31.734  1.00  0.00    -0.354 N 
ATOM     44  C   UNL A   1      40.796  27.901  28.659  1.00  0.00     0.074 A 
ATOM     45  C   UNL A   1      39.899  27.853  27.525  1.00  0.00     0.031 C 
ATOM     46  C   UNL A   1      37.795  31.837  32.737  1.00  0.00     0.029 A 
ATOM     47  C   UNL A   1      39.060  31.138  32.938  1.00  0.00     0.049 A 
ATOM     48  H   UNL A   1      40.095  29.974  31.553  1.00  0.00     0.167 HD
ATOM     49  C   UNL A   1      41.950  27.197  28.746  1.00  0.00     0.034 A 
ATOM     50  C   UNL A   1      39.778  31.145  34.079  1.00  0.00     0.034 A 
ATOM     51  C   UNL A   1      42.869  27.284  29.849  1.00  0.00     0.049 A 
ATOM     52  C   UNL A   1      41.081  30.394  34.130  1.00  0.00     0.074 A 
ATOM     53  C   UNL A   1      44.111  26.689  29.983  1.00  0.00     0.029 A 
ATOM     54  N   UNL A   1      42.646  28.007  31.011  1.00  0.00    -0.354 N 
ATOM     55  N   UNL A   1      41.659  29.680  33.195  1.00  0.00    -0.248 NA
ATOM     56  C   UNL A   1      41.849  30.480  35.381  1.00  0.00     0.031 C 
ATOM     57  C   UNL A   1      44.631  27.036  31.234  1.00  0.00     0.029 A 
ATOM     58  C   UNL A   1      43.722  27.865  31.871  1.00  0.00     0.049 A 
ATOM     59  H   UNL A   1      41.841  28.541  31.198  1.00  0.00     0.167 HD
ATOM     60  C   UNL A   1      42.871  29.261  33.731  1.00  0.00     0.074 A 
ATOM     61  C   UNL A   1      42.955  29.820  35.064  1.00  0.00     0.031 C 
ATOM     62  C   UNL A   1      43.821  28.470  33.175  1.00  0.00     0.034 A 
BRANCH  49  63
ATOM     63  C   UNL A   1      42.318  26.311  27.584  1.00  0.00     0.023 A 
ATOM     64  C   UNL A   1      43.089  26.839  26.528  1.00  0.00     0.012 A 
ATOM     65  C   UNL A   1      41.953  24.951  27.559  1.00  0.00     0.148 A 
ATOM     66  C   UNL A   1      43.459  26.039  25.449  1.00  0.00     0.002 A 
ATOM     67  C   UNL A   1      42.364  24.147  26.501  1.00  0.00     0.091 A 
ATOM     68  F   UNL A   1      41.203  24.470  28.561  1.00  0.00    -0.205 F 
ATOM     69  C   UNL A   1      43.106  24.693  25.441  1.00  0.00     0.022 A 
BRANCH  67  70
ATOM     70  S   UNL A   1      42.028  22.384  26.435  1.00  0.00     0.127 S 
ATOM     71  O   UNL A   1      42.784  21.983  25.250  1.00  0.00    -0.237 OA
ATOM     72  O   UNL A   1      42.588  21.916  27.703  1.00  0.00    -0.237 OA
ATOM     73  O   UNL A   1      40.581  22.257  26.329  1.00  0.00    -0.744 OA
ENDBRANCH  67  70
ENDBRANCH  49  63
BRANCH  50  74
ATOM     74  C   UNL A   1      39.315  31.950  35.245  1.00  0.00     0.023 A 
ATOM     75  C   UNL A   1      38.429  31.368  36.175  1.00  0.00     0.012 A 
ATOM     76  C   UNL A   1      39.762  33.269  35.457  1.00  0.00     0.148 A 
ATOM     77  C   UNL A   1      37.972  32.095  37.275  1.00  0.00     0.002 A 
ATOM     78  C   UNL A   1      39.346  33.968  36.585  1.00  0.00     0.091 A 
ATOM     79  F   UNL A   1      40.595  33.808  34.557  1.00  0.00    -0.205 F 
ATOM     80  C   UNL A   1      38.438  33.389  37.485  1.00  0.00     0.022 A 
BRANCH  78  81
ATOM     81  S   UNL A   1      39.998  35.588  37.007  1.00  0.00     0.127 S 
ATOM     82  O   UNL A   1      39.306  35.870  38.263  1.00  0.00    -0.237 OA
ATOM     83  O   UNL A   1      41.429  35.313  37.139  1.00  0.00    -0.237 OA
ATOM     84  O   UNL A   1      39.654  36.453  35.886  1.00  0.00    -0.744 OA
ENDBRANCH  78  81
ENDBRANCH  50  74
BRANCH  62  85
ATOM     85  C   UNL A   1      45.057  28.180  33.987  1.00  0.00     0.023 A 
ATOM     86  C   UNL A   1      46.157  29.059  33.925  1.00  0.00     0.012 A 
ATOM     87  C   UNL A   1      45.098  27.083  34.870  1.00  0.00     0.148 A 
ATOM     88  C   UNL A   1      47.290  28.832  34.706  1.00  0.00     0.002 A 
ATOM     89  C   UNL A   1      46.211  26.890  35.678  1.00  0.00     0.091 A 
ATOM     90  F   UNL A   1      44.049  26.247  34.900  1.00  0.00    -0.205 F 
ATOM     91  C   UNL A   1      47.313  27.756  35.590  1.00  0.00     0.022 A 
BRANCH  89  92
ATOM     92  S   UNL A   1      46.288  25.587  36.914  1.00  0.00     0.127 S 
ATOM     93  O   UNL A   1      46.496  24.402  36.085  1.00  0.00    -0.237 OA
ATOM     94  O   UNL A   1      47.449  25.984  37.712  1.00  0.00    -0.237 OA
ATOM     95  O   UNL A   1      45.021  25.638  37.629  1.00  0.00    -0.744 OA
ENDBRANCH  89  92
ENDBRANCH  62  85
ENDBRANCH  36  37
ENDBRANCH  28  31
ENDBRANCH  26  27
ENDBRANCH  25  26
ENDBRANCH   1  25
TORSDOF 18
ENDMDL
MODEL 2
REMARK VINA RESULT:     -11.7      2.858      4.079
REMARK SMILES CC(C)c1nc(N(C)C[C@@H]2CC[N@@H+](C)C2)sc1C(=O)NCCCCNC(=O)c1ccc(-c2c3nc(c(-c4cccc(S(=O)(=O)[O-])c4F)c4ccc([nH]4)c(-c4cccc(S(=O)(=O)[O-])c4F)c4nc(c(-c5cccc(S(=O)(=O)[O-])c5F)c5ccc2[nH]5)C=C4)C=C3)cc1
REMARK SMILES IDX 22 1 21 2 20 3 18 4 19 5 17 7 4 8 5 9 6 10 16 11 2 12 1 13
REMARK SMILES IDX 3 14 7 15 8 16 9 17 10 18 11 19 15 20 12 21 13 22 14 23
REMARK SMILES IDX 23 25 24 26 25 27 26 28 27 30 28 31 29 32 90 33 30 34 89 35
REMARK SMILES IDX 31 36 32 37 33 38 83 39 34 40 88 41 82 42 84 43 35 44 87 45
REMARK SMILES IDX 81 46 80 47 36 49 68 50 48 51 67 52 49 53 52 54 66 55 85 56
REMARK SMILES IDX 50 57 51 58 65 60 86 61 53 62 37 63 38 64 46 65 39 66 41 67
REMARK SMILES IDX 47 68 40 69 42 70 43 71 44 72 45 73 69 74 70 75 78 76 71 77
REMARK SMILES IDX 73 78 79 79 72 80 74 81 75 82 76 83 77 84 54 85 55 86 63 87
REMARK SMILES IDX 56 88 58 89 64 90 57 91 59 92 60 93 61 94 62 95
REMARK H PARENT 20 6 13 24 25 29 84 48 52 59
REMARK Flexibility Score: inf
ROOT
ATOM      1  C   UNL A   1      34.759  30.510  27.827  1.00  0.00     0.023 C 
ENDROOT
BRANCH   1   2
ATOM      2  C   UNL A   1      34.422  29.066  27.483  1.00  0.00     0.116 C 
BRANCH   2   3
ATOM      3  N   UNL A   1      33.062  28.658  27.722  1.00  0.00    -0.351 N 
ATOM      4  C   UNL A   1      32.298  27.732  27.043  1.00  0.00     0.263 C 
ATOM      5  O   UNL A   1      31.156  27.572  27.482  1.00  0.00    -0.268 OA
ATOM      6  H   UNL A   1      32.614  29.104  28.476  1.00  0.00     0.163 HD
BRANCH   4   7
ATOM      7  C   UNL A   1      32.784  27.043  25.854  1.00  0.00     0.117 A 
ATOM      8  C   UNL A   1      33.049  27.392  24.531  1.00  0.00     0.069 A 
ATOM      9  N   UNL A   1      33.483  26.329  23.744  1.00  0.00    -0.224 NA
ATOM     10  C   UNL A   1      33.619  25.213  24.419  1.00  0.00     0.186 A 
ATOM     11  S   UNL A   1      33.247  25.391  26.086  1.00  0.00    -0.091 S 
BRANCH   8  12
ATOM     12  C   UNL A   1      32.930  28.721  23.822  1.00  0.00     0.034 C 
ATOM     13  C   UNL A   1      33.998  28.910  22.745  1.00  0.00     0.014 C 
ATOM     14  C   UNL A   1      31.542  28.973  23.216  1.00  0.00     0.014 C 
ENDBRANCH   8  12
BRANCH  10  15
ATOM     15  N   UNL A   1      33.961  24.034  23.826  1.00  0.00    -0.351 N 
ATOM     16  C   UNL A   1      32.988  23.052  23.383  1.00  0.00     0.146 C 
BRANCH  15  17
ATOM     17  C   UNL A   1      35.371  23.637  23.780  1.00  0.00     0.128 C 
BRANCH  17  18
ATOM     18  C   UNL A   1      35.848  22.985  25.090  1.00  0.00     0.069 C 
ATOM     19  C   UNL A   1      37.248  23.448  25.525  1.00  0.00     0.072 C 
ATOM     20  C   UNL A   1      35.982  21.466  24.942  1.00  0.00     0.267 C 
ATOM     21  C   UNL A   1      38.064  22.173  25.666  1.00  0.00     0.262 C 
ATOM     22  N   UNL A   1      37.417  21.273  24.713  1.00  0.00    -0.337 N 
ATOM     23  C   UNL A   1      37.832  19.890  24.898  1.00  0.00     0.332 C 
ATOM     24  H   UNL A   1      37.675  21.480  23.748  1.00  0.00     0.347 HD
ENDBRANCH  17  18
ENDBRANCH  15  17
ENDBRANCH  10  15
ENDBRANCH   4   7
ENDBRANCH   2   3
ENDBRANCH   1   2
BRANCH   1  25
ATOM     25  C   UNL A   1      33.569  31.456  28.002  1.00  0.00     0.023 C 
BRANCH  25  26
ATOM     26  C   UNL A   1      33.456  32.620  27.018  1.00  0.00     0.116 C 
BRANCH  26  27
ATOM     27  N   UNL A   1      32.827  33.814  27.569  1.00  0.00    -0.352 N 
ATOM     28  C   UNL A   1      33.167  34.576  28.665  1.00  0.00     0.251 C 
ATOM     29  H   UNL A   1      32.032  34.126  27.079  1.00  0.00     0.163 HD
ATOM     30  O   UNL A   1      32.451  35.521  28.993  1.00  0.00    -0.269 OA
BRANCH  28  31
ATOM     31  C   UNL A   1      34.357  34.240  29.478  1.00  0.00     0.039 A 
ATOM     32  C   UNL A   1      34.172  33.705  30.757  1.00  0.00     0.014 A 
ATOM     33  C   UNL A   1      35.649  34.414  28.979  1.00  0.00     0.014 A 
ATOM     34  C   UNL A   1      35.273  33.242  31.483  1.00  0.00     0.010 A 
ATOM     35  C   UNL A   1      36.734  33.870  29.663  1.00  0.00     0.010 A 
ATOM     36  C   UNL A   1      36.558  33.264  30.917  1.00  0.00    -0.014 A 
BRANCH  36  37
ATOM     37  C   UNL A   1      37.718  32.618  31.593  1.00  0.00     0.031 A 
ATOM     38  C   UNL A   1      38.439  31.466  30.943  1.00  0.00     0.074 A 
ATOM     39  C   UNL A   1      38.055  32.995  32.844  1.00  0.00     0.049 A 
ATOM     40  N   UNL A   1      39.415  30.735  31.415  1.00  0.00    -0.248 NA
ATOM     41  C   UNL A   1      37.984  31.064  29.603  1.00  0.00     0.031 C 
ATOM     42  C   UNL A   1      37.379  34.034  33.627  1.00  0.00     0.029 A 
ATOM     43  N   UNL A   1      39.029  32.527  33.691  1.00  0.00    -0.354 N 
ATOM     44  C   UNL A   1      39.663  29.763  30.452  1.00  0.00     0.074 A 
ATOM     45  C   UNL A   1      38.712  29.979  29.383  1.00  0.00     0.031 C 
ATOM     46  C   UNL A   1      37.963  34.128  34.832  1.00  0.00     0.029 A 
ATOM     47  C   UNL A   1      39.032  33.139  34.925  1.00  0.00     0.049 A 
ATOM     48  H   UNL A   1      39.667  31.821  33.441  1.00  0.00     0.167 HD
ATOM     49  C   UNL A   1      40.616  28.800  30.439  1.00  0.00     0.034 A 
ATOM     50  C   UNL A   1      39.800  32.926  36.012  1.00  0.00     0.034 A 
ATOM     51  C   UNL A   1      41.596  28.619  31.476  1.00  0.00     0.049 A 
ATOM     52  C   UNL A   1      40.884  31.883  35.951  1.00  0.00     0.074 A 
ATOM     53  C   UNL A   1      42.664  27.738  31.505  1.00  0.00     0.029 A 
ATOM     54  N   UNL A   1      41.628  29.324  32.669  1.00  0.00    -0.354 N 
ATOM     55  N   UNL A   1      41.213  31.092  34.959  1.00  0.00    -0.248 NA
ATOM     56  C   UNL A   1      41.727  31.730  37.146  1.00  0.00     0.031 C 
ATOM     57  C   UNL A   1      43.329  27.898  32.725  1.00  0.00     0.029 A 
ATOM     58  C   UNL A   1      42.689  28.893  33.446  1.00  0.00     0.049 A 
ATOM     59  H   UNL A   1      40.989  30.028  32.926  1.00  0.00     0.167 HD
ATOM     60  C   UNL A   1      42.319  30.372  35.397  1.00  0.00     0.074 A 
ATOM     61  C   UNL A   1      42.618  30.839  36.735  1.00  0.00     0.031 C 
ATOM     62  C   UNL A   1      43.013  29.401  34.755  1.00  0.00     0.034 A 
BRANCH  49  63
ATOM     63  C   UNL A   1      40.685  27.902  29.231  1.00  0.00     0.023 A 
ATOM     64  C   UNL A   1      39.827  26.786  29.148  1.00  0.00     0.012 A 
ATOM     65  C   UNL A   1      41.552  28.187  28.158  1.00  0.00     0.148 A 
ATOM     66  C   UNL A   1      39.855  25.948  28.035  1.00  0.00     0.002 A 
ATOM     67  C   UNL A   1      41.543  27.373  27.031  1.00  0.00     0.091 A 
ATOM     68  F   UNL A   1      42.375  29.240  28.262  1.00  0.00    -0.205 F 
ATOM     69  C   UNL A   1      40.705  26.247  26.974  1.00  0.00     0.022 A 
BRANCH  67  70
ATOM     70  S   UNL A   1      42.542  27.716  25.578  1.00  0.00     0.127 S 
ATOM     71  O   UNL A   1      42.286  26.534  24.758  1.00  0.00    -0.237 OA
ATOM     72  O   UNL A   1      41.938  28.951  25.074  1.00  0.00    -0.237 OA
ATOM     73  O   UNL A   1      43.908  27.863  26.058  1.00  0.00    -0.744 OA
ENDBRANCH  67  70
ENDBRANCH  49  63
BRANCH  50  74
ATOM     74  C   UNL A   1      39.619  33.768  37.228  1.00  0.00     0.023 A 
ATOM     75  C   UNL A   1      40.168  35.066  37.255  1.00  0.00     0.012 A 
ATOM     76  C   UNL A   1      38.890  33.309  38.343  1.00  0.00     0.148 A 
ATOM     77  C   UNL A   1      40.021  35.879  38.379  1.00  0.00     0.002 A 
ATOM     78  C   UNL A   1      38.701  34.145  39.438  1.00  0.00     0.091 A 
ATOM     79  F   UNL A   1      38.386  32.068  38.304  1.00  0.00    -0.205 F 
ATOM     80  C   UNL A   1      39.280  35.423  39.465  1.00  0.00     0.022 A 
BRANCH  78  81
ATOM     81  S   UNL A   1      37.649  33.693  40.823  1.00  0.00     0.127 S 
ATOM     82  O   UNL A   1      38.473  32.703  41.513  1.00  0.00    -0.237 OA
ATOM     83  O   UNL A   1      37.505  34.970  41.522  1.00  0.00    -0.237 OA
ATOM     84  O   UNL A   1      36.416  33.191  40.231  1.00  0.00    -0.744 OA
ENDBRANCH  78  81
ENDBRANCH  50  74
BRANCH  62  85
ATOM     85  C   UNL A   1      44.190  28.790  35.470  1.00  0.00     0.023 A 
ATOM     86  C   UNL A   1      45.480  29.322  35.274  1.00  0.00     0.012 A 
ATOM     87  C   UNL A   1      44.008  27.742  36.394  1.00  0.00     0.148 A 
ATOM     88  C   UNL A   1      46.575  28.800  35.963  1.00  0.00     0.002 A 
ATOM     89  C   UNL A   1      45.094  27.259  37.111  1.00  0.00     0.091 A 
ATOM     90  F   UNL A   1      42.775  27.237  36.552  1.00  0.00    -0.205 F 
ATOM     91  C   UNL A   1      46.380  27.778  36.890  1.00  0.00     0.022 A 
BRANCH  89  92
ATOM     92  S   UNL A   1      44.923  26.011  38.393  1.00  0.00     0.127 S 
ATOM     93  O   UNL A   1      46.262  25.999  38.979  1.00  0.00    -0.237 OA
ATOM     94  O   UNL A   1      43.887  26.586  39.252  1.00  0.00    -0.237 OA
ATOM     95  O   UNL A   1      44.527  24.787  37.710  1.00  0.00    -0.744 OA
ENDBRANCH  89  92
ENDBRANCH  62  85
ENDBRANCH  36  37
ENDBRANCH  28  31
ENDBRANCH  26  27
ENDBRANCH  25  26
ENDBRANCH   1  25
TORSDOF 18
ENDMDL
MODEL 3
REMARK VINA RESULT:     -11.2      2.492      8.233
REMARK SMILES CC(C)c1nc(N(C)C[C@@H]2CC[N@@H+](C)C2)sc1C(=O)NCCCCNC(=O)c1ccc(-c2c3nc(c(-c4cccc(S(=O)(=O)[O-])c4F)c4ccc([nH]4)c(-c4cccc(S(=O)(=O)[O-])c4F)c4nc(c(-c5cccc(S(=O)(=O)[O-])c5F)c5ccc2[nH]5)C=C4)C=C3)cc1
REMARK SMILES IDX 22 1 21 2 20 3 18 4 19 5 17 7 4 8 5 9 6 10 16 11 2 12 1 13
REMARK SMILES IDX 3 14 7 15 8 16 9 17 10 18 11 19 15 20 12 21 13 22 14 23
REMARK SMILES IDX 23 25 24 26 25 27 26 28 27 30 28 31 29 32 90 33 30 34 89 35
REMARK SMILES IDX 31 36 32 37 33 38 83 39 34 40 88 41 82 42 84 43 35 44 87 45
REMARK SMILES IDX 81 46 80 47 36 49 68 50 48 51 67 52 49 53 52 54 66 55 85 56
REMARK SMILES IDX 50 57 51 58 65 60 86 61 53 62 37 63 38 64 46 65 39 66 41 67
REMARK SMILES IDX 47 68 40 69 42 70 43 71 44 72 45 73 69 74 70 75 78 76 71 77
REMARK SMILES IDX 73 78 79 79 72 80 74 81 75 82 76 83 77 84 54 85 55 86 63 87
REMARK SMILES IDX 56 88 58 89 64 90 57 91 59 92 60 93 61 94 62 95
REMARK H PARENT 20 6 13 24 25 29 84 48 52 59
REMARK Flexibility Score: inf
ROOT
ATOM      1  C   UNL A   1      33.708  28.749  23.932  1.00  0.00     0.023 C 
ENDROOT
BRANCH   1   2
ATOM      2  C   UNL A   1      32.561  28.408  22.991  1.00  0.00     0.116 C 
BRANCH   2   3
ATOM      3  N   UNL A   1      32.880  27.536  21.891  1.00  0.00    -0.351 N 
ATOM      4  C   UNL A   1      32.982  26.161  21.869  1.00  0.00     0.263 C 
ATOM      5  O   UNL A   1      33.257  25.673  20.770  1.00  0.00    -0.268 OA
ATOM      6  H   UNL A   1      33.051  27.986  21.032  1.00  0.00     0.163 HD
BRANCH   4   7
ATOM      7  C   UNL A   1      32.840  25.351  23.073  1.00  0.00     0.117 A 
ATOM      8  C   UNL A   1      31.948  25.292  24.142  1.00  0.00     0.069 A 
ATOM      9  N   UNL A   1      32.271  24.329  25.094  1.00  0.00    -0.224 NA
ATOM     10  C   UNL A   1      33.323  23.617  24.766  1.00  0.00     0.186 A 
ATOM     11  S   UNL A   1      33.983  24.062  23.243  1.00  0.00    -0.091 S 
BRANCH   8  12
ATOM     12  C   UNL A   1      30.709  26.107  24.435  1.00  0.00     0.034 C 
ATOM     13  C   UNL A   1      29.526  25.718  23.548  1.00  0.00     0.014 C 
ATOM     14  C   UNL A   1      30.280  26.065  25.909  1.00  0.00     0.014 C 
ENDBRANCH   8  12
BRANCH  10  15
ATOM     15  N   UNL A   1      33.854  22.671  25.590  1.00  0.00    -0.351 N 
ATOM     16  C   UNL A   1      34.383  22.968  26.909  1.00  0.00     0.146 C 
BRANCH  15  17
ATOM     17  C   UNL A   1      34.073  21.314  25.078  1.00  0.00     0.128 C 
BRANCH  17  18
ATOM     18  C   UNL A   1      32.783  20.475  25.048  1.00  0.00     0.069 C 
ATOM     19  C   UNL A   1      32.920  19.123  25.767  1.00  0.00     0.072 C 
ATOM     20  C   UNL A   1      32.393  20.102  23.614  1.00  0.00     0.267 C 
ATOM     21  C   UNL A   1      32.534  18.079  24.733  1.00  0.00     0.262 C 
ATOM     22  N   UNL A   1      32.892  18.731  23.473  1.00  0.00    -0.337 N 
ATOM     23  C   UNL A   1      32.326  18.044  22.322  1.00  0.00     0.332 C 
ATOM     24  H   UNL A   1      33.897  18.713  23.300  1.00  0.00     0.347 HD
ENDBRANCH  17  18
ENDBRANCH  15  17
ENDBRANCH  10  15
ENDBRANCH   4   7
ENDBRANCH   2   3
ENDBRANCH   1   2
BRANCH   1  25
ATOM     25  C   UNL A   1      33.515  28.356  25.398  1.00  0.00     0.023 C 
BRANCH  25  26
ATOM     26  C   UNL A   1      34.455  28.997  26.419  1.00  0.00     0.116 C 
BRANCH  26  27
ATOM     27  N   UNL A   1      34.082  30.350  26.813  1.00  0.00    -0.352 N 
ATOM     28  C   UNL A   1      34.658  31.204  27.726  1.00  0.00     0.251 C 
ATOM     29  H   UNL A   1      33.290  30.711  26.352  1.00  0.00     0.163 HD
ATOM     30  O   UNL A   1      34.135  32.294  27.952  1.00  0.00    -0.269 OA
BRANCH  28  31
ATOM     31  C   UNL A   1      35.872  30.803  28.472  1.00  0.00     0.039 A 
ATOM     32  C   UNL A   1      35.764  29.817  29.458  1.00  0.00     0.014 A 
ATOM     33  C   UNL A   1      37.117  31.365  28.186  1.00  0.00     0.014 A 
ATOM     34  C   UNL A   1      36.916  29.316  30.070  1.00  0.00     0.010 A 
ATOM     35  C   UNL A   1      38.271  30.803  28.730  1.00  0.00     0.010 A 
ATOM     36  C   UNL A   1      38.186  29.762  29.668  1.00  0.00    -0.014 A 
BRANCH  36  37
ATOM     37  C   UNL A   1      39.432  29.123  30.173  1.00  0.00     0.031 A 
ATOM     38  C   UNL A   1      40.151  29.685  31.372  1.00  0.00     0.074 A 
ATOM     39  C   UNL A   1      39.982  28.099  29.487  1.00  0.00     0.049 A 
ATOM     40  N   UNL A   1      41.286  29.308  31.903  1.00  0.00    -0.248 NA
ATOM     41  C   UNL A   1      39.532  30.840  32.040  1.00  0.00     0.031 C 
ATOM     42  C   UNL A   1      39.440  27.517  28.256  1.00  0.00     0.029 A 
ATOM     43  N   UNL A   1      41.135  27.386  29.707  1.00  0.00    -0.354 N 
ATOM     44  C   UNL A   1      41.536  30.201  32.939  1.00  0.00     0.074 A 
ATOM     45  C   UNL A   1      40.451  31.159  32.940  1.00  0.00     0.031 C 
ATOM     46  C   UNL A   1      40.253  26.535  27.836  1.00  0.00     0.029 A 
ATOM     47  C   UNL A   1      41.391  26.435  28.744  1.00  0.00     0.049 A 
ATOM     48  H   UNL A   1      41.724  27.540  30.480  1.00  0.00     0.167 HD
ATOM     49  C   UNL A   1      42.555  30.206  33.832  1.00  0.00     0.034 A 
ATOM     50  C   UNL A   1      42.425  25.582  28.602  1.00  0.00     0.034 A 
ATOM     51  C   UNL A   1      43.605  29.224  33.866  1.00  0.00     0.049 A 
ATOM     52  C   UNL A   1      43.519  25.576  29.636  1.00  0.00     0.074 A 
ATOM     53  C   UNL A   1      44.624  29.085  34.792  1.00  0.00     0.029 A 
ATOM     54  N   UNL A   1      43.776  28.215  32.931  1.00  0.00    -0.354 N 
ATOM     55  N   UNL A   1      43.643  26.319  30.709  1.00  0.00    -0.248 NA
ATOM     56  C   UNL A   1      44.595  24.590  29.460  1.00  0.00     0.031 C 
ATOM     57  C   UNL A   1      45.423  28.004  34.406  1.00  0.00     0.029 A 
ATOM     58  C   UNL A   1      44.889  27.456  33.251  1.00  0.00     0.049 A 
ATOM     59  H   UNL A   1      43.193  28.061  32.152  1.00  0.00     0.167 HD
ATOM     60  C   UNL A   1      44.790  25.869  31.353  1.00  0.00     0.074 A 
ATOM     61  C   UNL A   1      45.311  24.772  30.562  1.00  0.00     0.031 C 
ATOM     62  C   UNL A   1      45.368  26.332  32.488  1.00  0.00     0.034 A 
BRANCH  49  63
ATOM     63  C   UNL A   1      42.552  31.279  34.890  1.00  0.00     0.023 A 
ATOM     64  C   UNL A   1      41.953  31.017  36.139  1.00  0.00     0.012 A 
ATOM     65  C   UNL A   1      43.185  32.518  34.675  1.00  0.00     0.148 A 
ATOM     66  C   UNL A   1      41.950  31.983  37.144  1.00  0.00     0.002 A 
ATOM     67  C   UNL A   1      43.218  33.461  35.696  1.00  0.00     0.091 A 
ATOM     68  F   UNL A   1      43.732  32.758  33.474  1.00  0.00    -0.205 F 
ATOM     69  C   UNL A   1      42.591  33.199  36.926  1.00  0.00     0.022 A 
BRANCH  67  70
ATOM     70  S   UNL A   1      44.085  35.026  35.544  1.00  0.00     0.127 S 
ATOM     71  O   UNL A   1      43.502  35.569  34.318  1.00  0.00    -0.237 OA
ATOM     72  O   UNL A   1      43.686  35.721  36.768  1.00  0.00    -0.237 OA
ATOM     73  O   UNL A   1      45.501  34.694  35.471  1.00  0.00    -0.744 OA
ENDBRANCH  67  70
ENDBRANCH  49  63
BRANCH  50  74
ATOM     74  C   UNL A   1      42.440  24.611  27.471  1.00  0.00     0.023 A 
ATOM     75  C   UNL A   1      43.239  24.881  26.342  1.00  0.00     0.012 A 
ATOM     76  C   UNL A   1      41.696  23.416  27.515  1.00  0.00     0.148 A 
ATOM     77  C   UNL A   1      43.272  23.996  25.264  1.00  0.00     0.002 A 
ATOM     78  C   UNL A   1      41.776  22.512  26.461  1.00  0.00     0.091 A 
ATOM     79  F   UNL A   1      40.933  23.182  28.591  1.00  0.00    -0.205 F 
ATOM     80  C   UNL A   1      42.549  22.809  25.328  1.00  0.00     0.022 A 
BRANCH  78  81
ATOM     81  S   UNL A   1      40.988  20.899  26.515  1.00  0.00     0.127 S 
ATOM     82  O   UNL A   1      39.657  21.198  25.992  1.00  0.00    -0.237 OA
ATOM     83  O   UNL A   1      41.840  20.116  25.620  1.00  0.00    -0.237 OA
ATOM     84  O   UNL A   1      41.042  20.483  27.910  1.00  0.00    -0.744 OA
ENDBRANCH  78  81
ENDBRANCH  50  74
BRANCH  62  85
ATOM     85  C   UNL A   1      46.617  25.641  32.971  1.00  0.00     0.023 A 
ATOM     86  C   UNL A   1      46.525  24.642  33.962  1.00  0.00     0.012 A 
ATOM     87  C   UNL A   1      47.869  25.924  32.391  1.00  0.00     0.148 A 
ATOM     88  C   UNL A   1      47.664  23.959  34.388  1.00  0.00     0.002 A 
ATOM     89  C   UNL A   1      48.991  25.207  32.786  1.00  0.00     0.091 A 
ATOM     90  F   UNL A   1      47.939  26.891  31.464  1.00  0.00    -0.205 F 
ATOM     91  C   UNL A   1      48.893  24.232  33.792  1.00  0.00     0.022 A 
BRANCH  89  92
ATOM     92  S   UNL A   1      50.596  25.425  32.008  1.00  0.00     0.127 S 
ATOM     93  O   UNL A   1      51.397  24.408  32.687  1.00  0.00    -0.237 OA
ATOM     94  O   UNL A   1      50.304  25.133  30.604  1.00  0.00    -0.237 OA
ATOM     95  O   UNL A   1      50.983  26.804  32.268  1.00  0.00    -0.744 OA
ENDBRANCH  89  92
ENDBRANCH  62  85
ENDBRANCH  36  37
ENDBRANCH  28  31
ENDBRANCH  26  27
ENDBRANCH  25  26
ENDBRANCH   1  25
TORSDOF 18
ENDMDL
