MODEL 1
REMARK VINA RESULT:     -12.3      0.000      0.000
REMARK SMILES CC(C)c1cc(C2CC[NH+](Cc3c[nH]nc3C(=O)NCCCCNC(=O)c3ccc(-c4c5nc(c(-c6cccc(S(=O)(=O)[O-])c6F)c6ccc([nH]6)c(-c6cccc(S(=O)(=O)[O-])c6F)c6nc(c(-c7cccc(S(=O)(=O)[O-])c7F)c7ccc4[nH]7)C=C6)C=C5)cc3)CC2)n[nH]1
REMARK SMILES IDX 21 1 20 2 19 3 17 4 18 5 16 7 12 8 13 9 14 10 15 11 11 13
REMARK SMILES IDX 10 14 7 15 8 16 91 17 9 18 90 19 6 21 4 22 5 23 93 24 92 25
REMARK SMILES IDX 2 27 1 28 3 29 22 30 23 31 24 32 25 33 26 35 27 36 28 37
REMARK SMILES IDX 89 38 29 39 88 40 30 41 31 42 32 43 82 44 33 45 87 46 81 47
REMARK SMILES IDX 83 48 34 49 86 50 80 51 79 52 35 54 67 55 47 56 66 57 48 58
REMARK SMILES IDX 51 59 65 60 84 61 49 62 50 63 64 65 85 66 52 67 36 68 37 69
REMARK SMILES IDX 45 70 38 71 40 72 46 73 39 74 41 75 42 76 43 77 44 78 68 79
REMARK SMILES IDX 69 80 77 81 70 82 72 83 78 84 71 85 73 86 74 87 75 88 76 89
REMARK SMILES IDX 53 90 54 91 62 92 55 93 57 94 63 95 56 96 58 97 59 98 60 99
REMARK SMILES IDX 61 100
REMARK H PARENT 19 6 14 12 10 20 93 26 24 34 83 53 51 64
REMARK Flexibility Score: inf
ROOT
ATOM      1  C   UNL A   1      32.958  29.257  27.347  1.00  0.00     0.023 C 
ENDROOT
BRANCH   1   2
ATOM      2  C   UNL A   1      33.644  28.327  26.358  1.00  0.00     0.116 C 
BRANCH   2   3
ATOM      3  N   UNL A   1      33.839  28.870  25.055  1.00  0.00    -0.351 N 
ATOM      4  C   UNL A   1      33.166  28.668  23.874  1.00  0.00     0.272 C 
ATOM      5  O   UNL A   1      33.628  29.345  22.944  1.00  0.00    -0.267 OA
ATOM      6  H   UNL A   1      34.590  29.504  24.989  1.00  0.00     0.163 HD
BRANCH   4   7
ATOM      7  C   UNL A   1      31.993  27.752  23.641  1.00  0.00     0.158 A 
ATOM      8  C   UNL A   1      31.721  26.317  23.492  1.00  0.00     0.057 A 
ATOM      9  C   UNL A   1      30.335  26.243  23.419  1.00  0.00     0.115 A 
ATOM     10  N   UNL A   1      29.861  27.504  23.435  1.00  0.00    -0.284 N 
ATOM     11  N   UNL A   1      30.811  28.417  23.551  1.00  0.00    -0.170 NA
ATOM     12  H   UNL A   1      28.905  27.724  23.366  1.00  0.00     0.189 HD
BRANCH   8  13
ATOM     13  C   UNL A   1      32.556  25.060  23.482  1.00  0.00     0.303 C 
BRANCH  13  14
ATOM     14  N   UNL A   1      32.953  24.556  24.824  1.00  0.00    -0.331 N 
ATOM     15  C   UNL A   1      33.836  22.449  26.735  1.00  0.00     0.051 C 
ATOM     16  C   UNL A   1      32.406  22.992  26.718  1.00  0.00     0.071 C 
ATOM     17  C   UNL A   1      34.771  23.579  26.324  1.00  0.00     0.071 C 
ATOM     18  C   UNL A   1      32.012  23.569  25.357  1.00  0.00     0.263 C 
ATOM     19  C   UNL A   1      34.373  24.242  25.004  1.00  0.00     0.263 C 
ATOM     20  H   UNL A   1      32.865  25.367  25.438  1.00  0.00     0.348 HD
BRANCH  15  21
ATOM     21  C   UNL A   1      34.016  21.193  25.920  1.00  0.00     0.066 A 
ATOM     22  C   UNL A   1      33.702  19.326  24.742  1.00  0.00     0.038 A 
ATOM     23  C   UNL A   1      33.031  20.327  25.398  1.00  0.00     0.049 A 
ATOM     24  N   UNL A   1      35.024  19.650  24.866  1.00  0.00    -0.282 N 
ATOM     25  N   UNL A   1      35.243  20.757  25.599  1.00  0.00    -0.180 NA
ATOM     26  H   UNL A   1      35.748  19.122  24.458  1.00  0.00     0.190 HD
BRANCH  22  27
ATOM     27  C   UNL A   1      33.155  18.124  24.044  1.00  0.00     0.031 C 
ATOM     28  C   UNL A   1      32.323  18.481  22.817  1.00  0.00     0.014 C 
ATOM     29  C   UNL A   1      34.279  17.150  23.699  1.00  0.00     0.014 C 
ENDBRANCH  22  27
ENDBRANCH  15  21
ENDBRANCH  13  14
ENDBRANCH   8  13
ENDBRANCH   4   7
ENDBRANCH   2   3
ENDBRANCH   1   2
BRANCH   1  30
ATOM     30  C   UNL A   1      32.702  30.664  26.842  1.00  0.00     0.023 C 
BRANCH  30  31
ATOM     31  C   UNL A   1      33.553  31.747  27.497  1.00  0.00     0.116 C 
BRANCH  31  32
ATOM     32  N   UNL A   1      32.904  33.055  27.588  1.00  0.00    -0.352 N 
ATOM     33  C   UNL A   1      33.205  34.127  28.402  1.00  0.00     0.251 C 
ATOM     34  H   UNL A   1      32.141  33.190  26.979  1.00  0.00     0.163 HD
ATOM     35  O   UNL A   1      32.523  35.141  28.384  1.00  0.00    -0.269 OA
BRANCH  33  36
ATOM     36  C   UNL A   1      34.339  34.000  29.339  1.00  0.00     0.039 A 
ATOM     37  C   UNL A   1      34.127  33.396  30.580  1.00  0.00     0.014 A 
ATOM     38  C   UNL A   1      35.625  34.342  28.921  1.00  0.00     0.014 A 
ATOM     39  C   UNL A   1      35.227  33.010  31.347  1.00  0.00     0.010 A 
ATOM     40  C   UNL A   1      36.713  33.859  29.631  1.00  0.00     0.010 A 
ATOM     41  C   UNL A   1      36.528  33.170  30.841  1.00  0.00    -0.014 A 
BRANCH  41  42
ATOM     42  C   UNL A   1      37.715  32.587  31.520  1.00  0.00     0.031 A 
ATOM     43  C   UNL A   1      38.453  31.443  30.879  1.00  0.00     0.074 A 
ATOM     44  C   UNL A   1      38.036  32.983  32.769  1.00  0.00     0.049 A 
ATOM     45  N   UNL A   1      39.395  30.687  31.377  1.00  0.00    -0.248 NA
ATOM     46  C   UNL A   1      38.043  31.070  29.514  1.00  0.00     0.031 C 
ATOM     47  C   UNL A   1      37.334  34.011  33.544  1.00  0.00     0.029 A 
ATOM     48  N   UNL A   1      39.014  32.539  33.625  1.00  0.00    -0.354 N 
ATOM     49  C   UNL A   1      39.654  29.722  30.413  1.00  0.00     0.074 A 
ATOM     50  C   UNL A   1      38.742  29.962  29.316  1.00  0.00     0.031 C 
ATOM     51  C   UNL A   1      37.902  34.117  34.756  1.00  0.00     0.029 A 
ATOM     52  C   UNL A   1      38.986  33.147  34.860  1.00  0.00     0.049 A 
ATOM     53  H   UNL A   1      39.673  31.851  33.379  1.00  0.00     0.167 HD
ATOM     54  C   UNL A   1      40.594  28.748  30.417  1.00  0.00     0.034 A 
ATOM     55  C   UNL A   1      39.740  32.938  35.958  1.00  0.00     0.034 A 
ATOM     56  C   UNL A   1      41.550  28.559  31.472  1.00  0.00     0.049 A 
ATOM     57  C   UNL A   1      40.835  31.907  35.903  1.00  0.00     0.074 A 
ATOM     58  C   UNL A   1      42.601  27.662  31.530  1.00  0.00     0.029 A 
ATOM     59  N   UNL A   1      41.579  29.289  32.649  1.00  0.00    -0.354 N 
ATOM     60  N   UNL A   1      41.164  31.106  34.918  1.00  0.00    -0.248 NA
ATOM     61  C   UNL A   1      41.686  31.773  37.096  1.00  0.00     0.031 C 
ATOM     62  C   UNL A   1      43.270  27.854  32.744  1.00  0.00     0.029 A 
ATOM     63  C   UNL A   1      42.636  28.872  33.438  1.00  0.00     0.049 A 
ATOM     64  H   UNL A   1      40.942  30.001  32.890  1.00  0.00     0.167 HD
ATOM     65  C   UNL A   1      42.273  30.394  35.361  1.00  0.00     0.074 A 
ATOM     66  C   UNL A   1      42.577  30.878  36.693  1.00  0.00     0.031 C 
ATOM     67  C   UNL A   1      42.962  29.409  34.734  1.00  0.00     0.034 A 
BRANCH  54  68
ATOM     68  C   UNL A   1      40.687  27.871  29.198  1.00  0.00     0.023 A 
ATOM     69  C   UNL A   1      39.863  26.729  29.110  1.00  0.00     0.012 A 
ATOM     70  C   UNL A   1      41.547  28.188  28.128  1.00  0.00     0.148 A 
ATOM     71  C   UNL A   1      39.918  25.897  27.994  1.00  0.00     0.002 A 
ATOM     72  C   UNL A   1      41.565  27.375  27.000  1.00  0.00     0.091 A 
ATOM     73  F   UNL A   1      42.340  29.262  28.240  1.00  0.00    -0.205 F 
ATOM     74  C   UNL A   1      40.761  26.225  26.936  1.00  0.00     0.022 A 
BRANCH  72  75
ATOM     75  S   UNL A   1      42.563  27.750  25.554  1.00  0.00     0.127 S 
ATOM     76  O   UNL A   1      42.333  26.569  24.723  1.00  0.00    -0.237 OA
ATOM     77  O   UNL A   1      41.937  28.976  25.056  1.00  0.00    -0.237 OA
ATOM     78  O   UNL A   1      43.924  27.920  26.041  1.00  0.00    -0.744 OA
ENDBRANCH  72  75
ENDBRANCH  54  68
BRANCH  55  79
ATOM     79  C   UNL A   1      39.535  33.773  37.175  1.00  0.00     0.023 A 
ATOM     80  C   UNL A   1      40.036  35.089  37.199  1.00  0.00     0.012 A 
ATOM     81  C   UNL A   1      38.826  33.290  38.292  1.00  0.00     0.148 A 
ATOM     82  C   UNL A   1      39.864  35.898  38.323  1.00  0.00     0.002 A 
ATOM     83  C   UNL A   1      38.612  34.119  39.389  1.00  0.00     0.091 A 
ATOM     84  F   UNL A   1      38.371  32.030  38.261  1.00  0.00    -0.205 F 
ATOM     85  C   UNL A   1      39.145  35.417  39.414  1.00  0.00     0.022 A 
BRANCH  83  86
ATOM     86  S   UNL A   1      37.579  33.618  40.770  1.00  0.00     0.127 S 
ATOM     87  O   UNL A   1      37.409  34.877  41.490  1.00  0.00    -0.237 OA
ATOM     88  O   UNL A   1      36.377  33.126  40.096  1.00  0.00    -0.237 OA
ATOM     89  O   UNL A   1      38.338  32.583  41.459  1.00  0.00    -0.744 OA
ENDBRANCH  83  86
ENDBRANCH  55  79
BRANCH  67  90
ATOM     90  C   UNL A   1      44.128  28.800  35.463  1.00  0.00     0.023 A 
ATOM     91  C   UNL A   1      45.417  29.339  35.278  1.00  0.00     0.012 A 
ATOM     92  C   UNL A   1      43.937  27.759  36.390  1.00  0.00     0.148 A 
ATOM     93  C   UNL A   1      46.503  28.831  35.988  1.00  0.00     0.002 A 
ATOM     94  C   UNL A   1      45.018  27.286  37.126  1.00  0.00     0.091 A 
ATOM     95  F   UNL A   1      42.706  27.247  36.535  1.00  0.00    -0.205 F 
ATOM     96  C   UNL A   1      46.302  27.815  36.920  1.00  0.00     0.022 A 
BRANCH  94  97
ATOM     97  S   UNL A   1      44.832  26.043  38.409  1.00  0.00     0.127 S 
ATOM     98  O   UNL A   1      46.222  25.808  38.799  1.00  0.00    -0.237 OA
ATOM     99  O   UNL A   1      44.027  26.743  39.411  1.00  0.00    -0.237 OA
ATOM    100  O   UNL A   1      44.158  24.917  37.776  1.00  0.00    -0.744 OA
ENDBRANCH  94  97
ENDBRANCH  67  90
ENDBRANCH  41  42
ENDBRANCH  33  36
ENDBRANCH  31  32
ENDBRANCH  30  31
ENDBRANCH   1  30
TORSDOF 18
ENDMDL
MODEL 2
REMARK VINA RESULT:     -12.2      5.666     10.305
REMARK SMILES CC(C)c1cc(C2CC[NH+](Cc3c[nH]nc3C(=O)NCCCCNC(=O)c3ccc(-c4c5nc(c(-c6cccc(S(=O)(=O)[O-])c6F)c6ccc([nH]6)c(-c6cccc(S(=O)(=O)[O-])c6F)c6nc(c(-c7cccc(S(=O)(=O)[O-])c7F)c7ccc4[nH]7)C=C6)C=C5)cc3)CC2)n[nH]1
REMARK SMILES IDX 21 1 20 2 19 3 17 4 18 5 16 7 12 8 13 9 14 10 15 11 11 13
REMARK SMILES IDX 10 14 7 15 8 16 91 17 9 18 90 19 6 21 4 22 5 23 93 24 92 25
REMARK SMILES IDX 2 27 1 28 3 29 22 30 23 31 24 32 25 33 26 35 27 36 28 37
REMARK SMILES IDX 89 38 29 39 88 40 30 41 31 42 32 43 82 44 33 45 87 46 81 47
REMARK SMILES IDX 83 48 34 49 86 50 80 51 79 52 35 54 67 55 47 56 66 57 48 58
REMARK SMILES IDX 51 59 65 60 84 61 49 62 50 63 64 65 85 66 52 67 36 68 37 69
REMARK SMILES IDX 45 70 38 71 40 72 46 73 39 74 41 75 42 76 43 77 44 78 68 79
REMARK SMILES IDX 69 80 77 81 70 82 72 83 78 84 71 85 73 86 74 87 75 88 76 89
REMARK SMILES IDX 53 90 54 91 62 92 55 93 57 94 63 95 56 96 58 97 59 98 60 99
REMARK SMILES IDX 61 100
REMARK H PARENT 19 6 14 12 10 20 93 26 24 34 83 53 51 64
REMARK Flexibility Score: inf
ROOT
ATOM      1  C   UNL A   1      35.070  23.373  25.876  1.00  0.00     0.023 C 
ENDROOT
BRANCH   1   2
ATOM      2  C   UNL A   1      35.141  24.449  24.803  1.00  0.00     0.116 C 
BRANCH   2   3
ATOM      3  N   UNL A   1      34.435  24.148  23.602  1.00  0.00    -0.351 N 
ATOM      4  C   UNL A   1      33.835  24.961  22.671  1.00  0.00     0.272 C 
ATOM      5  O   UNL A   1      33.330  24.321  21.738  1.00  0.00    -0.267 OA
ATOM      6  H   UNL A   1      34.365  23.186  23.403  1.00  0.00     0.163 HD
BRANCH   4   7
ATOM      7  C   UNL A   1      33.752  26.466  22.695  1.00  0.00     0.158 A 
ATOM      8  C   UNL A   1      33.568  27.548  23.670  1.00  0.00     0.057 A 
ATOM      9  C   UNL A   1      33.727  28.707  22.919  1.00  0.00     0.115 A 
ATOM     10  N   UNL A   1      33.894  28.337  21.635  1.00  0.00    -0.284 N 
ATOM     11  N   UNL A   1      33.901  27.026  21.466  1.00  0.00    -0.170 NA
ATOM     12  H   UNL A   1      34.000  28.978  20.896  1.00  0.00     0.189 HD
BRANCH   8  13
ATOM     13  C   UNL A   1      33.346  27.627  25.161  1.00  0.00     0.303 C 
BRANCH  13  14
ATOM     14  N   UNL A   1      32.150  26.895  25.659  1.00  0.00    -0.331 N 
ATOM     15  C   UNL A   1      30.281  24.578  25.753  1.00  0.00     0.051 C 
ATOM     16  C   UNL A   1      29.913  25.902  25.079  1.00  0.00     0.071 C 
ATOM     17  C   UNL A   1      31.205  24.891  26.923  1.00  0.00     0.071 C 
ATOM     18  C   UNL A   1      31.141  26.689  24.619  1.00  0.00     0.263 C 
ATOM     19  C   UNL A   1      32.411  25.744  26.528  1.00  0.00     0.263 C 
ATOM     20  H   UNL A   1      31.718  27.535  26.327  1.00  0.00     0.348 HD
BRANCH  15  21
ATOM     21  C   UNL A   1      30.841  23.550  24.803  1.00  0.00     0.066 A 
ATOM     22  C   UNL A   1      31.882  21.804  23.889  1.00  0.00     0.038 A 
ATOM     23  C   UNL A   1      31.613  22.404  25.093  1.00  0.00     0.049 A 
ATOM     24  N   UNL A   1      31.245  22.576  22.960  1.00  0.00    -0.282 N 
ATOM     25  N   UNL A   1      30.632  23.654  23.482  1.00  0.00    -0.180 NA
ATOM     26  H   UNL A   1      31.234  22.364  21.999  1.00  0.00     0.190 HD
BRANCH  22  27
ATOM     27  C   UNL A   1      32.697  20.583  23.606  1.00  0.00     0.031 C 
ATOM     28  C   UNL A   1      32.811  19.656  24.811  1.00  0.00     0.014 C 
ATOM     29  C   UNL A   1      32.153  19.851  22.381  1.00  0.00     0.014 C 
ENDBRANCH  22  27
ENDBRANCH  15  21
ENDBRANCH  13  14
ENDBRANCH   8  13
ENDBRANCH   4   7
ENDBRANCH   2   3
ENDBRANCH   1   2
BRANCH   1  30
ATOM     30  C   UNL A   1      35.688  22.041  25.500  1.00  0.00     0.023 C 
BRANCH  30  31
ATOM     31  C   UNL A   1      36.998  22.136  24.726  1.00  0.00     0.116 C 
BRANCH  31  32
ATOM     32  N   UNL A   1      37.922  21.025  24.959  1.00  0.00    -0.352 N 
ATOM     33  C   UNL A   1      39.053  20.977  25.747  1.00  0.00     0.251 C 
ATOM     34  H   UNL A   1      37.703  20.190  24.484  1.00  0.00     0.163 HD
ATOM     35  O   UNL A   1      39.745  19.971  25.792  1.00  0.00    -0.269 OA
BRANCH  33  36
ATOM     36  C   UNL A   1      39.440  22.191  26.493  1.00  0.00     0.039 A 
ATOM     37  C   UNL A   1      40.424  22.094  27.480  1.00  0.00     0.014 A 
ATOM     38  C   UNL A   1      38.936  23.432  26.107  1.00  0.00     0.014 A 
ATOM     39  C   UNL A   1      41.001  23.261  27.983  1.00  0.00     0.010 A 
ATOM     40  C   UNL A   1      39.588  24.582  26.525  1.00  0.00     0.010 A 
ATOM     41  C   UNL A   1      40.641  24.510  27.452  1.00  0.00    -0.014 A 
BRANCH  41  42
ATOM     42  C   UNL A   1      41.372  25.756  27.800  1.00  0.00     0.031 A 
ATOM     43  C   UNL A   1      40.654  26.866  28.519  1.00  0.00     0.074 A 
ATOM     44  C   UNL A   1      42.627  25.948  27.343  1.00  0.00     0.049 A 
ATOM     45  N   UNL A   1      41.053  28.087  28.760  1.00  0.00    -0.248 NA
ATOM     46  C   UNL A   1      39.287  26.579  28.986  1.00  0.00     0.031 C 
ATOM     47  C   UNL A   1      43.398  24.991  26.544  1.00  0.00     0.029 A 
ATOM     48  N   UNL A   1      43.463  27.032  27.452  1.00  0.00    -0.354 N 
ATOM     49  C   UNL A   1      39.975  28.725  29.358  1.00  0.00     0.074 A 
ATOM     50  C   UNL A   1      38.890  27.771  29.406  1.00  0.00     0.031 C 
ATOM     51  C   UNL A   1      44.589  25.529  26.236  1.00  0.00     0.029 A 
ATOM     52  C   UNL A   1      44.658  26.878  26.786  1.00  0.00     0.049 A 
ATOM     53  H   UNL A   1      43.230  27.842  27.960  1.00  0.00     0.167 HD
ATOM     54  C   UNL A   1      39.903  29.980  29.860  1.00  0.00     0.034 A 
ATOM     55  C   UNL A   1      45.689  27.733  26.625  1.00  0.00     0.034 A 
ATOM     56  C   UNL A   1      41.006  30.901  29.881  1.00  0.00     0.049 A 
ATOM     57  C   UNL A   1      45.616  29.091  27.269  1.00  0.00     0.074 A 
ATOM     58  C   UNL A   1      41.064  32.160  30.450  1.00  0.00     0.029 A 
ATOM     59  N   UNL A   1      42.248  30.656  29.319  1.00  0.00    -0.354 N 
ATOM     60  N   UNL A   1      44.639  29.621  27.966  1.00  0.00    -0.248 NA
ATOM     61  C   UNL A   1      46.797  29.957  27.136  1.00  0.00     0.031 C 
ATOM     62  C   UNL A   1      42.347  32.676  30.235  1.00  0.00     0.029 A 
ATOM     63  C   UNL A   1      43.085  31.736  29.535  1.00  0.00     0.049 A 
ATOM     64  H   UNL A   1      42.499  29.835  28.837  1.00  0.00     0.167 HD
ATOM     65  C   UNL A   1      45.098  30.868  28.375  1.00  0.00     0.074 A 
ATOM     66  C   UNL A   1      46.450  31.002  27.873  1.00  0.00     0.031 C 
ATOM     67  C   UNL A   1      44.449  31.826  29.082  1.00  0.00     0.034 A 
BRANCH  54  68
ATOM     68  C   UNL A   1      38.610  30.392  30.510  1.00  0.00     0.023 A 
ATOM     69  C   UNL A   1      38.392  30.073  31.866  1.00  0.00     0.012 A 
ATOM     70  C   UNL A   1      37.635  31.125  29.806  1.00  0.00     0.148 A 
ATOM     71  C   UNL A   1      37.210  30.444  32.503  1.00  0.00     0.002 A 
ATOM     72  C   UNL A   1      36.476  31.526  30.460  1.00  0.00     0.091 A 
ATOM     73  F   UNL A   1      37.849  31.397  28.511  1.00  0.00    -0.205 F 
ATOM     74  C   UNL A   1      36.257  31.178  31.803  1.00  0.00     0.022 A 
BRANCH  72  75
ATOM     75  S   UNL A   1      35.219  32.538  29.668  1.00  0.00     0.127 S 
ATOM     76  O   UNL A   1      36.006  33.682  29.211  1.00  0.00    -0.237 OA
ATOM     77  O   UNL A   1      34.745  31.659  28.598  1.00  0.00    -0.237 OA
ATOM     78  O   UNL A   1      34.230  32.825  30.697  1.00  0.00    -0.744 OA
ENDBRANCH  72  75
ENDBRANCH  54  68
BRANCH  55  79
ATOM     79  C   UNL A   1      46.907  27.302  25.882  1.00  0.00     0.023 A 
ATOM     80  C   UNL A   1      46.998  27.559  24.501  1.00  0.00     0.012 A 
ATOM     81  C   UNL A   1      47.984  26.669  26.533  1.00  0.00     0.148 A 
ATOM     82  C   UNL A   1      48.122  27.167  23.774  1.00  0.00     0.002 A 
ATOM     83  C   UNL A   1      49.125  26.328  25.813  1.00  0.00     0.091 A 
ATOM     84  F   UNL A   1      47.876  26.415  27.844  1.00  0.00    -0.205 F 
ATOM     85  C   UNL A   1      49.189  26.561  24.430  1.00  0.00     0.022 A 
BRANCH  83  86
ATOM     86  S   UNL A   1      50.592  25.671  26.614  1.00  0.00     0.127 S 
ATOM     87  O   UNL A   1      50.938  26.748  27.538  1.00  0.00    -0.237 OA
ATOM     88  O   UNL A   1      50.081  24.455  27.248  1.00  0.00    -0.237 OA
ATOM     89  O   UNL A   1      51.538  25.424  25.534  1.00  0.00    -0.744 OA
ENDBRANCH  83  86
ENDBRANCH  55  79
BRANCH  67  90
ATOM     90  C   UNL A   1      45.195  33.099  29.377  1.00  0.00     0.023 A 
ATOM     91  C   UNL A   1      46.020  33.168  30.518  1.00  0.00     0.012 A 
ATOM     92  C   UNL A   1      45.147  34.188  28.488  1.00  0.00     0.148 A 
ATOM     93  C   UNL A   1      46.767  34.314  30.781  1.00  0.00     0.002 A 
ATOM     94  C   UNL A   1      45.928  35.312  28.734  1.00  0.00     0.091 A 
ATOM     95  F   UNL A   1      44.339  34.109  27.420  1.00  0.00    -0.205 F 
ATOM     96  C   UNL A   1      46.731  35.380  29.884  1.00  0.00     0.022 A 
BRANCH  94  97
ATOM     97  S   UNL A   1      46.010  36.691  27.586  1.00  0.00     0.127 S 
ATOM     98  O   UNL A   1      46.249  37.816  28.489  1.00  0.00    -0.237 OA
ATOM     99  O   UNL A   1      47.151  36.331  26.744  1.00  0.00    -0.237 OA
ATOM    100  O   UNL A   1      44.730  36.704  26.889  1.00  0.00    -0.744 OA
ENDBRANCH  94  97
ENDBRANCH  67  90
ENDBRANCH  41  42
ENDBRANCH  33  36
ENDBRANCH  31  32
ENDBRANCH  30  31
ENDBRANCH   1  30
TORSDOF 18
ENDMDL
MODEL 3
REMARK VINA RESULT:     -12.1      5.678     11.845
REMARK SMILES CC(C)c1cc(C2CC[NH+](Cc3c[nH]nc3C(=O)NCCCCNC(=O)c3ccc(-c4c5nc(c(-c6cccc(S(=O)(=O)[O-])c6F)c6ccc([nH]6)c(-c6cccc(S(=O)(=O)[O-])c6F)c6nc(c(-c7cccc(S(=O)(=O)[O-])c7F)c7ccc4[nH]7)C=C6)C=C5)cc3)CC2)n[nH]1
REMARK SMILES IDX 21 1 20 2 19 3 17 4 18 5 16 7 12 8 13 9 14 10 15 11 11 13
REMARK SMILES IDX 10 14 7 15 8 16 91 17 9 18 90 19 6 21 4 22 5 23 93 24 92 25
REMARK SMILES IDX 2 27 1 28 3 29 22 30 23 31 24 32 25 33 26 35 27 36 28 37
REMARK SMILES IDX 89 38 29 39 88 40 30 41 31 42 32 43 82 44 33 45 87 46 81 47
REMARK SMILES IDX 83 48 34 49 86 50 80 51 79 52 35 54 67 55 47 56 66 57 48 58
REMARK SMILES IDX 51 59 65 60 84 61 49 62 50 63 64 65 85 66 52 67 36 68 37 69
REMARK SMILES IDX 45 70 38 71 40 72 46 73 39 74 41 75 42 76 43 77 44 78 68 79
REMARK SMILES IDX 69 80 77 81 70 82 72 83 78 84 71 85 73 86 74 87 75 88 76 89
REMARK SMILES IDX 53 90 54 91 62 92 55 93 57 94 63 95 56 96 58 97 59 98 60 99
REMARK SMILES IDX 61 100
REMARK H PARENT 19 6 14 12 10 20 93 26 24 34 83 53 51 64
REMARK Flexibility Score: inf
ROOT
ATOM      1  C   UNL A   1      37.365  22.833  25.330  1.00  0.00     0.023 C 
ENDROOT
BRANCH   1   2
ATOM      2  C   UNL A   1      35.874  22.890  25.627  1.00  0.00     0.116 C 
BRANCH   2   3
ATOM      3  N   UNL A   1      35.325  24.202  25.708  1.00  0.00    -0.351 N 
ATOM      4  C   UNL A   1      34.028  24.641  25.821  1.00  0.00     0.272 C 
ATOM      5  O   UNL A   1      33.949  25.877  25.881  1.00  0.00    -0.267 OA
ATOM      6  H   UNL A   1      35.994  24.924  25.676  1.00  0.00     0.163 HD
BRANCH   4   7
ATOM      7  C   UNL A   1      32.782  23.794  25.874  1.00  0.00     0.158 A 
ATOM      8  C   UNL A   1      31.783  23.236  24.955  1.00  0.00     0.057 A 
ATOM      9  C   UNL A   1      30.982  22.445  25.770  1.00  0.00     0.115 A 
ATOM     10  N   UNL A   1      31.415  22.598  27.036  1.00  0.00    -0.284 N 
ATOM     11  N   UNL A   1      32.464  23.396  27.134  1.00  0.00    -0.170 NA
ATOM     12  H   UNL A   1      30.993  22.161  27.810  1.00  0.00     0.189 HD
BRANCH   8  13
ATOM     13  C   UNL A   1      31.541  23.293  23.466  1.00  0.00     0.303 C 
BRANCH  13  14
ATOM     14  N   UNL A   1      30.983  24.579  22.967  1.00  0.00    -0.331 N 
ATOM     15  C   UNL A   1      30.763  27.548  22.894  1.00  0.00     0.051 C 
ATOM     16  C   UNL A   1      29.694  26.663  23.538  1.00  0.00     0.071 C 
ATOM     17  C   UNL A   1      31.371  26.775  21.729  1.00  0.00     0.071 C 
ATOM     18  C   UNL A   1      30.248  25.313  23.998  1.00  0.00     0.263 C 
ATOM     19  C   UNL A   1      31.870  25.385  22.123  1.00  0.00     0.263 C 
ATOM     20  H   UNL A   1      30.279  24.303  22.281  1.00  0.00     0.348 HD
BRANCH  15  21
ATOM     21  C   UNL A   1      31.787  28.068  23.870  1.00  0.00     0.066 A 
ATOM     22  C   UNL A   1      32.844  28.848  25.671  1.00  0.00     0.038 A 
ATOM     23  C   UNL A   1      31.618  28.424  25.226  1.00  0.00     0.049 A 
ATOM     24  N   UNL A   1      33.679  28.697  24.601  1.00  0.00    -0.282 N 
ATOM     25  N   UNL A   1      33.060  28.256  23.490  1.00  0.00    -0.180 NA
ATOM     26  H   UNL A   1      34.643  28.892  24.637  1.00  0.00     0.190 HD
BRANCH  22  27
ATOM     27  C   UNL A   1      33.228  29.377  27.015  1.00  0.00     0.031 C 
ATOM     28  C   UNL A   1      34.720  29.245  27.299  1.00  0.00     0.014 C 
ATOM     29  C   UNL A   1      32.748  30.818  27.178  1.00  0.00     0.014 C 
ENDBRANCH  22  27
ENDBRANCH  15  21
ENDBRANCH  13  14
ENDBRANCH   8  13
ENDBRANCH   4   7
ENDBRANCH   2   3
ENDBRANCH   1   2
BRANCH   1  30
ATOM     30  C   UNL A   1      37.976  21.445  25.345  1.00  0.00     0.023 C 
BRANCH  30  31
ATOM     31  C   UNL A   1      39.304  21.336  26.086  1.00  0.00     0.116 C 
BRANCH  31  32
ATOM     32  N   UNL A   1      39.958  20.032  25.967  1.00  0.00    -0.352 N 
ATOM     33  C   UNL A   1      41.293  19.708  26.094  1.00  0.00     0.251 C 
ATOM     34  H   UNL A   1      39.358  19.277  25.770  1.00  0.00     0.163 HD
ATOM     35  O   UNL A   1      41.681  18.563  25.916  1.00  0.00    -0.269 OA
BRANCH  33  36
ATOM     36  C   UNL A   1      42.252  20.789  26.396  1.00  0.00     0.039 A 
ATOM     37  C   UNL A   1      42.784  21.535  25.341  1.00  0.00     0.014 A 
ATOM     38  C   UNL A   1      42.498  21.148  27.720  1.00  0.00     0.014 A 
ATOM     39  C   UNL A   1      43.454  22.727  25.620  1.00  0.00     0.010 A 
ATOM     40  C   UNL A   1      43.064  22.386  27.987  1.00  0.00     0.010 A 
ATOM     41  C   UNL A   1      43.530  23.199  26.941  1.00  0.00    -0.014 A 
BRANCH  41  42
ATOM     42  C   UNL A   1      44.042  24.556  27.266  1.00  0.00     0.031 A 
ATOM     43  C   UNL A   1      43.095  25.606  27.780  1.00  0.00     0.074 A 
ATOM     44  C   UNL A   1      45.314  24.885  26.959  1.00  0.00     0.049 A 
ATOM     45  N   UNL A   1      43.299  26.885  27.959  1.00  0.00    -0.248 NA
ATOM     46  C   UNL A   1      41.723  25.169  28.091  1.00  0.00     0.031 C 
ATOM     47  C   UNL A   1      46.304  23.987  26.357  1.00  0.00     0.029 A 
ATOM     48  N   UNL A   1      45.983  26.079  27.075  1.00  0.00    -0.354 N 
ATOM     49  C   UNL A   1      42.076  27.411  28.350  1.00  0.00     0.074 A 
ATOM     50  C   UNL A   1      41.124  26.322  28.345  1.00  0.00     0.031 C 
ATOM     51  C   UNL A   1      47.449  24.661  26.158  1.00  0.00     0.029 A 
ATOM     52  C   UNL A   1      47.269  26.043  26.586  1.00  0.00     0.049 A 
ATOM     53  H   UNL A   1      45.580  26.885  27.472  1.00  0.00     0.167 HD
ATOM     54  C   UNL A   1      41.776  28.677  28.722  1.00  0.00     0.034 A 
ATOM     55  C   UNL A   1      48.195  27.017  26.481  1.00  0.00     0.034 A 
ATOM     56  C   UNL A   1      42.739  29.741  28.801  1.00  0.00     0.049 A 
ATOM     57  C   UNL A   1      47.861  28.395  26.984  1.00  0.00     0.074 A 
ATOM     58  C   UNL A   1      42.556  31.034  29.255  1.00  0.00     0.029 A 
ATOM     59  N   UNL A   1      44.069  29.628  28.429  1.00  0.00    -0.354 N 
ATOM     60  N   UNL A   1      46.738  28.836  27.497  1.00  0.00    -0.248 NA
ATOM     61  C   UNL A   1      48.931  29.404  26.926  1.00  0.00     0.031 C 
ATOM     62  C   UNL A   1      43.781  31.704  29.161  1.00  0.00     0.029 A 
ATOM     63  C   UNL A   1      44.724  30.826  28.652  1.00  0.00     0.049 A 
ATOM     64  H   UNL A   1      44.487  28.816  28.061  1.00  0.00     0.167 HD
ATOM     65  C   UNL A   1      46.973  30.161  27.847  1.00  0.00     0.074 A 
ATOM     66  C   UNL A   1      48.354  30.443  27.513  1.00  0.00     0.031 C 
ATOM     67  C   UNL A   1      46.115  31.070  28.372  1.00  0.00     0.034 A 
BRANCH  54  68
ATOM     68  C   UNL A   1      40.363  28.954  29.159  1.00  0.00     0.023 A 
ATOM     69  C   UNL A   1      39.400  29.298  28.188  1.00  0.00     0.012 A 
ATOM     70  C   UNL A   1      39.974  28.838  30.508  1.00  0.00     0.148 A 
ATOM     71  C   UNL A   1      38.081  29.556  28.554  1.00  0.00     0.002 A 
ATOM     72  C   UNL A   1      38.647  29.057  30.859  1.00  0.00     0.091 A 
ATOM     73  F   UNL A   1      40.908  28.535  31.420  1.00  0.00    -0.205 F 
ATOM     74  C   UNL A   1      37.703  29.425  29.887  1.00  0.00     0.022 A 
BRANCH  72  75
ATOM     75  S   UNL A   1      38.043  28.844  32.538  1.00  0.00     0.127 S 
ATOM     76  O   UNL A   1      36.651  29.270  32.407  1.00  0.00    -0.237 OA
ATOM     77  O   UNL A   1      38.223  27.407  32.752  1.00  0.00    -0.237 OA
ATOM     78  O   UNL A   1      38.883  29.690  33.374  1.00  0.00    -0.744 OA
ENDBRANCH  72  75
ENDBRANCH  54  68
BRANCH  55  79
ATOM     79  C   UNL A   1      49.550  26.704  25.946  1.00  0.00     0.023 A 
ATOM     80  C   UNL A   1      50.449  25.962  26.737  1.00  0.00     0.012 A 
ATOM     81  C   UNL A   1      49.946  27.106  24.655  1.00  0.00     0.148 A 
ATOM     82  C   UNL A   1      51.726  25.654  26.269  1.00  0.00     0.002 A 
ATOM     83  C   UNL A   1      51.202  26.750  24.173  1.00  0.00     0.091 A 
ATOM     84  F   UNL A   1      49.087  27.826  23.921  1.00  0.00    -0.205 F 
ATOM     85  C   UNL A   1      52.100  26.039  24.984  1.00  0.00     0.022 A 
BRANCH  83  86
ATOM     86  S   UNL A   1      51.700  27.090  22.481  1.00  0.00     0.127 S 
ATOM     87  O   UNL A   1      50.502  26.719  21.734  1.00  0.00    -0.237 OA
ATOM     88  O   UNL A   1      51.980  28.526  22.523  1.00  0.00    -0.237 OA
ATOM     89  O   UNL A   1      52.879  26.264  22.257  1.00  0.00    -0.744 OA
ENDBRANCH  83  86
ENDBRANCH  55  79
BRANCH  67  90
ATOM     90  C   UNL A   1      46.645  32.451  28.644  1.00  0.00     0.023 A 
ATOM     91  C   UNL A   1      47.182  32.749  29.912  1.00  0.00     0.012 A 
ATOM     92  C   UNL A   1      46.689  33.422  27.626  1.00  0.00     0.148 A 
ATOM     93  C   UNL A   1      47.734  34.003  30.169  1.00  0.00     0.002 A 
ATOM     94  C   UNL A   1      47.278  34.656  27.877  1.00  0.00     0.091 A 
ATOM     95  F   UNL A   1      46.152  33.125  26.433  1.00  0.00    -0.205 F 
ATOM     96  C   UNL A   1      47.793  34.951  29.150  1.00  0.00     0.022 A 
BRANCH  94  97
ATOM     97  S   UNL A   1      47.477  35.900  26.597  1.00  0.00     0.127 S 
ATOM     98  O   UNL A   1      46.088  36.185  26.240  1.00  0.00    -0.237 OA
ATOM     99  O   UNL A   1      48.157  36.981  27.312  1.00  0.00    -0.237 OA
ATOM    100  O   UNL A   1      48.278  35.273  25.554  1.00  0.00    -0.744 OA
ENDBRANCH  94  97
ENDBRANCH  67  90
ENDBRANCH  41  42
ENDBRANCH  33  36
ENDBRANCH  31  32
ENDBRANCH  30  31
ENDBRANCH   1  30
TORSDOF 18
ENDMDL
