MODEL 1
REMARK VINA RESULT:     -14.2      0.000      0.000
REMARK SMILES CC1(C)Oc2ccc(NC(=O)[C@H]3CC=CC[C@@H]3C(=O)NCCCCNC(=O)c3ccc(-c4c5nc(c(-c6cccc(S(=O)(=O)[O-])c6F)c6ccc([nH]6)c(-c6cccc(S(=O)(=O)[O-])c6F)c6nc(c(-c7cccc(S(=O)(=O)[O-])c7F)c7ccc4[nH]7)C=C6)C=C5)cc3)cc2NC1=O
REMARK SMILES IDX 23 1 22 2 21 3 20 4 18 5 19 6 17 8 12 9 13 10 14 11 16 12
REMARK SMILES IDX 15 13 10 14 9 15 11 17 8 18 1 19 2 20 3 21 4 22 94 23 5 24
REMARK SMILES IDX 93 25 95 26 6 27 92 28 7 30 91 31 24 32 25 33 26 34 27 36
REMARK SMILES IDX 28 37 29 38 90 39 30 40 89 41 31 42 32 43 33 44 83 45 34 46
REMARK SMILES IDX 88 47 82 48 84 49 35 50 87 51 81 52 80 53 36 55 68 56 48 57
REMARK SMILES IDX 67 58 49 59 52 60 66 61 85 62 50 63 51 64 65 66 86 67 53 68
REMARK SMILES IDX 37 69 38 70 46 71 39 72 41 73 47 74 40 75 42 76 43 77 44 78
REMARK SMILES IDX 45 79 69 80 70 81 78 82 71 83 73 84 79 85 72 86 74 87 75 88
REMARK SMILES IDX 76 89 77 90 54 91 55 92 63 93 56 94 58 95 64 96 57 97 59 98
REMARK SMILES IDX 60 99 61 100 62 101
REMARK H PARENT 20 7 9 16 93 29 25 35 84 54 52 65
REMARK Flexibility Score: inf
ROOT
ATOM      1  C   UNL A   1      31.814  29.482  27.264  1.00  0.00     0.023 C 
ENDROOT
BRANCH   1   2
ATOM      2  C   UNL A   1      32.195  28.011  27.098  1.00  0.00     0.023 C 
BRANCH   2   3
ATOM      3  C   UNL A   1      31.304  27.184  26.172  1.00  0.00     0.116 C 
BRANCH   3   4
ATOM      4  N   UNL A   1      31.000  25.863  26.694  1.00  0.00    -0.356 N 
ATOM      5  C   UNL A   1      31.696  24.692  26.582  1.00  0.00     0.224 C 
ATOM      6  O   UNL A   1      31.334  23.746  27.280  1.00  0.00    -0.275 OA
ATOM      7  H   UNL A   1      30.163  25.802  27.209  1.00  0.00     0.163 HD
BRANCH   5   8
ATOM      8  C   UNL A   1      32.812  24.570  25.546  1.00  0.00     0.095 C 
ATOM      9  C   UNL A   1      32.165  24.143  24.208  1.00  0.00     0.095 C 
ATOM     10  C   UNL A   1      31.812  22.641  24.178  1.00  0.00     0.041 C 
ATOM     11  C   UNL A   1      32.794  21.743  24.860  1.00  0.00    -0.030 C 
ATOM     12  C   UNL A   1      33.935  23.633  26.024  1.00  0.00     0.041 C 
ATOM     13  C   UNL A   1      33.757  22.188  25.675  1.00  0.00    -0.030 C 
BRANCH   9  14
ATOM     14  C   UNL A   1      33.005  24.541  23.002  1.00  0.00     0.228 C 
ATOM     15  N   UNL A   1      32.848  25.738  22.358  1.00  0.00    -0.326 N 
ATOM     16  H   UNL A   1      33.375  25.790  21.529  1.00  0.00     0.169 HD
ATOM     17  O   UNL A   1      33.865  23.781  22.542  1.00  0.00    -0.274 OA
BRANCH  15  18
ATOM     18  C   UNL A   1      32.112  26.916  22.599  1.00  0.00     0.043 A 
ATOM     19  C   UNL A   1      27.612  31.257  23.717  1.00  0.00     0.067 C 
ATOM     20  C   UNL A   1      28.360  30.189  22.915  1.00  0.00     0.182 C 
ATOM     21  C   UNL A   1      28.291  30.542  21.420  1.00  0.00     0.067 C 
ATOM     22  O   UNL A   1      29.728  30.271  23.327  1.00  0.00    -0.476 OA
ATOM     23  C   UNL A   1      27.680  28.815  23.127  1.00  0.00     0.268 C 
ATOM     24  C   UNL A   1      30.459  29.147  23.067  1.00  0.00     0.144 A 
ATOM     25  N   UNL A   1      28.512  27.731  22.999  1.00  0.00    -0.319 N 
ATOM     26  O   UNL A   1      26.472  28.658  23.299  1.00  0.00    -0.270 OA
ATOM     27  C   UNL A   1      31.835  29.301  23.003  1.00  0.00     0.051 A 
ATOM     28  C   UNL A   1      29.896  27.884  22.901  1.00  0.00     0.086 A 
ATOM     29  H   UNL A   1      28.126  26.826  22.975  1.00  0.00     0.170 HD
ATOM     30  C   UNL A   1      32.652  28.195  22.751  1.00  0.00     0.030 A 
ATOM     31  C   UNL A   1      30.714  26.775  22.669  1.00  0.00     0.056 A 
ENDBRANCH  15  18
ENDBRANCH   9  14
ENDBRANCH   5   8
ENDBRANCH   3   4
ENDBRANCH   2   3
ENDBRANCH   1   2
BRANCH   1  32
ATOM     32  C   UNL A   1      32.593  30.481  26.416  1.00  0.00     0.116 C 
BRANCH  32  33
ATOM     33  N   UNL A   1      32.485  31.854  26.883  1.00  0.00    -0.352 N 
ATOM     34  C   UNL A   1      33.381  32.601  27.617  1.00  0.00     0.251 C 
ATOM     35  H   UNL A   1      31.652  32.317  26.638  1.00  0.00     0.163 HD
ATOM     36  O   UNL A   1      33.066  33.728  27.994  1.00  0.00    -0.269 OA
BRANCH  34  37
ATOM     37  C   UNL A   1      34.696  32.030  27.995  1.00  0.00     0.039 A 
ATOM     38  C   UNL A   1      34.820  30.686  28.354  1.00  0.00     0.014 A 
ATOM     39  C   UNL A   1      35.816  32.867  28.030  1.00  0.00     0.014 A 
ATOM     40  C   UNL A   1      36.006  30.233  28.926  1.00  0.00     0.010 A 
ATOM     41  C   UNL A   1      37.031  32.385  28.528  1.00  0.00     0.010 A 
ATOM     42  C   UNL A   1      37.119  31.082  29.041  1.00  0.00    -0.014 A 
BRANCH  42  43
ATOM     43  C   UNL A   1      38.347  30.593  29.723  1.00  0.00     0.031 A 
ATOM     44  C   UNL A   1      38.659  30.999  31.140  1.00  0.00     0.074 A 
ATOM     45  C   UNL A   1      39.162  29.730  29.086  1.00  0.00     0.049 A 
ATOM     46  N   UNL A   1      39.657  30.625  31.902  1.00  0.00    -0.248 NA
ATOM     47  C   UNL A   1      37.738  31.944  31.791  1.00  0.00     0.031 C 
ATOM     48  C   UNL A   1      38.983  29.271  27.707  1.00  0.00     0.029 A 
ATOM     49  N   UNL A   1      40.285  29.070  29.516  1.00  0.00    -0.354 N 
ATOM     50  C   UNL A   1      39.503  31.309  33.101  1.00  0.00     0.074 A 
ATOM     51  C   UNL A   1      38.323  32.134  32.967  1.00  0.00     0.031 C 
ATOM     52  C   UNL A   1      39.936  28.372  27.419  1.00  0.00     0.029 A 
ATOM     53  C   UNL A   1      40.816  28.221  28.575  1.00  0.00     0.049 A 
ATOM     54  H   UNL A   1      40.673  29.194  30.411  1.00  0.00     0.167 HD
ATOM     55  C   UNL A   1      40.256  31.238  34.224  1.00  0.00     0.034 A 
ATOM     56  C   UNL A   1      41.888  27.408  28.628  1.00  0.00     0.034 A 
ATOM     57  C   UNL A   1      41.401  30.383  34.384  1.00  0.00     0.049 A 
ATOM     58  C   UNL A   1      42.701  27.334  29.887  1.00  0.00     0.074 A 
ATOM     59  C   UNL A   1      42.204  30.225  35.501  1.00  0.00     0.029 A 
ATOM     60  N   UNL A   1      41.900  29.535  33.409  1.00  0.00    -0.354 N 
ATOM     61  N   UNL A   1      42.498  27.941  31.030  1.00  0.00    -0.248 NA
ATOM     62  C   UNL A   1      43.880  26.456  29.871  1.00  0.00     0.031 C 
ATOM     63  C   UNL A   1      43.189  29.279  35.200  1.00  0.00     0.029 A 
ATOM     64  C   UNL A   1      42.998  28.848  33.897  1.00  0.00     0.049 A 
ATOM     65  H   UNL A   1      41.529  29.437  32.503  1.00  0.00     0.167 HD
ATOM     66  C   UNL A   1      43.520  27.519  31.872  1.00  0.00     0.074 A 
ATOM     67  C   UNL A   1      44.327  26.584  31.115  1.00  0.00     0.031 C 
ATOM     68  C   UNL A   1      43.773  27.892  33.149  1.00  0.00     0.034 A 
BRANCH  55  69
ATOM     69  C   UNL A   1      39.827  32.065  35.405  1.00  0.00     0.023 A 
ATOM     70  C   UNL A   1      40.281  33.393  35.510  1.00  0.00     0.012 A 
ATOM     71  C   UNL A   1      38.927  31.560  36.363  1.00  0.00     0.148 A 
ATOM     72  C   UNL A   1      39.862  34.205  36.564  1.00  0.00     0.002 A 
ATOM     73  C   UNL A   1      38.493  32.383  37.396  1.00  0.00     0.091 A 
ATOM     74  F   UNL A   1      38.524  30.285  36.254  1.00  0.00    -0.205 F 
ATOM     75  C   UNL A   1      38.962  33.703  37.499  1.00  0.00     0.022 A 
BRANCH  73  76
ATOM     76  S   UNL A   1      37.296  31.847  38.625  1.00  0.00     0.127 S 
ATOM     77  O   UNL A   1      37.050  30.466  38.211  1.00  0.00    -0.237 OA
ATOM     78  O   UNL A   1      38.048  31.985  39.872  1.00  0.00    -0.237 OA
ATOM     79  O   UNL A   1      36.161  32.750  38.497  1.00  0.00    -0.744 OA
ENDBRANCH  73  76
ENDBRANCH  55  69
BRANCH  56  80
ATOM     80  C   UNL A   1      42.196  26.557  27.449  1.00  0.00     0.023 A 
ATOM     81  C   UNL A   1      43.011  27.073  26.424  1.00  0.00     0.012 A 
ATOM     82  C   UNL A   1      41.794  25.208  27.403  1.00  0.00     0.148 A 
ATOM     83  C   UNL A   1      43.427  26.255  25.373  1.00  0.00     0.002 A 
ATOM     84  C   UNL A   1      42.248  24.389  26.378  1.00  0.00     0.091 A 
ATOM     85  F   UNL A   1      41.021  24.746  28.396  1.00  0.00    -0.205 F 
ATOM     86  C   UNL A   1      43.057  24.912  25.357  1.00  0.00     0.022 A 
BRANCH  84  87
ATOM     87  S   UNL A   1      41.931  22.621  26.336  1.00  0.00     0.127 S 
ATOM     88  O   UNL A   1      42.605  22.225  25.102  1.00  0.00    -0.237 OA
ATOM     89  O   UNL A   1      42.584  22.176  27.567  1.00  0.00    -0.237 OA
ATOM     90  O   UNL A   1      40.482  22.477  26.326  1.00  0.00    -0.744 OA
ENDBRANCH  84  87
ENDBRANCH  56  80
BRANCH  68  91
ATOM     91  C   UNL A   1      44.980  27.309  33.828  1.00  0.00     0.023 A 
ATOM     92  C   UNL A   1      46.191  28.027  33.804  1.00  0.00     0.012 A 
ATOM     93  C   UNL A   1      44.888  26.125  34.584  1.00  0.00     0.148 A 
ATOM     94  C   UNL A   1      47.298  27.573  34.519  1.00  0.00     0.002 A 
ATOM     95  C   UNL A   1      45.986  25.693  35.319  1.00  0.00     0.091 A 
ATOM     96  F   UNL A   1      43.726  25.455  34.582  1.00  0.00    -0.205 F 
ATOM     97  C   UNL A   1      47.192  26.413  35.285  1.00  0.00     0.022 A 
BRANCH  95  98
ATOM     98  S   UNL A   1      45.932  24.252  36.390  1.00  0.00     0.127 S 
ATOM     99  O   UNL A   1      45.720  23.172  35.426  1.00  0.00    -0.237 OA
ATOM    100  O   UNL A   1      47.260  24.271  37.003  1.00  0.00    -0.237 OA
ATOM    101  O   UNL A   1      44.830  24.479  37.317  1.00  0.00    -0.744 OA
ENDBRANCH  95  98
ENDBRANCH  68  91
ENDBRANCH  42  43
ENDBRANCH  34  37
ENDBRANCH  32  33
ENDBRANCH   1  32
TORSDOF 16
ENDMDL
MODEL 2
REMARK VINA RESULT:     -14.0      5.050     10.446
REMARK SMILES CC1(C)Oc2ccc(NC(=O)[C@H]3CC=CC[C@@H]3C(=O)NCCCCNC(=O)c3ccc(-c4c5nc(c(-c6cccc(S(=O)(=O)[O-])c6F)c6ccc([nH]6)c(-c6cccc(S(=O)(=O)[O-])c6F)c6nc(c(-c7cccc(S(=O)(=O)[O-])c7F)c7ccc4[nH]7)C=C6)C=C5)cc3)cc2NC1=O
REMARK SMILES IDX 23 1 22 2 21 3 20 4 18 5 19 6 17 8 12 9 13 10 14 11 16 12
REMARK SMILES IDX 15 13 10 14 9 15 11 17 8 18 1 19 2 20 3 21 4 22 94 23 5 24
REMARK SMILES IDX 93 25 95 26 6 27 92 28 7 30 91 31 24 32 25 33 26 34 27 36
REMARK SMILES IDX 28 37 29 38 90 39 30 40 89 41 31 42 32 43 33 44 83 45 34 46
REMARK SMILES IDX 88 47 82 48 84 49 35 50 87 51 81 52 80 53 36 55 68 56 48 57
REMARK SMILES IDX 67 58 49 59 52 60 66 61 85 62 50 63 51 64 65 66 86 67 53 68
REMARK SMILES IDX 37 69 38 70 46 71 39 72 41 73 47 74 40 75 42 76 43 77 44 78
REMARK SMILES IDX 45 79 69 80 70 81 78 82 71 83 73 84 79 85 72 86 74 87 75 88
REMARK SMILES IDX 76 89 77 90 54 91 55 92 63 93 56 94 58 95 64 96 57 97 59 98
REMARK SMILES IDX 60 99 61 100 62 101
REMARK H PARENT 20 7 9 16 93 29 25 35 84 54 52 65
REMARK Flexibility Score: inf
ROOT
ATOM      1  C   UNL A   1      36.841  22.203  23.910  1.00  0.00     0.023 C 
ENDROOT
BRANCH   1   2
ATOM      2  C   UNL A   1      35.410  22.579  23.520  1.00  0.00     0.023 C 
BRANCH   2   3
ATOM      3  C   UNL A   1      34.863  23.870  24.126  1.00  0.00     0.116 C 
BRANCH   3   4
ATOM      4  N   UNL A   1      34.302  24.776  23.139  1.00  0.00    -0.356 N 
ATOM      5  C   UNL A   1      33.628  25.953  23.310  1.00  0.00     0.224 C 
ATOM      6  O   UNL A   1      33.422  26.640  22.310  1.00  0.00    -0.275 OA
ATOM      7  H   UNL A   1      34.425  24.499  22.203  1.00  0.00     0.163 HD
BRANCH   5   8
ATOM      8  C   UNL A   1      33.079  26.320  24.688  1.00  0.00     0.095 C 
ATOM      9  C   UNL A   1      31.661  25.716  24.803  1.00  0.00     0.095 C 
ATOM     10  C   UNL A   1      30.606  26.540  24.033  1.00  0.00     0.041 C 
ATOM     11  C   UNL A   1      30.800  28.022  24.078  1.00  0.00    -0.030 C 
ATOM     12  C   UNL A   1      33.135  27.836  24.939  1.00  0.00     0.041 C 
ATOM     13  C   UNL A   1      31.927  28.604  24.500  1.00  0.00    -0.030 C 
BRANCH   9  14
ATOM     14  C   UNL A   1      31.241  25.487  26.249  1.00  0.00     0.228 C 
ATOM     15  N   UNL A   1      31.472  24.309  26.905  1.00  0.00    -0.326 N 
ATOM     16  H   UNL A   1      31.031  24.278  27.785  1.00  0.00     0.169 HD
ATOM     17  O   UNL A   1      30.655  26.366  26.891  1.00  0.00    -0.274 OA
BRANCH  15  18
ATOM     18  C   UNL A   1      32.190  23.129  26.622  1.00  0.00     0.043 A 
ATOM     19  C   UNL A   1      34.513  17.771  24.125  1.00  0.00     0.067 C 
ATOM     20  C   UNL A   1      33.461  18.671  24.778  1.00  0.00     0.182 C 
ATOM     21  C   UNL A   1      32.583  17.823  25.714  1.00  0.00     0.067 C 
ATOM     22  O   UNL A   1      34.186  19.609  25.582  1.00  0.00    -0.476 OA
ATOM     23  C   UNL A   1      32.558  19.289  23.683  1.00  0.00     0.268 C 
ATOM     24  C   UNL A   1      33.488  20.741  25.890  1.00  0.00     0.144 A 
ATOM     25  N   UNL A   1      32.008  20.505  24.003  1.00  0.00    -0.319 N 
ATOM     26  O   UNL A   1      32.253  18.721  22.636  1.00  0.00    -0.270 OA
ATOM     27  C   UNL A   1      33.916  21.454  26.998  1.00  0.00     0.051 A 
ATOM     28  C   UNL A   1      32.414  21.211  25.138  1.00  0.00     0.086 A 
ATOM     29  H   UNL A   1      31.312  20.887  23.422  1.00  0.00     0.170 HD
ATOM     30  C   UNL A   1      33.258  22.629  27.371  1.00  0.00     0.030 A 
ATOM     31  C   UNL A   1      31.768  22.397  25.499  1.00  0.00     0.056 A 
ENDBRANCH  15  18
ENDBRANCH   9  14
ENDBRANCH   5   8
ENDBRANCH   3   4
ENDBRANCH   2   3
ENDBRANCH   1   2
BRANCH   1  32
ATOM     32  C   UNL A   1      37.046  21.732  25.345  1.00  0.00     0.116 C 
BRANCH  32  33
ATOM     33  N   UNL A   1      38.112  20.753  25.492  1.00  0.00    -0.352 N 
ATOM     34  C   UNL A   1      39.362  20.899  26.053  1.00  0.00     0.251 C 
ATOM     35  H   UNL A   1      37.910  19.856  25.140  1.00  0.00     0.163 HD
ATOM     36  O   UNL A   1      40.162  19.966  26.001  1.00  0.00    -0.269 OA
BRANCH  34  37
ATOM     37  C   UNL A   1      39.759  22.188  26.667  1.00  0.00     0.039 A 
ATOM     38  C   UNL A   1      39.184  23.390  26.251  1.00  0.00     0.014 A 
ATOM     39  C   UNL A   1      40.755  22.195  27.649  1.00  0.00     0.014 A 
ATOM     40  C   UNL A   1      39.734  24.599  26.671  1.00  0.00     0.010 A 
ATOM     41  C   UNL A   1      41.250  23.412  28.132  1.00  0.00     0.010 A 
ATOM     42  C   UNL A   1      40.788  24.625  27.599  1.00  0.00    -0.014 A 
BRANCH  42  43
ATOM     43  C   UNL A   1      41.405  25.925  27.973  1.00  0.00     0.031 A 
ATOM     44  C   UNL A   1      42.799  26.279  27.522  1.00  0.00     0.074 A 
ATOM     45  C   UNL A   1      40.687  26.824  28.674  1.00  0.00     0.049 A 
ATOM     46  N   UNL A   1      43.468  27.389  27.714  1.00  0.00    -0.248 NA
ATOM     47  C   UNL A   1      43.541  25.262  26.759  1.00  0.00     0.031 C 
ATOM     48  C   UNL A   1      39.334  26.599  29.186  1.00  0.00     0.029 A 
ATOM     49  N   UNL A   1      40.982  28.107  29.058  1.00  0.00    -0.354 N 
ATOM     50  C   UNL A   1      44.712  27.193  27.128  1.00  0.00     0.074 A 
ATOM     51  C   UNL A   1      44.716  25.853  26.583  1.00  0.00     0.031 C 
ATOM     52  C   UNL A   1      38.899  27.721  29.778  1.00  0.00     0.029 A 
ATOM     53  C   UNL A   1      39.955  28.730  29.725  1.00  0.00     0.049 A 
ATOM     54  H   UNL A   1      41.847  28.539  28.875  1.00  0.00     0.167 HD
ATOM     55  C   UNL A   1      45.750  28.057  27.025  1.00  0.00     0.034 A 
ATOM     56  C   UNL A   1      39.864  29.971  30.240  1.00  0.00     0.034 A 
ATOM     57  C   UNL A   1      45.737  29.408  27.518  1.00  0.00     0.049 A 
ATOM     58  C   UNL A   1      41.019  30.918  30.103  1.00  0.00     0.074 A 
ATOM     59  C   UNL A   1      46.735  30.363  27.428  1.00  0.00     0.029 A 
ATOM     60  N   UNL A   1      44.674  29.999  28.182  1.00  0.00    -0.354 N 
ATOM     61  N   UNL A   1      42.161  30.732  29.488  1.00  0.00    -0.248 NA
ATOM     62  C   UNL A   1      40.873  32.246  30.716  1.00  0.00     0.031 C 
ATOM     63  C   UNL A   1      46.273  31.535  28.037  1.00  0.00     0.029 A 
ATOM     64  C   UNL A   1      44.989  31.307  28.505  1.00  0.00     0.049 A 
ATOM     65  H   UNL A   1      43.822  29.554  28.393  1.00  0.00     0.167 HD
ATOM     66  C   UNL A   1      42.870  31.918  29.635  1.00  0.00     0.074 A 
ATOM     67  C   UNL A   1      42.019  32.826  30.377  1.00  0.00     0.031 C 
ATOM     68  C   UNL A   1      44.122  32.215  29.210  1.00  0.00     0.034 A 
BRANCH  55  69
ATOM     69  C   UNL A   1      46.976  27.590  26.289  1.00  0.00     0.023 A 
ATOM     70  C   UNL A   1      47.929  26.813  26.973  1.00  0.00     0.012 A 
ATOM     71  C   UNL A   1      47.150  27.856  24.917  1.00  0.00     0.148 A 
ATOM     72  C   UNL A   1      49.051  26.319  26.308  1.00  0.00     0.002 A 
ATOM     73  C   UNL A   1      48.259  27.339  24.255  1.00  0.00     0.091 A 
ATOM     74  F   UNL A   1      46.240  28.616  24.290  1.00  0.00    -0.205 F 
ATOM     75  C   UNL A   1      49.210  26.575  24.949  1.00  0.00     0.022 A 
BRANCH  73  76
ATOM     76  S   UNL A   1      48.529  27.568  22.493  1.00  0.00     0.127 S 
ATOM     77  O   UNL A   1      49.783  28.322  22.485  1.00  0.00    -0.237 OA
ATOM     78  O   UNL A   1      48.644  26.191  22.014  1.00  0.00    -0.237 OA
ATOM     79  O   UNL A   1      47.363  28.288  22.000  1.00  0.00    -0.744 OA
ENDBRANCH  73  76
ENDBRANCH  55  69
BRANCH  56  80
ATOM     80  C   UNL A   1      38.586  30.386  30.876  1.00  0.00     0.023 A 
ATOM     81  C   UNL A   1      38.437  30.253  32.269  1.00  0.00     0.012 A 
ATOM     82  C   UNL A   1      37.578  31.026  30.129  1.00  0.00     0.148 A 
ATOM     83  C   UNL A   1      37.306  30.757  32.911  1.00  0.00     0.002 A 
ATOM     84  C   UNL A   1      36.476  31.565  30.779  1.00  0.00     0.091 A 
ATOM     85  F   UNL A   1      37.751  31.141  28.804  1.00  0.00    -0.205 F 
ATOM     86  C   UNL A   1      36.333  31.423  32.168  1.00  0.00     0.022 A 
BRANCH  84  87
ATOM     87  S   UNL A   1      35.234  32.548  29.932  1.00  0.00     0.127 S 
ATOM     88  O   UNL A   1      34.298  32.847  31.015  1.00  0.00    -0.237 OA
ATOM     89  O   UNL A   1      36.026  33.686  29.468  1.00  0.00    -0.237 OA
ATOM     90  O   UNL A   1      34.707  31.697  28.874  1.00  0.00    -0.744 OA
ENDBRANCH  84  87
ENDBRANCH  56  80
BRANCH  68  91
ATOM     91  C   UNL A   1      44.674  33.574  29.540  1.00  0.00     0.023 A 
ATOM     92  C   UNL A   1      45.434  33.735  30.714  1.00  0.00     0.012 A 
ATOM     93  C   UNL A   1      44.547  34.648  28.639  1.00  0.00     0.148 A 
ATOM     94  C   UNL A   1      46.057  34.950  30.992  1.00  0.00     0.002 A 
ATOM     95  C   UNL A   1      45.196  35.848  28.907  1.00  0.00     0.091 A 
ATOM     96  F   UNL A   1      43.810  34.470  27.533  1.00  0.00    -0.205 F 
ATOM     97  C   UNL A   1      45.948  36.002  30.084  1.00  0.00     0.022 A 
BRANCH  95  98
ATOM     98  S   UNL A   1      45.173  37.238  27.770  1.00  0.00     0.127 S 
ATOM     99  O   UNL A   1      45.819  38.283  28.563  1.00  0.00    -0.237 OA
ATOM    100  O   UNL A   1      45.974  36.738  26.653  1.00  0.00    -0.237 OA
ATOM    101  O   UNL A   1      43.771  37.479  27.453  1.00  0.00    -0.744 OA
ENDBRANCH  95  98
ENDBRANCH  68  91
ENDBRANCH  42  43
ENDBRANCH  34  37
ENDBRANCH  32  33
ENDBRANCH   1  32
TORSDOF 16
ENDMDL
MODEL 3
REMARK VINA RESULT:     -13.9      5.061     10.259
REMARK SMILES CC1(C)Oc2ccc(NC(=O)[C@H]3CC=CC[C@@H]3C(=O)NCCCCNC(=O)c3ccc(-c4c5nc(c(-c6cccc(S(=O)(=O)[O-])c6F)c6ccc([nH]6)c(-c6cccc(S(=O)(=O)[O-])c6F)c6nc(c(-c7cccc(S(=O)(=O)[O-])c7F)c7ccc4[nH]7)C=C6)C=C5)cc3)cc2NC1=O
REMARK SMILES IDX 23 1 22 2 21 3 20 4 18 5 19 6 17 8 12 9 13 10 14 11 16 12
REMARK SMILES IDX 15 13 10 14 9 15 11 17 8 18 1 19 2 20 3 21 4 22 94 23 5 24
REMARK SMILES IDX 93 25 95 26 6 27 92 28 7 30 91 31 24 32 25 33 26 34 27 36
REMARK SMILES IDX 28 37 29 38 90 39 30 40 89 41 31 42 32 43 33 44 83 45 34 46
REMARK SMILES IDX 88 47 82 48 84 49 35 50 87 51 81 52 80 53 36 55 68 56 48 57
REMARK SMILES IDX 67 58 49 59 52 60 66 61 85 62 50 63 51 64 65 66 86 67 53 68
REMARK SMILES IDX 37 69 38 70 46 71 39 72 41 73 47 74 40 75 42 76 43 77 44 78
REMARK SMILES IDX 45 79 69 80 70 81 78 82 71 83 73 84 79 85 72 86 74 87 75 88
REMARK SMILES IDX 76 89 77 90 54 91 55 92 63 93 56 94 58 95 64 96 57 97 59 98
REMARK SMILES IDX 60 99 61 100 62 101
REMARK H PARENT 20 7 9 16 93 29 25 35 84 54 52 65
REMARK Flexibility Score: inf
ROOT
ATOM      1  C   UNL A   1      36.646  22.390  23.766  1.00  0.00     0.023 C 
ENDROOT
BRANCH   1   2
ATOM      2  C   UNL A   1      35.217  22.760  23.366  1.00  0.00     0.023 C 
BRANCH   2   3
ATOM      3  C   UNL A   1      34.693  24.094  23.895  1.00  0.00     0.116 C 
BRANCH   3   4
ATOM      4  N   UNL A   1      34.016  24.888  22.884  1.00  0.00    -0.356 N 
ATOM      5  C   UNL A   1      33.255  26.016  23.016  1.00  0.00     0.224 C 
ATOM      6  O   UNL A   1      32.951  26.620  21.988  1.00  0.00    -0.275 OA
ATOM      7  H   UNL A   1      34.122  24.563  21.961  1.00  0.00     0.163 HD
BRANCH   5   8
ATOM      8  C   UNL A   1      32.738  26.424  24.394  1.00  0.00     0.095 C 
ATOM      9  C   UNL A   1      31.461  25.600  24.679  1.00  0.00     0.095 C 
ATOM     10  C   UNL A   1      30.230  26.144  23.925  1.00  0.00     0.041 C 
ATOM     11  C   UNL A   1      30.156  27.634  23.818  1.00  0.00    -0.030 C 
ATOM     12  C   UNL A   1      32.536  27.946  24.500  1.00  0.00     0.041 C 
ATOM     13  C   UNL A   1      31.184  28.443  24.092  1.00  0.00    -0.030 C 
BRANCH   9  14
ATOM     14  C   UNL A   1      31.183  25.455  26.169  1.00  0.00     0.228 C 
ATOM     15  N   UNL A   1      31.497  24.323  26.870  1.00  0.00    -0.326 N 
ATOM     16  H   UNL A   1      31.141  24.339  27.787  1.00  0.00     0.169 HD
ATOM     17  O   UNL A   1      30.640  26.363  26.809  1.00  0.00    -0.274 OA
BRANCH  15  18
ATOM     18  C   UNL A   1      32.209  23.139  26.593  1.00  0.00     0.043 A 
ATOM     19  C   UNL A   1      34.497  17.749  24.128  1.00  0.00     0.067 C 
ATOM     20  C   UNL A   1      33.453  18.659  24.782  1.00  0.00     0.182 C 
ATOM     21  C   UNL A   1      32.582  17.822  25.735  1.00  0.00     0.067 C 
ATOM     22  O   UNL A   1      34.188  19.603  25.569  1.00  0.00    -0.476 OA
ATOM     23  C   UNL A   1      32.541  19.267  23.689  1.00  0.00     0.268 C 
ATOM     24  C   UNL A   1      33.495  20.740  25.872  1.00  0.00     0.144 A 
ATOM     25  N   UNL A   1      31.997  20.487  24.003  1.00  0.00    -0.319 N 
ATOM     26  O   UNL A   1      32.224  18.689  22.651  1.00  0.00    -0.270 OA
ATOM     27  C   UNL A   1      33.935  21.463  26.969  1.00  0.00     0.051 A 
ATOM     28  C   UNL A   1      32.415  21.204  25.126  1.00  0.00     0.086 A 
ATOM     29  H   UNL A   1      31.296  20.865  23.424  1.00  0.00     0.170 HD
ATOM     30  C   UNL A   1      33.284  22.643  27.336  1.00  0.00     0.030 A 
ATOM     31  C   UNL A   1      31.775  22.395  25.481  1.00  0.00     0.056 A 
ENDBRANCH  15  18
ENDBRANCH   9  14
ENDBRANCH   5   8
ENDBRANCH   3   4
ENDBRANCH   2   3
ENDBRANCH   1   2
BRANCH   1  32
ATOM     32  C   UNL A   1      36.848  21.949  25.211  1.00  0.00     0.116 C 
BRANCH  32  33
ATOM     33  N   UNL A   1      37.874  20.931  25.374  1.00  0.00    -0.352 N 
ATOM     34  C   UNL A   1      39.118  21.028  25.960  1.00  0.00     0.251 C 
ATOM     35  H   UNL A   1      37.647  20.044  25.013  1.00  0.00     0.163 HD
ATOM     36  O   UNL A   1      39.884  20.068  25.920  1.00  0.00    -0.269 OA
BRANCH  34  37
ATOM     37  C   UNL A   1      39.549  22.299  26.590  1.00  0.00     0.039 A 
ATOM     38  C   UNL A   1      39.010  23.522  26.183  1.00  0.00     0.014 A 
ATOM     39  C   UNL A   1      40.540  22.268  27.575  1.00  0.00     0.014 A 
ATOM     40  C   UNL A   1      39.594  24.710  26.618  1.00  0.00     0.010 A 
ATOM     41  C   UNL A   1      41.068  23.465  28.072  1.00  0.00     0.010 A 
ATOM     42  C   UNL A   1      40.644  24.696  27.550  1.00  0.00    -0.014 A 
BRANCH  42  43
ATOM     43  C   UNL A   1      41.296  25.975  27.939  1.00  0.00     0.031 A 
ATOM     44  C   UNL A   1      42.700  26.294  27.494  1.00  0.00     0.074 A 
ATOM     45  C   UNL A   1      40.602  26.884  28.650  1.00  0.00     0.049 A 
ATOM     46  N   UNL A   1      43.400  27.382  27.700  1.00  0.00    -0.248 NA
ATOM     47  C   UNL A   1      43.414  25.266  26.721  1.00  0.00     0.031 C 
ATOM     48  C   UNL A   1      39.243  26.692  29.158  1.00  0.00     0.029 A 
ATOM     49  N   UNL A   1      40.933  28.154  29.049  1.00  0.00    -0.354 N 
ATOM     50  C   UNL A   1      44.639  27.159  27.113  1.00  0.00     0.074 A 
ATOM     51  C   UNL A   1      44.606  25.826  26.553  1.00  0.00     0.031 C 
ATOM     52  C   UNL A   1      38.839  27.819  29.762  1.00  0.00     0.029 A 
ATOM     53  C   UNL A   1      39.923  28.798  29.722  1.00  0.00     0.049 A 
ATOM     54  H   UNL A   1      41.810  28.564  28.872  1.00  0.00     0.167 HD
ATOM     55  C   UNL A   1      45.700  27.994  27.022  1.00  0.00     0.034 A 
ATOM     56  C   UNL A   1      39.866  30.035  30.251  1.00  0.00     0.034 A 
ATOM     57  C   UNL A   1      45.724  29.339  27.530  1.00  0.00     0.049 A 
ATOM     58  C   UNL A   1      41.047  30.951  30.126  1.00  0.00     0.074 A 
ATOM     59  C   UNL A   1      46.749  30.267  27.452  1.00  0.00     0.029 A 
ATOM     60  N   UNL A   1      44.678  29.952  28.199  1.00  0.00    -0.354 N 
ATOM     61  N   UNL A   1      42.184  30.740  29.511  1.00  0.00    -0.248 NA
ATOM     62  C   UNL A   1      40.937  32.275  30.755  1.00  0.00     0.031 C 
ATOM     63  C   UNL A   1      46.319  31.444  28.074  1.00  0.00     0.029 A 
ATOM     64  C   UNL A   1      45.029  31.248  28.538  1.00  0.00     0.049 A 
ATOM     65  H   UNL A   1      43.813  29.529  28.404  1.00  0.00     0.167 HD
ATOM     66  C   UNL A   1      42.926  31.904  29.672  1.00  0.00     0.074 A 
ATOM     67  C   UNL A   1      42.099  32.827  30.423  1.00  0.00     0.031 C 
ATOM     68  C   UNL A   1      44.186  32.171  29.253  1.00  0.00     0.034 A 
BRANCH  55  69
ATOM     69  C   UNL A   1      46.914  27.502  26.281  1.00  0.00     0.023 A 
ATOM     70  C   UNL A   1      47.042  27.794  24.910  1.00  0.00     0.012 A 
ATOM     71  C   UNL A   1      47.950  26.820  26.946  1.00  0.00     0.148 A 
ATOM     72  C   UNL A   1      48.178  27.399  24.204  1.00  0.00     0.002 A 
ATOM     73  C   UNL A   1      49.091  26.451  26.242  1.00  0.00     0.091 A 
ATOM     74  F   UNL A   1      47.796  26.534  28.248  1.00  0.00    -0.205 F 
ATOM     75  C   UNL A   1      49.204  26.737  24.871  1.00  0.00     0.022 A 
BRANCH  73  76
ATOM     76  S   UNL A   1      50.492  25.638  27.021  1.00  0.00     0.127 S 
ATOM     77  O   UNL A   1      50.871  26.620  28.038  1.00  0.00    -0.237 OA
ATOM     78  O   UNL A   1      49.886  24.416  27.550  1.00  0.00    -0.237 OA
ATOM     79  O   UNL A   1      51.468  25.424  25.963  1.00  0.00    -0.744 OA
ENDBRANCH  73  76
ENDBRANCH  55  69
BRANCH  56  80
ATOM     80  C   UNL A   1      38.599  30.479  30.891  1.00  0.00     0.023 A 
ATOM     81  C   UNL A   1      38.461  30.374  32.288  1.00  0.00     0.012 A 
ATOM     82  C   UNL A   1      37.592  31.117  30.140  1.00  0.00     0.148 A 
ATOM     83  C   UNL A   1      37.342  30.904  32.929  1.00  0.00     0.002 A 
ATOM     84  C   UNL A   1      36.503  31.682  30.790  1.00  0.00     0.091 A 
ATOM     85  F   UNL A   1      37.754  31.204  28.812  1.00  0.00    -0.205 F 
ATOM     86  C   UNL A   1      36.371  31.569  32.183  1.00  0.00     0.022 A 
BRANCH  84  87
ATOM     87  S   UNL A   1      35.265  32.664  29.935  1.00  0.00     0.127 S 
ATOM     88  O   UNL A   1      34.323  32.963  31.012  1.00  0.00    -0.237 OA
ATOM     89  O   UNL A   1      36.060  33.804  29.476  1.00  0.00    -0.237 OA
ATOM     90  O   UNL A   1      34.746  31.814  28.874  1.00  0.00    -0.744 OA
ENDBRANCH  84  87
ENDBRANCH  56  80
BRANCH  68  91
ATOM     91  C   UNL A   1      44.776  33.510  29.598  1.00  0.00     0.023 A 
ATOM     92  C   UNL A   1      45.504  33.646  30.795  1.00  0.00     0.012 A 
ATOM     93  C   UNL A   1      44.715  34.586  28.693  1.00  0.00     0.148 A 
ATOM     94  C   UNL A   1      46.161  34.839  31.092  1.00  0.00     0.002 A 
ATOM     95  C   UNL A   1      45.396  35.763  28.981  1.00  0.00     0.091 A 
ATOM     96  F   UNL A   1      44.006  34.433  27.566  1.00  0.00    -0.205 F 
ATOM     97  C   UNL A   1      46.117  35.893  30.180  1.00  0.00     0.022 A 
BRANCH  95  98
ATOM     98  S   UNL A   1      45.458  37.152  27.842  1.00  0.00     0.127 S 
ATOM     99  O   UNL A   1      46.232  38.130  28.607  1.00  0.00    -0.237 OA
ATOM    100  O   UNL A   1      46.162  36.580  26.695  1.00  0.00    -0.237 OA
ATOM    101  O   UNL A   1      44.073  37.524  27.584  1.00  0.00    -0.744 OA
ENDBRANCH  95  98
ENDBRANCH  68  91
ENDBRANCH  42  43
ENDBRANCH  34  37
ENDBRANCH  32  33
ENDBRANCH   1  32
TORSDOF 16
ENDMDL
