MODEL 1
REMARK VINA RESULT:     -13.9      0.000      0.000
REMARK SMILES O=C(NCCCCNC(=O)c1ccc([C@H]2Nc3ccc(Cl)cc3[C@@H]3C=CC[C@@H]23)cc1)c1ccc(-c2c3nc(c(-c4cccc(S(=O)(=O)[O-])c4F)c4ccc([nH]4)c(-c4cccc(S(=O)(=O)[O-])c4F)c4nc(c(-c5cccc(S(=O)(=O)[O-])c5F)c5ccc2[nH]5)C=C4)C=C3)cc1
REMARK SMILES IDX 4 1 3 2 1 3 2 4 31 6 32 7 93 8 33 9 92 10 34 11 35 12 36 13
REMARK SMILES IDX 86 14 37 15 91 16 85 17 87 18 38 19 90 20 84 21 83 22 39 24
REMARK SMILES IDX 71 25 51 26 70 27 52 28 55 29 69 30 88 31 53 32 54 33 68 35
REMARK SMILES IDX 89 36 56 37 40 38 41 39 49 40 42 41 44 42 50 43 43 44 45 45
REMARK SMILES IDX 46 46 47 47 48 48 72 49 73 50 81 51 74 52 76 53 82 54 75 55
REMARK SMILES IDX 77 56 78 57 79 58 80 59 57 60 58 61 66 62 59 63 61 64 67 65
REMARK SMILES IDX 60 66 62 67 63 68 64 69 65 70 5 71 6 72 7 73 8 74 9 75 10 77
REMARK SMILES IDX 11 78 12 79 30 80 13 81 29 82 14 83 15 84 16 85 28 86 17 87
REMARK SMILES IDX 24 89 27 90 18 91 23 92 25 93 26 94 19 95 22 96 20 97 21 98
REMARK H PARENT 3 5 87 23 55 34 8 76 16 88
REMARK Flexibility Score: inf
ROOT
ATOM      1  C   UNL A   1      32.041  29.615  26.742  1.00  0.00     0.116 C 
ENDROOT
BRANCH   1   2
ATOM      2  N   UNL A   1      32.026  31.069  26.677  1.00  0.00    -0.352 N 
ATOM      3  O   UNL A   1      32.623  33.190  27.113  1.00  0.00    -0.269 OA
ATOM      4  C   UNL A   1      32.912  31.993  27.178  1.00  0.00     0.251 C 
ATOM      5  H   UNL A   1      31.257  31.453  26.197  1.00  0.00     0.163 HD
BRANCH   4   6
ATOM      6  C   UNL A   1      34.183  31.576  27.818  1.00  0.00     0.039 A 
ATOM      7  C   UNL A   1      34.484  30.228  28.030  1.00  0.00     0.014 A 
ATOM      8  C   UNL A   1      35.108  32.557  28.187  1.00  0.00     0.014 A 
ATOM      9  C   UNL A   1      35.633  29.872  28.737  1.00  0.00     0.010 A 
ATOM     10  C   UNL A   1      36.297  32.193  28.829  1.00  0.00     0.010 A 
ATOM     11  C   UNL A   1      36.553  30.850  29.145  1.00  0.00    -0.014 A 
BRANCH  11  12
ATOM     12  C   UNL A   1      37.794  30.462  29.867  1.00  0.00     0.031 A 
ATOM     13  C   UNL A   1      38.781  29.508  29.248  1.00  0.00     0.074 A 
ATOM     14  C   UNL A   1      38.016  30.943  31.105  1.00  0.00     0.049 A 
ATOM     15  N   UNL A   1      39.883  29.016  29.755  1.00  0.00    -0.248 NA
ATOM     16  C   UNL A   1      38.487  29.035  27.887  1.00  0.00     0.031 C 
ATOM     17  C   UNL A   1      37.123  31.850  31.828  1.00  0.00     0.029 A 
ATOM     18  N   UNL A   1      39.046  30.717  31.986  1.00  0.00    -0.354 N 
ATOM     19  C   UNL A   1      40.390  28.145  28.798  1.00  0.00     0.074 A 
ATOM     20  C   UNL A   1      39.470  28.170  27.681  1.00  0.00     0.031 C 
ATOM     21  C   UNL A   1      37.638  32.101  33.041  1.00  0.00     0.029 A 
ATOM     22  C   UNL A   1      38.866  31.331  33.205  1.00  0.00     0.049 A 
ATOM     23  H   UNL A   1      39.834  30.170  31.768  1.00  0.00     0.167 HD
ATOM     24  C   UNL A   1      41.523  27.400  28.841  1.00  0.00     0.034 A 
ATOM     25  C   UNL A   1      39.587  31.259  34.340  1.00  0.00     0.034 A 
ATOM     26  C   UNL A   1      42.444  27.393  29.947  1.00  0.00     0.049 A 
ATOM     27  C   UNL A   1      40.835  30.424  34.366  1.00  0.00     0.074 A 
ATOM     28  C   UNL A   1      43.650  26.724  30.057  1.00  0.00     0.029 A 
ATOM     29  N   UNL A   1      42.255  28.072  31.142  1.00  0.00    -0.354 N 
ATOM     30  N   UNL A   1      41.361  29.699  33.408  1.00  0.00    -0.248 NA
ATOM     31  C   UNL A   1      41.608  30.420  35.616  1.00  0.00     0.031 C 
ATOM     32  C   UNL A   1      44.170  26.965  31.334  1.00  0.00     0.029 A 
ATOM     33  C   UNL A   1      43.313  27.824  32.001  1.00  0.00     0.049 A 
ATOM     34  H   UNL A   1      41.481  28.645  31.349  1.00  0.00     0.167 HD
ATOM     35  C   UNL A   1      42.545  29.187  33.924  1.00  0.00     0.074 A 
ATOM     36  C   UNL A   1      42.663  29.690  35.277  1.00  0.00     0.031 C 
ATOM     37  C   UNL A   1      43.448  28.370  33.329  1.00  0.00     0.034 A 
BRANCH  24  38
ATOM     38  C   UNL A   1      41.837  26.533  27.646  1.00  0.00     0.023 A 
ATOM     39  C   UNL A   1      42.479  27.090  26.521  1.00  0.00     0.012 A 
ATOM     40  C   UNL A   1      41.539  25.155  27.656  1.00  0.00     0.148 A 
ATOM     41  C   UNL A   1      42.775  26.302  25.408  1.00  0.00     0.002 A 
ATOM     42  C   UNL A   1      41.881  24.367  26.562  1.00  0.00     0.091 A 
ATOM     43  F   UNL A   1      40.915  24.643  28.726  1.00  0.00    -0.205 F 
ATOM     44  C   UNL A   1      42.484  24.941  25.433  1.00  0.00     0.022 A 
BRANCH  42  45
ATOM     45  S   UNL A   1      41.622  22.589  26.535  1.00  0.00     0.127 S 
ATOM     46  O   UNL A   1      40.164  22.503  26.510  1.00  0.00    -0.237 OA
ATOM     47  O   UNL A   1      42.276  22.202  25.284  1.00  0.00    -0.237 OA
ATOM     48  O   UNL A   1      42.262  22.073  27.736  1.00  0.00    -0.744 OA
ENDBRANCH  42  45
ENDBRANCH  24  38
BRANCH  25  49
ATOM     49  C   UNL A   1      39.147  32.032  35.535  1.00  0.00     0.023 A 
ATOM     50  C   UNL A   1      39.372  33.420  35.588  1.00  0.00     0.012 A 
ATOM     51  C   UNL A   1      38.451  31.405  36.588  1.00  0.00     0.148 A 
ATOM     52  C   UNL A   1      38.930  34.168  36.679  1.00  0.00     0.002 A 
ATOM     53  C   UNL A   1      37.963  32.165  37.642  1.00  0.00     0.091 A 
ATOM     54  F   UNL A   1      38.254  30.081  36.516  1.00  0.00    -0.205 F 
ATOM     55  C   UNL A   1      38.215  33.544  37.699  1.00  0.00     0.022 A 
BRANCH  53  56
ATOM     56  S   UNL A   1      36.917  31.474  38.929  1.00  0.00     0.127 S 
ATOM     57  O   UNL A   1      37.761  31.621  40.111  1.00  0.00    -0.237 OA
ATOM     58  O   UNL A   1      35.759  32.368  38.882  1.00  0.00    -0.237 OA
ATOM     59  O   UNL A   1      36.638  30.104  38.521  1.00  0.00    -0.744 OA
ENDBRANCH  53  56
ENDBRANCH  25  49
BRANCH  37  60
ATOM     60  C   UNL A   1      44.687  28.006  34.104  1.00  0.00     0.023 A 
ATOM     61  C   UNL A   1      45.788  28.884  34.138  1.00  0.00     0.012 A 
ATOM     62  C   UNL A   1      44.720  26.827  34.876  1.00  0.00     0.148 A 
ATOM     63  C   UNL A   1      46.912  28.581  34.908  1.00  0.00     0.002 A 
ATOM     64  C   UNL A   1      45.818  26.557  35.681  1.00  0.00     0.091 A 
ATOM     65  F   UNL A   1      43.669  25.995  34.813  1.00  0.00    -0.205 F 
ATOM     66  C   UNL A   1      46.921  27.427  35.689  1.00  0.00     0.022 A 
BRANCH  64  67
ATOM     67  S   UNL A   1      45.876  25.150  36.795  1.00  0.00     0.127 S 
ATOM     68  O   UNL A   1      45.842  24.027  35.860  1.00  0.00    -0.237 OA
ATOM     69  O   UNL A   1      47.161  25.343  37.469  1.00  0.00    -0.237 OA
ATOM     70  O   UNL A   1      44.712  25.273  37.662  1.00  0.00    -0.744 OA
ENDBRANCH  64  67
ENDBRANCH  37  60
ENDBRANCH  11  12
ENDBRANCH   4   6
ENDBRANCH   1   2
BRANCH   1  71
ATOM     71  C   UNL A   1      32.112  28.950  25.369  1.00  0.00     0.023 C 
BRANCH  71  72
ATOM     72  C   UNL A   1      33.328  29.296  24.504  1.00  0.00     0.023 C 
BRANCH  72  73
ATOM     73  C   UNL A   1      33.228  28.977  23.006  1.00  0.00     0.116 C 
BRANCH  73  74
ATOM     74  N   UNL A   1      31.942  29.328  22.419  1.00  0.00    -0.352 N 
ATOM     75  C   UNL A   1      30.774  28.616  22.254  1.00  0.00     0.251 C 
ATOM     76  H   UNL A   1      31.899  30.249  22.076  1.00  0.00     0.163 HD
ATOM     77  O   UNL A   1      29.851  29.141  21.632  1.00  0.00    -0.269 OA
BRANCH  75  78
ATOM     78  C   UNL A   1      30.601  27.224  22.743  1.00  0.00     0.039 A 
ATOM     79  C   UNL A   1      31.388  26.217  22.165  1.00  0.00     0.014 A 
ATOM     80  C   UNL A   1      29.685  26.872  23.732  1.00  0.00     0.014 A 
ATOM     81  C   UNL A   1      31.416  24.928  22.713  1.00  0.00     0.006 A 
ATOM     82  C   UNL A   1      29.719  25.583  24.284  1.00  0.00     0.006 A 
ATOM     83  C   UNL A   1      30.691  24.648  23.878  1.00  0.00    -0.025 A 
BRANCH  83  84
ATOM     84  C   UNL A   1      31.141  23.584  24.890  1.00  0.00     0.114 C 
ATOM     85  N   UNL A   1      31.397  22.243  24.301  1.00  0.00    -0.378 N 
ATOM     86  C   UNL A   1      32.434  24.035  25.608  1.00  0.00     0.031 C 
ATOM     87  C   UNL A   1      32.663  21.643  24.373  1.00  0.00     0.038 A 
ATOM     88  H   UNL A   1      30.662  21.766  23.851  1.00  0.00     0.161 HD
ATOM     89  C   UNL A   1      33.579  23.917  24.583  1.00  0.00     0.049 C 
ATOM     90  C   UNL A   1      32.603  25.388  26.297  1.00  0.00     0.034 C 
ATOM     91  C   UNL A   1      32.806  20.255  24.429  1.00  0.00     0.027 A 
ATOM     92  C   UNL A   1      33.831  22.442  24.527  1.00  0.00    -0.016 A 
ATOM     93  C   UNL A   1      34.564  24.921  25.060  1.00  0.00    -0.023 C 
ATOM     94  C   UNL A   1      34.006  25.770  25.932  1.00  0.00    -0.030 C 
ATOM     95  C   UNL A   1      34.070  19.679  24.627  1.00  0.00     0.022 A 
ATOM     96  C   UNL A   1      35.096  21.869  24.674  1.00  0.00     0.027 A 
ATOM     97  C   UNL A   1      35.205  20.485  24.737  1.00  0.00     0.041 A 
ATOM     98  Cl  UNL A   1      36.748  19.767  24.998  1.00  0.00    -0.084 Cl
ENDBRANCH  83  84
ENDBRANCH  75  78
ENDBRANCH  73  74
ENDBRANCH  72  73
ENDBRANCH  71  72
ENDBRANCH   1  71
TORSDOF 15
ENDMDL
MODEL 2
REMARK VINA RESULT:     -13.9      1.357      7.451
REMARK SMILES O=C(NCCCCNC(=O)c1ccc([C@H]2Nc3ccc(Cl)cc3[C@@H]3C=CC[C@@H]23)cc1)c1ccc(-c2c3nc(c(-c4cccc(S(=O)(=O)[O-])c4F)c4ccc([nH]4)c(-c4cccc(S(=O)(=O)[O-])c4F)c4nc(c(-c5cccc(S(=O)(=O)[O-])c5F)c5ccc2[nH]5)C=C4)C=C3)cc1
REMARK SMILES IDX 4 1 3 2 1 3 2 4 31 6 32 7 93 8 33 9 92 10 34 11 35 12 36 13
REMARK SMILES IDX 86 14 37 15 91 16 85 17 87 18 38 19 90 20 84 21 83 22 39 24
REMARK SMILES IDX 71 25 51 26 70 27 52 28 55 29 69 30 88 31 53 32 54 33 68 35
REMARK SMILES IDX 89 36 56 37 40 38 41 39 49 40 42 41 44 42 50 43 43 44 45 45
REMARK SMILES IDX 46 46 47 47 48 48 72 49 73 50 81 51 74 52 76 53 82 54 75 55
REMARK SMILES IDX 77 56 78 57 79 58 80 59 57 60 58 61 66 62 59 63 61 64 67 65
REMARK SMILES IDX 60 66 62 67 63 68 64 69 65 70 5 71 6 72 7 73 8 74 9 75 10 77
REMARK SMILES IDX 11 78 12 79 30 80 13 81 29 82 14 83 15 84 16 85 28 86 17 87
REMARK SMILES IDX 24 89 27 90 18 91 23 92 25 93 26 94 19 95 22 96 20 97 21 98
REMARK H PARENT 3 5 87 23 55 34 8 76 16 88
REMARK Flexibility Score: inf
ROOT
ATOM      1  C   UNL A   1      31.847  30.090  26.726  1.00  0.00     0.116 C 
ENDROOT
BRANCH   1   2
ATOM      2  N   UNL A   1      31.942  31.541  26.746  1.00  0.00    -0.352 N 
ATOM      3  O   UNL A   1      32.686  33.583  27.316  1.00  0.00    -0.269 OA
ATOM      4  C   UNL A   1      32.884  32.366  27.315  1.00  0.00     0.251 C 
ATOM      5  H   UNL A   1      31.213  32.010  26.277  1.00  0.00     0.163 HD
BRANCH   4   6
ATOM      6  C   UNL A   1      34.106  31.817  27.949  1.00  0.00     0.039 A 
ATOM      7  C   UNL A   1      34.333  30.441  28.026  1.00  0.00     0.014 A 
ATOM      8  C   UNL A   1      35.063  32.704  28.453  1.00  0.00     0.014 A 
ATOM      9  C   UNL A   1      35.435  29.953  28.729  1.00  0.00     0.010 A 
ATOM     10  C   UNL A   1      36.206  32.213  29.092  1.00  0.00     0.010 A 
ATOM     11  C   UNL A   1      36.385  30.833  29.272  1.00  0.00    -0.014 A 
BRANCH  11  12
ATOM     12  C   UNL A   1      37.575  30.306  29.990  1.00  0.00     0.031 A 
ATOM     13  C   UNL A   1      37.891  30.753  31.392  1.00  0.00     0.074 A 
ATOM     14  C   UNL A   1      38.400  29.447  29.360  1.00  0.00     0.049 A 
ATOM     15  N   UNL A   1      38.915  30.443  32.147  1.00  0.00    -0.248 NA
ATOM     16  C   UNL A   1      36.940  31.677  32.028  1.00  0.00     0.031 C 
ATOM     17  C   UNL A   1      38.222  28.961  27.991  1.00  0.00     0.029 A 
ATOM     18  N   UNL A   1      39.566  28.851  29.776  1.00  0.00    -0.354 N 
ATOM     19  C   UNL A   1      38.757  31.164  33.324  1.00  0.00     0.074 A 
ATOM     20  C   UNL A   1      37.540  31.935  33.181  1.00  0.00     0.031 C 
ATOM     21  C   UNL A   1      39.241  28.147  27.677  1.00  0.00     0.029 A 
ATOM     22  C   UNL A   1      40.172  28.096  28.799  1.00  0.00     0.049 A 
ATOM     23  H   UNL A   1      39.931  28.955  30.684  1.00  0.00     0.167 HD
ATOM     24  C   UNL A   1      39.546  31.176  34.427  1.00  0.00     0.034 A 
ATOM     25  C   UNL A   1      41.359  27.460  28.789  1.00  0.00     0.034 A 
ATOM     26  C   UNL A   1      40.746  30.394  34.571  1.00  0.00     0.049 A 
ATOM     27  C   UNL A   1      42.219  27.491  30.021  1.00  0.00     0.074 A 
ATOM     28  C   UNL A   1      41.576  30.288  35.672  1.00  0.00     0.029 A 
ATOM     29  N   UNL A   1      41.298  29.597  33.578  1.00  0.00    -0.354 N 
ATOM     30  N   UNL A   1      41.994  28.085  31.167  1.00  0.00    -0.248 NA
ATOM     31  C   UNL A   1      43.481  26.741  29.970  1.00  0.00     0.031 C 
ATOM     32  C   UNL A   1      42.653  29.461  35.332  1.00  0.00     0.029 A 
ATOM     33  C   UNL A   1      42.466  29.011  34.035  1.00  0.00     0.049 A 
ATOM     34  H   UNL A   1      40.915  29.469  32.680  1.00  0.00     0.167 HD
ATOM     35  C   UNL A   1      43.063  27.747  31.989  1.00  0.00     0.074 A 
ATOM     36  C   UNL A   1      43.933  26.891  31.209  1.00  0.00     0.031 C 
ATOM     37  C   UNL A   1      43.301  28.119  33.270  1.00  0.00     0.034 A 
BRANCH  24  38
ATOM     38  C   UNL A   1      39.131  32.062  35.577  1.00  0.00     0.023 A 
ATOM     39  C   UNL A   1      38.244  31.572  36.558  1.00  0.00     0.012 A 
ATOM     40  C   UNL A   1      39.655  33.363  35.711  1.00  0.00     0.148 A 
ATOM     41  C   UNL A   1      37.849  32.378  37.626  1.00  0.00     0.002 A 
ATOM     42  C   UNL A   1      39.293  34.143  36.805  1.00  0.00     0.091 A 
ATOM     43  F   UNL A   1      40.483  33.821  34.763  1.00  0.00    -0.205 F 
ATOM     44  C   UNL A   1      38.380  33.658  37.754  1.00  0.00     0.022 A 
BRANCH  42  45
ATOM     45  S   UNL A   1      39.988  35.774  37.100  1.00  0.00     0.127 S 
ATOM     46  O   UNL A   1      41.408  35.466  37.250  1.00  0.00    -0.237 OA
ATOM     47  O   UNL A   1      39.646  36.483  35.866  1.00  0.00    -0.237 OA
ATOM     48  O   UNL A   1      39.325  36.282  38.292  1.00  0.00    -0.744 OA
ENDBRANCH  42  45
ENDBRANCH  24  38
BRANCH  25  49
ATOM     49  C   UNL A   1      41.780  26.716  27.569  1.00  0.00     0.023 A 
ATOM     50  C   UNL A   1      42.420  27.403  26.521  1.00  0.00     0.012 A 
ATOM     51  C   UNL A   1      41.606  25.321  27.475  1.00  0.00     0.148 A 
ATOM     52  C   UNL A   1      42.860  26.717  25.389  1.00  0.00     0.002 A 
ATOM     53  C   UNL A   1      42.098  24.636  26.373  1.00  0.00     0.091 A 
ATOM     54  F   UNL A   1      40.989  24.690  28.485  1.00  0.00    -0.205 F 
ATOM     55  C   UNL A   1      42.711  25.334  25.320  1.00  0.00     0.022 A 
BRANCH  53  56
ATOM     56  S   UNL A   1      42.075  22.844  26.259  1.00  0.00     0.127 S 
ATOM     57  O   UNL A   1      42.861  22.459  27.428  1.00  0.00    -0.237 OA
ATOM     58  O   UNL A   1      40.643  22.558  26.357  1.00  0.00    -0.237 OA
ATOM     59  O   UNL A   1      42.668  22.520  24.968  1.00  0.00    -0.744 OA
ENDBRANCH  53  56
ENDBRANCH  25  49
BRANCH  37  60
ATOM     60  C   UNL A   1      44.522  27.558  33.950  1.00  0.00     0.023 A 
ATOM     61  C   UNL A   1      45.743  28.261  33.911  1.00  0.00     0.012 A 
ATOM     62  C   UNL A   1      44.431  26.373  34.707  1.00  0.00     0.148 A 
ATOM     63  C   UNL A   1      46.860  27.777  34.595  1.00  0.00     0.002 A 
ATOM     64  C   UNL A   1      45.530  25.926  35.428  1.00  0.00     0.091 A 
ATOM     65  F   UNL A   1      43.265  25.709  34.714  1.00  0.00    -0.205 F 
ATOM     66  C   UNL A   1      46.749  26.620  35.364  1.00  0.00     0.022 A 
BRANCH  64  67
ATOM     67  S   UNL A   1      45.453  24.505  36.523  1.00  0.00     0.127 S 
ATOM     68  O   UNL A   1      46.771  24.543  37.155  1.00  0.00    -0.237 OA
ATOM     69  O   UNL A   1      44.342  24.858  37.409  1.00  0.00    -0.237 OA
ATOM     70  O   UNL A   1      45.205  23.350  35.670  1.00  0.00    -0.744 OA
ENDBRANCH  64  67
ENDBRANCH  37  60
ENDBRANCH  11  12
ENDBRANCH   4   6
ENDBRANCH   1   2
BRANCH   1  71
ATOM     71  C   UNL A   1      31.825  29.506  25.315  1.00  0.00     0.023 C 
BRANCH  71  72
ATOM     72  C   UNL A   1      33.178  29.374  24.609  1.00  0.00     0.023 C 
BRANCH  72  73
ATOM     73  C   UNL A   1      33.151  29.139  23.093  1.00  0.00     0.116 C 
BRANCH  73  74
ATOM     74  N   UNL A   1      31.874  29.469  22.474  1.00  0.00    -0.352 N 
ATOM     75  C   UNL A   1      30.717  28.744  22.296  1.00  0.00     0.251 C 
ATOM     76  H   UNL A   1      31.830  30.384  22.115  1.00  0.00     0.163 HD
ATOM     77  O   UNL A   1      29.802  29.250  21.648  1.00  0.00    -0.269 OA
BRANCH  75  78
ATOM     78  C   UNL A   1      30.546  27.358  22.804  1.00  0.00     0.039 A 
ATOM     79  C   UNL A   1      31.312  26.340  22.218  1.00  0.00     0.014 A 
ATOM     80  C   UNL A   1      29.651  27.022  23.819  1.00  0.00     0.014 A 
ATOM     81  C   UNL A   1      31.345  25.056  22.779  1.00  0.00     0.006 A 
ATOM     82  C   UNL A   1      29.690  25.739  24.383  1.00  0.00     0.006 A 
ATOM     83  C   UNL A   1      30.646  24.794  23.964  1.00  0.00    -0.025 A 
BRANCH  83  84
ATOM     84  C   UNL A   1      31.112  23.736  24.976  1.00  0.00     0.114 C 
ATOM     85  N   UNL A   1      31.361  22.392  24.392  1.00  0.00    -0.378 N 
ATOM     86  C   UNL A   1      32.417  24.194  25.670  1.00  0.00     0.031 C 
ATOM     87  C   UNL A   1      32.629  21.794  24.448  1.00  0.00     0.038 A 
ATOM     88  H   UNL A   1      30.620  21.911  23.957  1.00  0.00     0.161 HD
ATOM     89  C   UNL A   1      33.545  24.070  24.629  1.00  0.00     0.049 C 
ATOM     90  C   UNL A   1      32.595  25.552  26.347  1.00  0.00     0.034 C 
ATOM     91  C   UNL A   1      32.774  20.406  24.512  1.00  0.00     0.027 A 
ATOM     92  C   UNL A   1      33.798  22.595  24.578  1.00  0.00    -0.016 A 
ATOM     93  C   UNL A   1      34.537  25.078  25.082  1.00  0.00    -0.023 C 
ATOM     94  C   UNL A   1      33.991  25.932  25.958  1.00  0.00    -0.030 C 
ATOM     95  C   UNL A   1      34.042  19.833  24.693  1.00  0.00     0.022 A 
ATOM     96  C   UNL A   1      35.066  22.024  24.709  1.00  0.00     0.027 A 
ATOM     97  C   UNL A   1      35.177  20.640  24.780  1.00  0.00     0.041 A 
ATOM     98  Cl  UNL A   1      36.725  19.926  25.021  1.00  0.00    -0.084 Cl
ENDBRANCH  83  84
ENDBRANCH  75  78
ENDBRANCH  73  74
ENDBRANCH  72  73
ENDBRANCH  71  72
ENDBRANCH   1  71
TORSDOF 15
ENDMDL
MODEL 3
REMARK VINA RESULT:     -13.8      5.364      8.207
REMARK SMILES O=C(NCCCCNC(=O)c1ccc([C@H]2Nc3ccc(Cl)cc3[C@@H]3C=CC[C@@H]23)cc1)c1ccc(-c2c3nc(c(-c4cccc(S(=O)(=O)[O-])c4F)c4ccc([nH]4)c(-c4cccc(S(=O)(=O)[O-])c4F)c4nc(c(-c5cccc(S(=O)(=O)[O-])c5F)c5ccc2[nH]5)C=C4)C=C3)cc1
REMARK SMILES IDX 4 1 3 2 1 3 2 4 31 6 32 7 93 8 33 9 92 10 34 11 35 12 36 13
REMARK SMILES IDX 86 14 37 15 91 16 85 17 87 18 38 19 90 20 84 21 83 22 39 24
REMARK SMILES IDX 71 25 51 26 70 27 52 28 55 29 69 30 88 31 53 32 54 33 68 35
REMARK SMILES IDX 89 36 56 37 40 38 41 39 49 40 42 41 44 42 50 43 43 44 45 45
REMARK SMILES IDX 46 46 47 47 48 48 72 49 73 50 81 51 74 52 76 53 82 54 75 55
REMARK SMILES IDX 77 56 78 57 79 58 80 59 57 60 58 61 66 62 59 63 61 64 67 65
REMARK SMILES IDX 60 66 62 67 63 68 64 69 65 70 5 71 6 72 7 73 8 74 9 75 10 77
REMARK SMILES IDX 11 78 12 79 30 80 13 81 29 82 14 83 15 84 16 85 28 86 17 87
REMARK SMILES IDX 24 89 27 90 18 91 23 92 25 93 26 94 19 95 22 96 20 97 21 98
REMARK H PARENT 3 5 87 23 55 34 8 76 16 88
REMARK Flexibility Score: inf
ROOT
ATOM      1  C   UNL A   1      37.678  21.225  24.985  1.00  0.00     0.116 C 
ENDROOT
BRANCH   1   2
ATOM      2  N   UNL A   1      38.613  20.299  25.605  1.00  0.00    -0.352 N 
ATOM      3  O   UNL A   1      40.477  19.580  26.633  1.00  0.00    -0.269 OA
ATOM      4  C   UNL A   1      39.770  20.537  26.309  1.00  0.00     0.251 C 
ATOM      5  H   UNL A   1      38.380  19.348  25.505  1.00  0.00     0.163 HD
BRANCH   4   6
ATOM      6  C   UNL A   1      40.194  21.916  26.652  1.00  0.00     0.039 A 
ATOM      7  C   UNL A   1      39.581  23.032  26.077  1.00  0.00     0.014 A 
ATOM      8  C   UNL A   1      41.208  22.095  27.598  1.00  0.00     0.014 A 
ATOM      9  C   UNL A   1      40.078  24.310  26.333  1.00  0.00     0.010 A 
ATOM     10  C   UNL A   1      41.655  23.384  27.910  1.00  0.00     0.010 A 
ATOM     11  C   UNL A   1      41.121  24.502  27.252  1.00  0.00    -0.014 A 
BRANCH  11  12
ATOM     12  C   UNL A   1      41.622  25.870  27.547  1.00  0.00     0.031 A 
ATOM     13  C   UNL A   1      43.027  26.273  27.185  1.00  0.00     0.074 A 
ATOM     14  C   UNL A   1      40.818  26.746  28.181  1.00  0.00     0.049 A 
ATOM     15  N   UNL A   1      43.649  27.401  27.418  1.00  0.00    -0.248 NA
ATOM     16  C   UNL A   1      43.845  25.275  26.479  1.00  0.00     0.031 C 
ATOM     17  C   UNL A   1      39.448  26.469  28.612  1.00  0.00     0.029 A 
ATOM     18  N   UNL A   1      41.044  28.036  28.596  1.00  0.00    -0.354 N 
ATOM     19  C   UNL A   1      44.940  27.236  26.930  1.00  0.00     0.074 A 
ATOM     20  C   UNL A   1      45.015  25.894  26.394  1.00  0.00     0.031 C 
ATOM     21  C   UNL A   1      38.955  27.550  29.234  1.00  0.00     0.029 A 
ATOM     22  C   UNL A   1      39.990  28.576  29.296  1.00  0.00     0.049 A 
ATOM     23  H   UNL A   1      41.878  28.525  28.411  1.00  0.00     0.167 HD
ATOM     24  C   UNL A   1      45.966  28.123  26.920  1.00  0.00     0.034 A 
ATOM     25  C   UNL A   1      39.876  29.750  29.945  1.00  0.00     0.034 A 
ATOM     26  C   UNL A   1      45.880  29.463  27.439  1.00  0.00     0.049 A 
ATOM     27  C   UNL A   1      41.027  30.716  29.925  1.00  0.00     0.074 A 
ATOM     28  C   UNL A   1      46.842  30.457  27.416  1.00  0.00     0.029 A 
ATOM     29  N   UNL A   1      44.776  29.993  28.091  1.00  0.00    -0.354 N 
ATOM     30  N   UNL A   1      42.200  30.586  29.355  1.00  0.00    -0.248 NA
ATOM     31  C   UNL A   1      40.829  32.001  30.609  1.00  0.00     0.031 C 
ATOM     32  C   UNL A   1      46.335  31.574  28.091  1.00  0.00     0.029 A 
ATOM     33  C   UNL A   1      45.039  31.293  28.490  1.00  0.00     0.049 A 
ATOM     34  H   UNL A   1      43.930  29.514  28.249  1.00  0.00     0.167 HD
ATOM     35  C   UNL A   1      42.866  31.786  29.575  1.00  0.00     0.074 A 
ATOM     36  C   UNL A   1      41.962  32.634  30.325  1.00  0.00     0.031 C 
ATOM     37  C   UNL A   1      44.114  32.148  29.192  1.00  0.00     0.034 A 
BRANCH  24  38
ATOM     38  C   UNL A   1      47.275  27.675  26.318  1.00  0.00     0.023 A 
ATOM     39  C   UNL A   1      48.282  27.136  27.145  1.00  0.00     0.012 A 
ATOM     40  C   UNL A   1      47.491  27.745  24.927  1.00  0.00     0.148 A 
ATOM     41  C   UNL A   1      49.499  26.718  26.604  1.00  0.00     0.002 A 
ATOM     42  C   UNL A   1      48.688  27.282  24.390  1.00  0.00     0.091 A 
ATOM     43  F   UNL A   1      46.531  28.274  24.155  1.00  0.00    -0.205 F 
ATOM     44  C   UNL A   1      49.697  26.784  25.228  1.00  0.00     0.022 A 
BRANCH  42  45
ATOM     45  S   UNL A   1      49.004  27.248  22.622  1.00  0.00     0.127 S 
ATOM     46  O   UNL A   1      50.464  27.277  22.582  1.00  0.00    -0.237 OA
ATOM     47  O   UNL A   1      48.409  25.969  22.227  1.00  0.00    -0.237 OA
ATOM     48  O   UNL A   1      48.336  28.419  22.073  1.00  0.00    -0.744 OA
ENDBRANCH  42  45
ENDBRANCH  24  38
BRANCH  25  49
ATOM     49  C   UNL A   1      38.602  30.079  30.643  1.00  0.00     0.023 A 
ATOM     50  C   UNL A   1      38.404  29.649  31.968  1.00  0.00     0.012 A 
ATOM     51  C   UNL A   1      37.616  30.871  30.020  1.00  0.00     0.148 A 
ATOM     52  C   UNL A   1      37.235  29.982  32.654  1.00  0.00     0.002 A 
ATOM     53  C   UNL A   1      36.484  31.248  30.728  1.00  0.00     0.091 A 
ATOM     54  F   UNL A   1      37.827  31.264  28.756  1.00  0.00    -0.205 F 
ATOM     55  C   UNL A   1      36.282  30.792  32.040  1.00  0.00     0.022 A 
BRANCH  53  56
ATOM     56  S   UNL A   1      35.270  32.397  30.069  1.00  0.00     0.127 S 
ATOM     57  O   UNL A   1      34.750  31.658  28.923  1.00  0.00    -0.237 OA
ATOM     58  O   UNL A   1      34.342  32.525  31.194  1.00  0.00    -0.237 OA
ATOM     59  O   UNL A   1      36.005  33.614  29.752  1.00  0.00    -0.744 OA
ENDBRANCH  53  56
ENDBRANCH  25  49
BRANCH  37  60
ATOM     60  C   UNL A   1      44.574  33.545  29.518  1.00  0.00     0.023 A 
ATOM     61  C   UNL A   1      45.236  33.810  30.734  1.00  0.00     0.012 A 
ATOM     62  C   UNL A   1      44.427  34.579  28.572  1.00  0.00     0.148 A 
ATOM     63  C   UNL A   1      45.721  35.089  31.011  1.00  0.00     0.002 A 
ATOM     64  C   UNL A   1      44.958  35.835  28.831  1.00  0.00     0.091 A 
ATOM     65  F   UNL A   1      43.775  34.309  27.430  1.00  0.00    -0.205 F 
ATOM     66  C   UNL A   1      45.595  36.096  30.055  1.00  0.00     0.022 A 
BRANCH  64  67
ATOM     67  S   UNL A   1      44.933  37.161  27.621  1.00  0.00     0.127 S 
ATOM     68  O   UNL A   1      45.703  36.579  26.523  1.00  0.00    -0.237 OA
ATOM     69  O   UNL A   1      43.502  37.306  27.352  1.00  0.00    -0.237 OA
ATOM     70  O   UNL A   1      45.547  38.312  28.270  1.00  0.00    -0.744 OA
ENDBRANCH  64  67
ENDBRANCH  37  60
ENDBRANCH  11  12
ENDBRANCH   4   6
ENDBRANCH   1   2
BRANCH   1  71
ATOM     71  C   UNL A   1      36.216  20.866  25.236  1.00  0.00     0.023 C 
BRANCH  71  72
ATOM     72  C   UNL A   1      35.377  21.902  25.991  1.00  0.00     0.023 C 
BRANCH  72  73
ATOM     73  C   UNL A   1      34.343  21.365  26.990  1.00  0.00     0.116 C 
BRANCH  73  74
ATOM     74  N   UNL A   1      33.608  20.206  26.503  1.00  0.00    -0.352 N 
ATOM     75  C   UNL A   1      32.663  20.059  25.511  1.00  0.00     0.251 C 
ATOM     76  H   UNL A   1      33.828  19.369  26.971  1.00  0.00     0.163 HD
ATOM     77  O   UNL A   1      32.130  18.959  25.368  1.00  0.00    -0.269 OA
BRANCH  75  78
ATOM     78  C   UNL A   1      32.219  21.182  24.645  1.00  0.00     0.039 A 
ATOM     79  C   UNL A   1      31.386  22.160  25.208  1.00  0.00     0.014 A 
ATOM     80  C   UNL A   1      32.575  21.298  23.304  1.00  0.00     0.014 A 
ATOM     81  C   UNL A   1      31.095  23.340  24.509  1.00  0.00     0.006 A 
ATOM     82  C   UNL A   1      32.290  22.481  22.608  1.00  0.00     0.006 A 
ATOM     83  C   UNL A   1      31.679  23.572  23.257  1.00  0.00    -0.025 A 
BRANCH  83  84
ATOM     84  C   UNL A   1      31.983  24.986  22.742  1.00  0.00     0.114 C 
ATOM     85  N   UNL A   1      30.834  25.927  22.808  1.00  0.00    -0.378 N 
ATOM     86  C   UNL A   1      33.148  25.612  23.544  1.00  0.00     0.031 C 
ATOM     87  C   UNL A   1      30.893  27.100  23.576  1.00  0.00     0.038 A 
ATOM     88  H   UNL A   1      30.015  25.723  22.301  1.00  0.00     0.161 HD
ATOM     89  C   UNL A   1      32.594  25.960  24.939  1.00  0.00     0.049 C 
ATOM     90  C   UNL A   1      34.497  24.932  23.767  1.00  0.00     0.034 C 
ATOM     91  C   UNL A   1      30.188  28.246  23.204  1.00  0.00     0.027 A 
ATOM     92  C   UNL A   1      31.782  27.191  24.683  1.00  0.00    -0.016 A 
ATOM     93  C   UNL A   1      33.801  25.913  25.803  1.00  0.00    -0.023 C 
ATOM     94  C   UNL A   1      34.810  25.280  25.191  1.00  0.00    -0.030 C 
ATOM     95  C   UNL A   1      30.357  29.445  23.913  1.00  0.00     0.022 A 
ATOM     96  C   UNL A   1      31.914  28.370  25.420  1.00  0.00     0.027 A 
ATOM     97  C   UNL A   1      31.207  29.498  25.019  1.00  0.00     0.041 A 
ATOM     98  Cl  UNL A   1      31.420  30.979  25.870  1.00  0.00    -0.084 Cl
ENDBRANCH  83  84
ENDBRANCH  75  78
ENDBRANCH  73  74
ENDBRANCH  72  73
ENDBRANCH  71  72
ENDBRANCH   1  71
TORSDOF 15
ENDMDL
