MODEL 1
REMARK VINA RESULT:     -11.5      0.000      0.000
REMARK SMILES [NH3+][C@@H]1C(=O)N2C(C(=O)NCCCCNC(=O)c3ccc(-c4c5nc(c(-c6cccc(S(=O)(=O)[O-])c6F)c6ccc([nH]6)c(-c6cccc(S(=O)(=O)[O-])c6F)c6nc(c(-c7cccc(S(=O)(=O)[O-])c7F)c7ccc4[nH]7)C=C6)C=C5)cc3)=CCS[C@@H]12
REMARK SMILES IDX 12 1 11 2 10 3 9 4 7 5 8 6 6 8 2 9 3 10 83 11 4 12 5 13
REMARK SMILES IDX 82 14 81 15 80 16 1 17 13 21 14 22 15 23 16 25 17 26 18 27
REMARK SMILES IDX 79 28 19 29 78 30 20 31 21 32 22 33 72 34 23 35 77 36 71 37
REMARK SMILES IDX 73 38 24 39 76 40 70 41 69 42 25 44 57 45 37 46 56 47 38 48
REMARK SMILES IDX 41 49 55 50 74 51 39 52 40 53 54 55 75 56 42 57 26 58 27 59
REMARK SMILES IDX 35 60 28 61 30 62 36 63 29 64 31 65 32 66 33 67 34 68 58 69
REMARK SMILES IDX 59 70 67 71 60 72 62 73 68 74 61 75 63 76 64 77 65 78 66 79
REMARK SMILES IDX 43 80 44 81 52 82 45 83 47 84 53 85 46 86 48 87 49 88 50 89
REMARK SMILES IDX 51 90
REMARK H PARENT 9 7 1 18 1 19 1 20 14 24 73 43 41 54
REMARK Flexibility Score: inf
ROOT
ATOM      1  C   UNL A   1      31.713  29.233  24.822  1.00  0.00     0.023 C 
ENDROOT
BRANCH   1   2
ATOM      2  C   UNL A   1      31.293  27.768  24.986  1.00  0.00     0.023 C 
BRANCH   2   3
ATOM      3  C   UNL A   1      31.953  27.049  26.168  1.00  0.00     0.116 C 
BRANCH   3   4
ATOM      4  N   UNL A   1      31.077  26.010  26.676  1.00  0.00    -0.351 N 
ATOM      5  C   UNL A   1      30.899  24.698  26.354  1.00  0.00     0.267 C 
ATOM      6  O   UNL A   1      29.942  24.122  26.876  1.00  0.00    -0.268 OA
ATOM      7  H   UNL A   1      30.489  26.316  27.404  1.00  0.00     0.163 HD
BRANCH   5   8
ATOM      8  C   UNL A   1      31.808  23.946  25.411  1.00  0.00     0.107 C 
ATOM      9  C   UNL A   1      33.693  21.242  26.331  1.00  0.00     0.305 C 
ATOM     10  C   UNL A   1      32.848  22.329  27.091  1.00  0.00     0.289 C 
ATOM     11  C   UNL A   1      33.015  21.826  25.062  1.00  0.00     0.217 C 
ATOM     12  O   UNL A   1      32.674  22.610  28.251  1.00  0.00    -0.267 OA
ATOM     13  N   UNL A   1      32.516  22.894  25.908  1.00  0.00    -0.283 N 
ATOM     14  S   UNL A   1      34.138  22.555  23.842  1.00  0.00    -0.126 SA
ATOM     15  C   UNL A   1      32.830  23.568  23.096  1.00  0.00     0.101 C 
ATOM     16  C   UNL A   1      31.889  24.199  24.088  1.00  0.00     0.016 C 
BRANCH   9  17
ATOM     17  N   UNL A   1      33.260  19.839  26.517  1.00  0.00    -0.345 N 
ATOM     18  H   UNL A   1      34.077  19.228  26.511  1.00  0.00     0.345 HD
ATOM     19  H   UNL A   1      32.631  19.573  25.758  1.00  0.00     0.345 HD
ATOM     20  H   UNL A   1      32.775  19.748  27.409  1.00  0.00     0.345 HD
ENDBRANCH   9  17
ENDBRANCH   5   8
ENDBRANCH   3   4
ENDBRANCH   2   3
ENDBRANCH   1   2
BRANCH   1  21
ATOM     21  C   UNL A   1      32.727  29.734  25.846  1.00  0.00     0.116 C 
BRANCH  21  22
ATOM     22  N   UNL A   1      32.469  31.097  26.291  1.00  0.00    -0.352 N 
ATOM     23  C   UNL A   1      33.191  31.861  27.177  1.00  0.00     0.251 C 
ATOM     24  H   UNL A   1      31.671  31.527  25.907  1.00  0.00     0.163 HD
ATOM     25  O   UNL A   1      32.773  32.960  27.524  1.00  0.00    -0.269 OA
BRANCH  23  26
ATOM     26  C   UNL A   1      34.453  31.330  27.733  1.00  0.00     0.039 A 
ATOM     27  C   UNL A   1      35.535  32.197  27.902  1.00  0.00     0.014 A 
ATOM     28  C   UNL A   1      34.554  29.991  28.118  1.00  0.00     0.014 A 
ATOM     29  C   UNL A   1      36.697  31.738  28.524  1.00  0.00     0.010 A 
ATOM     30  C   UNL A   1      35.686  29.554  28.799  1.00  0.00     0.010 A 
ATOM     31  C   UNL A   1      36.769  30.422  29.011  1.00  0.00    -0.014 A 
BRANCH  31  32
ATOM     32  C   UNL A   1      37.955  29.934  29.759  1.00  0.00     0.031 A 
ATOM     33  C   UNL A   1      38.229  30.435  31.150  1.00  0.00     0.074 A 
ATOM     34  C   UNL A   1      38.837  29.118  29.147  1.00  0.00     0.049 A 
ATOM     35  N   UNL A   1      39.254  30.195  31.926  1.00  0.00    -0.248 NA
ATOM     36  C   UNL A   1      37.235  31.349  31.738  1.00  0.00     0.031 C 
ATOM     37  C   UNL A   1      38.724  28.625  27.774  1.00  0.00     0.029 A 
ATOM     38  N   UNL A   1      40.022  28.586  29.592  1.00  0.00    -0.354 N 
ATOM     39  C   UNL A   1      39.048  30.952  33.073  1.00  0.00     0.074 A 
ATOM     40  C   UNL A   1      37.817  31.687  32.880  1.00  0.00     0.031 C 
ATOM     41  C   UNL A   1      39.793  27.863  27.488  1.00  0.00     0.029 A 
ATOM     42  C   UNL A   1      40.683  27.839  28.644  1.00  0.00     0.049 A 
ATOM     43  H   UNL A   1      40.367  28.724  30.504  1.00  0.00     0.167 HD
ATOM     44  C   UNL A   1      39.799  31.009  34.199  1.00  0.00     0.034 A 
ATOM     45  C   UNL A   1      41.876  27.214  28.697  1.00  0.00     0.034 A 
ATOM     46  C   UNL A   1      40.997  30.242  34.406  1.00  0.00     0.049 A 
ATOM     47  C   UNL A   1      42.669  27.262  29.975  1.00  0.00     0.074 A 
ATOM     48  C   UNL A   1      41.785  30.168  35.540  1.00  0.00     0.029 A 
ATOM     49  N   UNL A   1      41.583  29.419  33.457  1.00  0.00    -0.354 N 
ATOM     50  N   UNL A   1      42.379  27.861  31.105  1.00  0.00    -0.248 NA
ATOM     51  C   UNL A   1      43.937  26.518  30.000  1.00  0.00     0.031 C 
ATOM     52  C   UNL A   1      42.858  29.313  35.272  1.00  0.00     0.029 A 
ATOM     53  C   UNL A   1      42.724  28.834  33.980  1.00  0.00     0.049 A 
ATOM     54  H   UNL A   1      41.240  29.272  32.547  1.00  0.00     0.167 HD
ATOM     55  C   UNL A   1      43.403  27.530  31.985  1.00  0.00     0.074 A 
ATOM     56  C   UNL A   1      44.312  26.663  31.263  1.00  0.00     0.031 C 
ATOM     57  C   UNL A   1      43.582  27.920  33.271  1.00  0.00     0.034 A 
BRANCH  44  58
ATOM     58  C   UNL A   1      39.314  31.885  35.323  1.00  0.00     0.023 A 
ATOM     59  C   UNL A   1      38.435  31.351  36.288  1.00  0.00     0.012 A 
ATOM     60  C   UNL A   1      39.779  33.207  35.470  1.00  0.00     0.148 A 
ATOM     61  C   UNL A   1      38.000  32.126  37.362  1.00  0.00     0.002 A 
ATOM     62  C   UNL A   1      39.378  33.959  36.569  1.00  0.00     0.091 A 
ATOM     63  F   UNL A   1      40.600  33.703  34.534  1.00  0.00    -0.205 F 
ATOM     64  C   UNL A   1      38.481  33.424  37.508  1.00  0.00     0.022 A 
BRANCH  62  65
ATOM     65  S   UNL A   1      40.000  35.613  36.893  1.00  0.00     0.127 S 
ATOM     66  O   UNL A   1      39.353  35.925  38.167  1.00  0.00    -0.237 OA
ATOM     67  O   UNL A   1      41.442  35.386  36.981  1.00  0.00    -0.237 OA
ATOM     68  O   UNL A   1      39.579  36.430  35.763  1.00  0.00    -0.744 OA
ENDBRANCH  62  65
ENDBRANCH  44  58
BRANCH  45  69
ATOM     69  C   UNL A   1      42.365  26.431  27.526  1.00  0.00     0.023 A 
ATOM     70  C   UNL A   1      43.160  27.069  26.552  1.00  0.00     0.012 A 
ATOM     71  C   UNL A   1      42.060  25.065  27.374  1.00  0.00     0.148 A 
ATOM     72  C   UNL A   1      43.609  26.372  25.430  1.00  0.00     0.002 A 
ATOM     73  C   UNL A   1      42.558  24.362  26.282  1.00  0.00     0.091 A 
ATOM     74  F   UNL A   1      41.293  24.478  28.302  1.00  0.00    -0.205 F 
ATOM     75  C   UNL A   1      43.316  25.017  25.299  1.00  0.00     0.022 A 
BRANCH  73  76
ATOM     76  S   UNL A   1      42.339  22.588  26.103  1.00  0.00     0.127 S 
ATOM     77  O   UNL A   1      43.002  22.332  24.827  1.00  0.00    -0.237 OA
ATOM     78  O   UNL A   1      43.046  22.076  27.278  1.00  0.00    -0.237 OA
ATOM     79  O   UNL A   1      40.899  22.369  26.129  1.00  0.00    -0.744 OA
ENDBRANCH  73  76
ENDBRANCH  45  69
BRANCH  57  80
ATOM     80  C   UNL A   1      44.776  27.375  34.010  1.00  0.00     0.023 A 
ATOM     81  C   UNL A   1      45.994  28.081  33.995  1.00  0.00     0.012 A 
ATOM     82  C   UNL A   1      44.662  26.205  34.787  1.00  0.00     0.148 A 
ATOM     83  C   UNL A   1      47.091  27.614  34.718  1.00  0.00     0.002 A 
ATOM     84  C   UNL A   1      45.744  25.773  35.544  1.00  0.00     0.091 A 
ATOM     85  F   UNL A   1      43.499  25.538  34.772  1.00  0.00    -0.205 F 
ATOM     86  C   UNL A   1      46.963  26.470  35.501  1.00  0.00     0.022 A 
BRANCH  84  87
ATOM     87  S   UNL A   1      45.640  24.368  36.658  1.00  0.00     0.127 S 
ATOM     88  O   UNL A   1      46.989  24.333  37.221  1.00  0.00    -0.237 OA
ATOM     89  O   UNL A   1      44.598  24.791  37.594  1.00  0.00    -0.237 OA
ATOM     90  O   UNL A   1      45.279  23.225  35.830  1.00  0.00    -0.744 OA
ENDBRANCH  84  87
ENDBRANCH  57  80
ENDBRANCH  31  32
ENDBRANCH  23  26
ENDBRANCH  21  22
ENDBRANCH   1  21
TORSDOF 15
ENDMDL
MODEL 2
REMARK VINA RESULT:     -11.4      4.859     10.124
REMARK SMILES [NH3+][C@@H]1C(=O)N2C(C(=O)NCCCCNC(=O)c3ccc(-c4c5nc(c(-c6cccc(S(=O)(=O)[O-])c6F)c6ccc([nH]6)c(-c6cccc(S(=O)(=O)[O-])c6F)c6nc(c(-c7cccc(S(=O)(=O)[O-])c7F)c7ccc4[nH]7)C=C6)C=C5)cc3)=CCS[C@@H]12
REMARK SMILES IDX 12 1 11 2 10 3 9 4 7 5 8 6 6 8 2 9 3 10 83 11 4 12 5 13
REMARK SMILES IDX 82 14 81 15 80 16 1 17 13 21 14 22 15 23 16 25 17 26 18 27
REMARK SMILES IDX 79 28 19 29 78 30 20 31 21 32 22 33 72 34 23 35 77 36 71 37
REMARK SMILES IDX 73 38 24 39 76 40 70 41 69 42 25 44 57 45 37 46 56 47 38 48
REMARK SMILES IDX 41 49 55 50 74 51 39 52 40 53 54 55 75 56 42 57 26 58 27 59
REMARK SMILES IDX 35 60 28 61 30 62 36 63 29 64 31 65 32 66 33 67 34 68 58 69
REMARK SMILES IDX 59 70 67 71 60 72 62 73 68 74 61 75 63 76 64 77 65 78 66 79
REMARK SMILES IDX 43 80 44 81 52 82 45 83 47 84 53 85 46 86 48 87 49 88 50 89
REMARK SMILES IDX 51 90
REMARK H PARENT 9 7 1 18 1 19 1 20 14 24 73 43 41 54
REMARK Flexibility Score: inf
ROOT
ATOM      1  C   UNL A   1      36.073  21.119  25.300  1.00  0.00     0.023 C 
ENDROOT
BRANCH   1   2
ATOM      2  C   UNL A   1      35.405  22.196  26.163  1.00  0.00     0.023 C 
BRANCH   2   3
ATOM      3  C   UNL A   1      34.346  21.661  27.135  1.00  0.00     0.116 C 
BRANCH   3   4
ATOM      4  N   UNL A   1      33.455  20.743  26.449  1.00  0.00    -0.351 N 
ATOM      5  C   UNL A   1      32.531  20.902  25.460  1.00  0.00     0.267 C 
ATOM      6  O   UNL A   1      31.813  19.932  25.210  1.00  0.00    -0.268 OA
ATOM      7  H   UNL A   1      33.534  19.814  26.764  1.00  0.00     0.163 HD
BRANCH   5   8
ATOM      8  C   UNL A   1      32.363  22.186  24.682  1.00  0.00     0.107 C 
ATOM      9  C   UNL A   1      30.829  24.979  25.927  1.00  0.00     0.305 C 
ATOM     10  C   UNL A   1      30.968  23.481  26.383  1.00  0.00     0.289 C 
ATOM     11  C   UNL A   1      31.914  24.600  24.884  1.00  0.00     0.217 C 
ATOM     12  O   UNL A   1      30.495  22.818  27.273  1.00  0.00    -0.267 OA
ATOM     13  N   UNL A   1      31.719  23.221  25.290  1.00  0.00    -0.283 N 
ATOM     14  S   UNL A   1      31.415  24.750  23.149  1.00  0.00    -0.126 SA
ATOM     15  C   UNL A   1      32.699  23.601  22.577  1.00  0.00     0.101 C 
ATOM     16  C   UNL A   1      32.893  22.396  23.459  1.00  0.00     0.016 C 
BRANCH   9  17
ATOM     17  N   UNL A   1      31.375  25.993  26.858  1.00  0.00    -0.345 N 
ATOM     18  H   UNL A   1      32.279  26.318  26.513  1.00  0.00     0.345 HD
ATOM     19  H   UNL A   1      31.493  25.578  27.783  1.00  0.00     0.345 HD
ATOM     20  H   UNL A   1      30.731  26.781  26.918  1.00  0.00     0.345 HD
ENDBRANCH   9  17
ENDBRANCH   5   8
ENDBRANCH   3   4
ENDBRANCH   2   3
ENDBRANCH   1   2
BRANCH   1  21
ATOM     21  C   UNL A   1      37.540  21.375  24.966  1.00  0.00     0.116 C 
BRANCH  21  22
ATOM     22  N   UNL A   1      38.436  20.353  25.487  1.00  0.00    -0.352 N 
ATOM     23  C   UNL A   1      39.582  20.514  26.228  1.00  0.00     0.251 C 
ATOM     24  H   UNL A   1      38.187  19.422  25.281  1.00  0.00     0.163 HD
ATOM     25  O   UNL A   1      40.281  19.543  26.499  1.00  0.00    -0.269 OA
BRANCH  23  26
ATOM     26  C   UNL A   1      39.982  21.868  26.661  1.00  0.00     0.039 A 
ATOM     27  C   UNL A   1      40.989  22.002  27.621  1.00  0.00     0.014 A 
ATOM     28  C   UNL A   1      39.390  23.001  26.095  1.00  0.00     0.014 A 
ATOM     29  C   UNL A   1      41.453  23.273  27.962  1.00  0.00     0.010 A 
ATOM     30  C   UNL A   1      39.901  24.262  26.387  1.00  0.00     0.010 A 
ATOM     31  C   UNL A   1      40.938  24.412  27.321  1.00  0.00    -0.014 A 
BRANCH  31  32
ATOM     32  C   UNL A   1      41.478  25.768  27.596  1.00  0.00     0.031 A 
ATOM     33  C   UNL A   1      42.893  26.109  27.217  1.00  0.00     0.074 A 
ATOM     34  C   UNL A   1      40.725  26.658  28.275  1.00  0.00     0.049 A 
ATOM     35  N   UNL A   1      43.568  27.204  27.452  1.00  0.00    -0.248 NA
ATOM     36  C   UNL A   1      43.661  25.074  26.506  1.00  0.00     0.031 C 
ATOM     37  C   UNL A   1      39.366  26.419  28.765  1.00  0.00     0.029 A 
ATOM     38  N   UNL A   1      41.010  27.932  28.700  1.00  0.00    -0.354 N 
ATOM     39  C   UNL A   1      44.845  26.978  26.953  1.00  0.00     0.074 A 
ATOM     40  C   UNL A   1      44.862  25.629  26.431  1.00  0.00     0.031 C 
ATOM     41  C   UNL A   1      38.936  27.509  29.423  1.00  0.00     0.029 A 
ATOM     42  C   UNL A   1      39.996  28.511  29.429  1.00  0.00     0.049 A 
ATOM     43  H   UNL A   1      41.859  28.390  28.502  1.00  0.00     0.167 HD
ATOM     44  C   UNL A   1      45.900  27.826  26.904  1.00  0.00     0.034 A 
ATOM     45  C   UNL A   1      39.934  29.709  30.043  1.00  0.00     0.034 A 
ATOM     46  C   UNL A   1      45.865  29.181  27.382  1.00  0.00     0.049 A 
ATOM     47  C   UNL A   1      41.107  30.646  29.937  1.00  0.00     0.074 A 
ATOM     48  C   UNL A   1      46.854  30.145  27.306  1.00  0.00     0.029 A 
ATOM     49  N   UNL A   1      44.786  29.765  28.027  1.00  0.00    -0.354 N 
ATOM     50  N   UNL A   1      42.253  30.469  29.325  1.00  0.00    -0.248 NA
ATOM     51  C   UNL A   1      40.967  31.963  30.576  1.00  0.00     0.031 C 
ATOM     52  C   UNL A   1      46.379  31.308  27.921  1.00  0.00     0.029 A 
ATOM     53  C   UNL A   1      45.085  31.076  28.356  1.00  0.00     0.049 A 
ATOM     54  H   UNL A   1      43.933  29.315  28.222  1.00  0.00     0.167 HD
ATOM     55  C   UNL A   1      42.949  31.663  29.466  1.00  0.00     0.074 A 
ATOM     56  C   UNL A   1      42.090  32.564  30.207  1.00  0.00     0.031 C 
ATOM     57  C   UNL A   1      44.194  31.982  29.034  1.00  0.00     0.034 A 
BRANCH  44  58
ATOM     58  C   UNL A   1      47.167  27.334  26.257  1.00  0.00     0.023 A 
ATOM     59  C   UNL A   1      47.412  27.631  24.900  1.00  0.00     0.012 A 
ATOM     60  C   UNL A   1      48.146  26.646  27.001  1.00  0.00     0.148 A 
ATOM     61  C   UNL A   1      48.594  27.223  24.285  1.00  0.00     0.002 A 
ATOM     62  C   UNL A   1      49.342  26.283  26.393  1.00  0.00     0.091 A 
ATOM     63  F   UNL A   1      47.888  26.357  28.285  1.00  0.00    -0.205 F 
ATOM     64  C   UNL A   1      49.563  26.560  25.034  1.00  0.00     0.022 A 
BRANCH  62  65
ATOM     65  S   UNL A   1      50.688  25.496  27.287  1.00  0.00     0.127 S 
ATOM     66  O   UNL A   1      50.059  24.252  27.729  1.00  0.00    -0.237 OA
ATOM     67  O   UNL A   1      51.696  25.331  26.240  1.00  0.00    -0.237 OA
ATOM     68  O   UNL A   1      51.059  26.420  28.349  1.00  0.00    -0.744 OA
ENDBRANCH  62  65
ENDBRANCH  44  58
BRANCH  45  69
ATOM     69  C   UNL A   1      38.691  30.123  30.755  1.00  0.00     0.023 A 
ATOM     70  C   UNL A   1      38.502  29.735  32.096  1.00  0.00     0.012 A 
ATOM     71  C   UNL A   1      37.703  30.902  30.121  1.00  0.00     0.148 A 
ATOM     72  C   UNL A   1      37.337  30.081  32.781  1.00  0.00     0.002 A 
ATOM     73  C   UNL A   1      36.570  31.291  30.827  1.00  0.00     0.091 A 
ATOM     74  F   UNL A   1      37.893  31.251  28.842  1.00  0.00    -0.205 F 
ATOM     75  C   UNL A   1      36.375  30.866  32.150  1.00  0.00     0.022 A 
BRANCH  73  76
ATOM     76  S   UNL A   1      35.346  32.409  30.135  1.00  0.00     0.127 S 
ATOM     77  O   UNL A   1      34.850  31.641  28.996  1.00  0.00    -0.237 OA
ATOM     78  O   UNL A   1      34.400  32.546  31.244  1.00  0.00    -0.237 OA
ATOM     79  O   UNL A   1      36.071  33.630  29.815  1.00  0.00    -0.744 OA
ENDBRANCH  73  76
ENDBRANCH  45  69
BRANCH  57  80
ATOM     80  C   UNL A   1      44.693  33.379  29.298  1.00  0.00     0.023 A 
ATOM     81  C   UNL A   1      45.382  33.665  30.492  1.00  0.00     0.012 A 
ATOM     82  C   UNL A   1      44.549  34.384  28.322  1.00  0.00     0.148 A 
ATOM     83  C   UNL A   1      45.894  34.941  30.724  1.00  0.00     0.002 A 
ATOM     84  C   UNL A   1      45.106  35.639  28.538  1.00  0.00     0.091 A 
ATOM     85  F   UNL A   1      43.874  34.096  27.200  1.00  0.00    -0.205 F 
ATOM     86  C   UNL A   1      45.768  35.922  29.744  1.00  0.00     0.022 A 
BRANCH  84  87
ATOM     87  S   UNL A   1      45.079  36.932  27.292  1.00  0.00     0.127 S 
ATOM     88  O   UNL A   1      43.671  36.938  26.900  1.00  0.00    -0.237 OA
ATOM     89  O   UNL A   1      45.506  38.106  28.054  1.00  0.00    -0.237 OA
ATOM     90  O   UNL A   1      46.014  36.512  26.257  1.00  0.00    -0.744 OA
ENDBRANCH  84  87
ENDBRANCH  57  80
ENDBRANCH  31  32
ENDBRANCH  23  26
ENDBRANCH  21  22
ENDBRANCH   1  21
TORSDOF 15
ENDMDL
MODEL 3
REMARK VINA RESULT:     -11.4      5.274     10.293
REMARK SMILES [NH3+][C@@H]1C(=O)N2C(C(=O)NCCCCNC(=O)c3ccc(-c4c5nc(c(-c6cccc(S(=O)(=O)[O-])c6F)c6ccc([nH]6)c(-c6cccc(S(=O)(=O)[O-])c6F)c6nc(c(-c7cccc(S(=O)(=O)[O-])c7F)c7ccc4[nH]7)C=C6)C=C5)cc3)=CCS[C@@H]12
REMARK SMILES IDX 12 1 11 2 10 3 9 4 7 5 8 6 6 8 2 9 3 10 83 11 4 12 5 13
REMARK SMILES IDX 82 14 81 15 80 16 1 17 13 21 14 22 15 23 16 25 17 26 18 27
REMARK SMILES IDX 79 28 19 29 78 30 20 31 21 32 22 33 72 34 23 35 77 36 71 37
REMARK SMILES IDX 73 38 24 39 76 40 70 41 69 42 25 44 57 45 37 46 56 47 38 48
REMARK SMILES IDX 41 49 55 50 74 51 39 52 40 53 54 55 75 56 42 57 26 58 27 59
REMARK SMILES IDX 35 60 28 61 30 62 36 63 29 64 31 65 32 66 33 67 34 68 58 69
REMARK SMILES IDX 59 70 67 71 60 72 62 73 68 74 61 75 63 76 64 77 65 78 66 79
REMARK SMILES IDX 43 80 44 81 52 82 45 83 47 84 53 85 46 86 48 87 49 88 50 89
REMARK SMILES IDX 51 90
REMARK H PARENT 9 7 1 18 1 19 1 20 14 24 73 43 41 54
REMARK Flexibility Score: inf
ROOT
ATOM      1  C   UNL A   1      35.792  21.836  25.925  1.00  0.00     0.023 C 
ENDROOT
BRANCH   1   2
ATOM      2  C   UNL A   1      34.537  21.215  25.300  1.00  0.00     0.023 C 
BRANCH   2   3
ATOM      3  C   UNL A   1      33.435  22.225  24.960  1.00  0.00     0.116 C 
BRANCH   3   4
ATOM      4  N   UNL A   1      33.843  23.056  23.843  1.00  0.00    -0.351 N 
ATOM      5  C   UNL A   1      33.725  24.387  23.576  1.00  0.00     0.267 C 
ATOM      6  O   UNL A   1      34.039  24.757  22.443  1.00  0.00    -0.268 OA
ATOM      7  H   UNL A   1      34.301  22.554  23.130  1.00  0.00     0.163 HD
BRANCH   5   8
ATOM      8  C   UNL A   1      33.238  25.394  24.590  1.00  0.00     0.107 C 
ATOM      9  C   UNL A   1      29.971  25.693  25.562  1.00  0.00     0.305 C 
ATOM     10  C   UNL A   1      30.734  24.926  24.421  1.00  0.00     0.289 C 
ATOM     11  C   UNL A   1      31.394  25.954  26.126  1.00  0.00     0.217 C 
ATOM     12  O   UNL A   1      30.396  24.272  23.466  1.00  0.00    -0.267 OA
ATOM     13  N   UNL A   1      31.907  25.419  24.878  1.00  0.00    -0.283 N 
ATOM     14  S   UNL A   1      31.883  27.694  26.234  1.00  0.00    -0.126 SA
ATOM     15  C   UNL A   1      33.655  27.298  26.249  1.00  0.00     0.101 C 
ATOM     16  C   UNL A   1      34.056  26.206  25.293  1.00  0.00     0.016 C 
BRANCH   9  17
ATOM     17  N   UNL A   1      29.212  24.850  26.514  1.00  0.00    -0.345 N 
ATOM     18  H   UNL A   1      29.012  23.947  26.084  1.00  0.00     0.345 HD
ATOM     19  H   UNL A   1      28.336  25.314  26.755  1.00  0.00     0.345 HD
ATOM     20  H   UNL A   1      29.766  24.709  27.359  1.00  0.00     0.345 HD
ENDBRANCH   9  17
ENDBRANCH   5   8
ENDBRANCH   3   4
ENDBRANCH   2   3
ENDBRANCH   1   2
BRANCH   1  21
ATOM     21  C   UNL A   1      37.038  21.805  25.043  1.00  0.00     0.116 C 
BRANCH  21  22
ATOM     22  N   UNL A   1      37.981  20.760  25.417  1.00  0.00    -0.352 N 
ATOM     23  C   UNL A   1      39.197  20.887  26.044  1.00  0.00     0.251 C 
ATOM     24  H   UNL A   1      37.711  19.840  25.191  1.00  0.00     0.163 HD
ATOM     25  O   UNL A   1      39.919  19.906  26.191  1.00  0.00    -0.269 OA
BRANCH  23  26
ATOM     26  C   UNL A   1      39.642  22.219  26.502  1.00  0.00     0.039 A 
ATOM     27  C   UNL A   1      40.669  22.302  27.446  1.00  0.00     0.014 A 
ATOM     28  C   UNL A   1      39.072  23.381  25.975  1.00  0.00     0.014 A 
ATOM     29  C   UNL A   1      41.174  23.551  27.810  1.00  0.00     0.010 A 
ATOM     30  C   UNL A   1      39.623  24.620  26.287  1.00  0.00     0.010 A 
ATOM     31  C   UNL A   1      40.680  24.720  27.206  1.00  0.00    -0.014 A 
BRANCH  31  32
ATOM     32  C   UNL A   1      41.261  26.053  27.504  1.00  0.00     0.031 A 
ATOM     33  C   UNL A   1      42.669  26.374  27.083  1.00  0.00     0.074 A 
ATOM     34  C   UNL A   1      40.555  26.937  28.238  1.00  0.00     0.049 A 
ATOM     35  N   UNL A   1      43.378  27.445  27.328  1.00  0.00    -0.248 NA
ATOM     36  C   UNL A   1      43.386  25.345  26.311  1.00  0.00     0.031 C 
ATOM     37  C   UNL A   1      39.210  26.713  28.771  1.00  0.00     0.029 A 
ATOM     38  N   UNL A   1      40.886  28.189  28.692  1.00  0.00    -0.354 N 
ATOM     39  C   UNL A   1      44.630  27.207  26.774  1.00  0.00     0.074 A 
ATOM     40  C   UNL A   1      44.596  25.875  26.210  1.00  0.00     0.031 C 
ATOM     41  C   UNL A   1      38.830  27.790  29.478  1.00  0.00     0.029 A 
ATOM     42  C   UNL A   1      39.914  28.767  29.477  1.00  0.00     0.049 A 
ATOM     43  H   UNL A   1      41.738  28.634  28.477  1.00  0.00     0.167 HD
ATOM     44  C   UNL A   1      45.703  28.031  26.713  1.00  0.00     0.034 A 
ATOM     45  C   UNL A   1      39.902  29.946  30.130  1.00  0.00     0.034 A 
ATOM     46  C   UNL A   1      45.717  29.371  27.235  1.00  0.00     0.049 A 
ATOM     47  C   UNL A   1      41.092  30.859  30.011  1.00  0.00     0.074 A 
ATOM     48  C   UNL A   1      46.726  30.314  27.153  1.00  0.00     0.029 A 
ATOM     49  N   UNL A   1      44.677  29.958  27.938  1.00  0.00    -0.354 N 
ATOM     50  N   UNL A   1      42.210  30.676  29.351  1.00  0.00    -0.248 NA
ATOM     51  C   UNL A   1      41.007  32.157  30.696  1.00  0.00     0.031 C 
ATOM     52  C   UNL A   1      46.302  31.467  27.822  1.00  0.00     0.029 A 
ATOM     53  C   UNL A   1      45.020  31.250  28.297  1.00  0.00     0.049 A 
ATOM     54  H   UNL A   1      43.821  29.521  28.151  1.00  0.00     0.167 HD
ATOM     55  C   UNL A   1      42.940  31.849  29.504  1.00  0.00     0.074 A 
ATOM     56  C   UNL A   1      42.130  32.744  30.305  1.00  0.00     0.031 C 
ATOM     57  C   UNL A   1      44.175  32.154  29.036  1.00  0.00     0.034 A 
BRANCH  44  58
ATOM     58  C   UNL A   1      46.933  27.533  26.004  1.00  0.00     0.023 A 
ATOM     59  C   UNL A   1      47.846  26.710  26.697  1.00  0.00     0.012 A 
ATOM     60  C   UNL A   1      47.153  27.812  24.641  1.00  0.00     0.148 A 
ATOM     61  C   UNL A   1      48.974  26.201  26.054  1.00  0.00     0.002 A 
ATOM     62  C   UNL A   1      48.255  27.263  23.995  1.00  0.00     0.091 A 
ATOM     63  F   UNL A   1      46.284  28.611  24.004  1.00  0.00    -0.205 F 
ATOM     64  C   UNL A   1      49.171  26.468  24.702  1.00  0.00     0.022 A 
BRANCH  62  65
ATOM     65  S   UNL A   1      48.559  27.480  22.237  1.00  0.00     0.127 S 
ATOM     66  O   UNL A   1      47.293  28.058  21.789  1.00  0.00    -0.237 OA
ATOM     67  O   UNL A   1      49.688  28.410  22.235  1.00  0.00    -0.237 OA
ATOM     68  O   UNL A   1      48.860  26.155  21.715  1.00  0.00    -0.744 OA
ENDBRANCH  62  65
ENDBRANCH  44  58
BRANCH  45  69
ATOM     69  C   UNL A   1      38.696  30.364  30.901  1.00  0.00     0.023 A 
ATOM     70  C   UNL A   1      38.595  30.023  32.264  1.00  0.00     0.012 A 
ATOM     71  C   UNL A   1      37.657  31.102  30.301  1.00  0.00     0.148 A 
ATOM     72  C   UNL A   1      37.467  30.374  33.006  1.00  0.00     0.002 A 
ATOM     73  C   UNL A   1      36.561  31.497  31.060  1.00  0.00     0.091 A 
ATOM     74  F   UNL A   1      37.763  31.406  29.000  1.00  0.00    -0.205 F 
ATOM     75  C   UNL A   1      36.454  31.118  32.407  1.00  0.00     0.022 A 
BRANCH  73  76
ATOM     76  S   UNL A   1      35.276  32.567  30.404  1.00  0.00     0.127 S 
ATOM     77  O   UNL A   1      34.777  31.781  29.279  1.00  0.00    -0.237 OA
ATOM     78  O   UNL A   1      34.358  32.670  31.539  1.00  0.00    -0.237 OA
ATOM     79  O   UNL A   1      35.945  33.815  30.063  1.00  0.00    -0.744 OA
ENDBRANCH  73  76
ENDBRANCH  45  69
BRANCH  57  80
ATOM     80  C   UNL A   1      44.717  33.529  29.326  1.00  0.00     0.023 A 
ATOM     81  C   UNL A   1      45.515  33.744  30.466  1.00  0.00     0.012 A 
ATOM     82  C   UNL A   1      44.501  34.586  28.420  1.00  0.00     0.148 A 
ATOM     83  C   UNL A   1      46.065  35.001  30.716  1.00  0.00     0.002 A 
ATOM     84  C   UNL A   1      45.093  35.822  28.650  1.00  0.00     0.091 A 
ATOM     85  F   UNL A   1      43.723  34.364  27.351  1.00  0.00    -0.205 F 
ATOM     86  C   UNL A   1      45.866  36.034  29.804  1.00  0.00     0.022 A 
BRANCH  84  87
ATOM     87  S   UNL A   1      44.973  37.180  27.480  1.00  0.00     0.127 S 
ATOM     88  O   UNL A   1      45.354  38.322  28.310  1.00  0.00    -0.237 OA
ATOM     89  O   UNL A   1      45.959  36.805  26.467  1.00  0.00    -0.237 OA
ATOM     90  O   UNL A   1      43.594  37.183  27.009  1.00  0.00    -0.744 OA
ENDBRANCH  84  87
ENDBRANCH  57  80
ENDBRANCH  31  32
ENDBRANCH  23  26
ENDBRANCH  21  22
ENDBRANCH   1  21
TORSDOF 15
ENDMDL
