MODEL 1
REMARK VINA RESULT:     -12.0      0.000      0.000
REMARK SMILES CCSc1cccc(-c2ccc([C@@H](C)C(=O)NCCCCNC(=O)c3ccc(-c4c5nc(c(-c6cccc(S(=O)(=O)[O-])c6F)c6ccc([nH]6)c(-c6cccc(S(=O)(=O)[O-])c6F)c6nc(c(-c7cccc(S(=O)(=O)[O-])c7F)c7ccc4[nH]7)C=C6)C=C5)cc3)cc2)c1
REMARK SMILES IDX 19 1 18 2 17 3 15 4 16 5 13 7 14 8 12 9 9 10 10 11 89 12
REMARK SMILES IDX 11 13 88 14 8 15 4 16 5 17 90 18 6 19 7 20 3 21 2 22 1 23
REMARK SMILES IDX 20 24 21 25 22 26 23 27 24 29 25 30 26 31 87 32 27 33 86 34
REMARK SMILES IDX 28 35 29 36 30 37 80 38 31 39 85 40 79 41 81 42 32 43 84 44
REMARK SMILES IDX 78 45 77 46 33 48 65 49 45 50 64 51 46 52 49 53 63 54 82 55
REMARK SMILES IDX 47 56 48 57 62 59 83 60 50 61 34 62 35 63 43 64 36 65 38 66
REMARK SMILES IDX 44 67 37 68 39 69 40 70 41 71 42 72 66 73 67 74 75 75 68 76
REMARK SMILES IDX 70 77 76 78 69 79 71 80 72 81 73 82 74 83 51 84 52 85 60 86
REMARK SMILES IDX 53 87 55 88 61 89 54 90 56 91 57 92 58 93 59 94
REMARK H PARENT 17 6 22 28 81 47 49 58
REMARK Flexibility Score: inf
ROOT
ATOM      1  C   UNL A   1      32.150  29.386  27.316  1.00  0.00     0.023 C 
ENDROOT
BRANCH   1   2
ATOM      2  C   UNL A   1      32.339  28.201  26.369  1.00  0.00     0.116 C 
BRANCH   2   3
ATOM      3  N   UNL A   1      31.676  28.396  25.095  1.00  0.00    -0.356 N 
ATOM      4  C   UNL A   1      32.113  28.245  23.815  1.00  0.00     0.227 C 
ATOM      5  O   UNL A   1      31.308  28.516  22.916  1.00  0.00    -0.274 OA
ATOM      6  H   UNL A   1      30.739  28.691  25.169  1.00  0.00     0.163 HD
BRANCH   4   7
ATOM      7  C   UNL A   1      33.517  27.743  23.444  1.00  0.00     0.105 C 
ATOM      8  C   UNL A   1      33.991  28.204  22.064  1.00  0.00     0.023 C 
BRANCH   7   9
ATOM      9  C   UNL A   1      33.747  26.277  23.779  1.00  0.00    -0.036 A 
ATOM     10  C   UNL A   1      34.323  23.516  24.274  1.00  0.00    -0.018 A 
ATOM     11  C   UNL A   1      34.526  24.508  25.250  1.00  0.00     0.009 A 
ATOM     12  C   UNL A   1      33.798  23.941  23.045  1.00  0.00     0.009 A 
ATOM     13  C   UNL A   1      34.212  25.852  25.023  1.00  0.00     0.005 A 
ATOM     14  C   UNL A   1      33.532  25.298  22.795  1.00  0.00     0.005 A 
BRANCH  10  15
ATOM     15  C   UNL A   1      34.681  22.102  24.551  1.00  0.00    -0.017 A 
ATOM     16  C   UNL A   1      34.084  19.729  24.779  1.00  0.00     0.008 A 
ATOM     17  C   UNL A   1      35.434  19.399  24.876  1.00  0.00     0.015 A 
ATOM     18  C   UNL A   1      33.718  21.074  24.597  1.00  0.00     0.023 A 
ATOM     19  C   UNL A   1      36.404  20.394  24.866  1.00  0.00     0.002 A 
ATOM     20  C   UNL A   1      36.028  21.727  24.724  1.00  0.00     0.009 A 
BRANCH  16  21
ATOM     21  S   UNL A   1      32.816  18.470  24.779  1.00  0.00    -0.126 SA
BRANCH  21  22
ATOM     22  C   UNL A   1      32.978  17.769  23.098  1.00  0.00     0.071 C 
ATOM     23  C   UNL A   1      33.958  16.607  23.041  1.00  0.00     0.016 C 
ENDBRANCH  21  22
ENDBRANCH  16  21
ENDBRANCH  10  15
ENDBRANCH   7   9
ENDBRANCH   4   7
ENDBRANCH   2   3
ENDBRANCH   1   2
BRANCH   1  24
ATOM     24  C   UNL A   1      32.381  30.760  26.688  1.00  0.00     0.023 C 
BRANCH  24  25
ATOM     25  C   UNL A   1      33.235  31.725  27.506  1.00  0.00     0.116 C 
BRANCH  25  26
ATOM     26  N   UNL A   1      32.693  33.076  27.594  1.00  0.00    -0.352 N 
ATOM     27  C   UNL A   1      33.117  34.111  28.401  1.00  0.00     0.251 C 
ATOM     28  H   UNL A   1      31.931  33.274  27.002  1.00  0.00     0.163 HD
ATOM     29  O   UNL A   1      32.521  35.180  28.411  1.00  0.00    -0.269 OA
BRANCH  27  30
ATOM     30  C   UNL A   1      34.275  33.886  29.292  1.00  0.00     0.039 A 
ATOM     31  C   UNL A   1      34.097  33.137  30.457  1.00  0.00     0.014 A 
ATOM     32  C   UNL A   1      35.545  34.333  28.921  1.00  0.00     0.014 A 
ATOM     33  C   UNL A   1      35.213  32.747  31.201  1.00  0.00     0.010 A 
ATOM     34  C   UNL A   1      36.657  33.888  29.625  1.00  0.00     0.010 A 
ATOM     35  C   UNL A   1      36.504  33.074  30.759  1.00  0.00    -0.014 A 
BRANCH  35  36
ATOM     36  C   UNL A   1      37.718  32.531  31.418  1.00  0.00     0.031 A 
ATOM     37  C   UNL A   1      38.464  31.384  30.797  1.00  0.00     0.074 A 
ATOM     38  C   UNL A   1      38.064  32.978  32.642  1.00  0.00     0.049 A 
ATOM     39  N   UNL A   1      39.457  30.688  31.284  1.00  0.00    -0.248 NA
ATOM     40  C   UNL A   1      38.013  30.941  29.468  1.00  0.00     0.031 C 
ATOM     41  C   UNL A   1      37.366  34.029  33.388  1.00  0.00     0.029 A 
ATOM     42  N   UNL A   1      39.062  32.576  33.496  1.00  0.00    -0.354 N 
ATOM     43  C   UNL A   1      39.723  29.699  30.345  1.00  0.00     0.074 A 
ATOM     44  C   UNL A   1      38.770  29.871  29.268  1.00  0.00     0.031 C 
ATOM     45  C   UNL A   1      37.952  34.183  34.586  1.00  0.00     0.029 A 
ATOM     46  C   UNL A   1      39.043  33.222  34.710  1.00  0.00     0.049 A 
ATOM     47  H   UNL A   1      39.727  31.889  33.261  1.00  0.00     0.167 HD
ATOM     48  C   UNL A   1      40.691  28.753  30.362  1.00  0.00     0.034 A 
ATOM     49  C   UNL A   1      39.809  33.052  35.807  1.00  0.00     0.034 A 
ATOM     50  C   UNL A   1      41.675  28.627  31.401  1.00  0.00     0.049 A 
ATOM     51  C   UNL A   1      40.901  32.017  35.783  1.00  0.00     0.074 A 
ATOM     52  C   UNL A   1      42.771  27.783  31.449  1.00  0.00     0.029 A 
ATOM     53  N   UNL A   1      41.681  29.358  32.578  1.00  0.00    -0.354 N 
ATOM     54  N   UNL A   1      41.250  31.210  34.811  1.00  0.00    -0.248 NA
ATOM     55  C   UNL A   1      41.719  31.885  36.998  1.00  0.00     0.031 C 
ATOM     56  C   UNL A   1      43.434  27.998  32.662  1.00  0.00     0.029 A 
ATOM     57  C   UNL A   1      42.752  28.976  33.367  1.00  0.00     0.049 A 
ATOM     58  H   UNL A   1      41.020  30.048  32.817  1.00  0.00     0.167 HD
ATOM     59  C   UNL A   1      42.339  30.490  35.286  1.00  0.00     0.074 A 
ATOM     60  C   UNL A   1      42.609  30.973  36.624  1.00  0.00     0.031 C 
ATOM     61  C   UNL A   1      43.039  29.501  34.677  1.00  0.00     0.034 A 
BRANCH  48  62
ATOM     62  C   UNL A   1      40.778  27.825  29.181  1.00  0.00     0.023 A 
ATOM     63  C   UNL A   1      39.954  26.681  29.144  1.00  0.00     0.012 A 
ATOM     64  C   UNL A   1      41.624  28.105  28.091  1.00  0.00     0.148 A 
ATOM     65  C   UNL A   1      39.992  25.814  28.053  1.00  0.00     0.002 A 
ATOM     66  C   UNL A   1      41.629  27.256  26.991  1.00  0.00     0.091 A 
ATOM     67  F   UNL A   1      42.418  29.183  28.158  1.00  0.00    -0.205 F 
ATOM     68  C   UNL A   1      40.821  26.107  26.974  1.00  0.00     0.022 A 
BRANCH  66  69
ATOM     69  S   UNL A   1      42.615  27.583  25.525  1.00  0.00     0.127 S 
ATOM     70  O   UNL A   1      43.967  27.614  26.081  1.00  0.00    -0.237 OA
ATOM     71  O   UNL A   1      42.328  26.415  24.690  1.00  0.00    -0.237 OA
ATOM     72  O   UNL A   1      42.124  28.844  24.990  1.00  0.00    -0.744 OA
ENDBRANCH  66  69
ENDBRANCH  48  62
BRANCH  49  73
ATOM     73  C   UNL A   1      39.608  33.927  36.996  1.00  0.00     0.023 A 
ATOM     74  C   UNL A   1      40.027  35.270  36.936  1.00  0.00     0.012 A 
ATOM     75  C   UNL A   1      38.976  33.455  38.162  1.00  0.00     0.148 A 
ATOM     76  C   UNL A   1      39.839  36.123  38.025  1.00  0.00     0.002 A 
ATOM     77  C   UNL A   1      38.747  34.323  39.224  1.00  0.00     0.091 A 
ATOM     78  F   UNL A   1      38.603  32.169  38.208  1.00  0.00    -0.205 F 
ATOM     79  C   UNL A   1      39.190  35.653  39.163  1.00  0.00     0.022 A 
BRANCH  77  80
ATOM     80  S   UNL A   1      37.805  33.833  40.673  1.00  0.00     0.127 S 
ATOM     81  O   UNL A   1      38.733  32.926  41.341  1.00  0.00    -0.237 OA
ATOM     82  O   UNL A   1      37.597  35.113  41.352  1.00  0.00    -0.237 OA
ATOM     83  O   UNL A   1      36.585  33.231  40.153  1.00  0.00    -0.744 OA
ENDBRANCH  77  80
ENDBRANCH  49  73
BRANCH  61  84
ATOM     84  C   UNL A   1      44.170  28.871  35.443  1.00  0.00     0.023 A 
ATOM     85  C   UNL A   1      45.466  29.409  35.322  1.00  0.00     0.012 A 
ATOM     86  C   UNL A   1      43.936  27.818  36.348  1.00  0.00     0.148 A 
ATOM     87  C   UNL A   1      46.518  28.896  36.080  1.00  0.00     0.002 A 
ATOM     88  C   UNL A   1      44.982  27.340  37.130  1.00  0.00     0.091 A 
ATOM     89  F   UNL A   1      42.698  27.310  36.433  1.00  0.00    -0.205 F 
ATOM     90  C   UNL A   1      46.274  27.872  36.992  1.00  0.00     0.022 A 
BRANCH  88  91
ATOM     91  S   UNL A   1      44.745  26.083  38.393  1.00  0.00     0.127 S 
ATOM     92  O   UNL A   1      44.223  24.966  37.607  1.00  0.00    -0.237 OA
ATOM     93  O   UNL A   1      46.105  25.890  38.898  1.00  0.00    -0.237 OA
ATOM     94  O   UNL A   1      43.818  26.656  39.360  1.00  0.00    -0.744 OA
ENDBRANCH  88  91
ENDBRANCH  61  84
ENDBRANCH  35  36
ENDBRANCH  27  30
ENDBRANCH  25  26
ENDBRANCH  24  25
ENDBRANCH   1  24
TORSDOF 18
ENDMDL
MODEL 2
REMARK VINA RESULT:     -12.0      3.419      8.621
REMARK SMILES CCSc1cccc(-c2ccc([C@@H](C)C(=O)NCCCCNC(=O)c3ccc(-c4c5nc(c(-c6cccc(S(=O)(=O)[O-])c6F)c6ccc([nH]6)c(-c6cccc(S(=O)(=O)[O-])c6F)c6nc(c(-c7cccc(S(=O)(=O)[O-])c7F)c7ccc4[nH]7)C=C6)C=C5)cc3)cc2)c1
REMARK SMILES IDX 19 1 18 2 17 3 15 4 16 5 13 7 14 8 12 9 9 10 10 11 89 12
REMARK SMILES IDX 11 13 88 14 8 15 4 16 5 17 90 18 6 19 7 20 3 21 2 22 1 23
REMARK SMILES IDX 20 24 21 25 22 26 23 27 24 29 25 30 26 31 87 32 27 33 86 34
REMARK SMILES IDX 28 35 29 36 30 37 80 38 31 39 85 40 79 41 81 42 32 43 84 44
REMARK SMILES IDX 78 45 77 46 33 48 65 49 45 50 64 51 46 52 49 53 63 54 82 55
REMARK SMILES IDX 47 56 48 57 62 59 83 60 50 61 34 62 35 63 43 64 36 65 38 66
REMARK SMILES IDX 44 67 37 68 39 69 40 70 41 71 42 72 66 73 67 74 75 75 68 76
REMARK SMILES IDX 70 77 76 78 69 79 71 80 72 81 73 82 74 83 51 84 52 85 60 86
REMARK SMILES IDX 53 87 55 88 61 89 54 90 56 91 57 92 58 93 59 94
REMARK H PARENT 17 6 22 28 81 47 49 58
REMARK Flexibility Score: inf
ROOT
ATOM      1  C   UNL A   1      31.411  28.857  26.650  1.00  0.00     0.023 C 
ENDROOT
BRANCH   1   2
ATOM      2  C   UNL A   1      31.406  29.667  25.354  1.00  0.00     0.116 C 
BRANCH   2   3
ATOM      3  N   UNL A   1      31.000  28.879  24.208  1.00  0.00    -0.356 N 
ATOM      4  C   UNL A   1      31.714  28.112  23.339  1.00  0.00     0.227 C 
ATOM      5  O   UNL A   1      31.081  27.568  22.426  1.00  0.00    -0.274 OA
ATOM      6  H   UNL A   1      30.033  28.902  24.024  1.00  0.00     0.163 HD
BRANCH   4   7
ATOM      7  C   UNL A   1      33.228  27.876  23.451  1.00  0.00     0.105 C 
ATOM      8  C   UNL A   1      34.039  28.543  22.338  1.00  0.00     0.023 C 
BRANCH   7   9
ATOM      9  C   UNL A   1      33.597  26.437  23.781  1.00  0.00    -0.036 A 
ATOM     10  C   UNL A   1      34.448  23.750  24.288  1.00  0.00    -0.018 A 
ATOM     11  C   UNL A   1      34.397  24.722  25.303  1.00  0.00     0.009 A 
ATOM     12  C   UNL A   1      34.036  24.154  23.010  1.00  0.00     0.009 A 
ATOM     13  C   UNL A   1      33.947  26.025  25.066  1.00  0.00     0.005 A 
ATOM     14  C   UNL A   1      33.635  25.477  22.756  1.00  0.00     0.005 A 
BRANCH  10  15
ATOM     15  C   UNL A   1      34.944  22.382  24.579  1.00  0.00    -0.017 A 
ATOM     16  C   UNL A   1      34.583  19.962  24.826  1.00  0.00     0.008 A 
ATOM     17  C   UNL A   1      35.959  19.769  24.932  1.00  0.00     0.015 A 
ATOM     18  C   UNL A   1      34.087  21.263  24.630  1.00  0.00     0.023 A 
ATOM     19  C   UNL A   1      36.826  20.855  24.918  1.00  0.00     0.002 A 
ATOM     20  C   UNL A   1      36.320  22.144  24.762  1.00  0.00     0.009 A 
BRANCH  16  21
ATOM     21  S   UNL A   1      33.448  18.583  24.832  1.00  0.00    -0.126 SA
BRANCH  21  22
ATOM     22  C   UNL A   1      32.307  19.026  23.474  1.00  0.00     0.071 C 
ATOM     23  C   UNL A   1      32.447  18.107  22.270  1.00  0.00     0.016 C 
ENDBRANCH  21  22
ENDBRANCH  16  21
ENDBRANCH  10  15
ENDBRANCH   7   9
ENDBRANCH   4   7
ENDBRANCH   2   3
ENDBRANCH   1   2
BRANCH   1  24
ATOM     24  C   UNL A   1      32.792  28.617  27.260  1.00  0.00     0.023 C 
BRANCH  24  25
ATOM     25  C   UNL A   1      33.879  29.601  26.840  1.00  0.00     0.116 C 
BRANCH  25  26
ATOM     26  N   UNL A   1      33.894  30.840  27.610  1.00  0.00    -0.352 N 
ATOM     27  C   UNL A   1      34.856  31.279  28.495  1.00  0.00     0.251 C 
ATOM     28  H   UNL A   1      33.121  31.437  27.482  1.00  0.00     0.163 HD
ATOM     29  O   UNL A   1      34.703  32.320  29.120  1.00  0.00    -0.269 OA
BRANCH  27  30
ATOM     30  C   UNL A   1      36.056  30.442  28.711  1.00  0.00     0.039 A 
ATOM     31  C   UNL A   1      37.141  30.580  27.842  1.00  0.00     0.014 A 
ATOM     32  C   UNL A   1      36.137  29.603  29.823  1.00  0.00     0.014 A 
ATOM     33  C   UNL A   1      38.350  29.951  28.149  1.00  0.00     0.010 A 
ATOM     34  C   UNL A   1      37.358  29.031  30.160  1.00  0.00     0.010 A 
ATOM     35  C   UNL A   1      38.482  29.217  29.338  1.00  0.00    -0.014 A 
BRANCH  35  36
ATOM     36  C   UNL A   1      39.792  28.683  29.788  1.00  0.00     0.031 A 
ATOM     37  C   UNL A   1      40.567  29.393  30.861  1.00  0.00     0.074 A 
ATOM     38  C   UNL A   1      40.344  27.643  29.131  1.00  0.00     0.049 A 
ATOM     39  N   UNL A   1      41.780  29.163  31.291  1.00  0.00    -0.248 NA
ATOM     40  C   UNL A   1      39.903  30.531  31.517  1.00  0.00     0.031 C 
ATOM     41  C   UNL A   1      39.728  26.923  28.013  1.00  0.00     0.029 A 
ATOM     42  N   UNL A   1      41.568  27.036  29.278  1.00  0.00    -0.354 N 
ATOM     43  C   UNL A   1      42.042  30.149  32.232  1.00  0.00     0.074 A 
ATOM     44  C   UNL A   1      40.870  30.996  32.296  1.00  0.00     0.031 C 
ATOM     45  C   UNL A   1      40.576  25.981  27.573  1.00  0.00     0.029 A 
ATOM     46  C   UNL A   1      41.809  26.048  28.352  1.00  0.00     0.049 A 
ATOM     47  H   UNL A   1      42.212  27.286  29.979  1.00  0.00     0.167 HD
ATOM     48  C   UNL A   1      43.146  30.318  32.997  1.00  0.00     0.034 A 
ATOM     49  C   UNL A   1      42.904  25.291  28.141  1.00  0.00     0.034 A 
ATOM     50  C   UNL A   1      44.282  29.437  32.977  1.00  0.00     0.049 A 
ATOM     51  C   UNL A   1      44.104  25.477  29.031  1.00  0.00     0.074 A 
ATOM     52  C   UNL A   1      45.394  29.451  33.800  1.00  0.00     0.029 A 
ATOM     53  N   UNL A   1      44.455  28.391  32.086  1.00  0.00    -0.354 N 
ATOM     54  N   UNL A   1      44.264  26.302  30.037  1.00  0.00    -0.248 NA
ATOM     55  C   UNL A   1      45.265  24.612  28.771  1.00  0.00     0.031 C 
ATOM     56  C   UNL A   1      46.246  28.416  33.398  1.00  0.00     0.029 A 
ATOM     57  C   UNL A   1      45.663  27.759  32.328  1.00  0.00     0.049 A 
ATOM     58  H   UNL A   1      43.814  28.135  31.384  1.00  0.00     0.167 HD
ATOM     59  C   UNL A   1      45.531  26.043  30.544  1.00  0.00     0.074 A 
ATOM     60  C   UNL A   1      46.088  24.967  29.750  1.00  0.00     0.031 C 
ATOM     61  C   UNL A   1      46.184  26.656  31.562  1.00  0.00     0.034 A 
BRANCH  48  62
ATOM     62  C   UNL A   1      43.148  31.461  33.975  1.00  0.00     0.023 A 
ATOM     63  C   UNL A   1      43.676  32.706  33.577  1.00  0.00     0.012 A 
ATOM     64  C   UNL A   1      42.583  31.325  35.258  1.00  0.00     0.148 A 
ATOM     65  C   UNL A   1      43.669  33.791  34.452  1.00  0.00     0.002 A 
ATOM     66  C   UNL A   1      42.547  32.423  36.110  1.00  0.00     0.091 A 
ATOM     67  F   UNL A   1      42.110  30.126  35.627  1.00  0.00    -0.205 F 
ATOM     68  C   UNL A   1      43.096  33.653  35.713  1.00  0.00     0.022 A 
BRANCH  66  69
ATOM     69  S   UNL A   1      41.772  32.360  37.730  1.00  0.00     0.127 S 
ATOM     70  O   UNL A   1      40.400  31.987  37.386  1.00  0.00    -0.237 OA
ATOM     71  O   UNL A   1      42.538  31.309  38.402  1.00  0.00    -0.237 OA
ATOM     72  O   UNL A   1      41.938  33.688  38.301  1.00  0.00    -0.744 OA
ENDBRANCH  66  69
ENDBRANCH  48  62
BRANCH  49  73
ATOM     73  C   UNL A   1      42.891  24.244  27.081  1.00  0.00     0.023 A 
ATOM     74  C   UNL A   1      43.562  24.491  25.868  1.00  0.00     0.012 A 
ATOM     75  C   UNL A   1      42.259  23.002  27.277  1.00  0.00     0.148 A 
ATOM     76  C   UNL A   1      43.585  23.527  24.859  1.00  0.00     0.002 A 
ATOM     77  C   UNL A   1      42.328  22.027  26.287  1.00  0.00     0.091 A 
ATOM     78  F   UNL A   1      41.609  22.793  28.430  1.00  0.00    -0.205 F 
ATOM     79  C   UNL A   1      42.979  22.292  25.073  1.00  0.00     0.022 A 
BRANCH  77  80
ATOM     80  S   UNL A   1      41.685  20.368  26.535  1.00  0.00     0.127 S 
ATOM     81  O   UNL A   1      42.366  19.962  27.760  1.00  0.00    -0.237 OA
ATOM     82  O   UNL A   1      40.249  20.614  26.680  1.00  0.00    -0.237 OA
ATOM     83  O   UNL A   1      42.043  19.632  25.330  1.00  0.00    -0.744 OA
ENDBRANCH  77  80
ENDBRANCH  49  73
BRANCH  61  84
ATOM     84  C   UNL A   1      47.575  26.184  31.887  1.00  0.00     0.023 A 
ATOM     85  C   UNL A   1      48.669  26.738  31.194  1.00  0.00     0.012 A 
ATOM     86  C   UNL A   1      47.806  25.271  32.935  1.00  0.00     0.148 A 
ATOM     87  C   UNL A   1      49.973  26.377  31.528  1.00  0.00     0.002 A 
ATOM     88  C   UNL A   1      49.111  24.949  33.289  1.00  0.00     0.091 A 
ATOM     89  F   UNL A   1      46.748  24.744  33.568  1.00  0.00    -0.205 F 
ATOM     90  C   UNL A   1      50.195  25.494  32.582  1.00  0.00     0.022 A 
BRANCH  88  91
ATOM     91  S   UNL A   1      49.496  23.889  34.688  1.00  0.00     0.127 S 
ATOM     92  O   UNL A   1      50.957  23.934  34.702  1.00  0.00    -0.237 OA
ATOM     93  O   UNL A   1      48.853  24.593  35.798  1.00  0.00    -0.237 OA
ATOM     94  O   UNL A   1      48.913  22.589  34.380  1.00  0.00    -0.744 OA
ENDBRANCH  88  91
ENDBRANCH  61  84
ENDBRANCH  35  36
ENDBRANCH  27  30
ENDBRANCH  25  26
ENDBRANCH  24  25
ENDBRANCH   1  24
TORSDOF 18
ENDMDL
MODEL 3
REMARK VINA RESULT:     -12.0      1.427      2.129
REMARK SMILES CCSc1cccc(-c2ccc([C@@H](C)C(=O)NCCCCNC(=O)c3ccc(-c4c5nc(c(-c6cccc(S(=O)(=O)[O-])c6F)c6ccc([nH]6)c(-c6cccc(S(=O)(=O)[O-])c6F)c6nc(c(-c7cccc(S(=O)(=O)[O-])c7F)c7ccc4[nH]7)C=C6)C=C5)cc3)cc2)c1
REMARK SMILES IDX 19 1 18 2 17 3 15 4 16 5 13 7 14 8 12 9 9 10 10 11 89 12
REMARK SMILES IDX 11 13 88 14 8 15 4 16 5 17 90 18 6 19 7 20 3 21 2 22 1 23
REMARK SMILES IDX 20 24 21 25 22 26 23 27 24 29 25 30 26 31 87 32 27 33 86 34
REMARK SMILES IDX 28 35 29 36 30 37 80 38 31 39 85 40 79 41 81 42 32 43 84 44
REMARK SMILES IDX 78 45 77 46 33 48 65 49 45 50 64 51 46 52 49 53 63 54 82 55
REMARK SMILES IDX 47 56 48 57 62 59 83 60 50 61 34 62 35 63 43 64 36 65 38 66
REMARK SMILES IDX 44 67 37 68 39 69 40 70 41 71 42 72 66 73 67 74 75 75 68 76
REMARK SMILES IDX 70 77 76 78 69 79 71 80 72 81 73 82 74 83 51 84 52 85 60 86
REMARK SMILES IDX 53 87 55 88 61 89 54 90 56 91 57 92 58 93 59 94
REMARK H PARENT 17 6 22 28 81 47 49 58
REMARK Flexibility Score: inf
ROOT
ATOM      1  C   UNL A   1      31.613  30.749  25.816  1.00  0.00     0.023 C 
ENDROOT
BRANCH   1   2
ATOM      2  C   UNL A   1      31.346  29.473  25.019  1.00  0.00     0.116 C 
BRANCH   2   3
ATOM      3  N   UNL A   1      31.008  29.742  23.636  1.00  0.00    -0.356 N 
ATOM      4  C   UNL A   1      30.285  29.032  22.727  1.00  0.00     0.227 C 
ATOM      5  O   UNL A   1      30.188  29.517  21.592  1.00  0.00    -0.274 OA
ATOM      6  H   UNL A   1      31.366  30.592  23.292  1.00  0.00     0.163 HD
BRANCH   4   7
ATOM      7  C   UNL A   1      29.580  27.705  23.042  1.00  0.00     0.105 C 
ATOM      8  C   UNL A   1      28.146  27.873  23.550  1.00  0.00     0.023 C 
BRANCH   7   9
ATOM      9  C   UNL A   1      30.452  26.719  23.807  1.00  0.00    -0.036 A 
ATOM     10  C   UNL A   1      31.948  24.735  25.230  1.00  0.00    -0.018 A 
ATOM     11  C   UNL A   1      32.357  25.222  23.976  1.00  0.00     0.009 A 
ATOM     12  C   UNL A   1      30.777  25.289  25.768  1.00  0.00     0.009 A 
ATOM     13  C   UNL A   1      31.647  26.217  23.295  1.00  0.00     0.005 A 
ATOM     14  C   UNL A   1      30.033  26.250  25.062  1.00  0.00     0.005 A 
BRANCH  10  15
ATOM     15  C   UNL A   1      32.723  23.670  25.914  1.00  0.00    -0.017 A 
ATOM     16  C   UNL A   1      34.668  22.175  26.066  1.00  0.00     0.008 A 
ATOM     17  C   UNL A   1      34.273  21.792  27.346  1.00  0.00     0.015 A 
ATOM     18  C   UNL A   1      33.903  23.125  25.368  1.00  0.00     0.023 A 
ATOM     19  C   UNL A   1      33.098  22.287  27.898  1.00  0.00     0.002 A 
ATOM     20  C   UNL A   1      32.326  23.199  27.181  1.00  0.00     0.009 A 
BRANCH  16  21
ATOM     21  S   UNL A   1      36.179  21.561  25.337  1.00  0.00    -0.126 SA
BRANCH  21  22
ATOM     22  C   UNL A   1      37.004  23.107  24.814  1.00  0.00     0.071 C 
ATOM     23  C   UNL A   1      37.779  23.766  25.944  1.00  0.00     0.016 C 
ENDBRANCH  21  22
ENDBRANCH  16  21
ENDBRANCH  10  15
ENDBRANCH   7   9
ENDBRANCH   4   7
ENDBRANCH   2   3
ENDBRANCH   1   2
BRANCH   1  24
ATOM     24  C   UNL A   1      32.452  30.560  27.080  1.00  0.00     0.023 C 
BRANCH  24  25
ATOM     25  C   UNL A   1      33.449  31.675  27.384  1.00  0.00     0.116 C 
BRANCH  25  26
ATOM     26  N   UNL A   1      32.843  32.992  27.545  1.00  0.00    -0.352 N 
ATOM     27  C   UNL A   1      33.206  33.993  28.420  1.00  0.00     0.251 C 
ATOM     28  H   UNL A   1      32.079  33.190  26.955  1.00  0.00     0.163 HD
ATOM     29  O   UNL A   1      32.560  35.031  28.487  1.00  0.00    -0.269 OA
BRANCH  27  30
ATOM     30  C   UNL A   1      34.362  33.770  29.313  1.00  0.00     0.039 A 
ATOM     31  C   UNL A   1      34.187  33.005  30.469  1.00  0.00     0.014 A 
ATOM     32  C   UNL A   1      35.630  34.232  28.953  1.00  0.00     0.014 A 
ATOM     33  C   UNL A   1      35.303  32.616  31.212  1.00  0.00     0.010 A 
ATOM     34  C   UNL A   1      36.744  33.790  29.657  1.00  0.00     0.010 A 
ATOM     35  C   UNL A   1      36.593  32.961  30.780  1.00  0.00    -0.014 A 
BRANCH  35  36
ATOM     36  C   UNL A   1      37.810  32.421  31.438  1.00  0.00     0.031 A 
ATOM     37  C   UNL A   1      38.562  31.281  30.813  1.00  0.00     0.074 A 
ATOM     38  C   UNL A   1      38.152  32.865  32.664  1.00  0.00     0.049 A 
ATOM     39  N   UNL A   1      39.559  30.588  31.297  1.00  0.00    -0.248 NA
ATOM     40  C   UNL A   1      38.115  30.842  29.481  1.00  0.00     0.031 C 
ATOM     41  C   UNL A   1      37.448  33.909  33.414  1.00  0.00     0.029 A 
ATOM     42  N   UNL A   1      39.152  32.465  33.517  1.00  0.00    -0.354 N 
ATOM     43  C   UNL A   1      39.831  29.606  30.354  1.00  0.00     0.074 A 
ATOM     44  C   UNL A   1      38.878  29.776  29.277  1.00  0.00     0.031 C 
ATOM     45  C   UNL A   1      38.032  34.061  34.613  1.00  0.00     0.029 A 
ATOM     46  C   UNL A   1      39.129  33.105  34.734  1.00  0.00     0.049 A 
ATOM     47  H   UNL A   1      39.820  31.782  33.279  1.00  0.00     0.167 HD
ATOM     48  C   UNL A   1      40.804  28.664  30.367  1.00  0.00     0.034 A 
ATOM     49  C   UNL A   1      39.894  32.934  35.830  1.00  0.00     0.034 A 
ATOM     50  C   UNL A   1      41.788  28.539  31.407  1.00  0.00     0.049 A 
ATOM     51  C   UNL A   1      40.992  31.905  35.803  1.00  0.00     0.074 A 
ATOM     52  C   UNL A   1      42.888  27.701  31.452  1.00  0.00     0.029 A 
ATOM     53  N   UNL A   1      41.789  29.265  32.587  1.00  0.00    -0.354 N 
ATOM     54  N   UNL A   1      41.346  31.105  34.828  1.00  0.00    -0.248 NA
ATOM     55  C   UNL A   1      41.809  31.772  37.018  1.00  0.00     0.031 C 
ATOM     56  C   UNL A   1      43.549  27.914  32.667  1.00  0.00     0.029 A 
ATOM     57  C   UNL A   1      42.861  28.886  33.375  1.00  0.00     0.049 A 
ATOM     58  H   UNL A   1      41.124  29.950  32.828  1.00  0.00     0.167 HD
ATOM     59  C   UNL A   1      42.438  30.388  35.301  1.00  0.00     0.074 A 
ATOM     60  C   UNL A   1      42.704  30.867  36.641  1.00  0.00     0.031 C 
ATOM     61  C   UNL A   1      43.144  29.406  34.688  1.00  0.00     0.034 A 
BRANCH  48  62
ATOM     62  C   UNL A   1      40.897  27.742  29.183  1.00  0.00     0.023 A 
ATOM     63  C   UNL A   1      40.091  26.585  29.148  1.00  0.00     0.012 A 
ATOM     64  C   UNL A   1      41.730  28.039  28.088  1.00  0.00     0.148 A 
ATOM     65  C   UNL A   1      40.135  25.723  28.053  1.00  0.00     0.002 A 
ATOM     66  C   UNL A   1      41.741  27.194  26.985  1.00  0.00     0.091 A 
ATOM     67  F   UNL A   1      42.508  29.130  28.152  1.00  0.00    -0.205 F 
ATOM     68  C   UNL A   1      40.951  26.033  26.969  1.00  0.00     0.022 A 
BRANCH  66  69
ATOM     69  S   UNL A   1      42.710  27.542  25.513  1.00  0.00     0.127 S 
ATOM     70  O   UNL A   1      42.069  28.761  25.019  1.00  0.00    -0.237 OA
ATOM     71  O   UNL A   1      44.052  27.741  26.063  1.00  0.00    -0.237 OA
ATOM     72  O   UNL A   1      42.574  26.370  24.661  1.00  0.00    -0.744 OA
ENDBRANCH  66  69
ENDBRANCH  48  62
BRANCH  49  73
ATOM     73  C   UNL A   1      39.687  33.803  37.023  1.00  0.00     0.023 A 
ATOM     74  C   UNL A   1      40.109  35.145  36.974  1.00  0.00     0.012 A 
ATOM     75  C   UNL A   1      39.047  33.326  38.183  1.00  0.00     0.148 A 
ATOM     76  C   UNL A   1      39.917  35.992  38.066  1.00  0.00     0.002 A 
ATOM     77  C   UNL A   1      38.813  34.188  39.248  1.00  0.00     0.091 A 
ATOM     78  F   UNL A   1      38.671  32.040  38.219  1.00  0.00    -0.205 F 
ATOM     79  C   UNL A   1      39.260  35.518  39.198  1.00  0.00     0.022 A 
BRANCH  77  80
ATOM     80  S   UNL A   1      37.861  33.691  40.688  1.00  0.00     0.127 S 
ATOM     81  O   UNL A   1      38.749  32.716  41.313  1.00  0.00    -0.237 OA
ATOM     82  O   UNL A   1      37.722  34.955  41.415  1.00  0.00    -0.237 OA
ATOM     83  O   UNL A   1      36.608  33.169  40.160  1.00  0.00    -0.744 OA
ENDBRANCH  77  80
ENDBRANCH  49  73
BRANCH  61  84
ATOM     84  C   UNL A   1      44.278  28.779  35.452  1.00  0.00     0.023 A 
ATOM     85  C   UNL A   1      45.575  29.315  35.323  1.00  0.00     0.012 A 
ATOM     86  C   UNL A   1      44.047  27.731  36.364  1.00  0.00     0.148 A 
ATOM     87  C   UNL A   1      46.629  28.804  36.078  1.00  0.00     0.002 A 
ATOM     88  C   UNL A   1      45.096  27.256  37.143  1.00  0.00     0.091 A 
ATOM     89  F   UNL A   1      42.809  27.225  36.457  1.00  0.00    -0.205 F 
ATOM     90  C   UNL A   1      46.388  27.786  36.996  1.00  0.00     0.022 A 
BRANCH  88  91
ATOM     91  S   UNL A   1      44.864  26.006  38.414  1.00  0.00     0.127 S 
ATOM     92  O   UNL A   1      43.877  26.645  39.283  1.00  0.00    -0.237 OA
ATOM     93  O   UNL A   1      44.354  24.871  37.644  1.00  0.00    -0.237 OA
ATOM     94  O   UNL A   1      46.176  25.791  39.010  1.00  0.00    -0.744 OA
ENDBRANCH  88  91
ENDBRANCH  61  84
ENDBRANCH  35  36
ENDBRANCH  27  30
ENDBRANCH  25  26
ENDBRANCH  24  25
ENDBRANCH   1  24
TORSDOF 18
ENDMDL
