MODEL 1
REMARK VINA RESULT:     -11.2      0.000      0.000
REMARK SMILES CC[C@@H](C)c1nc2cc(C(=O)NCCCCNC(=O)c3ccc(-c4c5nc(c(-c6cccc(S(=O)(=O)[O-])c6F)c6ccc([nH]6)c(-c6cccc(S(=O)(=O)[O-])c6F)c6nc(c(-c7cccc(S(=O)(=O)[O-])c7F)c7ccc4[nH]7)C=C6)C=C5)cc3)ccc2n1[C@@H](C)CC
REMARK SMILES IDX 15 1 14 2 13 3 12 4 10 5 11 6 9 8 5 9 6 10 86 11 7 12 85 13
REMARK SMILES IDX 8 14 84 15 83 16 3 17 4 18 2 19 1 20 87 21 88 22 89 23 90 24
REMARK SMILES IDX 16 25 17 26 18 27 19 29 20 30 21 31 82 32 22 33 81 34 23 35
REMARK SMILES IDX 24 36 25 37 75 38 26 39 80 40 74 41 76 42 27 43 79 44 73 45
REMARK SMILES IDX 72 46 28 48 60 49 40 50 59 51 41 52 44 53 58 54 77 55 42 56
REMARK SMILES IDX 43 57 57 59 78 60 45 61 29 62 30 63 38 64 31 65 33 66 39 67
REMARK SMILES IDX 32 68 34 69 35 70 36 71 37 72 61 73 62 74 70 75 63 76 65 77
REMARK SMILES IDX 71 78 64 79 66 80 67 81 68 82 69 83 46 84 47 85 55 86 48 87
REMARK SMILES IDX 50 88 56 89 49 90 51 91 52 92 53 93 54 94
REMARK H PARENT 12 7 17 28 76 47 44 58
REMARK Flexibility Score: inf
ROOT
ATOM      1  C   UNL A   1      33.977  30.157  27.357  1.00  0.00     0.023 C 
ENDROOT
BRANCH   1   2
ATOM      2  C   UNL A   1      32.566  30.393  26.797  1.00  0.00     0.023 C 
BRANCH   2   3
ATOM      3  C   UNL A   1      31.739  29.114  26.635  1.00  0.00     0.116 C 
BRANCH   3   4
ATOM      4  N   UNL A   1      31.343  28.914  25.252  1.00  0.00    -0.352 N 
ATOM      5  C   UNL A   1      31.384  27.817  24.426  1.00  0.00     0.251 C 
ATOM      6  O   UNL A   1      30.853  27.915  23.320  1.00  0.00    -0.269 OA
ATOM      7  H   UNL A   1      30.973  29.720  24.824  1.00  0.00     0.163 HD
BRANCH   5   8
ATOM      8  C   UNL A   1      32.001  26.520  24.822  1.00  0.00     0.042 A 
ATOM      9  C   UNL A   1      35.389  23.524  25.341  1.00  0.00     0.112 A 
ATOM     10  N   UNL A   1      35.285  24.713  24.760  1.00  0.00    -0.233 NA
ATOM     11  N   UNL A   1      34.120  23.074  25.691  1.00  0.00    -0.325 N 
ATOM     12  C   UNL A   1      33.982  25.114  24.882  1.00  0.00     0.090 A 
ATOM     13  C   UNL A   1      33.232  24.121  25.490  1.00  0.00     0.068 A 
ATOM     14  C   UNL A   1      33.364  26.323  24.523  1.00  0.00     0.044 A 
ATOM     15  C   UNL A   1      31.884  24.294  25.811  1.00  0.00     0.029 A 
ATOM     16  C   UNL A   1      31.307  25.529  25.518  1.00  0.00     0.016 A 
BRANCH   9  17
ATOM     17  C   UNL A   1      36.745  22.907  25.692  1.00  0.00     0.052 C 
ATOM     18  C   UNL A   1      37.767  24.024  25.989  1.00  0.00     0.016 C 
BRANCH  17  19
ATOM     19  C   UNL A   1      37.309  21.953  24.627  1.00  0.00     0.008 C 
ATOM     20  C   UNL A   1      37.170  20.468  24.941  1.00  0.00     0.004 C 
ENDBRANCH  17  19
ENDBRANCH   9  17
BRANCH  11  21
ATOM     21  C   UNL A   1      33.669  21.799  26.245  1.00  0.00     0.085 C 
ATOM     22  C   UNL A   1      33.534  21.830  27.772  1.00  0.00     0.031 C 
BRANCH  21  23
ATOM     23  C   UNL A   1      32.531  21.128  25.461  1.00  0.00     0.022 C 
ATOM     24  C   UNL A   1      33.061  20.413  24.217  1.00  0.00     0.006 C 
ENDBRANCH  21  23
ENDBRANCH  11  21
ENDBRANCH   5   8
ENDBRANCH   3   4
ENDBRANCH   2   3
ENDBRANCH   1   2
BRANCH   1  25
ATOM     25  C   UNL A   1      34.744  31.445  27.676  1.00  0.00     0.116 C 
BRANCH  25  26
ATOM     26  N   UNL A   1      34.517  31.919  29.026  1.00  0.00    -0.352 N 
ATOM     27  C   UNL A   1      35.232  31.876  30.191  1.00  0.00     0.251 C 
ATOM     28  H   UNL A   1      33.650  32.376  29.128  1.00  0.00     0.163 HD
ATOM     29  O   UNL A   1      34.749  32.505  31.138  1.00  0.00    -0.269 OA
BRANCH  27  30
ATOM     30  C   UNL A   1      36.489  31.108  30.398  1.00  0.00     0.039 A 
ATOM     31  C   UNL A   1      37.771  31.655  30.380  1.00  0.00     0.014 A 
ATOM     32  C   UNL A   1      36.357  29.713  30.548  1.00  0.00     0.014 A 
ATOM     33  C   UNL A   1      38.888  30.836  30.442  1.00  0.00     0.010 A 
ATOM     34  C   UNL A   1      37.474  28.885  30.618  1.00  0.00     0.010 A 
ATOM     35  C   UNL A   1      38.740  29.452  30.523  1.00  0.00    -0.014 A 
BRANCH  35  36
ATOM     36  C   UNL A   1      39.968  28.670  30.541  1.00  0.00     0.031 A 
ATOM     37  C   UNL A   1      40.676  28.619  31.851  1.00  0.00     0.074 A 
ATOM     38  C   UNL A   1      40.460  28.034  29.462  1.00  0.00     0.049 A 
ATOM     39  N   UNL A   1      41.820  29.146  32.149  1.00  0.00    -0.248 NA
ATOM     40  C   UNL A   1      39.972  28.017  32.990  1.00  0.00     0.031 C 
ATOM     41  C   UNL A   1      39.805  27.783  28.178  1.00  0.00     0.029 A 
ATOM     42  N   UNL A   1      41.642  27.368  29.346  1.00  0.00    -0.354 N 
ATOM     43  C   UNL A   1      42.074  28.779  33.468  1.00  0.00     0.074 A 
ATOM     44  C   UNL A   1      40.855  28.199  33.974  1.00  0.00     0.031 C 
ATOM     45  C   UNL A   1      40.484  26.813  27.523  1.00  0.00     0.029 A 
ATOM     46  C   UNL A   1      41.680  26.484  28.277  1.00  0.00     0.049 A 
ATOM     47  H   UNL A   1      42.398  27.500  29.964  1.00  0.00     0.167 HD
ATOM     48  C   UNL A   1      43.323  28.808  34.006  1.00  0.00     0.034 A 
ATOM     49  C   UNL A   1      42.587  25.495  28.097  1.00  0.00     0.034 A 
ATOM     50  C   UNL A   1      44.250  29.557  33.208  1.00  0.00     0.049 A 
ATOM     51  C   UNL A   1      43.801  25.877  28.859  1.00  0.00     0.074 A 
ATOM     52  C   UNL A   1      44.351  30.870  32.795  1.00  0.00     0.029 A 
ATOM     53  N   UNL A   1      45.117  28.842  32.420  1.00  0.00    -0.354 N 
ATOM     54  N   UNL A   1      44.552  26.899  28.556  1.00  0.00    -0.248 NA
ATOM     55  C   UNL A   1      43.974  25.353  30.206  1.00  0.00     0.031 C 
ATOM     56  C   UNL A   1      44.902  30.798  31.483  1.00  0.00     0.029 A 
ATOM     57  C   UNL A   1      45.129  29.450  31.194  1.00  0.00     0.049 A 
ATOM     58  H   UNL A   1      45.630  28.044  32.684  1.00  0.00     0.167 HD
ATOM     59  C   UNL A   1      44.959  27.408  29.780  1.00  0.00     0.074 A 
ATOM     60  C   UNL A   1      44.673  26.353  30.746  1.00  0.00     0.031 C 
ATOM     61  C   UNL A   1      45.223  28.739  29.939  1.00  0.00     0.034 A 
BRANCH  48  62
ATOM     62  C   UNL A   1      43.805  27.896  35.101  1.00  0.00     0.023 A 
ATOM     63  C   UNL A   1      44.456  28.473  36.212  1.00  0.00     0.012 A 
ATOM     64  C   UNL A   1      43.894  26.496  34.947  1.00  0.00     0.148 A 
ATOM     65  C   UNL A   1      45.183  27.692  37.117  1.00  0.00     0.002 A 
ATOM     66  C   UNL A   1      44.560  25.717  35.886  1.00  0.00     0.091 A 
ATOM     67  F   UNL A   1      43.452  25.924  33.822  1.00  0.00    -0.205 F 
ATOM     68  C   UNL A   1      45.226  26.311  36.960  1.00  0.00     0.022 A 
BRANCH  66  69
ATOM     69  S   UNL A   1      44.613  23.929  35.736  1.00  0.00     0.127 S 
ATOM     70  O   UNL A   1      45.184  23.547  37.031  1.00  0.00    -0.237 OA
ATOM     71  O   UNL A   1      43.194  23.599  35.570  1.00  0.00    -0.237 OA
ATOM     72  O   UNL A   1      45.428  23.664  34.569  1.00  0.00    -0.744 OA
ENDBRANCH  66  69
ENDBRANCH  48  62
BRANCH  49  73
ATOM     73  C   UNL A   1      42.382  24.131  27.549  1.00  0.00     0.023 A 
ATOM     74  C   UNL A   1      41.108  23.534  27.648  1.00  0.00     0.012 A 
ATOM     75  C   UNL A   1      43.331  23.522  26.697  1.00  0.00     0.148 A 
ATOM     76  C   UNL A   1      40.778  22.402  26.892  1.00  0.00     0.002 A 
ATOM     77  C   UNL A   1      43.004  22.385  25.963  1.00  0.00     0.091 A 
ATOM     78  F   UNL A   1      44.522  24.106  26.519  1.00  0.00    -0.205 F 
ATOM     79  C   UNL A   1      41.722  21.832  26.045  1.00  0.00     0.022 A 
BRANCH  77  80
ATOM     80  S   UNL A   1      44.189  21.606  24.856  1.00  0.00     0.127 S 
ATOM     81  O   UNL A   1      45.415  21.624  25.653  1.00  0.00    -0.237 OA
ATOM     82  O   UNL A   1      43.602  20.283  24.664  1.00  0.00    -0.237 OA
ATOM     83  O   UNL A   1      44.238  22.460  23.674  1.00  0.00    -0.744 OA
ENDBRANCH  77  80
ENDBRANCH  49  73
BRANCH  61  84
ATOM     84  C   UNL A   1      45.305  29.604  28.710  1.00  0.00     0.023 A 
ATOM     85  C   UNL A   1      44.143  30.076  28.065  1.00  0.00     0.012 A 
ATOM     86  C   UNL A   1      46.553  30.142  28.355  1.00  0.00     0.148 A 
ATOM     87  C   UNL A   1      44.225  31.065  27.082  1.00  0.00     0.002 A 
ATOM     88  C   UNL A   1      46.626  31.154  27.408  1.00  0.00     0.091 A 
ATOM     89  F   UNL A   1      47.641  29.690  28.998  1.00  0.00    -0.205 F 
ATOM     90  C   UNL A   1      45.466  31.616  26.766  1.00  0.00     0.022 A 
BRANCH  88  91
ATOM     91  S   UNL A   1      48.164  32.002  27.040  1.00  0.00     0.127 S 
ATOM     92  O   UNL A   1      47.750  32.955  26.012  1.00  0.00    -0.237 OA
ATOM     93  O   UNL A   1      48.502  32.603  28.332  1.00  0.00    -0.237 OA
ATOM     94  O   UNL A   1      49.099  30.977  26.593  1.00  0.00    -0.744 OA
ENDBRANCH  88  91
ENDBRANCH  61  84
ENDBRANCH  35  36
ENDBRANCH  27  30
ENDBRANCH  25  26
ENDBRANCH   1  25
TORSDOF 18
ENDMDL
MODEL 2
REMARK VINA RESULT:     -11.1      3.492      9.000
REMARK SMILES CC[C@@H](C)c1nc2cc(C(=O)NCCCCNC(=O)c3ccc(-c4c5nc(c(-c6cccc(S(=O)(=O)[O-])c6F)c6ccc([nH]6)c(-c6cccc(S(=O)(=O)[O-])c6F)c6nc(c(-c7cccc(S(=O)(=O)[O-])c7F)c7ccc4[nH]7)C=C6)C=C5)cc3)ccc2n1[C@@H](C)CC
REMARK SMILES IDX 15 1 14 2 13 3 12 4 10 5 11 6 9 8 5 9 6 10 86 11 7 12 85 13
REMARK SMILES IDX 8 14 84 15 83 16 3 17 4 18 2 19 1 20 87 21 88 22 89 23 90 24
REMARK SMILES IDX 16 25 17 26 18 27 19 29 20 30 21 31 82 32 22 33 81 34 23 35
REMARK SMILES IDX 24 36 25 37 75 38 26 39 80 40 74 41 76 42 27 43 79 44 73 45
REMARK SMILES IDX 72 46 28 48 60 49 40 50 59 51 41 52 44 53 58 54 77 55 42 56
REMARK SMILES IDX 43 57 57 59 78 60 45 61 29 62 30 63 38 64 31 65 33 66 39 67
REMARK SMILES IDX 32 68 34 69 35 70 36 71 37 72 61 73 62 74 70 75 63 76 65 77
REMARK SMILES IDX 71 78 64 79 66 80 67 81 68 82 69 83 46 84 47 85 55 86 48 87
REMARK SMILES IDX 50 88 56 89 49 90 51 91 52 92 53 93 54 94
REMARK H PARENT 12 7 17 28 76 47 44 58
REMARK Flexibility Score: inf
ROOT
ATOM      1  C   UNL A   1      38.749  21.052  25.455  1.00  0.00     0.023 C 
ENDROOT
BRANCH   1   2
ATOM      2  C   UNL A   1      37.581  22.046  25.363  1.00  0.00     0.023 C 
BRANCH   2   3
ATOM      3  C   UNL A   1      36.259  21.414  24.917  1.00  0.00     0.116 C 
BRANCH   3   4
ATOM      4  N   UNL A   1      35.400  21.131  26.054  1.00  0.00    -0.352 N 
ATOM      5  C   UNL A   1      34.216  21.683  26.480  1.00  0.00     0.251 C 
ATOM      6  O   UNL A   1      33.643  21.143  27.427  1.00  0.00    -0.269 OA
ATOM      7  H   UNL A   1      35.730  20.403  26.629  1.00  0.00     0.163 HD
BRANCH   5   8
ATOM      8  C   UNL A   1      33.586  22.865  25.829  1.00  0.00     0.042 A 
ATOM      9  C   UNL A   1      32.973  27.295  24.976  1.00  0.00     0.112 A 
ATOM     10  N   UNL A   1      33.711  26.612  25.842  1.00  0.00    -0.233 NA
ATOM     11  N   UNL A   1      32.091  26.425  24.342  1.00  0.00    -0.325 N 
ATOM     12  C   UNL A   1      33.434  25.285  25.658  1.00  0.00     0.090 A 
ATOM     13  C   UNL A   1      32.445  25.133  24.701  1.00  0.00     0.068 A 
ATOM     14  C   UNL A   1      34.004  24.145  26.249  1.00  0.00     0.044 A 
ATOM     15  C   UNL A   1      32.021  23.877  24.256  1.00  0.00     0.029 A 
ATOM     16  C   UNL A   1      32.653  22.758  24.797  1.00  0.00     0.016 A 
BRANCH   9  17
ATOM     17  C   UNL A   1      33.246  28.767  24.659  1.00  0.00     0.052 C 
ATOM     18  C   UNL A   1      32.200  29.656  25.364  1.00  0.00     0.016 C 
BRANCH  17  19
ATOM     19  C   UNL A   1      33.290  29.102  23.160  1.00  0.00     0.008 C 
ATOM     20  C   UNL A   1      34.377  28.389  22.363  1.00  0.00     0.004 C 
ENDBRANCH  17  19
ENDBRANCH   9  17
BRANCH  11  21
ATOM     21  C   UNL A   1      31.002  26.675  23.399  1.00  0.00     0.085 C 
ATOM     22  C   UNL A   1      31.342  26.236  21.970  1.00  0.00     0.031 C 
BRANCH  21  23
ATOM     23  C   UNL A   1      29.605  26.310  23.925  1.00  0.00     0.022 C 
ATOM     24  C   UNL A   1      28.566  27.349  23.504  1.00  0.00     0.006 C 
ENDBRANCH  21  23
ENDBRANCH  11  21
ENDBRANCH   5   8
ENDBRANCH   3   4
ENDBRANCH   2   3
ENDBRANCH   1   2
BRANCH   1  25
ATOM     25  C   UNL A   1      39.842  21.465  26.446  1.00  0.00     0.116 C 
BRANCH  25  26
ATOM     26  N   UNL A   1      41.085  21.831  25.797  1.00  0.00    -0.352 N 
ATOM     27  C   UNL A   1      41.926  22.908  25.872  1.00  0.00     0.251 C 
ATOM     28  H   UNL A   1      41.394  21.151  25.156  1.00  0.00     0.163 HD
ATOM     29  O   UNL A   1      42.978  22.810  25.233  1.00  0.00    -0.269 OA
BRANCH  27  30
ATOM     30  C   UNL A   1      41.643  24.166  26.614  1.00  0.00     0.039 A 
ATOM     31  C   UNL A   1      40.729  25.139  26.216  1.00  0.00     0.014 A 
ATOM     32  C   UNL A   1      42.421  24.406  27.764  1.00  0.00     0.014 A 
ATOM     33  C   UNL A   1      40.637  26.342  26.898  1.00  0.00     0.010 A 
ATOM     34  C   UNL A   1      42.329  25.610  28.459  1.00  0.00     0.010 A 
ATOM     35  C   UNL A   1      41.462  26.592  27.995  1.00  0.00    -0.014 A 
BRANCH  35  36
ATOM     36  C   UNL A   1      41.325  27.898  28.622  1.00  0.00     0.031 A 
ATOM     37  C   UNL A   1      42.318  28.922  28.193  1.00  0.00     0.074 A 
ATOM     38  C   UNL A   1      40.380  28.188  29.536  1.00  0.00     0.049 A 
ATOM     39  N   UNL A   1      43.266  29.446  28.903  1.00  0.00    -0.248 NA
ATOM     40  C   UNL A   1      42.333  29.317  26.780  1.00  0.00     0.031 C 
ATOM     41  C   UNL A   1      39.203  27.403  29.907  1.00  0.00     0.029 A 
ATOM     42  N   UNL A   1      40.230  29.336  30.253  1.00  0.00    -0.354 N 
ATOM     43  C   UNL A   1      43.883  30.383  28.079  1.00  0.00     0.074 A 
ATOM     44  C   UNL A   1      43.357  30.172  26.753  1.00  0.00     0.031 C 
ATOM     45  C   UNL A   1      38.337  28.201  30.573  1.00  0.00     0.029 A 
ATOM     46  C   UNL A   1      38.960  29.495  30.789  1.00  0.00     0.049 A 
ATOM     47  H   UNL A   1      40.954  29.992  30.379  1.00  0.00     0.167 HD
ATOM     48  C   UNL A   1      44.652  31.392  28.569  1.00  0.00     0.034 A 
ATOM     49  C   UNL A   1      38.445  30.647  31.280  1.00  0.00     0.034 A 
ATOM     50  C   UNL A   1      45.025  31.187  29.939  1.00  0.00     0.049 A 
ATOM     51  C   UNL A   1      39.591  31.497  31.683  1.00  0.00     0.074 A 
ATOM     52  C   UNL A   1      45.757  30.238  30.624  1.00  0.00     0.029 A 
ATOM     53  N   UNL A   1      44.326  31.889  30.890  1.00  0.00    -0.354 N 
ATOM     54  N   UNL A   1      40.400  31.203  32.662  1.00  0.00    -0.248 NA
ATOM     55  C   UNL A   1      40.084  32.494  30.744  1.00  0.00     0.031 C 
ATOM     56  C   UNL A   1      45.100  30.109  31.881  1.00  0.00     0.029 A 
ATOM     57  C   UNL A   1      44.030  31.006  31.893  1.00  0.00     0.049 A 
ATOM     58  H   UNL A   1      44.084  32.842  30.856  1.00  0.00     0.167 HD
ATOM     59  C   UNL A   1      41.645  31.636  32.229  1.00  0.00     0.074 A 
ATOM     60  C   UNL A   1      41.369  32.523  31.103  1.00  0.00     0.031 C 
ATOM     61  C   UNL A   1      42.790  31.015  32.637  1.00  0.00     0.034 A 
BRANCH  48  62
ATOM     62  C   UNL A   1      44.817  32.737  27.916  1.00  0.00     0.023 A 
ATOM     63  C   UNL A   1      46.083  33.072  27.389  1.00  0.00     0.012 A 
ATOM     64  C   UNL A   1      43.872  33.776  28.051  1.00  0.00     0.148 A 
ATOM     65  C   UNL A   1      46.400  34.388  27.036  1.00  0.00     0.002 A 
ATOM     66  C   UNL A   1      44.168  35.068  27.635  1.00  0.00     0.091 A 
ATOM     67  F   UNL A   1      42.729  33.549  28.707  1.00  0.00    -0.205 F 
ATOM     68  C   UNL A   1      45.438  35.386  27.148  1.00  0.00     0.022 A 
BRANCH  66  69
ATOM     69  S   UNL A   1      42.944  36.378  27.735  1.00  0.00     0.127 S 
ATOM     70  O   UNL A   1      42.866  36.590  29.183  1.00  0.00    -0.237 OA
ATOM     71  O   UNL A   1      43.598  37.459  26.991  1.00  0.00    -0.237 OA
ATOM     72  O   UNL A   1      41.758  35.846  27.097  1.00  0.00    -0.744 OA
ENDBRANCH  66  69
ENDBRANCH  48  62
BRANCH  49  73
ATOM     73  C   UNL A   1      37.060  31.170  31.170  1.00  0.00     0.023 A 
ATOM     74  C   UNL A   1      36.398  31.613  32.333  1.00  0.00     0.012 A 
ATOM     75  C   UNL A   1      36.485  31.493  29.920  1.00  0.00     0.148 A 
ATOM     76  C   UNL A   1      35.233  32.387  32.253  1.00  0.00     0.002 A 
ATOM     77  C   UNL A   1      35.316  32.246  29.847  1.00  0.00     0.091 A 
ATOM     78  F   UNL A   1      37.128  31.157  28.796  1.00  0.00    -0.205 F 
ATOM     79  C   UNL A   1      34.696  32.710  31.011  1.00  0.00     0.022 A 
BRANCH  77  80
ATOM     80  S   UNL A   1      34.579  32.688  28.266  1.00  0.00     0.127 S 
ATOM     81  O   UNL A   1      35.704  33.301  27.561  1.00  0.00    -0.237 OA
ATOM     82  O   UNL A   1      34.167  31.386  27.748  1.00  0.00    -0.237 OA
ATOM     83  O   UNL A   1      33.501  33.617  28.584  1.00  0.00    -0.744 OA
ENDBRANCH  77  80
ENDBRANCH  49  73
BRANCH  61  84
ATOM     84  C   UNL A   1      42.701  30.011  33.755  1.00  0.00     0.023 A 
ATOM     85  C   UNL A   1      42.253  28.693  33.525  1.00  0.00     0.012 A 
ATOM     86  C   UNL A   1      43.303  30.326  34.984  1.00  0.00     0.148 A 
ATOM     87  C   UNL A   1      42.401  27.709  34.506  1.00  0.00     0.002 A 
ATOM     88  C   UNL A   1      43.487  29.335  35.940  1.00  0.00     0.091 A 
ATOM     89  F   UNL A   1      43.739  31.582  35.170  1.00  0.00    -0.205 F 
ATOM     90  C   UNL A   1      43.034  28.027  35.706  1.00  0.00     0.022 A 
BRANCH  88  91
ATOM     91  S   UNL A   1      44.404  29.633  37.453  1.00  0.00     0.127 S 
ATOM     92  O   UNL A   1      43.551  30.599  38.143  1.00  0.00    -0.237 OA
ATOM     93  O   UNL A   1      44.437  28.301  38.060  1.00  0.00    -0.237 OA
ATOM     94  O   UNL A   1      45.709  30.140  37.047  1.00  0.00    -0.744 OA
ENDBRANCH  88  91
ENDBRANCH  61  84
ENDBRANCH  35  36
ENDBRANCH  27  30
ENDBRANCH  25  26
ENDBRANCH   1  25
TORSDOF 18
ENDMDL
MODEL 3
REMARK VINA RESULT:     -10.9      3.089      9.099
REMARK SMILES CC[C@@H](C)c1nc2cc(C(=O)NCCCCNC(=O)c3ccc(-c4c5nc(c(-c6cccc(S(=O)(=O)[O-])c6F)c6ccc([nH]6)c(-c6cccc(S(=O)(=O)[O-])c6F)c6nc(c(-c7cccc(S(=O)(=O)[O-])c7F)c7ccc4[nH]7)C=C6)C=C5)cc3)ccc2n1[C@@H](C)CC
REMARK SMILES IDX 15 1 14 2 13 3 12 4 10 5 11 6 9 8 5 9 6 10 86 11 7 12 85 13
REMARK SMILES IDX 8 14 84 15 83 16 3 17 4 18 2 19 1 20 87 21 88 22 89 23 90 24
REMARK SMILES IDX 16 25 17 26 18 27 19 29 20 30 21 31 82 32 22 33 81 34 23 35
REMARK SMILES IDX 24 36 25 37 75 38 26 39 80 40 74 41 76 42 27 43 79 44 73 45
REMARK SMILES IDX 72 46 28 48 60 49 40 50 59 51 41 52 44 53 58 54 77 55 42 56
REMARK SMILES IDX 43 57 57 59 78 60 45 61 29 62 30 63 38 64 31 65 33 66 39 67
REMARK SMILES IDX 32 68 34 69 35 70 36 71 37 72 61 73 62 74 70 75 63 76 65 77
REMARK SMILES IDX 71 78 64 79 66 80 67 81 68 82 69 83 46 84 47 85 55 86 48 87
REMARK SMILES IDX 50 88 56 89 49 90 51 91 52 92 53 93 54 94
REMARK H PARENT 12 7 17 28 76 47 44 58
REMARK Flexibility Score: inf
ROOT
ATOM      1  C   UNL A   1      37.777  21.797  25.034  1.00  0.00     0.023 C 
ENDROOT
BRANCH   1   2
ATOM      2  C   UNL A   1      36.392  21.300  25.477  1.00  0.00     0.023 C 
BRANCH   2   3
ATOM      3  C   UNL A   1      35.372  21.202  24.338  1.00  0.00     0.116 C 
BRANCH   3   4
ATOM      4  N   UNL A   1      34.141  20.576  24.786  1.00  0.00    -0.352 N 
ATOM      5  C   UNL A   1      32.918  21.090  25.146  1.00  0.00     0.251 C 
ATOM      6  O   UNL A   1      32.006  20.294  25.366  1.00  0.00    -0.269 OA
ATOM      7  H   UNL A   1      34.191  19.594  24.842  1.00  0.00     0.163 HD
BRANCH   5   8
ATOM      8  C   UNL A   1      32.644  22.552  25.242  1.00  0.00     0.042 A 
ATOM      9  C   UNL A   1      30.473  26.436  24.284  1.00  0.00     0.112 A 
ATOM     10  N   UNL A   1      30.412  25.199  23.807  1.00  0.00    -0.233 NA
ATOM     11  N   UNL A   1      31.572  26.546  25.130  1.00  0.00    -0.325 N 
ATOM     12  C   UNL A   1      31.360  24.462  24.462  1.00  0.00     0.090 A 
ATOM     13  C   UNL A   1      32.083  25.271  25.323  1.00  0.00     0.068 A 
ATOM     14  C   UNL A   1      31.649  23.089  24.400  1.00  0.00     0.044 A 
ATOM     15  C   UNL A   1      33.064  24.764  26.178  1.00  0.00     0.029 A 
ATOM     16  C   UNL A   1      33.283  23.387  26.159  1.00  0.00     0.016 A 
BRANCH   9  17
ATOM     17  C   UNL A   1      29.362  27.459  24.034  1.00  0.00     0.052 C 
ATOM     18  C   UNL A   1      28.020  26.731  23.814  1.00  0.00     0.016 C 
BRANCH  17  19
ATOM     19  C   UNL A   1      29.630  28.424  22.868  1.00  0.00     0.008 C 
ATOM     20  C   UNL A   1      28.439  29.269  22.433  1.00  0.00     0.004 C 
ENDBRANCH  17  19
ENDBRANCH   9  17
BRANCH  11  21
ATOM     21  C   UNL A   1      32.149  27.701  25.815  1.00  0.00     0.085 C 
ATOM     22  C   UNL A   1      31.750  27.774  27.293  1.00  0.00     0.031 C 
BRANCH  21  23
ATOM     23  C   UNL A   1      33.623  27.974  25.478  1.00  0.00     0.022 C 
ATOM     24  C   UNL A   1      33.767  28.618  24.099  1.00  0.00     0.006 C 
ENDBRANCH  21  23
ENDBRANCH  11  21
ENDBRANCH   5   8
ENDBRANCH   3   4
ENDBRANCH   2   3
ENDBRANCH   1   2
BRANCH   1  25
ATOM     25  C   UNL A   1      38.685  22.223  26.192  1.00  0.00     0.116 C 
BRANCH  25  26
ATOM     26  N   UNL A   1      40.087  21.959  25.938  1.00  0.00    -0.352 N 
ATOM     27  C   UNL A   1      41.255  22.608  26.232  1.00  0.00     0.251 C 
ATOM     28  H   UNL A   1      40.232  21.122  25.439  1.00  0.00     0.163 HD
ATOM     29  O   UNL A   1      42.291  22.001  25.942  1.00  0.00    -0.269 OA
BRANCH  27  30
ATOM     30  C   UNL A   1      41.353  23.972  26.818  1.00  0.00     0.039 A 
ATOM     31  C   UNL A   1      42.046  24.292  27.985  1.00  0.00     0.014 A 
ATOM     32  C   UNL A   1      40.624  24.989  26.170  1.00  0.00     0.014 A 
ATOM     33  C   UNL A   1      41.962  25.564  28.527  1.00  0.00     0.010 A 
ATOM     34  C   UNL A   1      40.542  26.271  26.706  1.00  0.00     0.010 A 
ATOM     35  C   UNL A   1      41.182  26.541  27.910  1.00  0.00    -0.014 A 
BRANCH  35  36
ATOM     36  C   UNL A   1      41.121  27.835  28.575  1.00  0.00     0.031 A 
ATOM     37  C   UNL A   1      42.173  28.811  28.174  1.00  0.00     0.074 A 
ATOM     38  C   UNL A   1      40.195  28.153  29.498  1.00  0.00     0.049 A 
ATOM     39  N   UNL A   1      43.149  29.258  28.897  1.00  0.00    -0.248 NA
ATOM     40  C   UNL A   1      42.210  29.244  26.772  1.00  0.00     0.031 C 
ATOM     41  C   UNL A   1      38.974  27.428  29.848  1.00  0.00     0.029 A 
ATOM     42  N   UNL A   1      40.112  29.287  30.248  1.00  0.00    -0.354 N 
ATOM     43  C   UNL A   1      43.820  30.182  28.098  1.00  0.00     0.074 A 
ATOM     44  C   UNL A   1      43.282  30.039  26.768  1.00  0.00     0.031 C 
ATOM     45  C   UNL A   1      38.157  28.255  30.538  1.00  0.00     0.029 A 
ATOM     46  C   UNL A   1      38.853  29.505  30.790  1.00  0.00     0.049 A 
ATOM     47  H   UNL A   1      40.873  29.896  30.391  1.00  0.00     0.167 HD
ATOM     48  C   UNL A   1      44.646  31.130  28.616  1.00  0.00     0.034 A 
ATOM     49  C   UNL A   1      38.406  30.670  31.314  1.00  0.00     0.034 A 
ATOM     50  C   UNL A   1      45.006  30.864  29.978  1.00  0.00     0.049 A 
ATOM     51  C   UNL A   1      39.600  31.440  31.739  1.00  0.00     0.074 A 
ATOM     52  C   UNL A   1      45.682  29.856  30.635  1.00  0.00     0.029 A 
ATOM     53  N   UNL A   1      44.350  31.578  30.950  1.00  0.00    -0.354 N 
ATOM     54  N   UNL A   1      40.390  31.071  32.708  1.00  0.00    -0.248 NA
ATOM     55  C   UNL A   1      40.150  32.433  30.828  1.00  0.00     0.031 C 
ATOM     56  C   UNL A   1      45.019  29.729  31.889  1.00  0.00     0.029 A 
ATOM     57  C   UNL A   1      44.002  30.686  31.928  1.00  0.00     0.049 A 
ATOM     58  H   UNL A   1      44.163  32.545  30.944  1.00  0.00     0.167 HD
ATOM     59  C   UNL A   1      41.658  31.444  32.285  1.00  0.00     0.074 A 
ATOM     60  C   UNL A   1      41.434  32.377  31.186  1.00  0.00     0.031 C 
ATOM     61  C   UNL A   1      42.766  30.746  32.674  1.00  0.00     0.034 A 
BRANCH  48  62
ATOM     62  C   UNL A   1      44.889  32.481  28.000  1.00  0.00     0.023 A 
ATOM     63  C   UNL A   1      43.771  33.233  27.578  1.00  0.00     0.012 A 
ATOM     64  C   UNL A   1      46.163  32.908  27.568  1.00  0.00     0.148 A 
ATOM     65  C   UNL A   1      43.916  34.346  26.743  1.00  0.00     0.002 A 
ATOM     66  C   UNL A   1      46.307  34.054  26.795  1.00  0.00     0.091 A 
ATOM     67  F   UNL A   1      47.230  32.133  27.788  1.00  0.00    -0.205 F 
ATOM     68  C   UNL A   1      45.186  34.764  26.360  1.00  0.00     0.022 A 
BRANCH  66  69
ATOM     69  S   UNL A   1      47.930  34.644  26.306  1.00  0.00     0.127 S 
ATOM     70  O   UNL A   1      47.594  35.923  25.674  1.00  0.00    -0.237 OA
ATOM     71  O   UNL A   1      48.611  34.758  27.599  1.00  0.00    -0.237 OA
ATOM     72  O   UNL A   1      48.467  33.617  25.437  1.00  0.00    -0.744 OA
ENDBRANCH  66  69
ENDBRANCH  48  62
BRANCH  49  73
ATOM     73  C   UNL A   1      37.054  31.275  31.221  1.00  0.00     0.023 A 
ATOM     74  C   UNL A   1      36.458  31.808  32.383  1.00  0.00     0.012 A 
ATOM     75  C   UNL A   1      36.461  31.582  29.976  1.00  0.00     0.148 A 
ATOM     76  C   UNL A   1      35.342  32.651  32.303  1.00  0.00     0.002 A 
ATOM     77  C   UNL A   1      35.340  32.405  29.903  1.00  0.00     0.091 A 
ATOM     78  F   UNL A   1      37.047  31.159  28.849  1.00  0.00    -0.205 F 
ATOM     79  C   UNL A   1      34.788  32.956  31.064  1.00  0.00     0.022 A 
BRANCH  77  80
ATOM     80  S   UNL A   1      34.583  32.827  28.327  1.00  0.00     0.127 S 
ATOM     81  O   UNL A   1      33.556  33.790  28.725  1.00  0.00    -0.237 OA
ATOM     82  O   UNL A   1      35.708  33.400  27.593  1.00  0.00    -0.237 OA
ATOM     83  O   UNL A   1      34.050  31.575  27.802  1.00  0.00    -0.744 OA
ENDBRANCH  77  80
ENDBRANCH  49  73
BRANCH  61  84
ATOM     84  C   UNL A   1      42.618  29.717  33.763  1.00  0.00     0.023 A 
ATOM     85  C   UNL A   1      42.023  28.463  33.514  1.00  0.00     0.012 A 
ATOM     86  C   UNL A   1      43.303  29.923  34.972  1.00  0.00     0.148 A 
ATOM     87  C   UNL A   1      42.108  27.435  34.455  1.00  0.00     0.002 A 
ATOM     88  C   UNL A   1      43.421  28.885  35.887  1.00  0.00     0.091 A 
ATOM     89  F   UNL A   1      43.878  31.119  35.176  1.00  0.00    -0.205 F 
ATOM     90  C   UNL A   1      42.821  27.641  35.634  1.00  0.00     0.022 A 
BRANCH  88  91
ATOM     91  S   UNL A   1      44.429  29.030  37.364  1.00  0.00     0.127 S 
ATOM     92  O   UNL A   1      43.829  30.184  38.031  1.00  0.00    -0.237 OA
ATOM     93  O   UNL A   1      44.190  27.747  38.027  1.00  0.00    -0.237 OA
ATOM     94  O   UNL A   1      45.799  29.223  36.906  1.00  0.00    -0.744 OA
ENDBRANCH  88  91
ENDBRANCH  61  84
ENDBRANCH  35  36
ENDBRANCH  27  30
ENDBRANCH  25  26
ENDBRANCH   1  25
TORSDOF 18
ENDMDL
