MODEL 1
REMARK VINA RESULT:     -12.3      0.000      0.000
REMARK SMILES O=C(NCCCCNC(=O)[C@H]1CC1(c1ccccc1)c1ccccc1)c1ccc(-c2c3nc(c(-c4cccc(S(=O)(=O)[O-])c4F)c4ccc([nH]4)c(-c4cccc(S(=O)(=O)[O-])c4F)c4nc(c(-c5cccc(S(=O)(=O)[O-])c5F)c5ccc2[nH]5)C=C4)C=C3)cc1
REMARK SMILES IDX 4 1 3 2 1 3 2 4 26 6 27 7 88 8 28 9 87 10 29 11 30 12 31 13
REMARK SMILES IDX 81 14 32 15 86 16 80 17 82 18 33 19 85 20 79 21 78 22 34 24
REMARK SMILES IDX 66 25 46 26 65 27 47 28 50 29 64 30 83 31 48 32 49 33 63 35
REMARK SMILES IDX 84 36 51 37 35 38 36 39 44 40 37 41 39 42 45 43 38 44 40 45
REMARK SMILES IDX 41 46 42 47 43 48 67 49 68 50 76 51 69 52 71 53 77 54 70 55
REMARK SMILES IDX 72 56 73 57 74 58 75 59 52 60 53 61 61 62 54 63 56 64 62 65
REMARK SMILES IDX 55 66 57 67 58 68 59 69 60 70 5 71 6 72 7 73 8 74 9 75 10 77
REMARK SMILES IDX 11 78 12 79 13 80 14 81 15 82 19 83 16 84 18 85 17 86 20 87
REMARK SMILES IDX 21 88 25 89 22 90 24 91 23 92
REMARK H PARENT 3 5 82 23 50 34 8 76
REMARK Flexibility Score: inf
ROOT
ATOM      1  C   UNL A   1      32.065  30.410  26.786  1.00  0.00     0.116 C 
ENDROOT
BRANCH   1   2
ATOM      2  N   UNL A   1      32.008  31.860  26.908  1.00  0.00    -0.352 N 
ATOM      3  O   UNL A   1      32.654  33.919  27.561  1.00  0.00    -0.269 OA
ATOM      4  C   UNL A   1      32.929  32.727  27.454  1.00  0.00     0.251 C 
ATOM      5  H   UNL A   1      31.195  32.281  26.547  1.00  0.00     0.163 HD
BRANCH   4   6
ATOM      6  C   UNL A   1      34.225  32.209  27.948  1.00  0.00     0.039 A 
ATOM      7  C   UNL A   1      34.351  30.877  28.345  1.00  0.00     0.014 A 
ATOM      8  C   UNL A   1      35.315  33.077  28.054  1.00  0.00     0.014 A 
ATOM      9  C   UNL A   1      35.492  30.469  29.026  1.00  0.00     0.010 A 
ATOM     10  C   UNL A   1      36.502  32.631  28.646  1.00  0.00     0.010 A 
ATOM     11  C   UNL A   1      36.583  31.339  29.187  1.00  0.00    -0.014 A 
BRANCH  11  12
ATOM     12  C   UNL A   1      37.800  30.853  29.891  1.00  0.00     0.031 A 
ATOM     13  C   UNL A   1      38.104  31.256  31.310  1.00  0.00     0.074 A 
ATOM     14  C   UNL A   1      38.627  30.008  29.242  1.00  0.00     0.049 A 
ATOM     15  N   UNL A   1      39.084  30.860  32.084  1.00  0.00    -0.248 NA
ATOM     16  C   UNL A   1      37.205  32.235  31.942  1.00  0.00     0.031 C 
ATOM     17  C   UNL A   1      38.464  29.578  27.850  1.00  0.00     0.029 A 
ATOM     18  N   UNL A   1      39.755  29.350  29.662  1.00  0.00    -0.354 N 
ATOM     19  C   UNL A   1      38.950  31.572  33.271  1.00  0.00     0.074 A 
ATOM     20  C   UNL A   1      37.796  32.430  33.115  1.00  0.00     0.031 C 
ATOM     21  C   UNL A   1      39.425  28.695  27.548  1.00  0.00     0.029 A 
ATOM     22  C   UNL A   1      40.303  28.535  28.701  1.00  0.00     0.049 A 
ATOM     23  H   UNL A   1      40.134  29.452  30.564  1.00  0.00     0.167 HD
ATOM     24  C   UNL A   1      39.708  31.506  34.392  1.00  0.00     0.034 A 
ATOM     25  C   UNL A   1      41.395  27.747  28.737  1.00  0.00     0.034 A 
ATOM     26  C   UNL A   1      40.826  30.613  34.561  1.00  0.00     0.049 A 
ATOM     27  C   UNL A   1      42.191  27.665  30.006  1.00  0.00     0.074 A 
ATOM     28  C   UNL A   1      41.605  30.414  35.688  1.00  0.00     0.029 A 
ATOM     29  N   UNL A   1      41.330  29.777  33.577  1.00  0.00    -0.354 N 
ATOM     30  N   UNL A   1      41.964  28.242  31.161  1.00  0.00    -0.248 NA
ATOM     31  C   UNL A   1      43.380  26.803  29.986  1.00  0.00     0.031 C 
ATOM     32  C   UNL A   1      42.594  29.474  35.379  1.00  0.00     0.029 A 
ATOM     33  C   UNL A   1      42.417  29.069  34.065  1.00  0.00     0.049 A 
ATOM     34  H   UNL A   1      40.969  29.697  32.665  1.00  0.00     0.167 HD
ATOM     35  C   UNL A   1      42.963  27.790  32.014  1.00  0.00     0.074 A 
ATOM     36  C   UNL A   1      43.782  26.872  31.248  1.00  0.00     0.031 C 
ATOM     37  C   UNL A   1      43.193  28.121  33.308  1.00  0.00     0.034 A 
BRANCH  24  38
ATOM     38  C   UNL A   1      39.340  32.401  35.549  1.00  0.00     0.023 A 
ATOM     39  C   UNL A   1      38.553  31.893  36.602  1.00  0.00     0.012 A 
ATOM     40  C   UNL A   1      39.830  33.721  35.628  1.00  0.00     0.148 A 
ATOM     41  C   UNL A   1      38.233  32.693  37.699  1.00  0.00     0.002 A 
ATOM     42  C   UNL A   1      39.541  34.497  36.745  1.00  0.00     0.091 A 
ATOM     43  F   UNL A   1      40.560  34.194  34.609  1.00  0.00    -0.205 F 
ATOM     44  C   UNL A   1      38.735  33.990  37.776  1.00  0.00     0.022 A 
BRANCH  42  45
ATOM     45  S   UNL A   1      40.208  36.151  36.967  1.00  0.00     0.127 S 
ATOM     46  O   UNL A   1      39.828  36.794  35.710  1.00  0.00    -0.237 OA
ATOM     47  O   UNL A   1      39.474  36.628  38.140  1.00  0.00    -0.237 OA
ATOM     48  O   UNL A   1      41.638  35.978  37.181  1.00  0.00    -0.744 OA
ENDBRANCH  42  45
ENDBRANCH  24  38
BRANCH  25  49
ATOM     49  C   UNL A   1      41.752  26.925  27.546  1.00  0.00     0.023 A 
ATOM     50  C   UNL A   1      42.402  27.537  26.456  1.00  0.00     0.012 A 
ATOM     51  C   UNL A   1      41.501  25.541  27.509  1.00  0.00     0.148 A 
ATOM     52  C   UNL A   1      42.773  26.787  25.340  1.00  0.00     0.002 A 
ATOM     53  C   UNL A   1      41.927  24.789  26.421  1.00  0.00     0.091 A 
ATOM     54  F   UNL A   1      40.867  24.981  28.550  1.00  0.00    -0.205 F 
ATOM     55  C   UNL A   1      42.549  25.413  25.328  1.00  0.00     0.022 A 
BRANCH  53  56
ATOM     56  S   UNL A   1      41.809  22.998  26.389  1.00  0.00     0.127 S 
ATOM     57  O   UNL A   1      42.457  22.678  25.122  1.00  0.00    -0.237 OA
ATOM     58  O   UNL A   1      42.566  22.621  27.584  1.00  0.00    -0.237 OA
ATOM     59  O   UNL A   1      40.385  22.700  26.468  1.00  0.00    -0.744 OA
ENDBRANCH  53  56
ENDBRANCH  25  49
BRANCH  37  60
ATOM     60  C   UNL A   1      44.363  27.463  33.991  1.00  0.00     0.023 A 
ATOM     61  C   UNL A   1      45.645  28.037  33.892  1.00  0.00     0.012 A 
ATOM     62  C   UNL A   1      44.182  26.306  34.776  1.00  0.00     0.148 A 
ATOM     63  C   UNL A   1      46.737  27.451  34.531  1.00  0.00     0.002 A 
ATOM     64  C   UNL A   1      45.266  25.755  35.448  1.00  0.00     0.091 A 
ATOM     65  F   UNL A   1      42.959  25.760  34.840  1.00  0.00    -0.205 F 
ATOM     66  C   UNL A   1      46.546  26.318  35.317  1.00  0.00     0.022 A 
BRANCH  64  67
ATOM     67  S   UNL A   1      45.090  24.351  36.557  1.00  0.00     0.127 S 
ATOM     68  O   UNL A   1      44.558  23.328  35.660  1.00  0.00    -0.237 OA
ATOM     69  O   UNL A   1      46.467  24.123  36.995  1.00  0.00    -0.237 OA
ATOM     70  O   UNL A   1      44.189  24.793  37.614  1.00  0.00    -0.744 OA
ENDBRANCH  64  67
ENDBRANCH  37  60
ENDBRANCH  11  12
ENDBRANCH   4   6
ENDBRANCH   1   2
BRANCH   1  71
ATOM     71  C   UNL A   1      32.155  29.924  25.345  1.00  0.00     0.023 C 
BRANCH  71  72
ATOM     72  C   UNL A   1      33.349  29.031  25.024  1.00  0.00     0.023 C 
BRANCH  72  73
ATOM     73  C   UNL A   1      33.834  29.077  23.578  1.00  0.00     0.116 C 
BRANCH  73  74
ATOM     74  N   UNL A   1      34.197  27.774  23.050  1.00  0.00    -0.356 N 
ATOM     75  C   UNL A   1      33.421  26.907  22.319  1.00  0.00     0.224 C 
ATOM     76  H   UNL A   1      35.115  27.473  23.241  1.00  0.00     0.163 HD
ATOM     77  O   UNL A   1      33.858  25.812  21.979  1.00  0.00    -0.275 OA
BRANCH  75  78
ATOM     78  C   UNL A   1      32.018  27.297  22.055  1.00  0.00     0.095 C 
ATOM     79  C   UNL A   1      31.056  26.249  21.558  1.00  0.00     0.032 C 
ATOM     80  C   UNL A   1      30.790  26.930  22.899  1.00  0.00     0.033 C 
BRANCH  80  81
ATOM     81  C   UNL A   1      30.820  25.960  24.094  1.00  0.00    -0.037 A 
ATOM     82  C   UNL A   1      31.024  26.450  25.399  1.00  0.00     0.004 A 
ATOM     83  C   UNL A   1      30.815  24.563  23.931  1.00  0.00     0.004 A 
ATOM     84  C   UNL A   1      31.250  25.595  26.481  1.00  0.00     0.000 A 
ATOM     85  C   UNL A   1      31.053  23.703  25.007  1.00  0.00     0.000 A 
ATOM     86  C   UNL A   1      31.281  24.220  26.280  1.00  0.00     0.000 A 
ENDBRANCH  80  81
BRANCH  80  87
ATOM     87  C   UNL A   1      29.660  28.015  22.973  1.00  0.00    -0.037 A 
ATOM     88  C   UNL A   1      28.317  27.663  23.224  1.00  0.00     0.004 A 
ATOM     89  C   UNL A   1      29.903  29.393  22.790  1.00  0.00     0.004 A 
ATOM     90  C   UNL A   1      27.283  28.603  23.250  1.00  0.00     0.000 A 
ATOM     91  C   UNL A   1      28.875  30.343  22.822  1.00  0.00     0.000 A 
ATOM     92  C   UNL A   1      27.562  29.946  23.044  1.00  0.00     0.000 A 
ENDBRANCH  80  87
ENDBRANCH  75  78
ENDBRANCH  73  74
ENDBRANCH  72  73
ENDBRANCH  71  72
ENDBRANCH   1  71
TORSDOF 16
ENDMDL
MODEL 2
REMARK VINA RESULT:     -12.3      1.985      2.857
REMARK SMILES O=C(NCCCCNC(=O)[C@H]1CC1(c1ccccc1)c1ccccc1)c1ccc(-c2c3nc(c(-c4cccc(S(=O)(=O)[O-])c4F)c4ccc([nH]4)c(-c4cccc(S(=O)(=O)[O-])c4F)c4nc(c(-c5cccc(S(=O)(=O)[O-])c5F)c5ccc2[nH]5)C=C4)C=C3)cc1
REMARK SMILES IDX 4 1 3 2 1 3 2 4 26 6 27 7 88 8 28 9 87 10 29 11 30 12 31 13
REMARK SMILES IDX 81 14 32 15 86 16 80 17 82 18 33 19 85 20 79 21 78 22 34 24
REMARK SMILES IDX 66 25 46 26 65 27 47 28 50 29 64 30 83 31 48 32 49 33 63 35
REMARK SMILES IDX 84 36 51 37 35 38 36 39 44 40 37 41 39 42 45 43 38 44 40 45
REMARK SMILES IDX 41 46 42 47 43 48 67 49 68 50 76 51 69 52 71 53 77 54 70 55
REMARK SMILES IDX 72 56 73 57 74 58 75 59 52 60 53 61 61 62 54 63 56 64 62 65
REMARK SMILES IDX 55 66 57 67 58 68 59 69 60 70 5 71 6 72 7 73 8 74 9 75 10 77
REMARK SMILES IDX 11 78 12 79 13 80 14 81 15 82 19 83 16 84 18 85 17 86 20 87
REMARK SMILES IDX 21 88 25 89 22 90 24 91 23 92
REMARK H PARENT 3 5 82 23 50 34 8 76
REMARK Flexibility Score: inf
ROOT
ATOM      1  C   UNL A   1      32.658  29.651  25.752  1.00  0.00     0.116 C 
ENDROOT
BRANCH   1   2
ATOM      2  N   UNL A   1      32.301  30.983  26.218  1.00  0.00    -0.352 N 
ATOM      3  O   UNL A   1      32.456  32.868  27.446  1.00  0.00    -0.269 OA
ATOM      4  C   UNL A   1      32.973  31.813  27.090  1.00  0.00     0.251 C 
ATOM      5  H   UNL A   1      31.459  31.344  25.858  1.00  0.00     0.163 HD
BRANCH   4   6
ATOM      6  C   UNL A   1      34.292  31.405  27.624  1.00  0.00     0.039 A 
ATOM      7  C   UNL A   1      34.549  30.070  27.938  1.00  0.00     0.014 A 
ATOM      8  C   UNL A   1      35.270  32.377  27.853  1.00  0.00     0.014 A 
ATOM      9  C   UNL A   1      35.692  29.740  28.656  1.00  0.00     0.010 A 
ATOM     10  C   UNL A   1      36.467  32.023  28.483  1.00  0.00     0.010 A 
ATOM     11  C   UNL A   1      36.667  30.711  28.940  1.00  0.00    -0.014 A 
BRANCH  11  12
ATOM     12  C   UNL A   1      37.893  30.311  29.681  1.00  0.00     0.031 A 
ATOM     13  C   UNL A   1      38.129  30.740  31.105  1.00  0.00     0.074 A 
ATOM     14  C   UNL A   1      38.793  29.521  29.061  1.00  0.00     0.049 A 
ATOM     15  N   UNL A   1      39.111  30.414  31.909  1.00  0.00    -0.248 NA
ATOM     16  C   UNL A   1      37.148  31.659  31.706  1.00  0.00     0.031 C 
ATOM     17  C   UNL A   1      38.700  29.076  27.668  1.00  0.00     0.029 A 
ATOM     18  N   UNL A   1      39.950  28.943  29.517  1.00  0.00    -0.354 N 
ATOM     19  C   UNL A   1      38.895  31.121  33.088  1.00  0.00     0.074 A 
ATOM     20  C   UNL A   1      37.691  31.899  32.894  1.00  0.00     0.031 C 
ATOM     21  C   UNL A   1      39.726  28.258  27.398  1.00  0.00     0.029 A 
ATOM     22  C   UNL A   1      40.580  28.163  28.576  1.00  0.00     0.049 A 
ATOM     23  H   UNL A   1      40.297  29.075  30.429  1.00  0.00     0.167 HD
ATOM     24  C   UNL A   1      39.624  31.111  34.229  1.00  0.00     0.034 A 
ATOM     25  C   UNL A   1      41.721  27.450  28.648  1.00  0.00     0.034 A 
ATOM     26  C   UNL A   1      40.794  30.296  34.435  1.00  0.00     0.049 A 
ATOM     27  C   UNL A   1      42.484  27.428  29.939  1.00  0.00     0.074 A 
ATOM     28  C   UNL A   1      41.553  30.155  35.585  1.00  0.00     0.029 A 
ATOM     29  N   UNL A   1      41.382  29.492  33.471  1.00  0.00    -0.354 N 
ATOM     30  N   UNL A   1      42.186  27.993  31.084  1.00  0.00    -0.248 NA
ATOM     31  C   UNL A   1      43.729  26.648  29.958  1.00  0.00     0.031 C 
ATOM     32  C   UNL A   1      42.611  29.283  35.310  1.00  0.00     0.029 A 
ATOM     33  C   UNL A   1      42.499  28.861  33.995  1.00  0.00     0.049 A 
ATOM     34  H   UNL A   1      41.053  29.384  32.550  1.00  0.00     0.167 HD
ATOM     35  C   UNL A   1      43.189  27.614  31.967  1.00  0.00     0.074 A 
ATOM     36  C   UNL A   1      44.089  26.749  31.230  1.00  0.00     0.031 C 
ATOM     37  C   UNL A   1      43.359  27.964  33.266  1.00  0.00     0.034 A 
BRANCH  24  38
ATOM     38  C   UNL A   1      39.163  31.984  35.370  1.00  0.00     0.023 A 
ATOM     39  C   UNL A   1      39.350  33.380  35.301  1.00  0.00     0.012 A 
ATOM     40  C   UNL A   1      38.484  31.433  36.475  1.00  0.00     0.148 A 
ATOM     41  C   UNL A   1      38.897  34.209  36.327  1.00  0.00     0.002 A 
ATOM     42  C   UNL A   1      37.998  32.271  37.474  1.00  0.00     0.091 A 
ATOM     43  F   UNL A   1      38.332  30.103  36.535  1.00  0.00    -0.205 F 
ATOM     44  C   UNL A   1      38.212  33.657  37.407  1.00  0.00     0.022 A 
BRANCH  42  45
ATOM     45  S   UNL A   1      37.037  31.658  38.863  1.00  0.00     0.127 S 
ATOM     46  O   UNL A   1      35.869  32.537  38.825  1.00  0.00    -0.237 OA
ATOM     47  O   UNL A   1      36.769  30.274  38.469  1.00  0.00    -0.237 OA
ATOM     48  O   UNL A   1      37.893  31.796  40.032  1.00  0.00    -0.744 OA
ENDBRANCH  42  45
ENDBRANCH  24  38
BRANCH  25  49
ATOM     49  C   UNL A   1      42.166  26.650  27.473  1.00  0.00     0.023 A 
ATOM     50  C   UNL A   1      42.954  27.263  26.479  1.00  0.00     0.012 A 
ATOM     51  C   UNL A   1      41.861  25.280  27.361  1.00  0.00     0.148 A 
ATOM     52  C   UNL A   1      43.409  26.531  25.382  1.00  0.00     0.002 A 
ATOM     53  C   UNL A   1      42.367  24.543  26.297  1.00  0.00     0.091 A 
ATOM     54  F   UNL A   1      41.096  24.719  28.309  1.00  0.00    -0.205 F 
ATOM     55  C   UNL A   1      43.128  25.170  25.298  1.00  0.00     0.022 A 
BRANCH  53  56
ATOM     56  S   UNL A   1      42.175  22.761  26.190  1.00  0.00     0.127 S 
ATOM     57  O   UNL A   1      42.803  22.469  24.906  1.00  0.00    -0.237 OA
ATOM     58  O   UNL A   1      42.922  22.303  27.362  1.00  0.00    -0.237 OA
ATOM     59  O   UNL A   1      40.740  22.519  26.266  1.00  0.00    -0.744 OA
ENDBRANCH  53  56
ENDBRANCH  25  49
BRANCH  37  60
ATOM     60  C   UNL A   1      44.550  27.390  33.985  1.00  0.00     0.023 A 
ATOM     61  C   UNL A   1      45.789  28.058  33.931  1.00  0.00     0.012 A 
ATOM     62  C   UNL A   1      44.429  26.218  34.759  1.00  0.00     0.148 A 
ATOM     63  C   UNL A   1      46.900  27.549  34.604  1.00  0.00     0.002 A 
ATOM     64  C   UNL A   1      45.527  25.744  35.466  1.00  0.00     0.091 A 
ATOM     65  F   UNL A   1      43.248  25.584  34.780  1.00  0.00    -0.205 F 
ATOM     66  C   UNL A   1      46.766  26.400  35.380  1.00  0.00     0.022 A 
BRANCH  64  67
ATOM     67  S   UNL A   1      45.418  24.325  36.562  1.00  0.00     0.127 S 
ATOM     68  O   UNL A   1      45.086  23.251  35.628  1.00  0.00    -0.237 OA
ATOM     69  O   UNL A   1      46.770  24.253  37.119  1.00  0.00    -0.237 OA
ATOM     70  O   UNL A   1      44.385  24.655  37.536  1.00  0.00    -0.744 OA
ENDBRANCH  64  67
ENDBRANCH  37  60
ENDBRANCH  11  12
ENDBRANCH   4   6
ENDBRANCH   1   2
BRANCH   1  71
ATOM     71  C   UNL A   1      31.476  28.858  25.210  1.00  0.00     0.023 C 
BRANCH  71  72
ATOM     72  C   UNL A   1      31.721  28.127  23.893  1.00  0.00     0.023 C 
BRANCH  72  73
ATOM     73  C   UNL A   1      33.142  27.615  23.682  1.00  0.00     0.116 C 
BRANCH  73  74
ATOM     74  N   UNL A   1      33.409  27.202  22.315  1.00  0.00    -0.356 N 
ATOM     75  C   UNL A   1      33.006  26.053  21.680  1.00  0.00     0.224 C 
ATOM     76  H   UNL A   1      33.947  27.826  21.775  1.00  0.00     0.163 HD
ATOM     77  O   UNL A   1      33.351  25.823  20.525  1.00  0.00    -0.275 OA
BRANCH  75  78
ATOM     78  C   UNL A   1      32.240  25.064  22.470  1.00  0.00     0.095 C 
ATOM     79  C   UNL A   1      32.429  23.598  22.177  1.00  0.00     0.032 C 
ATOM     80  C   UNL A   1      32.791  24.135  23.561  1.00  0.00     0.033 C 
BRANCH  80  81
ATOM     81  C   UNL A   1      34.286  23.992  23.899  1.00  0.00    -0.037 A 
ATOM     82  C   UNL A   1      35.139  23.262  23.047  1.00  0.00     0.004 A 
ATOM     83  C   UNL A   1      34.827  24.425  25.123  1.00  0.00     0.004 A 
ATOM     84  C   UNL A   1      36.450  22.946  23.411  1.00  0.00     0.000 A 
ATOM     85  C   UNL A   1      36.134  24.102  25.498  1.00  0.00     0.000 A 
ATOM     86  C   UNL A   1      36.942  23.352  24.647  1.00  0.00     0.000 A 
ENDBRANCH  80  81
BRANCH  80  87
ATOM     87  C   UNL A   1      31.823  23.831  24.756  1.00  0.00    -0.037 A 
ATOM     88  C   UNL A   1      31.588  22.510  25.194  1.00  0.00     0.004 A 
ATOM     89  C   UNL A   1      31.127  24.837  25.458  1.00  0.00     0.004 A 
ATOM     90  C   UNL A   1      30.697  22.205  26.227  1.00  0.00     0.000 A 
ATOM     91  C   UNL A   1      30.237  24.542  26.499  1.00  0.00     0.000 A 
ATOM     92  C   UNL A   1      30.015  23.224  26.877  1.00  0.00     0.000 A 
ENDBRANCH  80  87
ENDBRANCH  75  78
ENDBRANCH  73  74
ENDBRANCH  72  73
ENDBRANCH  71  72
ENDBRANCH   1  71
TORSDOF 16
ENDMDL
MODEL 3
REMARK VINA RESULT:     -12.3      1.437      2.475
REMARK SMILES O=C(NCCCCNC(=O)[C@H]1CC1(c1ccccc1)c1ccccc1)c1ccc(-c2c3nc(c(-c4cccc(S(=O)(=O)[O-])c4F)c4ccc([nH]4)c(-c4cccc(S(=O)(=O)[O-])c4F)c4nc(c(-c5cccc(S(=O)(=O)[O-])c5F)c5ccc2[nH]5)C=C4)C=C3)cc1
REMARK SMILES IDX 4 1 3 2 1 3 2 4 26 6 27 7 88 8 28 9 87 10 29 11 30 12 31 13
REMARK SMILES IDX 81 14 32 15 86 16 80 17 82 18 33 19 85 20 79 21 78 22 34 24
REMARK SMILES IDX 66 25 46 26 65 27 47 28 50 29 64 30 83 31 48 32 49 33 63 35
REMARK SMILES IDX 84 36 51 37 35 38 36 39 44 40 37 41 39 42 45 43 38 44 40 45
REMARK SMILES IDX 41 46 42 47 43 48 67 49 68 50 76 51 69 52 71 53 77 54 70 55
REMARK SMILES IDX 72 56 73 57 74 58 75 59 52 60 53 61 61 62 54 63 56 64 62 65
REMARK SMILES IDX 55 66 57 67 58 68 59 69 60 70 5 71 6 72 7 73 8 74 9 75 10 77
REMARK SMILES IDX 11 78 12 79 13 80 14 81 15 82 19 83 16 84 18 85 17 86 20 87
REMARK SMILES IDX 21 88 25 89 22 90 24 91 23 92
REMARK H PARENT 3 5 82 23 50 34 8 76
REMARK Flexibility Score: inf
ROOT
ATOM      1  C   UNL A   1      32.686  29.720  25.747  1.00  0.00     0.116 C 
ENDROOT
BRANCH   1   2
ATOM      2  N   UNL A   1      32.329  31.042  26.240  1.00  0.00    -0.352 N 
ATOM      3  O   UNL A   1      32.482  32.900  27.509  1.00  0.00    -0.269 OA
ATOM      4  C   UNL A   1      32.999  31.852  27.131  1.00  0.00     0.251 C 
ATOM      5  H   UNL A   1      31.488  31.411  25.886  1.00  0.00     0.163 HD
BRANCH   4   6
ATOM      6  C   UNL A   1      34.316  31.431  27.661  1.00  0.00     0.039 A 
ATOM      7  C   UNL A   1      34.547  30.101  28.015  1.00  0.00     0.014 A 
ATOM      8  C   UNL A   1      35.319  32.387  27.844  1.00  0.00     0.014 A 
ATOM      9  C   UNL A   1      35.693  29.769  28.728  1.00  0.00     0.010 A 
ATOM     10  C   UNL A   1      36.517  32.026  28.469  1.00  0.00     0.010 A 
ATOM     11  C   UNL A   1      36.693  30.725  28.966  1.00  0.00    -0.014 A 
BRANCH  11  12
ATOM     12  C   UNL A   1      37.921  30.321  29.703  1.00  0.00     0.031 A 
ATOM     13  C   UNL A   1      38.167  30.757  31.124  1.00  0.00     0.074 A 
ATOM     14  C   UNL A   1      38.812  29.521  29.083  1.00  0.00     0.049 A 
ATOM     15  N   UNL A   1      39.150  30.429  31.924  1.00  0.00    -0.248 NA
ATOM     16  C   UNL A   1      37.196  31.686  31.724  1.00  0.00     0.031 C 
ATOM     17  C   UNL A   1      38.708  29.068  27.694  1.00  0.00     0.029 A 
ATOM     18  N   UNL A   1      39.967  28.938  29.536  1.00  0.00    -0.354 N 
ATOM     19  C   UNL A   1      38.946  31.145  33.100  1.00  0.00     0.074 A 
ATOM     20  C   UNL A   1      37.746  31.930  32.907  1.00  0.00     0.031 C 
ATOM     21  C   UNL A   1      39.727  28.241  27.423  1.00  0.00     0.029 A 
ATOM     22  C   UNL A   1      40.586  28.148  28.597  1.00  0.00     0.049 A 
ATOM     23  H   UNL A   1      40.319  29.072  30.446  1.00  0.00     0.167 HD
ATOM     24  C   UNL A   1      39.681  31.136  34.238  1.00  0.00     0.034 A 
ATOM     25  C   UNL A   1      41.723  27.427  28.667  1.00  0.00     0.034 A 
ATOM     26  C   UNL A   1      40.847  30.315  34.442  1.00  0.00     0.049 A 
ATOM     27  C   UNL A   1      42.493  27.408  29.955  1.00  0.00     0.074 A 
ATOM     28  C   UNL A   1      41.610  30.175  35.589  1.00  0.00     0.029 A 
ATOM     29  N   UNL A   1      41.423  29.501  33.480  1.00  0.00    -0.354 N 
ATOM     30  N   UNL A   1      42.205  27.982  31.097  1.00  0.00    -0.248 NA
ATOM     31  C   UNL A   1      43.732  26.619  29.972  1.00  0.00     0.031 C 
ATOM     32  C   UNL A   1      42.661  29.294  35.313  1.00  0.00     0.029 A 
ATOM     33  C   UNL A   1      42.539  28.865  34.001  1.00  0.00     0.049 A 
ATOM     34  H   UNL A   1      41.089  29.389  32.561  1.00  0.00     0.167 HD
ATOM     35  C   UNL A   1      43.209  27.601  31.978  1.00  0.00     0.074 A 
ATOM     36  C   UNL A   1      44.099  26.726  31.241  1.00  0.00     0.031 C 
ATOM     37  C   UNL A   1      43.389  27.958  33.273  1.00  0.00     0.034 A 
BRANCH  24  38
ATOM     38  C   UNL A   1      39.233  32.020  35.375  1.00  0.00     0.023 A 
ATOM     39  C   UNL A   1      38.342  31.514  36.344  1.00  0.00     0.012 A 
ATOM     40  C   UNL A   1      39.745  33.324  35.525  1.00  0.00     0.148 A 
ATOM     41  C   UNL A   1      37.946  32.301  37.425  1.00  0.00     0.002 A 
ATOM     42  C   UNL A   1      39.377  34.088  36.627  1.00  0.00     0.091 A 
ATOM     43  F   UNL A   1      40.575  33.797  34.584  1.00  0.00    -0.205 F 
ATOM     44  C   UNL A   1      38.470  33.583  37.572  1.00  0.00     0.022 A 
BRANCH  42  45
ATOM     45  S   UNL A   1      40.062  35.720  36.942  1.00  0.00     0.127 S 
ATOM     46  O   UNL A   1      39.599  36.464  35.772  1.00  0.00    -0.237 OA
ATOM     47  O   UNL A   1      39.410  36.093  38.198  1.00  0.00    -0.237 OA
ATOM     48  O   UNL A   1      41.502  35.534  37.043  1.00  0.00    -0.744 OA
ENDBRANCH  42  45
ENDBRANCH  24  38
BRANCH  25  49
ATOM     49  C   UNL A   1      42.156  26.617  27.495  1.00  0.00     0.023 A 
ATOM     50  C   UNL A   1      42.937  27.220  26.490  1.00  0.00     0.012 A 
ATOM     51  C   UNL A   1      41.847  25.247  27.396  1.00  0.00     0.148 A 
ATOM     52  C   UNL A   1      43.381  26.479  25.395  1.00  0.00     0.002 A 
ATOM     53  C   UNL A   1      42.342  24.500  26.334  1.00  0.00     0.091 A 
ATOM     54  F   UNL A   1      41.089  24.696  28.355  1.00  0.00    -0.205 F 
ATOM     55  C   UNL A   1      43.096  25.118  25.324  1.00  0.00     0.022 A 
BRANCH  53  56
ATOM     56  S   UNL A   1      42.145  22.718  26.243  1.00  0.00     0.127 S 
ATOM     57  O   UNL A   1      42.851  22.277  27.441  1.00  0.00    -0.237 OA
ATOM     58  O   UNL A   1      40.690  22.570  26.292  1.00  0.00    -0.237 OA
ATOM     59  O   UNL A   1      42.741  22.325  24.973  1.00  0.00    -0.744 OA
ENDBRANCH  53  56
ENDBRANCH  25  49
BRANCH  37  60
ATOM     60  C   UNL A   1      44.580  27.379  33.990  1.00  0.00     0.023 A 
ATOM     61  C   UNL A   1      45.819  28.046  33.938  1.00  0.00     0.012 A 
ATOM     62  C   UNL A   1      44.457  26.205  34.759  1.00  0.00     0.148 A 
ATOM     63  C   UNL A   1      46.930  27.534  34.608  1.00  0.00     0.002 A 
ATOM     64  C   UNL A   1      45.556  25.727  35.464  1.00  0.00     0.091 A 
ATOM     65  F   UNL A   1      43.276  25.572  34.779  1.00  0.00    -0.205 F 
ATOM     66  C   UNL A   1      46.795  26.382  35.380  1.00  0.00     0.022 A 
BRANCH  64  67
ATOM     67  S   UNL A   1      45.445  24.304  36.555  1.00  0.00     0.127 S 
ATOM     68  O   UNL A   1      45.124  23.231  35.616  1.00  0.00    -0.237 OA
ATOM     69  O   UNL A   1      46.794  24.236  37.120  1.00  0.00    -0.237 OA
ATOM     70  O   UNL A   1      44.405  24.627  37.523  1.00  0.00    -0.744 OA
ENDBRANCH  64  67
ENDBRANCH  37  60
ENDBRANCH  11  12
ENDBRANCH   4   6
ENDBRANCH   1   2
BRANCH   1  71
ATOM     71  C   UNL A   1      31.572  29.042  24.959  1.00  0.00     0.023 C 
BRANCH  71  72
ATOM     72  C   UNL A   1      31.953  28.556  23.564  1.00  0.00     0.023 C 
BRANCH  72  73
ATOM     73  C   UNL A   1      33.056  27.502  23.515  1.00  0.00     0.116 C 
BRANCH  73  74
ATOM     74  N   UNL A   1      33.360  27.049  22.169  1.00  0.00    -0.356 N 
ATOM     75  C   UNL A   1      32.999  25.868  21.567  1.00  0.00     0.224 C 
ATOM     76  H   UNL A   1      33.894  27.667  21.617  1.00  0.00     0.163 HD
ATOM     77  O   UNL A   1      33.373  25.607  20.429  1.00  0.00    -0.275 OA
BRANCH  75  78
ATOM     78  C   UNL A   1      32.242  24.889  22.378  1.00  0.00     0.095 C 
ATOM     79  C   UNL A   1      32.480  23.419  22.147  1.00  0.00     0.032 C 
ATOM     80  C   UNL A   1      32.792  24.019  23.517  1.00  0.00     0.033 C 
BRANCH  80  81
ATOM     81  C   UNL A   1      34.281  23.934  23.897  1.00  0.00    -0.037 A 
ATOM     82  C   UNL A   1      35.174  23.189  23.100  1.00  0.00     0.004 A 
ATOM     83  C   UNL A   1      34.780  24.438  25.111  1.00  0.00     0.004 A 
ATOM     84  C   UNL A   1      36.484  22.927  23.509  1.00  0.00     0.000 A 
ATOM     85  C   UNL A   1      36.085  24.169  25.531  1.00  0.00     0.000 A 
ATOM     86  C   UNL A   1      36.934  23.404  24.735  1.00  0.00     0.000 A 
ENDBRANCH  80  81
BRANCH  80  87
ATOM     87  C   UNL A   1      31.803  23.733  24.700  1.00  0.00    -0.037 A 
ATOM     88  C   UNL A   1      31.132  24.780  25.367  1.00  0.00     0.004 A 
ATOM     89  C   UNL A   1      31.526  22.434  25.174  1.00  0.00     0.004 A 
ATOM     90  C   UNL A   1      30.280  24.557  26.453  1.00  0.00     0.000 A 
ATOM     91  C   UNL A   1      30.669  22.200  26.257  1.00  0.00     0.000 A 
ATOM     92  C   UNL A   1      30.052  23.265  26.902  1.00  0.00     0.000 A 
ENDBRANCH  80  87
ENDBRANCH  75  78
ENDBRANCH  73  74
ENDBRANCH  72  73
ENDBRANCH  71  72
ENDBRANCH   1  71
TORSDOF 16
ENDMDL
