MODEL 1
REMARK VINA RESULT:     -14.1      0.000      0.000
REMARK SMILES O=C(NCCCCNC(=O)c1ccc(-c2c3nc(c(-c4cccc(S(=O)(=O)[O-])c4F)c4ccc([nH]4)c(-c4cccc(S(=O)(=O)[O-])c4F)c4nc(c(-c5cccc(S(=O)(=O)[O-])c5F)c5ccc2[nH]5)C=C4)C=C3)cc1)c1ccc(NC(=O)[C@@H]2CC=CC[C@H]2C(=O)Nc2cccc([N+](=O)[O-])c2)cc1
REMARK SMILES IDX 4 1 3 2 1 3 2 4 74 6 75 7 100 8 76 9 99 10 77 11 78 12 79 13
REMARK SMILES IDX 80 15 81 16 82 17 86 18 83 19 85 20 84 21 87 22 88 23 89 24
REMARK SMILES IDX 90 26 91 27 98 28 92 29 94 30 93 31 95 32 96 33 97 34 5 35
REMARK SMILES IDX 6 36 7 37 8 38 9 39 10 41 11 42 12 43 73 44 13 45 72 46
REMARK SMILES IDX 14 47 15 48 16 49 66 50 17 51 71 52 65 53 67 54 18 55 70 56
REMARK SMILES IDX 64 57 63 58 19 60 51 61 31 62 50 63 32 64 35 65 49 66 68 67
REMARK SMILES IDX 33 68 34 69 48 71 69 72 36 73 20 74 21 75 29 76 22 77 24 78
REMARK SMILES IDX 30 79 23 80 25 81 26 82 27 83 28 84 52 85 53 86 61 87 54 88
REMARK SMILES IDX 56 89 62 90 55 91 57 92 58 93 59 94 60 95 37 96 38 97 46 98
REMARK SMILES IDX 39 99 41 100 47 101 40 102 42 103 43 104 44 105 45 106
REMARK H PARENT 3 5 78 14 89 25 8 40 67 59 35 70
REMARK Flexibility Score: inf
ROOT
ATOM      1  C   UNL A   1      32.277  29.708  25.223  1.00  0.00     0.116 C 
ENDROOT
BRANCH   1   2
ATOM      2  N   UNL A   1      30.999  29.946  24.569  1.00  0.00    -0.352 N 
ATOM      3  O   UNL A   1      29.367  29.624  23.030  1.00  0.00    -0.269 OA
ATOM      4  C   UNL A   1      30.376  29.204  23.597  1.00  0.00     0.251 C 
ATOM      5  H   UNL A   1      30.515  30.751  24.865  1.00  0.00     0.163 HD
BRANCH   4   6
ATOM      6  C   UNL A   1      30.913  27.878  23.230  1.00  0.00     0.039 A 
ATOM      7  C   UNL A   1      30.302  26.727  23.716  1.00  0.00     0.016 A 
ATOM      8  C   UNL A   1      31.971  27.760  22.328  1.00  0.00     0.016 A 
ATOM      9  C   UNL A   1      30.814  25.479  23.368  1.00  0.00     0.027 A 
ATOM     10  C   UNL A   1      32.491  26.489  22.018  1.00  0.00     0.027 A 
ATOM     11  C   UNL A   1      31.943  25.332  22.588  1.00  0.00     0.041 A 
BRANCH  11  12
ATOM     12  N   UNL A   1      32.413  24.065  22.200  1.00  0.00    -0.326 N 
ATOM     13  C   UNL A   1      32.789  22.946  22.907  1.00  0.00     0.228 C 
ATOM     14  H   UNL A   1      32.490  23.956  21.224  1.00  0.00     0.169 HD
ATOM     15  O   UNL A   1      32.431  21.867  22.413  1.00  0.00    -0.274 OA
BRANCH  13  16
ATOM     16  C   UNL A   1      33.836  22.973  24.071  1.00  0.00     0.095 C 
ATOM     17  C   UNL A   1      35.121  23.578  23.406  1.00  0.00     0.041 C 
ATOM     18  C   UNL A   1      34.173  21.636  24.792  1.00  0.00     0.095 C 
ATOM     19  C   UNL A   1      36.403  23.455  24.160  1.00  0.00    -0.030 C 
ATOM     20  C   UNL A   1      35.584  21.498  25.430  1.00  0.00     0.041 C 
ATOM     21  C   UNL A   1      36.616  22.498  25.060  1.00  0.00    -0.030 C 
BRANCH  18  22
ATOM     22  C   UNL A   1      33.260  21.023  25.871  1.00  0.00     0.228 C 
ATOM     23  O   UNL A   1      32.852  21.777  26.771  1.00  0.00    -0.274 OA
ATOM     24  N   UNL A   1      32.702  19.776  25.881  1.00  0.00    -0.326 N 
ATOM     25  H   UNL A   1      32.062  19.650  26.619  1.00  0.00     0.169 HD
BRANCH  24  26
ATOM     26  C   UNL A   1      32.833  18.638  25.075  1.00  0.00     0.048 A 
ATOM     27  C   UNL A   1      32.541  18.760  23.713  1.00  0.00     0.026 A 
ATOM     28  C   UNL A   1      33.190  17.391  25.558  1.00  0.00     0.111 A 
ATOM     29  C   UNL A   1      32.770  17.694  22.833  1.00  0.00     0.009 A 
ATOM     30  C   UNL A   1      33.505  16.348  24.679  1.00  0.00     0.271 A 
ATOM     31  C   UNL A   1      33.301  16.495  23.308  1.00  0.00     0.086 A 
BRANCH  30  32
ATOM     32  N   UNL A   1      34.092  15.114  25.216  1.00  0.00     0.062 N 
ATOM     33  O   UNL A   1      33.320  14.200  25.536  1.00  0.00    -0.258 OA
ATOM     34  O   UNL A   1      35.328  15.047  25.284  1.00  0.00    -0.258 OA
ENDBRANCH  30  32
ENDBRANCH  24  26
ENDBRANCH  18  22
ENDBRANCH  13  16
ENDBRANCH  11  12
ENDBRANCH   4   6
ENDBRANCH   1   2
BRANCH   1  35
ATOM     35  C   UNL A   1      32.255  30.080  26.702  1.00  0.00     0.023 C 
BRANCH  35  36
ATOM     36  C   UNL A   1      31.872  31.527  27.000  1.00  0.00     0.023 C 
BRANCH  36  37
ATOM     37  C   UNL A   1      33.024  32.440  27.406  1.00  0.00     0.116 C 
BRANCH  37  38
ATOM     38  N   UNL A   1      32.612  33.819  27.641  1.00  0.00    -0.352 N 
ATOM     39  C   UNL A   1      33.104  34.725  28.554  1.00  0.00     0.251 C 
ATOM     40  H   UNL A   1      31.882  34.147  27.069  1.00  0.00     0.163 HD
ATOM     41  O   UNL A   1      32.562  35.818  28.688  1.00  0.00    -0.269 OA
BRANCH  39  42
ATOM     42  C   UNL A   1      34.268  34.356  29.390  1.00  0.00     0.039 A 
ATOM     43  C   UNL A   1      34.064  33.595  30.544  1.00  0.00     0.014 A 
ATOM     44  C   UNL A   1      35.560  34.714  29.000  1.00  0.00     0.014 A 
ATOM     45  C   UNL A   1      35.167  33.118  31.260  1.00  0.00     0.010 A 
ATOM     46  C   UNL A   1      36.654  34.174  29.669  1.00  0.00     0.010 A 
ATOM     47  C   UNL A   1      36.471  33.365  30.803  1.00  0.00    -0.014 A 
BRANCH  47  48
ATOM     48  C   UNL A   1      37.665  32.778  31.470  1.00  0.00     0.031 A 
ATOM     49  C   UNL A   1      38.391  31.625  30.830  1.00  0.00     0.074 A 
ATOM     50  C   UNL A   1      38.018  33.195  32.705  1.00  0.00     0.049 A 
ATOM     51  N   UNL A   1      39.363  30.894  31.310  1.00  0.00    -0.248 NA
ATOM     52  C   UNL A   1      37.947  31.218  29.486  1.00  0.00     0.031 C 
ATOM     53  C   UNL A   1      37.351  34.253  33.468  1.00  0.00     0.029 A 
ATOM     54  N   UNL A   1      39.001  32.747  33.556  1.00  0.00    -0.354 N 
ATOM     55  C   UNL A   1      39.606  29.910  30.359  1.00  0.00     0.074 A 
ATOM     56  C   UNL A   1      38.673  30.129  29.277  1.00  0.00     0.031 C 
ATOM     57  C   UNL A   1      37.936  34.365  34.672  1.00  0.00     0.029 A 
ATOM     58  C   UNL A   1      38.992  33.364  34.786  1.00  0.00     0.049 A 
ATOM     59  H   UNL A   1      39.650  32.050  33.308  1.00  0.00     0.167 HD
ATOM     60  C   UNL A   1      40.534  28.925  30.377  1.00  0.00     0.034 A 
ATOM     61  C   UNL A   1      39.733  33.137  35.890  1.00  0.00     0.034 A 
ATOM     62  C   UNL A   1      41.506  28.752  31.421  1.00  0.00     0.049 A 
ATOM     63  C   UNL A   1      40.789  32.063  35.856  1.00  0.00     0.074 A 
ATOM     64  C   UNL A   1      42.563  27.861  31.466  1.00  0.00     0.029 A 
ATOM     65  N   UNL A   1      41.533  29.468  32.606  1.00  0.00    -0.354 N 
ATOM     66  N   UNL A   1      41.122  31.263  34.871  1.00  0.00    -0.248 NA
ATOM     67  C   UNL A   1      41.596  31.880  37.073  1.00  0.00     0.031 C 
ATOM     68  C   UNL A   1      43.213  28.017  32.694  1.00  0.00     0.029 A 
ATOM     69  C   UNL A   1      42.580  29.029  33.396  1.00  0.00     0.049 A 
ATOM     70  H   UNL A   1      40.903  30.184  32.848  1.00  0.00     0.167 HD
ATOM     71  C   UNL A   1      42.203  30.520  35.333  1.00  0.00     0.074 A 
ATOM     72  C   UNL A   1      42.481  30.974  36.679  1.00  0.00     0.031 C 
ATOM     73  C   UNL A   1      42.895  29.540  34.704  1.00  0.00     0.034 A 
BRANCH  60  74
ATOM     74  C   UNL A   1      40.587  27.974  29.213  1.00  0.00     0.023 A 
ATOM     75  C   UNL A   1      39.637  26.939  29.109  1.00  0.00     0.012 A 
ATOM     76  C   UNL A   1      41.511  28.177  28.167  1.00  0.00     0.148 A 
ATOM     77  C   UNL A   1      39.617  26.107  27.991  1.00  0.00     0.002 A 
ATOM     78  C   UNL A   1      41.454  27.372  27.036  1.00  0.00     0.091 A 
ATOM     79  F   UNL A   1      42.417  29.156  28.295  1.00  0.00    -0.205 F 
ATOM     80  C   UNL A   1      40.515  26.332  26.950  1.00  0.00     0.022 A 
BRANCH  78  81
ATOM     81  S   UNL A   1      42.508  27.633  25.605  1.00  0.00     0.127 S 
ATOM     82  O   UNL A   1      41.983  28.892  25.078  1.00  0.00    -0.237 OA
ATOM     83  O   UNL A   1      43.834  27.734  26.217  1.00  0.00    -0.237 OA
ATOM     84  O   UNL A   1      42.318  26.473  24.746  1.00  0.00    -0.744 OA
ENDBRANCH  78  81
ENDBRANCH  60  74
BRANCH  61  85
ATOM     85  C   UNL A   1      39.541  33.963  37.117  1.00  0.00     0.023 A 
ATOM     86  C   UNL A   1      40.052  35.277  37.152  1.00  0.00     0.012 A 
ATOM     87  C   UNL A   1      38.880  33.456  38.251  1.00  0.00     0.148 A 
ATOM     88  C   UNL A   1      39.951  36.050  38.310  1.00  0.00     0.002 A 
ATOM     89  C   UNL A   1      38.731  34.253  39.381  1.00  0.00     0.091 A 
ATOM     90  F   UNL A   1      38.414  32.200  38.207  1.00  0.00    -0.205 F 
ATOM     91  C   UNL A   1      39.285  35.542  39.421  1.00  0.00     0.022 A 
BRANCH  89  92
ATOM     92  S   UNL A   1      37.773  33.723  40.805  1.00  0.00     0.127 S 
ATOM     93  O   UNL A   1      38.680  32.771  41.440  1.00  0.00    -0.237 OA
ATOM     94  O   UNL A   1      37.588  34.980  41.533  1.00  0.00    -0.237 OA
ATOM     95  O   UNL A   1      36.543  33.167  40.257  1.00  0.00    -0.744 OA
ENDBRANCH  89  92
ENDBRANCH  61  85
BRANCH  73  96
ATOM     96  C   UNL A   1      44.065  28.925  35.423  1.00  0.00     0.023 A 
ATOM     97  C   UNL A   1      45.310  29.582  35.438  1.00  0.00     0.012 A 
ATOM     98  C   UNL A   1      43.898  27.740  36.170  1.00  0.00     0.148 A 
ATOM     99  C   UNL A   1      46.379  29.057  36.163  1.00  0.00     0.002 A 
ATOM    100  C   UNL A   1      44.952  27.251  36.931  1.00  0.00     0.091 A 
ATOM    101  F   UNL A   1      42.709  27.122  36.128  1.00  0.00    -0.205 F 
ATOM    102  C   UNL A   1      46.196  27.901  36.920  1.00  0.00     0.022 A 
BRANCH 100 103
ATOM    103  S   UNL A   1      44.777  25.830  38.017  1.00  0.00     0.127 S 
ATOM    104  O   UNL A   1      43.870  26.348  39.039  1.00  0.00    -0.237 OA
ATOM    105  O   UNL A   1      44.187  24.831  37.125  1.00  0.00    -0.237 OA
ATOM    106  O   UNL A   1      46.120  25.509  38.480  1.00  0.00    -0.744 OA
ENDBRANCH 100 103
ENDBRANCH  73  96
ENDBRANCH  47  48
ENDBRANCH  39  42
ENDBRANCH  37  38
ENDBRANCH  36  37
ENDBRANCH  35  36
ENDBRANCH   1  35
TORSDOF 19
ENDMDL
MODEL 2
REMARK VINA RESULT:     -13.9      3.038      8.023
REMARK SMILES O=C(NCCCCNC(=O)c1ccc(-c2c3nc(c(-c4cccc(S(=O)(=O)[O-])c4F)c4ccc([nH]4)c(-c4cccc(S(=O)(=O)[O-])c4F)c4nc(c(-c5cccc(S(=O)(=O)[O-])c5F)c5ccc2[nH]5)C=C4)C=C3)cc1)c1ccc(NC(=O)[C@@H]2CC=CC[C@H]2C(=O)Nc2cccc([N+](=O)[O-])c2)cc1
REMARK SMILES IDX 4 1 3 2 1 3 2 4 74 6 75 7 100 8 76 9 99 10 77 11 78 12 79 13
REMARK SMILES IDX 80 15 81 16 82 17 86 18 83 19 85 20 84 21 87 22 88 23 89 24
REMARK SMILES IDX 90 26 91 27 98 28 92 29 94 30 93 31 95 32 96 33 97 34 5 35
REMARK SMILES IDX 6 36 7 37 8 38 9 39 10 41 11 42 12 43 73 44 13 45 72 46
REMARK SMILES IDX 14 47 15 48 16 49 66 50 17 51 71 52 65 53 67 54 18 55 70 56
REMARK SMILES IDX 64 57 63 58 19 60 51 61 31 62 50 63 32 64 35 65 49 66 68 67
REMARK SMILES IDX 33 68 34 69 48 71 69 72 36 73 20 74 21 75 29 76 22 77 24 78
REMARK SMILES IDX 30 79 23 80 25 81 26 82 27 83 28 84 52 85 53 86 61 87 54 88
REMARK SMILES IDX 56 89 62 90 55 91 57 92 58 93 59 94 60 95 37 96 38 97 46 98
REMARK SMILES IDX 39 99 41 100 47 101 40 102 42 103 43 104 44 105 45 106
REMARK H PARENT 3 5 78 14 89 25 8 40 67 59 35 70
REMARK Flexibility Score: inf
ROOT
ATOM      1  C   UNL A   1      31.955  29.402  24.922  1.00  0.00     0.116 C 
ENDROOT
BRANCH   1   2
ATOM      2  N   UNL A   1      30.671  29.620  24.273  1.00  0.00    -0.352 N 
ATOM      3  O   UNL A   1      29.014  29.233  22.776  1.00  0.00    -0.269 OA
ATOM      4  C   UNL A   1      30.025  28.832  23.353  1.00  0.00     0.251 C 
ATOM      5  H   UNL A   1      30.201  30.446  24.529  1.00  0.00     0.163 HD
BRANCH   4   6
ATOM      6  C   UNL A   1      30.540  27.480  23.056  1.00  0.00     0.039 A 
ATOM      7  C   UNL A   1      30.048  26.384  23.756  1.00  0.00     0.016 A 
ATOM      8  C   UNL A   1      31.449  27.274  22.017  1.00  0.00     0.016 A 
ATOM      9  C   UNL A   1      30.538  25.112  23.471  1.00  0.00     0.027 A 
ATOM     10  C   UNL A   1      31.954  25.984  21.771  1.00  0.00     0.027 A 
ATOM     11  C   UNL A   1      31.537  24.892  22.545  1.00  0.00     0.041 A 
BRANCH  11  12
ATOM     12  N   UNL A   1      31.981  23.595  22.230  1.00  0.00    -0.326 N 
ATOM     13  C   UNL A   1      32.494  22.568  22.989  1.00  0.00     0.228 C 
ATOM     14  H   UNL A   1      31.912  23.378  21.272  1.00  0.00     0.169 HD
ATOM     15  O   UNL A   1      32.098  21.436  22.678  1.00  0.00    -0.274 OA
BRANCH  13  16
ATOM     16  C   UNL A   1      33.703  22.740  23.968  1.00  0.00     0.095 C 
ATOM     17  C   UNL A   1      34.834  23.343  23.064  1.00  0.00     0.041 C 
ATOM     18  C   UNL A   1      34.224  21.485  24.727  1.00  0.00     0.095 C 
ATOM     19  C   UNL A   1      36.222  23.342  23.612  1.00  0.00    -0.030 C 
ATOM     20  C   UNL A   1      35.721  21.465  25.142  1.00  0.00     0.041 C 
ATOM     21  C   UNL A   1      36.625  22.474  24.539  1.00  0.00    -0.030 C 
BRANCH  18  22
ATOM     22  C   UNL A   1      33.524  20.926  25.981  1.00  0.00     0.228 C 
ATOM     23  O   UNL A   1      33.221  21.734  26.875  1.00  0.00    -0.274 OA
ATOM     24  N   UNL A   1      33.041  19.663  26.172  1.00  0.00    -0.326 N 
ATOM     25  H   UNL A   1      32.532  19.572  27.011  1.00  0.00     0.169 HD
BRANCH  24  26
ATOM     26  C   UNL A   1      33.106  18.469  25.444  1.00  0.00     0.048 A 
ATOM     27  C   UNL A   1      33.591  18.525  24.134  1.00  0.00     0.026 A 
ATOM     28  C   UNL A   1      32.675  17.247  25.929  1.00  0.00     0.111 A 
ATOM     29  C   UNL A   1      33.796  17.352  23.394  1.00  0.00     0.009 A 
ATOM     30  C   UNL A   1      32.956  16.063  25.236  1.00  0.00     0.271 A 
ATOM     31  C   UNL A   1      33.525  16.108  23.964  1.00  0.00     0.086 A 
BRANCH  30  32
ATOM     32  N   UNL A   1      32.684  14.774  25.885  1.00  0.00     0.062 N 
ATOM     33  O   UNL A   1      31.814  14.744  26.766  1.00  0.00    -0.258 OA
ATOM     34  O   UNL A   1      33.317  13.785  25.487  1.00  0.00    -0.258 OA
ENDBRANCH  30  32
ENDBRANCH  24  26
ENDBRANCH  18  22
ENDBRANCH  13  16
ENDBRANCH  11  12
ENDBRANCH   4   6
ENDBRANCH   1   2
BRANCH   1  35
ATOM     35  C   UNL A   1      31.814  28.731  26.284  1.00  0.00     0.023 C 
BRANCH  35  36
ATOM     36  C   UNL A   1      32.939  29.028  27.273  1.00  0.00     0.023 C 
BRANCH  36  37
ATOM     37  C   UNL A   1      33.895  30.142  26.863  1.00  0.00     0.116 C 
BRANCH  37  38
ATOM     38  N   UNL A   1      33.822  31.313  27.729  1.00  0.00    -0.352 N 
ATOM     39  C   UNL A   1      34.680  31.701  28.733  1.00  0.00     0.251 C 
ATOM     40  H   UNL A   1      33.053  31.908  27.574  1.00  0.00     0.163 HD
ATOM     41  O   UNL A   1      34.403  32.668  29.437  1.00  0.00    -0.269 OA
BRANCH  39  42
ATOM     42  C   UNL A   1      35.916  30.925  28.974  1.00  0.00     0.039 A 
ATOM     43  C   UNL A   1      37.108  31.337  28.372  1.00  0.00     0.014 A 
ATOM     44  C   UNL A   1      35.905  29.828  29.838  1.00  0.00     0.014 A 
ATOM     45  C   UNL A   1      38.307  30.701  28.707  1.00  0.00     0.010 A 
ATOM     46  C   UNL A   1      37.108  29.249  30.229  1.00  0.00     0.010 A 
ATOM     47  C   UNL A   1      38.324  29.681  29.673  1.00  0.00    -0.014 A 
BRANCH  47  48
ATOM     48  C   UNL A   1      39.592  29.059  30.142  1.00  0.00     0.031 A 
ATOM     49  C   UNL A   1      40.377  29.704  31.254  1.00  0.00     0.074 A 
ATOM     50  C   UNL A   1      40.102  27.995  29.487  1.00  0.00     0.049 A 
ATOM     51  N   UNL A   1      41.562  29.395  31.713  1.00  0.00    -0.248 NA
ATOM     52  C   UNL A   1      39.764  30.867  31.918  1.00  0.00     0.031 C 
ATOM     53  C   UNL A   1      39.478  27.322  28.345  1.00  0.00     0.029 A 
ATOM     54  N   UNL A   1      41.286  27.318  29.660  1.00  0.00    -0.354 N 
ATOM     55  C   UNL A   1      41.860  30.354  32.673  1.00  0.00     0.074 A 
ATOM     56  C   UNL A   1      40.738  31.264  32.725  1.00  0.00     0.031 C 
ATOM     57  C   UNL A   1      40.287  26.338  27.916  1.00  0.00     0.029 A 
ATOM     58  C   UNL A   1      41.502  26.333  28.723  1.00  0.00     0.049 A 
ATOM     59  H   UNL A   1      41.919  27.519  30.386  1.00  0.00     0.167 HD
ATOM     60  C   UNL A   1      42.961  30.458  33.453  1.00  0.00     0.034 A 
ATOM     61  C   UNL A   1      42.567  25.530  28.521  1.00  0.00     0.034 A 
ATOM     62  C   UNL A   1      44.045  29.514  33.449  1.00  0.00     0.049 A 
ATOM     63  C   UNL A   1      43.756  25.643  29.440  1.00  0.00     0.074 A 
ATOM     64  C   UNL A   1      45.142  29.468  34.290  1.00  0.00     0.029 A 
ATOM     65  N   UNL A   1      44.177  28.464  32.556  1.00  0.00    -0.354 N 
ATOM     66  N   UNL A   1      43.936  26.444  30.462  1.00  0.00    -0.248 NA
ATOM     67  C   UNL A   1      44.876  24.719  29.201  1.00  0.00     0.031 C 
ATOM     68  C   UNL A   1      45.957  28.406  33.886  1.00  0.00     0.029 A 
ATOM     69  C   UNL A   1      45.347  27.773  32.815  1.00  0.00     0.049 A 
ATOM     70  H   UNL A   1      43.535  28.242  31.845  1.00  0.00     0.167 HD
ATOM     71  C   UNL A   1      45.163  26.089  31.013  1.00  0.00     0.074 A 
ATOM     72  C   UNL A   1      45.676  24.991  30.222  1.00  0.00     0.031 C 
ATOM     73  C   UNL A   1      45.812  26.633  32.070  1.00  0.00     0.034 A 
BRANCH  60  74
ATOM     74  C   UNL A   1      43.044  31.608  34.421  1.00  0.00     0.023 A 
ATOM     75  C   UNL A   1      43.612  32.829  34.010  1.00  0.00     0.012 A 
ATOM     76  C   UNL A   1      42.458  31.508  35.699  1.00  0.00     0.148 A 
ATOM     77  C   UNL A   1      43.614  33.931  34.865  1.00  0.00     0.002 A 
ATOM     78  C   UNL A   1      42.423  32.623  36.527  1.00  0.00     0.091 A 
ATOM     79  F   UNL A   1      41.940  30.330  36.075  1.00  0.00    -0.205 F 
ATOM     80  C   UNL A   1      43.009  33.832  36.115  1.00  0.00     0.022 A 
BRANCH  78  81
ATOM     81  S   UNL A   1      41.594  32.625  38.119  1.00  0.00     0.127 S 
ATOM     82  O   UNL A   1      42.335  31.591  38.839  1.00  0.00    -0.237 OA
ATOM     83  O   UNL A   1      41.838  33.989  38.589  1.00  0.00    -0.237 OA
ATOM     84  O   UNL A   1      40.198  32.312  37.848  1.00  0.00    -0.744 OA
ENDBRANCH  78  81
ENDBRANCH  60  74
BRANCH  61  85
ATOM     85  C   UNL A   1      42.557  24.514  27.428  1.00  0.00     0.023 A 
ATOM     86  C   UNL A   1      43.241  24.786  26.225  1.00  0.00     0.012 A 
ATOM     87  C   UNL A   1      41.863  23.297  27.561  1.00  0.00     0.148 A 
ATOM     88  C   UNL A   1      43.191  23.887  25.159  1.00  0.00     0.002 A 
ATOM     89  C   UNL A   1      41.866  22.380  26.515  1.00  0.00     0.091 A 
ATOM     90  F   UNL A   1      41.205  23.061  28.704  1.00  0.00    -0.205 F 
ATOM     91  C   UNL A   1      42.510  22.682  25.306  1.00  0.00     0.022 A 
BRANCH  89  92
ATOM     92  S   UNL A   1      41.126  20.751  26.671  1.00  0.00     0.127 S 
ATOM     93  O   UNL A   1      39.922  20.888  25.858  1.00  0.00    -0.237 OA
ATOM     94  O   UNL A   1      42.162  19.890  26.098  1.00  0.00    -0.237 OA
ATOM     95  O   UNL A   1      40.915  20.558  28.100  1.00  0.00    -0.744 OA
ENDBRANCH  89  92
ENDBRANCH  61  85
BRANCH  73  96
ATOM     96  C   UNL A   1      47.121  26.019  32.491  1.00  0.00     0.023 A 
ATOM     97  C   UNL A   1      48.332  26.517  31.976  1.00  0.00     0.012 A 
ATOM     98  C   UNL A   1      47.149  25.012  33.478  1.00  0.00     0.148 A 
ATOM     99  C   UNL A   1      49.552  26.005  32.416  1.00  0.00     0.002 A 
ATOM    100  C   UNL A   1      48.368  24.543  33.950  1.00  0.00     0.091 A 
ATOM    101  F   UNL A   1      45.982  24.541  33.942  1.00  0.00    -0.205 F 
ATOM    102  C   UNL A   1      49.571  25.030  33.412  1.00  0.00     0.022 A 
BRANCH 100 103
ATOM    103  S   UNL A   1      48.489  23.366  35.301  1.00  0.00     0.127 S 
ATOM    104  O   UNL A   1      47.719  24.036  36.348  1.00  0.00    -0.237 OA
ATOM    105  O   UNL A   1      47.848  22.179  34.735  1.00  0.00    -0.237 OA
ATOM    106  O   UNL A   1      49.912  23.212  35.576  1.00  0.00    -0.744 OA
ENDBRANCH 100 103
ENDBRANCH  73  96
ENDBRANCH  47  48
ENDBRANCH  39  42
ENDBRANCH  37  38
ENDBRANCH  36  37
ENDBRANCH  35  36
ENDBRANCH   1  35
TORSDOF 19
ENDMDL
MODEL 3
REMARK VINA RESULT:     -13.7      1.681      2.060
REMARK SMILES O=C(NCCCCNC(=O)c1ccc(-c2c3nc(c(-c4cccc(S(=O)(=O)[O-])c4F)c4ccc([nH]4)c(-c4cccc(S(=O)(=O)[O-])c4F)c4nc(c(-c5cccc(S(=O)(=O)[O-])c5F)c5ccc2[nH]5)C=C4)C=C3)cc1)c1ccc(NC(=O)[C@@H]2CC=CC[C@H]2C(=O)Nc2cccc([N+](=O)[O-])c2)cc1
REMARK SMILES IDX 4 1 3 2 1 3 2 4 74 6 75 7 100 8 76 9 99 10 77 11 78 12 79 13
REMARK SMILES IDX 80 15 81 16 82 17 86 18 83 19 85 20 84 21 87 22 88 23 89 24
REMARK SMILES IDX 90 26 91 27 98 28 92 29 94 30 93 31 95 32 96 33 97 34 5 35
REMARK SMILES IDX 6 36 7 37 8 38 9 39 10 41 11 42 12 43 73 44 13 45 72 46
REMARK SMILES IDX 14 47 15 48 16 49 66 50 17 51 71 52 65 53 67 54 18 55 70 56
REMARK SMILES IDX 64 57 63 58 19 60 51 61 31 62 50 63 32 64 35 65 49 66 68 67
REMARK SMILES IDX 33 68 34 69 48 71 69 72 36 73 20 74 21 75 29 76 22 77 24 78
REMARK SMILES IDX 30 79 23 80 25 81 26 82 27 83 28 84 52 85 53 86 61 87 54 88
REMARK SMILES IDX 56 89 62 90 55 91 57 92 58 93 59 94 60 95 37 96 38 97 46 98
REMARK SMILES IDX 39 99 41 100 47 101 40 102 42 103 43 104 44 105 45 106
REMARK H PARENT 3 5 78 14 89 25 8 40 67 59 35 70
REMARK Flexibility Score: inf
ROOT
ATOM      1  C   UNL A   1      31.809  29.387  24.720  1.00  0.00     0.116 C 
ENDROOT
BRANCH   1   2
ATOM      2  N   UNL A   1      30.481  29.519  24.141  1.00  0.00    -0.352 N 
ATOM      3  O   UNL A   1      28.753  28.983  22.776  1.00  0.00    -0.269 OA
ATOM      4  C   UNL A   1      29.812  28.654  23.310  1.00  0.00     0.251 C 
ATOM      5  H   UNL A   1      29.995  30.342  24.377  1.00  0.00     0.163 HD
BRANCH   4   6
ATOM      6  C   UNL A   1      30.361  27.306  23.061  1.00  0.00     0.039 A 
ATOM      7  C   UNL A   1      29.921  26.229  23.824  1.00  0.00     0.016 A 
ATOM      8  C   UNL A   1      31.250  27.079  22.009  1.00  0.00     0.016 A 
ATOM      9  C   UNL A   1      30.443  24.960  23.584  1.00  0.00     0.027 A 
ATOM     10  C   UNL A   1      31.788  25.795  21.809  1.00  0.00     0.027 A 
ATOM     11  C   UNL A   1      31.425  24.728  22.642  1.00  0.00     0.041 A 
BRANCH  11  12
ATOM     12  N   UNL A   1      31.900  23.431  22.375  1.00  0.00    -0.326 N 
ATOM     13  C   UNL A   1      32.476  22.461  23.164  1.00  0.00     0.228 C 
ATOM     14  H   UNL A   1      31.803  23.164  21.432  1.00  0.00     0.169 HD
ATOM     15  O   UNL A   1      32.107  21.303  22.924  1.00  0.00    -0.274 OA
BRANCH  13  16
ATOM     16  C   UNL A   1      33.714  22.722  24.084  1.00  0.00     0.095 C 
ATOM     17  C   UNL A   1      34.755  23.403  23.129  1.00  0.00     0.041 C 
ATOM     18  C   UNL A   1      34.359  21.509  24.816  1.00  0.00     0.095 C 
ATOM     19  C   UNL A   1      36.164  23.503  23.612  1.00  0.00    -0.030 C 
ATOM     20  C   UNL A   1      35.872  21.597  25.160  1.00  0.00     0.041 C 
ATOM     21  C   UNL A   1      36.672  22.668  24.517  1.00  0.00    -0.030 C 
BRANCH  18  22
ATOM     22  C   UNL A   1      33.761  20.902  26.100  1.00  0.00     0.228 C 
ATOM     23  O   UNL A   1      33.549  21.673  27.052  1.00  0.00    -0.274 OA
ATOM     24  N   UNL A   1      33.277  19.638  26.277  1.00  0.00    -0.326 N 
ATOM     25  H   UNL A   1      32.841  19.515  27.152  1.00  0.00     0.169 HD
BRANCH  24  26
ATOM     26  C   UNL A   1      33.261  18.476  25.494  1.00  0.00     0.048 A 
ATOM     27  C   UNL A   1      33.784  18.550  24.200  1.00  0.00     0.026 A 
ATOM     28  C   UNL A   1      32.715  17.275  25.911  1.00  0.00     0.111 A 
ATOM     29  C   UNL A   1      33.910  17.398  23.411  1.00  0.00     0.009 A 
ATOM     30  C   UNL A   1      32.913  16.104  25.169  1.00  0.00     0.271 A 
ATOM     31  C   UNL A   1      33.518  16.158  23.914  1.00  0.00     0.086 A 
BRANCH  30  32
ATOM     32  N   UNL A   1      32.516  14.815  25.749  1.00  0.00     0.062 N 
ATOM     33  O   UNL A   1      33.280  13.853  25.592  1.00  0.00    -0.258 OA
ATOM     34  O   UNL A   1      31.457  14.776  26.393  1.00  0.00    -0.258 OA
ENDBRANCH  30  32
ENDBRANCH  24  26
ENDBRANCH  18  22
ENDBRANCH  13  16
ENDBRANCH  11  12
ENDBRANCH   4   6
ENDBRANCH   1   2
BRANCH   1  35
ATOM     35  C   UNL A   1      31.774  28.837  26.143  1.00  0.00     0.023 C 
BRANCH  35  36
ATOM     36  C   UNL A   1      32.122  29.845  27.235  1.00  0.00     0.023 C 
BRANCH  36  37
ATOM     37  C   UNL A   1      33.180  30.877  26.863  1.00  0.00     0.116 C 
BRANCH  37  38
ATOM     38  N   UNL A   1      32.743  32.252  27.069  1.00  0.00    -0.352 N 
ATOM     39  C   UNL A   1      33.272  33.213  27.902  1.00  0.00     0.251 C 
ATOM     40  H   UNL A   1      31.961  32.533  26.540  1.00  0.00     0.163 HD
ATOM     41  O   UNL A   1      32.706  34.295  28.029  1.00  0.00    -0.269 OA
BRANCH  39  42
ATOM     42  C   UNL A   1      34.506  32.916  28.662  1.00  0.00     0.039 A 
ATOM     43  C   UNL A   1      34.403  32.335  29.928  1.00  0.00     0.014 A 
ATOM     44  C   UNL A   1      35.760  33.161  28.097  1.00  0.00     0.014 A 
ATOM     45  C   UNL A   1      35.561  31.917  30.592  1.00  0.00     0.010 A 
ATOM     46  C   UNL A   1      36.902  32.674  28.725  1.00  0.00     0.010 A 
ATOM     47  C   UNL A   1      36.817  32.042  29.976  1.00  0.00    -0.014 A 
BRANCH  47  48
ATOM     48  C   UNL A   1      38.058  31.505  30.599  1.00  0.00     0.031 A 
ATOM     49  C   UNL A   1      38.869  30.462  29.876  1.00  0.00     0.074 A 
ATOM     50  C   UNL A   1      38.384  31.857  31.860  1.00  0.00     0.049 A 
ATOM     51  N   UNL A   1      39.898  29.777  30.302  1.00  0.00    -0.248 NA
ATOM     52  C   UNL A   1      38.449  30.119  28.506  1.00  0.00     0.031 C 
ATOM     53  C   UNL A   1      37.641  32.801  32.698  1.00  0.00     0.029 A 
ATOM     54  N   UNL A   1      39.404  31.428  32.676  1.00  0.00    -0.354 N 
ATOM     55  C   UNL A   1      40.213  28.888  29.282  1.00  0.00     0.074 A 
ATOM     56  C   UNL A   1      39.258  29.109  28.218  1.00  0.00     0.031 C 
ATOM     57  C   UNL A   1      38.222  32.872  33.907  1.00  0.00     0.029 A 
ATOM     58  C   UNL A   1      39.354  31.952  33.948  1.00  0.00     0.049 A 
ATOM     59  H   UNL A   1      40.105  30.804  32.378  1.00  0.00     0.167 HD
ATOM     60  C   UNL A   1      41.215  27.980  29.228  1.00  0.00     0.034 A 
ATOM     61  C   UNL A   1      40.117  31.705  35.032  1.00  0.00     0.034 A 
ATOM     62  C   UNL A   1      42.204  27.809  30.256  1.00  0.00     0.049 A 
ATOM     63  C   UNL A   1      41.255  30.723  34.919  1.00  0.00     0.074 A 
ATOM     64  C   UNL A   1      43.329  27.004  30.236  1.00  0.00     0.029 A 
ATOM     65  N   UNL A   1      42.182  28.438  31.489  1.00  0.00    -0.354 N 
ATOM     66  N   UNL A   1      41.644  30.026  33.880  1.00  0.00    -0.248 NA
ATOM     67  C   UNL A   1      42.082  30.517  36.120  1.00  0.00     0.031 C 
ATOM     68  C   UNL A   1      43.972  27.121  31.471  1.00  0.00     0.029 A 
ATOM     69  C   UNL A   1      43.265  28.026  32.246  1.00  0.00     0.049 A 
ATOM     70  H   UNL A   1      41.498  29.082  31.783  1.00  0.00     0.167 HD
ATOM     71  C   UNL A   1      42.783  29.339  34.286  1.00  0.00     0.074 A 
ATOM     72  C   UNL A   1      43.032  29.715  35.661  1.00  0.00     0.031 C 
ATOM     73  C   UNL A   1      43.546  28.465  33.587  1.00  0.00     0.034 A 
BRANCH  60  74
ATOM     74  C   UNL A   1      41.336  27.123  27.997  1.00  0.00     0.023 A 
ATOM     75  C   UNL A   1      41.958  27.637  26.843  1.00  0.00     0.012 A 
ATOM     76  C   UNL A   1      40.933  25.773  28.025  1.00  0.00     0.148 A 
ATOM     77  C   UNL A   1      42.160  26.827  25.726  1.00  0.00     0.002 A 
ATOM     78  C   UNL A   1      41.179  24.959  26.926  1.00  0.00     0.091 A 
ATOM     79  F   UNL A   1      40.327  25.310  29.128  1.00  0.00    -0.205 F 
ATOM     80  C   UNL A   1      41.783  25.487  25.773  1.00  0.00     0.022 A 
BRANCH  78  81
ATOM     81  S   UNL A   1      40.810  23.202  26.917  1.00  0.00     0.127 S 
ATOM     82  O   UNL A   1      41.625  22.736  25.796  1.00  0.00    -0.237 OA
ATOM     83  O   UNL A   1      41.288  22.782  28.234  1.00  0.00    -0.237 OA
ATOM     84  O   UNL A   1      39.371  23.092  26.725  1.00  0.00    -0.744 OA
ENDBRANCH  78  81
ENDBRANCH  60  74
BRANCH  61  85
ATOM     85  C   UNL A   1      39.869  32.423  36.316  1.00  0.00     0.023 A 
ATOM     86  C   UNL A   1      40.706  33.497  36.681  1.00  0.00     0.012 A 
ATOM     87  C   UNL A   1      38.829  32.040  37.184  1.00  0.00     0.148 A 
ATOM     88  C   UNL A   1      40.544  34.142  37.907  1.00  0.00     0.002 A 
ATOM     89  C   UNL A   1      38.636  32.727  38.378  1.00  0.00     0.091 A 
ATOM     90  F   UNL A   1      38.052  31.008  36.831  1.00  0.00    -0.205 F 
ATOM     91  C   UNL A   1      39.505  33.763  38.753  1.00  0.00     0.022 A 
BRANCH  89  92
ATOM     92  S   UNL A   1      37.243  32.388  39.460  1.00  0.00     0.127 S 
ATOM     93  O   UNL A   1      37.429  33.385  40.511  1.00  0.00    -0.237 OA
ATOM     94  O   UNL A   1      36.103  32.630  38.575  1.00  0.00    -0.237 OA
ATOM     95  O   UNL A   1      37.397  30.997  39.865  1.00  0.00    -0.744 OA
ENDBRANCH  89  92
ENDBRANCH  61  85
BRANCH  73  96
ATOM     96  C   UNL A   1      44.766  27.894  34.259  1.00  0.00     0.023 A 
ATOM     97  C   UNL A   1      45.989  28.589  34.211  1.00  0.00     0.012 A 
ATOM     98  C   UNL A   1      44.669  26.714  35.024  1.00  0.00     0.148 A 
ATOM     99  C   UNL A   1      47.105  28.105  34.893  1.00  0.00     0.002 A 
ATOM    100  C   UNL A   1      45.770  26.266  35.743  1.00  0.00     0.091 A 
ATOM    101  F   UNL A   1      43.499  26.059  35.043  1.00  0.00    -0.205 F 
ATOM    102  C   UNL A   1      46.992  26.953  35.669  1.00  0.00     0.022 A 
BRANCH 100 103
ATOM    103  S   UNL A   1      45.688  24.853  36.850  1.00  0.00     0.127 S 
ATOM    104  O   UNL A   1      45.388  23.765  35.921  1.00  0.00    -0.237 OA
ATOM    105  O   UNL A   1      47.039  24.822  37.412  1.00  0.00    -0.237 OA
ATOM    106  O   UNL A   1      44.639  25.156  37.814  1.00  0.00    -0.744 OA
ENDBRANCH 100 103
ENDBRANCH  73  96
ENDBRANCH  47  48
ENDBRANCH  39  42
ENDBRANCH  37  38
ENDBRANCH  36  37
ENDBRANCH  35  36
ENDBRANCH   1  35
TORSDOF 19
ENDMDL
