MODEL 1
REMARK VINA RESULT:     -11.4      0.000      0.000
REMARK SMILES COc1cc(OC)c([C@H]2CC[NH2+][C@H]2C(=O)NCCCCNC(=O)c2ccc(-c3c4nc(c(-c5cccc(S(=O)(=O)[O-])c5F)c5ccc([nH]5)c(-c5cccc(S(=O)(=O)[O-])c5F)c5nc(c(-c6cccc(S(=O)(=O)[O-])c6F)c6ccc3[nH]6)C=C5)C=C4)cc2)cc1OC
REMARK SMILES IDX 19 1 18 2 17 3 16 4 14 5 15 6 13 8 9 9 10 10 11 11 12 12
REMARK SMILES IDX 8 15 3 16 4 17 88 18 5 19 87 20 2 21 1 22 89 23 90 24 6 25
REMARK SMILES IDX 7 26 20 27 21 28 22 29 23 31 24 32 25 33 86 34 26 35 85 36
REMARK SMILES IDX 27 37 28 38 29 39 79 40 30 41 84 42 78 43 80 44 31 45 83 46
REMARK SMILES IDX 77 47 76 48 32 50 64 51 44 52 63 53 45 54 48 55 62 56 81 57
REMARK SMILES IDX 46 58 47 59 61 61 82 62 49 63 33 64 34 65 42 66 35 67 37 68
REMARK SMILES IDX 43 69 36 70 38 71 39 72 40 73 41 74 65 75 66 76 74 77 67 78
REMARK SMILES IDX 69 79 75 80 68 81 70 82 71 83 72 84 73 85 50 86 51 87 59 88
REMARK SMILES IDX 52 89 54 90 60 91 53 92 55 93 56 94 57 95 58 96
REMARK H PARENT 16 7 12 13 12 14 21 30 80 49 48 60
REMARK Flexibility Score: inf
ROOT
ATOM      1  C   UNL A   1      38.192  19.933  24.808  1.00  0.00     0.023 C 
ENDROOT
BRANCH   1   2
ATOM      2  C   UNL A   1      37.380  21.217  24.693  1.00  0.00     0.023 C 
BRANCH   2   3
ATOM      3  C   UNL A   1      35.882  21.082  24.947  1.00  0.00     0.116 C 
BRANCH   3   4
ATOM      4  N   UNL A   1      35.467  21.603  26.229  1.00  0.00    -0.351 N 
ATOM      5  C   UNL A   1      34.299  21.522  26.921  1.00  0.00     0.278 C 
ATOM      6  O   UNL A   1      34.317  21.974  28.073  1.00  0.00    -0.268 OA
ATOM      7  H   UNL A   1      36.167  22.118  26.693  1.00  0.00     0.163 HD
BRANCH   5   8
ATOM      8  C   UNL A   1      32.995  20.887  26.372  1.00  0.00     0.280 C 
ATOM      9  C   UNL A   1      32.184  21.565  25.237  1.00  0.00     0.097 C 
ATOM     10  C   UNL A   1      32.483  20.644  24.046  1.00  0.00     0.076 C 
ATOM     11  C   UNL A   1      32.699  19.272  24.653  1.00  0.00     0.262 C 
ATOM     12  N   UNL A   1      33.238  19.468  25.991  1.00  0.00    -0.335 N 
ATOM     13  H   UNL A   1      34.240  19.274  25.994  1.00  0.00     0.346 HD
ATOM     14  H   UNL A   1      32.789  18.837  26.655  1.00  0.00     0.346 HD
BRANCH   9  15
ATOM     15  C   UNL A   1      32.308  23.068  25.017  1.00  0.00     0.008 A 
ATOM     16  C   UNL A   1      32.276  25.836  24.360  1.00  0.00     0.164 A 
ATOM     17  C   UNL A   1      31.720  25.387  25.560  1.00  0.00     0.097 A 
ATOM     18  C   UNL A   1      32.949  24.932  23.541  1.00  0.00     0.161 A 
ATOM     19  C   UNL A   1      31.774  24.027  25.896  1.00  0.00     0.126 A 
ATOM     20  C   UNL A   1      32.994  23.575  23.899  1.00  0.00     0.058 A 
BRANCH  16  21
ATOM     21  O   UNL A   1      32.283  27.177  24.091  1.00  0.00    -0.493 OA
ATOM     22  C   UNL A   1      33.111  27.907  25.001  1.00  0.00     0.278 C 
ENDBRANCH  16  21
BRANCH  18  23
ATOM     23  O   UNL A   1      33.646  25.237  22.402  1.00  0.00    -0.493 OA
ATOM     24  C   UNL A   1      32.861  25.333  21.216  1.00  0.00     0.278 C 
ENDBRANCH  18  23
BRANCH  19  25
ATOM     25  O   UNL A   1      31.246  23.679  27.114  1.00  0.00    -0.496 OA
ATOM     26  C   UNL A   1      29.882  23.269  26.971  1.00  0.00     0.278 C 
ENDBRANCH  19  25
ENDBRANCH   9  15
ENDBRANCH   5   8
ENDBRANCH   3   4
ENDBRANCH   2   3
ENDBRANCH   1   2
BRANCH   1  27
ATOM     27  C   UNL A   1      38.954  19.787  26.114  1.00  0.00     0.116 C 
BRANCH  27  28
ATOM     28  N   UNL A   1      40.204  19.050  25.966  1.00  0.00    -0.352 N 
ATOM     29  C   UNL A   1      41.487  19.524  26.085  1.00  0.00     0.251 C 
ATOM     30  H   UNL A   1      40.117  18.094  25.752  1.00  0.00     0.163 HD
ATOM     31  O   UNL A   1      42.447  18.804  25.829  1.00  0.00    -0.269 OA
BRANCH  29  32
ATOM     32  C   UNL A   1      41.685  20.928  26.488  1.00  0.00     0.039 A 
ATOM     33  C   UNL A   1      42.065  21.208  27.801  1.00  0.00     0.014 A 
ATOM     34  C   UNL A   1      41.581  21.948  25.538  1.00  0.00     0.014 A 
ATOM     35  C   UNL A   1      42.418  22.513  28.146  1.00  0.00     0.010 A 
ATOM     36  C   UNL A   1      42.010  23.227  25.862  1.00  0.00     0.010 A 
ATOM     37  C   UNL A   1      42.433  23.521  27.167  1.00  0.00    -0.014 A 
BRANCH  37  38
ATOM     38  C   UNL A   1      42.905  24.892  27.473  1.00  0.00     0.031 A 
ATOM     39  C   UNL A   1      41.963  25.884  28.098  1.00  0.00     0.074 A 
ATOM     40  C   UNL A   1      44.136  25.274  27.080  1.00  0.00     0.049 A 
ATOM     41  N   UNL A   1      42.151  27.152  28.348  1.00  0.00    -0.248 NA
ATOM     42  C   UNL A   1      40.621  25.394  28.455  1.00  0.00     0.031 C 
ATOM     43  C   UNL A   1      45.105  24.423  26.384  1.00  0.00     0.029 A 
ATOM     44  N   UNL A   1      44.771  26.486  27.178  1.00  0.00    -0.354 N 
ATOM     45  C   UNL A   1      40.945  27.620  28.850  1.00  0.00     0.074 A 
ATOM     46  C   UNL A   1      40.019  26.509  28.838  1.00  0.00     0.031 C 
ATOM     47  C   UNL A   1      46.209  25.140  26.117  1.00  0.00     0.029 A 
ATOM     48  C   UNL A   1      46.016  26.506  26.594  1.00  0.00     0.049 A 
ATOM     49  H   UNL A   1      44.373  27.269  27.624  1.00  0.00     0.167 HD
ATOM     50  C   UNL A   1      40.644  28.856  29.313  1.00  0.00     0.034 A 
ATOM     51  C   UNL A   1      46.899  27.514  26.452  1.00  0.00     0.034 A 
ATOM     52  C   UNL A   1      41.586  29.938  29.377  1.00  0.00     0.049 A 
ATOM     53  C   UNL A   1      46.558  28.865  27.020  1.00  0.00     0.074 A 
ATOM     54  C   UNL A   1      41.417  31.194  29.930  1.00  0.00     0.029 A 
ATOM     55  N   UNL A   1      42.875  29.894  28.867  1.00  0.00    -0.354 N 
ATOM     56  N   UNL A   1      45.473  29.242  27.654  1.00  0.00    -0.248 NA
ATOM     57  C   UNL A   1      47.572  29.920  26.885  1.00  0.00     0.031 C 
ATOM     58  C   UNL A   1      42.600  31.916  29.739  1.00  0.00     0.029 A 
ATOM     59  C   UNL A   1      43.510  31.103  29.082  1.00  0.00     0.049 A 
ATOM     60  H   UNL A   1      43.278  29.116  28.419  1.00  0.00     0.167 HD
ATOM     61  C   UNL A   1      45.685  30.566  28.018  1.00  0.00     0.074 A 
ATOM     62  C   UNL A   1      47.012  30.919  27.555  1.00  0.00     0.031 C 
ATOM     63  C   UNL A   1      44.851  31.419  28.661  1.00  0.00     0.034 A 
BRANCH  50  64
ATOM     64  C   UNL A   1      39.256  29.083  29.849  1.00  0.00     0.023 A 
ATOM     65  C   UNL A   1      38.949  28.686  31.167  1.00  0.00     0.012 A 
ATOM     66  C   UNL A   1      38.275  29.732  29.074  1.00  0.00     0.148 A 
ATOM     67  C   UNL A   1      37.678  28.902  31.696  1.00  0.00     0.002 A 
ATOM     68  C   UNL A   1      37.023  29.983  29.625  1.00  0.00     0.091 A 
ATOM     69  F   UNL A   1      38.578  30.079  27.816  1.00  0.00    -0.205 F 
ATOM     70  C   UNL A   1      36.719  29.560  30.929  1.00  0.00     0.022 A 
BRANCH  68  71
ATOM     71  S   UNL A   1      35.744  30.889  28.747  1.00  0.00     0.127 S 
ATOM     72  O   UNL A   1      35.024  31.526  29.848  1.00  0.00    -0.237 OA
ATOM     73  O   UNL A   1      36.528  31.806  27.920  1.00  0.00    -0.237 OA
ATOM     74  O   UNL A   1      34.990  29.893  27.998  1.00  0.00    -0.744 OA
ENDBRANCH  68  71
ENDBRANCH  50  64
BRANCH  51  75
ATOM     75  C   UNL A   1      48.216  27.264  25.801  1.00  0.00     0.023 A 
ATOM     76  C   UNL A   1      49.284  26.768  26.573  1.00  0.00     0.012 A 
ATOM     77  C   UNL A   1      48.405  27.471  24.420  1.00  0.00     0.148 A 
ATOM     78  C   UNL A   1      50.526  26.514  25.990  1.00  0.00     0.002 A 
ATOM     79  C   UNL A   1      49.628  27.160  23.836  1.00  0.00     0.091 A 
ATOM     80  F   UNL A   1      47.383  27.956  23.703  1.00  0.00    -0.205 F 
ATOM     81  C   UNL A   1      50.695  26.698  24.621  1.00  0.00     0.022 A 
BRANCH  79  82
ATOM     82  S   UNL A   1      49.881  27.230  22.059  1.00  0.00     0.127 S 
ATOM     83  O   UNL A   1      48.850  26.318  21.572  1.00  0.00    -0.237 OA
ATOM     84  O   UNL A   1      49.639  28.645  21.771  1.00  0.00    -0.237 OA
ATOM     85  O   UNL A   1      51.260  26.810  21.846  1.00  0.00    -0.744 OA
ENDBRANCH  79  82
ENDBRANCH  51  75
BRANCH  63  86
ATOM     86  C   UNL A   1      45.346  32.815  28.926  1.00  0.00     0.023 A 
ATOM     87  C   UNL A   1      46.095  33.076  30.090  1.00  0.00     0.012 A 
ATOM     88  C   UNL A   1      45.150  33.841  27.982  1.00  0.00     0.148 A 
ATOM     89  C   UNL A   1      46.623  34.346  30.321  1.00  0.00     0.002 A 
ATOM     90  C   UNL A   1      45.719  35.090  28.196  1.00  0.00     0.091 A 
ATOM     91  F   UNL A   1      44.419  33.574  26.890  1.00  0.00    -0.205 F 
ATOM     92  C   UNL A   1      46.447  35.347  29.369  1.00  0.00     0.022 A 
BRANCH  90  93
ATOM     93  S   UNL A   1      45.626  36.413  26.983  1.00  0.00     0.127 S 
ATOM     94  O   UNL A   1      46.378  37.477  27.645  1.00  0.00    -0.237 OA
ATOM     95  O   UNL A   1      46.297  35.820  25.826  1.00  0.00    -0.237 OA
ATOM     96  O   UNL A   1      44.207  36.679  26.787  1.00  0.00    -0.744 OA
ENDBRANCH  90  93
ENDBRANCH  63  86
ENDBRANCH  37  38
ENDBRANCH  29  32
ENDBRANCH  27  28
ENDBRANCH   1  27
TORSDOF 18
ENDMDL
MODEL 2
REMARK VINA RESULT:     -10.8      2.025      3.190
REMARK SMILES COc1cc(OC)c([C@H]2CC[NH2+][C@H]2C(=O)NCCCCNC(=O)c2ccc(-c3c4nc(c(-c5cccc(S(=O)(=O)[O-])c5F)c5ccc([nH]5)c(-c5cccc(S(=O)(=O)[O-])c5F)c5nc(c(-c6cccc(S(=O)(=O)[O-])c6F)c6ccc3[nH]6)C=C5)C=C4)cc2)cc1OC
REMARK SMILES IDX 19 1 18 2 17 3 16 4 14 5 15 6 13 8 9 9 10 10 11 11 12 12
REMARK SMILES IDX 8 15 3 16 4 17 88 18 5 19 87 20 2 21 1 22 89 23 90 24 6 25
REMARK SMILES IDX 7 26 20 27 21 28 22 29 23 31 24 32 25 33 86 34 26 35 85 36
REMARK SMILES IDX 27 37 28 38 29 39 79 40 30 41 84 42 78 43 80 44 31 45 83 46
REMARK SMILES IDX 77 47 76 48 32 50 64 51 44 52 63 53 45 54 48 55 62 56 81 57
REMARK SMILES IDX 46 58 47 59 61 61 82 62 49 63 33 64 34 65 42 66 35 67 37 68
REMARK SMILES IDX 43 69 36 70 38 71 39 72 40 73 41 74 65 75 66 76 74 77 67 78
REMARK SMILES IDX 69 79 75 80 68 81 70 82 71 83 72 84 73 85 50 86 51 87 59 88
REMARK SMILES IDX 52 89 54 90 60 91 53 92 55 93 56 94 57 95 58 96
REMARK H PARENT 16 7 12 13 12 14 21 30 80 49 48 60
REMARK Flexibility Score: inf
ROOT
ATOM      1  C   UNL A   1      35.497  22.021  26.359  1.00  0.00     0.023 C 
ENDROOT
BRANCH   1   2
ATOM      2  C   UNL A   1      34.144  22.497  25.846  1.00  0.00     0.023 C 
BRANCH   2   3
ATOM      3  C   UNL A   1      33.802  23.956  26.129  1.00  0.00     0.116 C 
BRANCH   3   4
ATOM      4  N   UNL A   1      32.393  24.181  26.358  1.00  0.00    -0.351 N 
ATOM      5  C   UNL A   1      31.367  24.510  25.529  1.00  0.00     0.278 C 
ATOM      6  O   UNL A   1      30.235  24.495  26.032  1.00  0.00    -0.268 OA
ATOM      7  H   UNL A   1      32.123  24.077  27.300  1.00  0.00     0.163 HD
BRANCH   5   8
ATOM      8  C   UNL A   1      31.528  24.862  24.027  1.00  0.00     0.280 C 
ATOM      9  C   UNL A   1      32.157  26.208  23.579  1.00  0.00     0.097 C 
ATOM     10  C   UNL A   1      33.526  25.754  23.055  1.00  0.00     0.076 C 
ATOM     11  C   UNL A   1      33.301  24.349  22.529  1.00  0.00     0.262 C 
ATOM     12  N   UNL A   1      32.227  23.757  23.315  1.00  0.00    -0.335 N 
ATOM     13  H   UNL A   1      32.614  23.098  23.992  1.00  0.00     0.346 HD
ATOM     14  H   UNL A   1      31.578  23.253  22.712  1.00  0.00     0.346 HD
BRANCH   9  15
ATOM     15  C   UNL A   1      32.123  27.406  24.520  1.00  0.00     0.008 A 
ATOM     16  C   UNL A   1      32.348  29.765  26.095  1.00  0.00     0.164 A 
ATOM     17  C   UNL A   1      31.341  29.649  25.134  1.00  0.00     0.097 A 
ATOM     18  C   UNL A   1      33.170  28.670  26.356  1.00  0.00     0.161 A 
ATOM     19  C   UNL A   1      31.211  28.469  24.388  1.00  0.00     0.126 A 
ATOM     20  C   UNL A   1      33.019  27.497  25.599  1.00  0.00     0.058 A 
BRANCH  16  21
ATOM     21  O   UNL A   1      32.405  30.893  26.865  1.00  0.00    -0.493 OA
ATOM     22  C   UNL A   1      31.404  31.848  26.501  1.00  0.00     0.278 C 
ENDBRANCH  16  21
BRANCH  18  23
ATOM     23  O   UNL A   1      34.115  28.586  27.342  1.00  0.00    -0.493 OA
ATOM     24  C   UNL A   1      35.308  29.331  27.107  1.00  0.00     0.278 C 
ENDBRANCH  18  23
BRANCH  19  25
ATOM     25  O   UNL A   1      30.166  28.422  23.500  1.00  0.00    -0.496 OA
ATOM     26  C   UNL A   1      30.386  29.332  22.417  1.00  0.00     0.278 C 
ENDBRANCH  19  25
ENDBRANCH   9  15
ENDBRANCH   5   8
ENDBRANCH   3   4
ENDBRANCH   2   3
ENDBRANCH   1   2
BRANCH   1  27
ATOM     27  C   UNL A   1      36.619  22.102  25.338  1.00  0.00     0.116 C 
BRANCH  27  28
ATOM     28  N   UNL A   1      37.555  20.987  25.428  1.00  0.00    -0.352 N 
ATOM     29  C   UNL A   1      38.842  20.994  25.906  1.00  0.00     0.251 C 
ATOM     30  H   UNL A   1      37.221  20.120  25.103  1.00  0.00     0.163 HD
ATOM     31  O   UNL A   1      39.548  19.995  25.821  1.00  0.00    -0.269 OA
BRANCH  29  32
ATOM     32  C   UNL A   1      39.370  22.243  26.485  1.00  0.00     0.039 A 
ATOM     33  C   UNL A   1      40.430  22.172  27.390  1.00  0.00     0.014 A 
ATOM     34  C   UNL A   1      38.872  23.476  26.057  1.00  0.00     0.014 A 
ATOM     35  C   UNL A   1      41.046  23.351  27.812  1.00  0.00     0.010 A 
ATOM     36  C   UNL A   1      39.538  24.640  26.414  1.00  0.00     0.010 A 
ATOM     37  C   UNL A   1      40.630  24.589  27.293  1.00  0.00    -0.014 A 
BRANCH  37  38
ATOM     38  C   UNL A   1      41.331  25.849  27.636  1.00  0.00     0.031 A 
ATOM     39  C   UNL A   1      40.612  26.915  28.415  1.00  0.00     0.074 A 
ATOM     40  C   UNL A   1      42.565  26.077  27.145  1.00  0.00     0.049 A 
ATOM     41  N   UNL A   1      41.013  28.118  28.726  1.00  0.00    -0.248 NA
ATOM     42  C   UNL A   1      39.249  26.598  28.876  1.00  0.00     0.031 C 
ATOM     43  C   UNL A   1      43.325  25.152  26.301  1.00  0.00     0.029 A 
ATOM     44  N   UNL A   1      43.382  27.173  27.255  1.00  0.00    -0.354 N 
ATOM     45  C   UNL A   1      39.942  28.715  29.377  1.00  0.00     0.074 A 
ATOM     46  C   UNL A   1      38.861  27.755  29.389  1.00  0.00     0.031 C 
ATOM     47  C   UNL A   1      44.496  25.720  25.969  1.00  0.00     0.029 A 
ATOM     48  C   UNL A   1      44.558  27.058  26.549  1.00  0.00     0.049 A 
ATOM     49  H   UNL A   1      43.151  27.968  27.788  1.00  0.00     0.167 HD
ATOM     50  C   UNL A   1      39.876  29.942  29.947  1.00  0.00     0.034 A 
ATOM     51  C   UNL A   1      45.567  27.935  26.383  1.00  0.00     0.034 A 
ATOM     52  C   UNL A   1      40.974  30.867  29.982  1.00  0.00     0.049 A 
ATOM     53  C   UNL A   1      45.489  29.272  27.068  1.00  0.00     0.074 A 
ATOM     54  C   UNL A   1      41.049  32.087  30.629  1.00  0.00     0.029 A 
ATOM     55  N   UNL A   1      42.189  30.677  29.342  1.00  0.00    -0.354 N 
ATOM     56  N   UNL A   1      44.536  29.752  27.832  1.00  0.00    -0.248 NA
ATOM     57  C   UNL A   1      46.635  30.177  26.898  1.00  0.00     0.031 C 
ATOM     58  C   UNL A   1      42.305  32.643  30.365  1.00  0.00     0.029 A 
ATOM     59  C   UNL A   1      43.018  31.761  29.568  1.00  0.00     0.049 A 
ATOM     60  H   UNL A   1      42.427  29.886  28.807  1.00  0.00     0.167 HD
ATOM     61  C   UNL A   1      44.980  30.999  28.256  1.00  0.00     0.074 A 
ATOM     62  C   UNL A   1      46.296  31.191  27.683  1.00  0.00     0.031 C 
ATOM     63  C   UNL A   1      44.347  31.911  29.034  1.00  0.00     0.034 A 
BRANCH  50  64
ATOM     64  C   UNL A   1      38.594  30.326  30.634  1.00  0.00     0.023 A 
ATOM     65  C   UNL A   1      38.348  29.869  31.945  1.00  0.00     0.012 A 
ATOM     66  C   UNL A   1      37.660  31.175  30.010  1.00  0.00     0.148 A 
ATOM     67  C   UNL A   1      37.178  30.225  32.614  1.00  0.00     0.002 A 
ATOM     68  C   UNL A   1      36.516  31.561  30.700  1.00  0.00     0.091 A 
ATOM     69  F   UNL A   1      37.899  31.578  28.754  1.00  0.00    -0.205 F 
ATOM     70  C   UNL A   1      36.268  31.079  31.996  1.00  0.00     0.022 A 
BRANCH  68  71
ATOM     71  S   UNL A   1      35.319  32.716  30.021  1.00  0.00     0.127 S 
ATOM     72  O   UNL A   1      34.371  32.843  31.127  1.00  0.00    -0.237 OA
ATOM     73  O   UNL A   1      36.139  33.903  29.780  1.00  0.00    -0.237 OA
ATOM     74  O   UNL A   1      34.795  32.087  28.816  1.00  0.00    -0.744 OA
ENDBRANCH  68  71
ENDBRANCH  50  64
BRANCH  51  75
ATOM     75  C   UNL A   1      46.765  27.548  25.586  1.00  0.00     0.023 A 
ATOM     76  C   UNL A   1      46.787  27.806  24.201  1.00  0.00     0.012 A 
ATOM     77  C   UNL A   1      47.896  26.968  26.193  1.00  0.00     0.148 A 
ATOM     78  C   UNL A   1      47.899  27.466  23.431  1.00  0.00     0.002 A 
ATOM     79  C   UNL A   1      49.023  26.685  25.429  1.00  0.00     0.091 A 
ATOM     80  F   UNL A   1      47.854  26.716  27.508  1.00  0.00    -0.205 F 
ATOM     81  C   UNL A   1      49.020  26.916  24.045  1.00  0.00     0.022 A 
BRANCH  79  82
ATOM     82  S   UNL A   1      50.558  26.114  26.168  1.00  0.00     0.127 S 
ATOM     83  O   UNL A   1      51.412  25.949  24.996  1.00  0.00    -0.237 OA
ATOM     84  O   UNL A   1      50.914  27.236  27.037  1.00  0.00    -0.237 OA
ATOM     85  O   UNL A   1      50.212  24.894  26.886  1.00  0.00    -0.744 OA
ENDBRANCH  79  82
ENDBRANCH  51  75
BRANCH  63  86
ATOM     86  C   UNL A   1      45.071  33.195  29.336  1.00  0.00     0.023 A 
ATOM     87  C   UNL A   1      45.911  33.269  30.464  1.00  0.00     0.012 A 
ATOM     88  C   UNL A   1      44.992  34.291  28.455  1.00  0.00     0.148 A 
ATOM     89  C   UNL A   1      46.646  34.426  30.723  1.00  0.00     0.002 A 
ATOM     90  C   UNL A   1      45.762  35.422  28.695  1.00  0.00     0.091 A 
ATOM     91  F   UNL A   1      44.172  34.204  27.398  1.00  0.00    -0.205 F 
ATOM     92  C   UNL A   1      46.581  35.495  29.833  1.00  0.00     0.022 A 
BRANCH  90  93
ATOM     93  S   UNL A   1      45.817  36.810  27.555  1.00  0.00     0.127 S 
ATOM     94  O   UNL A   1      46.760  37.706  28.223  1.00  0.00    -0.237 OA
ATOM     95  O   UNL A   1      46.327  36.188  26.333  1.00  0.00    -0.237 OA
ATOM     96  O   UNL A   1      44.450  37.304  27.457  1.00  0.00    -0.744 OA
ENDBRANCH  90  93
ENDBRANCH  63  86
ENDBRANCH  37  38
ENDBRANCH  29  32
ENDBRANCH  27  28
ENDBRANCH   1  27
TORSDOF 18
ENDMDL
MODEL 3
REMARK VINA RESULT:     -10.7      2.294      3.476
REMARK SMILES COc1cc(OC)c([C@H]2CC[NH2+][C@H]2C(=O)NCCCCNC(=O)c2ccc(-c3c4nc(c(-c5cccc(S(=O)(=O)[O-])c5F)c5ccc([nH]5)c(-c5cccc(S(=O)(=O)[O-])c5F)c5nc(c(-c6cccc(S(=O)(=O)[O-])c6F)c6ccc3[nH]6)C=C5)C=C4)cc2)cc1OC
REMARK SMILES IDX 19 1 18 2 17 3 16 4 14 5 15 6 13 8 9 9 10 10 11 11 12 12
REMARK SMILES IDX 8 15 3 16 4 17 88 18 5 19 87 20 2 21 1 22 89 23 90 24 6 25
REMARK SMILES IDX 7 26 20 27 21 28 22 29 23 31 24 32 25 33 86 34 26 35 85 36
REMARK SMILES IDX 27 37 28 38 29 39 79 40 30 41 84 42 78 43 80 44 31 45 83 46
REMARK SMILES IDX 77 47 76 48 32 50 64 51 44 52 63 53 45 54 48 55 62 56 81 57
REMARK SMILES IDX 46 58 47 59 61 61 82 62 49 63 33 64 34 65 42 66 35 67 37 68
REMARK SMILES IDX 43 69 36 70 38 71 39 72 40 73 41 74 65 75 66 76 74 77 67 78
REMARK SMILES IDX 69 79 75 80 68 81 70 82 71 83 72 84 73 85 50 86 51 87 59 88
REMARK SMILES IDX 52 89 54 90 60 91 53 92 55 93 56 94 57 95 58 96
REMARK H PARENT 16 7 12 13 12 14 21 30 80 49 48 60
REMARK Flexibility Score: inf
ROOT
ATOM      1  C   UNL A   1      35.522  22.769  24.139  1.00  0.00     0.023 C 
ENDROOT
BRANCH   1   2
ATOM      2  C   UNL A   1      34.881  24.085  24.560  1.00  0.00     0.023 C 
BRANCH   2   3
ATOM      3  C   UNL A   1      34.103  24.822  23.475  1.00  0.00     0.116 C 
BRANCH   3   4
ATOM      4  N   UNL A   1      34.015  26.248  23.699  1.00  0.00    -0.351 N 
ATOM      5  C   UNL A   1      33.035  27.158  23.455  1.00  0.00     0.278 C 
ATOM      6  O   UNL A   1      33.229  28.298  23.899  1.00  0.00    -0.268 OA
ATOM      7  H   UNL A   1      34.822  26.635  24.110  1.00  0.00     0.163 HD
BRANCH   5   8
ATOM      8  C   UNL A   1      31.717  26.850  22.698  1.00  0.00     0.280 C 
ATOM      9  C   UNL A   1      30.561  26.071  23.379  1.00  0.00     0.097 C 
ATOM     10  C   UNL A   1      29.527  27.181  23.607  1.00  0.00     0.076 C 
ATOM     11  C   UNL A   1      29.750  28.166  22.476  1.00  0.00     0.262 C 
ATOM     12  N   UNL A   1      31.159  28.100  22.113  1.00  0.00    -0.335 N 
ATOM     13  H   UNL A   1      31.653  28.910  22.489  1.00  0.00     0.346 HD
ATOM     14  H   UNL A   1      31.268  28.100  21.099  1.00  0.00     0.346 HD
BRANCH   9  15
ATOM     15  C   UNL A   1      30.865  25.138  24.545  1.00  0.00     0.008 A 
ATOM     16  C   UNL A   1      31.779  23.403  26.608  1.00  0.00     0.164 A 
ATOM     17  C   UNL A   1      31.470  24.736  26.889  1.00  0.00     0.097 A 
ATOM     18  C   UNL A   1      31.526  22.900  25.333  1.00  0.00     0.161 A 
ATOM     19  C   UNL A   1      30.983  25.576  25.877  1.00  0.00     0.126 A 
ATOM     20  C   UNL A   1      31.035  23.758  24.336  1.00  0.00     0.058 A 
BRANCH  16  21
ATOM     21  O   UNL A   1      32.175  22.583  27.627  1.00  0.00    -0.493 OA
ATOM     22  C   UNL A   1      33.590  22.370  27.632  1.00  0.00     0.278 C 
ENDBRANCH  16  21
BRANCH  18  23
ATOM     23  O   UNL A   1      31.660  21.596  24.938  1.00  0.00    -0.493 OA
ATOM     24  C   UNL A   1      32.151  21.409  23.612  1.00  0.00     0.278 C 
ENDBRANCH  18  23
BRANCH  19  25
ATOM     25  O   UNL A   1      30.660  26.856  26.251  1.00  0.00    -0.496 OA
ATOM     26  C   UNL A   1      31.755  27.470  26.939  1.00  0.00     0.278 C 
ENDBRANCH  19  25
ENDBRANCH   9  15
ENDBRANCH   5   8
ENDBRANCH   3   4
ENDBRANCH   2   3
ENDBRANCH   1   2
BRANCH   1  27
ATOM     27  C   UNL A   1      37.036  22.745  24.246  1.00  0.00     0.116 C 
BRANCH  27  28
ATOM     28  N   UNL A   1      37.554  21.477  24.747  1.00  0.00    -0.352 N 
ATOM     29  C   UNL A   1      38.539  21.271  25.682  1.00  0.00     0.251 C 
ATOM     30  H   UNL A   1      37.146  20.666  24.366  1.00  0.00     0.163 HD
ATOM     31  O   UNL A   1      38.942  20.139  25.928  1.00  0.00    -0.269 OA
BRANCH  29  32
ATOM     32  C   UNL A   1      39.129  22.444  26.352  1.00  0.00     0.039 A 
ATOM     33  C   UNL A   1      40.242  22.263  27.173  1.00  0.00     0.014 A 
ATOM     34  C   UNL A   1      38.630  23.722  26.089  1.00  0.00     0.014 A 
ATOM     35  C   UNL A   1      40.909  23.383  27.674  1.00  0.00     0.010 A 
ATOM     36  C   UNL A   1      39.342  24.833  26.520  1.00  0.00     0.010 A 
ATOM     37  C   UNL A   1      40.487  24.673  27.315  1.00  0.00    -0.014 A 
BRANCH  37  38
ATOM     38  C   UNL A   1      41.234  25.880  27.741  1.00  0.00     0.031 A 
ATOM     39  C   UNL A   1      40.529  26.964  28.507  1.00  0.00     0.074 A 
ATOM     40  C   UNL A   1      42.508  26.050  27.335  1.00  0.00     0.049 A 
ATOM     41  N   UNL A   1      40.976  28.133  28.880  1.00  0.00    -0.248 NA
ATOM     42  C   UNL A   1      39.123  26.715  28.872  1.00  0.00     0.031 C 
ATOM     43  C   UNL A   1      43.267  25.106  26.511  1.00  0.00     0.029 A 
ATOM     44  N   UNL A   1      43.378  27.093  27.530  1.00  0.00    -0.354 N 
ATOM     45  C   UNL A   1      39.902  28.773  29.482  1.00  0.00     0.074 A 
ATOM     46  C   UNL A   1      38.769  27.878  29.396  1.00  0.00     0.031 C 
ATOM     47  C   UNL A   1      44.487  25.614  26.270  1.00  0.00     0.029 A 
ATOM     48  C   UNL A   1      44.587  26.929  26.895  1.00  0.00     0.049 A 
ATOM     49  H   UNL A   1      43.158  27.884  28.072  1.00  0.00     0.167 HD
ATOM     50  C   UNL A   1      39.869  29.985  30.084  1.00  0.00     0.034 A 
ATOM     51  C   UNL A   1      45.653  27.750  26.819  1.00  0.00     0.034 A 
ATOM     52  C   UNL A   1      41.013  30.844  30.218  1.00  0.00     0.049 A 
ATOM     53  C   UNL A   1      45.607  29.070  27.540  1.00  0.00     0.074 A 
ATOM     54  C   UNL A   1      41.115  32.039  30.906  1.00  0.00     0.029 A 
ATOM     55  N   UNL A   1      42.254  30.601  29.649  1.00  0.00    -0.354 N 
ATOM     56  N   UNL A   1      44.636  29.583  28.258  1.00  0.00    -0.248 NA
ATOM     57  C   UNL A   1      46.811  29.910  27.470  1.00  0.00     0.031 C 
ATOM     58  C   UNL A   1      42.415  32.527  30.739  1.00  0.00     0.029 A 
ATOM     59  C   UNL A   1      43.126  31.628  29.960  1.00  0.00     0.049 A 
ATOM     60  H   UNL A   1      42.480  29.812  29.104  1.00  0.00     0.167 HD
ATOM     61  C   UNL A   1      45.122  30.789  28.749  1.00  0.00     0.074 A 
ATOM     62  C   UNL A   1      46.481  30.920  28.265  1.00  0.00     0.031 C 
ATOM     63  C   UNL A   1      44.493  31.714  29.514  1.00  0.00     0.034 A 
BRANCH  50  64
ATOM     64  C   UNL A   1      38.569  30.424  30.703  1.00  0.00     0.023 A 
ATOM     65  C   UNL A   1      38.330  30.166  32.068  1.00  0.00     0.012 A 
ATOM     66  C   UNL A   1      37.610  31.133  29.954  1.00  0.00     0.148 A 
ATOM     67  C   UNL A   1      37.144  30.579  32.672  1.00  0.00     0.002 A 
ATOM     68  C   UNL A   1      36.449  31.579  30.575  1.00  0.00     0.091 A 
ATOM     69  F   UNL A   1      37.843  31.346  28.651  1.00  0.00    -0.205 F 
ATOM     70  C   UNL A   1      36.209  31.294  31.929  1.00  0.00     0.022 A 
BRANCH  68  71
ATOM     71  S   UNL A   1      35.216  32.572  29.724  1.00  0.00     0.127 S 
ATOM     72  O   UNL A   1      34.247  32.817  30.791  1.00  0.00    -0.237 OA
ATOM     73  O   UNL A   1      35.991  33.746  29.322  1.00  0.00    -0.237 OA
ATOM     74  O   UNL A   1      34.738  31.754  28.618  1.00  0.00    -0.744 OA
ENDBRANCH  68  71
ENDBRANCH  50  64
BRANCH  51  75
ATOM     75  C   UNL A   1      46.876  27.316  26.087  1.00  0.00     0.023 A 
ATOM     76  C   UNL A   1      46.997  27.605  24.713  1.00  0.00     0.012 A 
ATOM     77  C   UNL A   1      47.934  26.660  26.746  1.00  0.00     0.148 A 
ATOM     78  C   UNL A   1      48.135  27.222  24.003  1.00  0.00     0.002 A 
ATOM     79  C   UNL A   1      49.089  26.333  26.044  1.00  0.00     0.091 A 
ATOM     80  F   UNL A   1      47.796  26.379  28.048  1.00  0.00    -0.205 F 
ATOM     81  C   UNL A   1      49.185  26.597  24.669  1.00  0.00     0.022 A 
BRANCH  79  82
ATOM     82  S   UNL A   1      50.542  25.660  26.858  1.00  0.00     0.127 S 
ATOM     83  O   UNL A   1      51.439  25.428  25.730  1.00  0.00    -0.237 OA
ATOM     84  O   UNL A   1      50.933  26.760  27.742  1.00  0.00    -0.237 OA
ATOM     85  O   UNL A   1      50.076  24.472  27.562  1.00  0.00    -0.744 OA
ENDBRANCH  79  82
ENDBRANCH  51  75
BRANCH  63  86
ATOM     86  C   UNL A   1      45.267  32.945  29.901  1.00  0.00     0.023 A 
ATOM     87  C   UNL A   1      46.068  32.926  31.059  1.00  0.00     0.012 A 
ATOM     88  C   UNL A   1      45.275  34.082  29.070  1.00  0.00     0.148 A 
ATOM     89  C   UNL A   1      46.848  34.031  31.398  1.00  0.00     0.002 A 
ATOM     90  C   UNL A   1      46.092  35.161  29.389  1.00  0.00     0.091 A 
ATOM     91  F   UNL A   1      44.492  34.085  27.982  1.00  0.00    -0.205 F 
ATOM     92  C   UNL A   1      46.870  35.141  30.558  1.00  0.00     0.022 A 
BRANCH  90  93
ATOM     93  S   UNL A   1      46.257  36.594  28.318  1.00  0.00     0.127 S 
ATOM     94  O   UNL A   1      46.815  37.587  29.234  1.00  0.00    -0.237 OA
ATOM     95  O   UNL A   1      47.189  36.112  27.298  1.00  0.00    -0.237 OA
ATOM     96  O   UNL A   1      44.918  36.883  27.824  1.00  0.00    -0.744 OA
ENDBRANCH  90  93
ENDBRANCH  63  86
ENDBRANCH  37  38
ENDBRANCH  29  32
ENDBRANCH  27  28
ENDBRANCH   1  27
TORSDOF 18
ENDMDL
