MODEL 1
REMARK VINA RESULT:     -10.9      0.000      0.000
REMARK SMILES COc1ccccc1S(=O)(=O)[C@@H](C)[C@H](C)C(=O)NCCCCNC(=O)c1ccc(-c2c3nc(c(-c4cccc(S(=O)(=O)[O-])c4F)c4ccc([nH]4)c(-c4cccc(S(=O)(=O)[O-])c4F)c4nc(c(-c5cccc(S(=O)(=O)[O-])c5F)c5ccc2[nH]5)C=C4)C=C3)cc1
REMARK SMILES IDX 20 1 19 2 18 3 16 4 17 5 14 7 15 8 12 9 13 10 9 11 10 12
REMARK SMILES IDX 11 13 8 14 3 15 4 16 5 17 7 18 6 19 2 20 1 21 21 22 22 23
REMARK SMILES IDX 23 24 24 25 25 27 26 28 27 29 88 30 28 31 87 32 29 33 30 34
REMARK SMILES IDX 31 35 81 36 32 37 86 38 80 39 82 40 33 41 85 42 79 43 78 44
REMARK SMILES IDX 34 46 66 47 46 48 65 49 47 50 50 51 64 52 83 53 48 54 49 55
REMARK SMILES IDX 63 57 84 58 51 59 35 60 36 61 44 62 37 63 39 64 45 65 38 66
REMARK SMILES IDX 40 67 41 68 42 69 43 70 67 71 68 72 76 73 69 74 71 75 77 76
REMARK SMILES IDX 70 77 72 78 73 79 74 80 75 81 52 82 53 83 61 84 54 85 56 86
REMARK SMILES IDX 62 87 55 88 57 89 58 90 59 91 60 92
REMARK H PARENT 18 6 23 26 82 45 50 56
REMARK Flexibility Score: inf
ROOT
ATOM      1  C   UNL A   1      32.192  27.776  26.998  1.00  0.00     0.023 C 
ENDROOT
BRANCH   1   2
ATOM      2  C   UNL A   1      31.090  27.053  26.231  1.00  0.00     0.116 C 
BRANCH   2   3
ATOM      3  N   UNL A   1      31.019  25.647  26.583  1.00  0.00    -0.356 N 
ATOM      4  C   UNL A   1      30.925  24.538  25.799  1.00  0.00     0.224 C 
ATOM      5  O   UNL A   1      30.779  23.445  26.348  1.00  0.00    -0.275 OA
ATOM      6  H   UNL A   1      31.040  25.465  27.551  1.00  0.00     0.163 HD
BRANCH   4   7
ATOM      7  C   UNL A   1      30.959  24.641  24.276  1.00  0.00     0.093 C 
ATOM      8  C   UNL A   1      29.910  25.669  23.831  1.00  0.00     0.019 C 
BRANCH   7   9
ATOM      9  C   UNL A   1      32.415  24.814  23.774  1.00  0.00     0.122 C 
ATOM     10  C   UNL A   1      32.820  26.121  23.086  1.00  0.00     0.026 C 
BRANCH   9  11
ATOM     11  S   UNL A   1      33.059  23.384  22.918  1.00  0.00     0.185 S 
ATOM     12  O   UNL A   1      33.594  23.859  21.654  1.00  0.00    -0.223 OA
ATOM     13  O   UNL A   1      32.001  22.386  22.904  1.00  0.00    -0.223 OA
BRANCH  11  14
ATOM     14  C   UNL A   1      34.419  22.584  23.736  1.00  0.00     0.109 A 
ATOM     15  C   UNL A   1      34.317  21.630  24.747  1.00  0.00     0.137 A 
ATOM     16  C   UNL A   1      35.489  21.136  25.340  1.00  0.00     0.048 A 
ATOM     17  C   UNL A   1      36.747  21.521  24.873  1.00  0.00     0.004 A 
ATOM     18  C   UNL A   1      35.690  22.961  23.264  1.00  0.00     0.024 A 
ATOM     19  C   UNL A   1      36.848  22.422  23.821  1.00  0.00     0.002 A 
BRANCH  15  20
ATOM     20  O   UNL A   1      33.103  21.223  25.207  1.00  0.00    -0.495 OA
ATOM     21  C   UNL A   1      33.030  19.817  25.458  1.00  0.00     0.278 C 
ENDBRANCH  15  20
ENDBRANCH  11  14
ENDBRANCH   9  11
ENDBRANCH   7   9
ENDBRANCH   4   7
ENDBRANCH   2   3
ENDBRANCH   1   2
BRANCH   1  22
ATOM     22  C   UNL A   1      33.607  27.454  26.522  1.00  0.00     0.023 C 
BRANCH  22  23
ATOM     23  C   UNL A   1      34.450  28.665  26.142  1.00  0.00     0.116 C 
BRANCH  23  24
ATOM     24  N   UNL A   1      33.924  29.918  26.669  1.00  0.00    -0.352 N 
ATOM     25  C   UNL A   1      34.467  30.716  27.645  1.00  0.00     0.251 C 
ATOM     26  H   UNL A   1      33.077  30.230  26.277  1.00  0.00     0.163 HD
ATOM     27  O   UNL A   1      33.856  31.695  28.064  1.00  0.00    -0.269 OA
BRANCH  25  28
ATOM     28  C   UNL A   1      35.781  30.349  28.210  1.00  0.00     0.039 A 
ATOM     29  C   UNL A   1      35.828  29.642  29.412  1.00  0.00     0.014 A 
ATOM     30  C   UNL A   1      36.953  30.650  27.511  1.00  0.00     0.014 A 
ATOM     31  C   UNL A   1      37.056  29.180  29.888  1.00  0.00     0.010 A 
ATOM     32  C   UNL A   1      38.165  30.128  27.950  1.00  0.00     0.010 A 
ATOM     33  C   UNL A   1      38.229  29.394  29.145  1.00  0.00    -0.014 A 
BRANCH  33  34
ATOM     34  C   UNL A   1      39.540  28.871  29.602  1.00  0.00     0.031 A 
ATOM     35  C   UNL A   1      40.285  29.584  30.698  1.00  0.00     0.074 A 
ATOM     36  C   UNL A   1      40.096  27.814  28.976  1.00  0.00     0.049 A 
ATOM     37  N   UNL A   1      41.473  29.336  31.183  1.00  0.00    -0.248 NA
ATOM     38  C   UNL A   1      39.619  30.748  31.309  1.00  0.00     0.031 C 
ATOM     39  C   UNL A   1      39.505  27.088  27.849  1.00  0.00     0.029 A 
ATOM     40  N   UNL A   1      41.297  27.183  29.183  1.00  0.00    -0.354 N 
ATOM     41  C   UNL A   1      41.710  30.328  32.127  1.00  0.00     0.074 A 
ATOM     42  C   UNL A   1      40.561  31.205  32.120  1.00  0.00     0.031 C 
ATOM     43  C   UNL A   1      40.344  26.110  27.467  1.00  0.00     0.029 A 
ATOM     44  C   UNL A   1      41.540  26.154  28.302  1.00  0.00     0.049 A 
ATOM     45  H   UNL A   1      41.926  27.442  29.894  1.00  0.00     0.167 HD
ATOM     46  C   UNL A   1      42.772  30.474  32.953  1.00  0.00     0.034 A 
ATOM     47  C   UNL A   1      42.607  25.339  28.186  1.00  0.00     0.034 A 
ATOM     48  C   UNL A   1      43.886  29.567  32.997  1.00  0.00     0.049 A 
ATOM     49  C   UNL A   1      43.748  25.493  29.156  1.00  0.00     0.074 A 
ATOM     50  C   UNL A   1      44.980  29.589  33.844  1.00  0.00     0.029 A 
ATOM     51  N   UNL A   1      44.042  28.469  32.167  1.00  0.00    -0.354 N 
ATOM     52  N   UNL A   1      43.886  26.347  30.141  1.00  0.00    -0.248 NA
ATOM     53  C   UNL A   1      44.864  24.543  29.027  1.00  0.00     0.031 C 
ATOM     54  C   UNL A   1      45.799  28.501  33.524  1.00  0.00     0.029 A 
ATOM     55  C   UNL A   1      45.208  27.798  32.487  1.00  0.00     0.049 A 
ATOM     56  H   UNL A   1      43.415  28.207  31.454  1.00  0.00     0.167 HD
ATOM     57  C   UNL A   1      45.076  26.011  30.774  1.00  0.00     0.074 A 
ATOM     58  C   UNL A   1      45.613  24.862  30.074  1.00  0.00     0.031 C 
ATOM     59  C   UNL A   1      45.683  26.609  31.829  1.00  0.00     0.034 A 
BRANCH  46  60
ATOM     60  C   UNL A   1      42.742  31.615  33.936  1.00  0.00     0.023 A 
ATOM     61  C   UNL A   1      43.168  32.892  33.518  1.00  0.00     0.012 A 
ATOM     62  C   UNL A   1      42.234  31.446  35.239  1.00  0.00     0.148 A 
ATOM     63  C   UNL A   1      43.118  33.978  34.390  1.00  0.00     0.002 A 
ATOM     64  C   UNL A   1      42.148  32.543  36.089  1.00  0.00     0.091 A 
ATOM     65  F   UNL A   1      41.852  30.220  35.622  1.00  0.00    -0.205 F 
ATOM     66  C   UNL A   1      42.598  33.807  35.669  1.00  0.00     0.022 A 
BRANCH  64  67
ATOM     67  S   UNL A   1      41.423  32.448  37.729  1.00  0.00     0.127 S 
ATOM     68  O   UNL A   1      40.056  32.028  37.423  1.00  0.00    -0.237 OA
ATOM     69  O   UNL A   1      42.247  31.424  38.371  1.00  0.00    -0.237 OA
ATOM     70  O   UNL A   1      41.550  33.780  38.304  1.00  0.00    -0.744 OA
ENDBRANCH  64  67
ENDBRANCH  46  60
BRANCH  47  71
ATOM     71  C   UNL A   1      42.617  24.250  27.167  1.00  0.00     0.023 A 
ATOM     72  C   UNL A   1      43.273  24.464  25.939  1.00  0.00     0.012 A 
ATOM     73  C   UNL A   1      41.989  23.011  27.400  1.00  0.00     0.148 A 
ATOM     74  C   UNL A   1      43.269  23.483  24.946  1.00  0.00     0.002 A 
ATOM     75  C   UNL A   1      42.035  22.017  26.428  1.00  0.00     0.091 A 
ATOM     76  F   UNL A   1      41.355  22.828  28.568  1.00  0.00    -0.205 F 
ATOM     77  C   UNL A   1      42.657  22.257  25.194  1.00  0.00     0.022 A 
BRANCH  75  78
ATOM     78  S   UNL A   1      41.383  20.370  26.722  1.00  0.00     0.127 S 
ATOM     79  O   UNL A   1      39.957  20.635  26.888  1.00  0.00    -0.237 OA
ATOM     80  O   UNL A   1      41.740  19.670  25.486  1.00  0.00    -0.237 OA
ATOM     81  O   UNL A   1      42.087  19.886  27.902  1.00  0.00    -0.744 OA
ENDBRANCH  75  78
ENDBRANCH  47  71
BRANCH  59  82
ATOM     82  C   UNL A   1      46.969  26.008  32.330  1.00  0.00     0.023 A 
ATOM     83  C   UNL A   1      48.198  26.455  31.810  1.00  0.00     0.012 A 
ATOM     84  C   UNL A   1      46.959  25.063  33.374  1.00  0.00     0.148 A 
ATOM     85  C   UNL A   1      49.400  25.948  32.302  1.00  0.00     0.002 A 
ATOM     86  C   UNL A   1      48.161  24.596  33.890  1.00  0.00     0.091 A 
ATOM     87  F   UNL A   1      45.777  24.636  33.841  1.00  0.00    -0.205 F 
ATOM     88  C   UNL A   1      49.382  25.030  33.349  1.00  0.00     0.022 A 
BRANCH  86  89
ATOM     89  S   UNL A   1      48.231  23.486  35.301  1.00  0.00     0.127 S 
ATOM     90  O   UNL A   1      47.574  22.293  34.774  1.00  0.00    -0.237 OA
ATOM     91  O   UNL A   1      49.672  23.344  35.517  1.00  0.00    -0.237 OA
ATOM     92  O   UNL A   1      47.527  24.167  36.379  1.00  0.00    -0.744 OA
ENDBRANCH  86  89
ENDBRANCH  59  82
ENDBRANCH  33  34
ENDBRANCH  25  28
ENDBRANCH  23  24
ENDBRANCH  22  23
ENDBRANCH   1  22
TORSDOF 18
ENDMDL
MODEL 2
REMARK VINA RESULT:     -10.9      2.210      3.183
REMARK SMILES COc1ccccc1S(=O)(=O)[C@@H](C)[C@H](C)C(=O)NCCCCNC(=O)c1ccc(-c2c3nc(c(-c4cccc(S(=O)(=O)[O-])c4F)c4ccc([nH]4)c(-c4cccc(S(=O)(=O)[O-])c4F)c4nc(c(-c5cccc(S(=O)(=O)[O-])c5F)c5ccc2[nH]5)C=C4)C=C3)cc1
REMARK SMILES IDX 20 1 19 2 18 3 16 4 17 5 14 7 15 8 12 9 13 10 9 11 10 12
REMARK SMILES IDX 11 13 8 14 3 15 4 16 5 17 7 18 6 19 2 20 1 21 21 22 22 23
REMARK SMILES IDX 23 24 24 25 25 27 26 28 27 29 88 30 28 31 87 32 29 33 30 34
REMARK SMILES IDX 31 35 81 36 32 37 86 38 80 39 82 40 33 41 85 42 79 43 78 44
REMARK SMILES IDX 34 46 66 47 46 48 65 49 47 50 50 51 64 52 83 53 48 54 49 55
REMARK SMILES IDX 63 57 84 58 51 59 35 60 36 61 44 62 37 63 39 64 45 65 38 66
REMARK SMILES IDX 40 67 41 68 42 69 43 70 67 71 68 72 76 73 69 74 71 75 77 76
REMARK SMILES IDX 70 77 72 78 73 79 74 80 75 81 52 82 53 83 61 84 54 85 56 86
REMARK SMILES IDX 62 87 55 88 57 89 58 90 59 91 60 92
REMARK H PARENT 18 6 23 26 82 45 50 56
REMARK Flexibility Score: inf
ROOT
ATOM      1  C   UNL A   1      31.804  27.865  27.150  1.00  0.00     0.023 C 
ENDROOT
BRANCH   1   2
ATOM      2  C   UNL A   1      31.913  26.465  26.553  1.00  0.00     0.116 C 
BRANCH   2   3
ATOM      3  N   UNL A   1      32.631  26.468  25.292  1.00  0.00    -0.356 N 
ATOM      4  C   UNL A   1      32.693  25.536  24.302  1.00  0.00     0.224 C 
ATOM      5  O   UNL A   1      33.461  25.734  23.360  1.00  0.00    -0.275 OA
ATOM      6  H   UNL A   1      33.163  27.280  25.126  1.00  0.00     0.163 HD
BRANCH   4   7
ATOM      7  C   UNL A   1      31.865  24.255  24.370  1.00  0.00     0.093 C 
ATOM      8  C   UNL A   1      30.618  24.430  23.494  1.00  0.00     0.019 C 
BRANCH   7   9
ATOM      9  C   UNL A   1      32.762  23.014  24.132  1.00  0.00     0.122 C 
ATOM     10  C   UNL A   1      32.883  22.437  22.718  1.00  0.00     0.026 C 
BRANCH   9  11
ATOM     11  S   UNL A   1      32.563  21.731  25.359  1.00  0.00     0.185 S 
ATOM     12  O   UNL A   1      31.150  21.398  25.391  1.00  0.00    -0.223 OA
ATOM     13  O   UNL A   1      33.200  22.207  26.577  1.00  0.00    -0.223 OA
BRANCH  11  14
ATOM     14  C   UNL A   1      33.399  20.209  24.981  1.00  0.00     0.109 A 
ATOM     15  C   UNL A   1      34.777  20.008  25.000  1.00  0.00     0.137 A 
ATOM     16  C   UNL A   1      35.292  18.761  24.613  1.00  0.00     0.048 A 
ATOM     17  C   UNL A   1      34.440  17.702  24.295  1.00  0.00     0.004 A 
ATOM     18  C   UNL A   1      32.546  19.134  24.668  1.00  0.00     0.024 A 
ATOM     19  C   UNL A   1      33.064  17.883  24.340  1.00  0.00     0.002 A 
BRANCH  15  20
ATOM     20  O   UNL A   1      35.630  21.019  25.326  1.00  0.00    -0.495 OA
ATOM     21  C   UNL A   1      36.997  20.732  25.024  1.00  0.00     0.278 C 
ENDBRANCH  15  20
ENDBRANCH  11  14
ENDBRANCH   9  11
ENDBRANCH   7   9
ENDBRANCH   4   7
ENDBRANCH   2   3
ENDBRANCH   1   2
BRANCH   1  22
ATOM     22  C   UNL A   1      31.613  28.976  26.119  1.00  0.00     0.023 C 
BRANCH  22  23
ATOM     23  C   UNL A   1      32.804  29.913  25.955  1.00  0.00     0.116 C 
BRANCH  23  24
ATOM     24  N   UNL A   1      32.523  31.277  26.384  1.00  0.00    -0.352 N 
ATOM     25  C   UNL A   1      33.235  32.046  27.271  1.00  0.00     0.251 C 
ATOM     26  H   UNL A   1      31.726  31.700  25.989  1.00  0.00     0.163 HD
ATOM     27  O   UNL A   1      32.820  33.148  27.618  1.00  0.00    -0.269 OA
BRANCH  25  28
ATOM     28  C   UNL A   1      34.490  31.504  27.829  1.00  0.00     0.039 A 
ATOM     29  C   UNL A   1      35.587  32.354  27.979  1.00  0.00     0.014 A 
ATOM     30  C   UNL A   1      34.549  30.177  28.263  1.00  0.00     0.014 A 
ATOM     31  C   UNL A   1      36.734  31.885  28.622  1.00  0.00     0.010 A 
ATOM     32  C   UNL A   1      35.664  29.736  28.966  1.00  0.00     0.010 A 
ATOM     33  C   UNL A   1      36.768  30.582  29.147  1.00  0.00    -0.014 A 
BRANCH  33  34
ATOM     34  C   UNL A   1      37.955  30.075  29.879  1.00  0.00     0.031 A 
ATOM     35  C   UNL A   1      38.240  30.572  31.271  1.00  0.00     0.074 A 
ATOM     36  C   UNL A   1      38.817  29.241  29.264  1.00  0.00     0.049 A 
ATOM     37  N   UNL A   1      39.261  30.315  32.044  1.00  0.00    -0.248 NA
ATOM     38  C   UNL A   1      37.262  31.505  31.858  1.00  0.00     0.031 C 
ATOM     39  C   UNL A   1      38.689  28.750  27.889  1.00  0.00     0.029 A 
ATOM     40  N   UNL A   1      39.988  28.678  29.707  1.00  0.00    -0.354 N 
ATOM     41  C   UNL A   1      39.068  31.077  33.190  1.00  0.00     0.074 A 
ATOM     42  C   UNL A   1      37.852  31.835  32.997  1.00  0.00     0.031 C 
ATOM     43  C   UNL A   1      39.738  27.959  27.604  1.00  0.00     0.029 A 
ATOM     44  C   UNL A   1      40.623  27.904  28.763  1.00  0.00     0.049 A 
ATOM     45  H   UNL A   1      40.341  28.815  30.616  1.00  0.00     0.167 HD
ATOM     46  C   UNL A   1      39.814  31.113  34.319  1.00  0.00     0.034 A 
ATOM     47  C   UNL A   1      41.786  27.228  28.829  1.00  0.00     0.034 A 
ATOM     48  C   UNL A   1      40.989  30.313  34.530  1.00  0.00     0.049 A 
ATOM     49  C   UNL A   1      42.565  27.244  30.118  1.00  0.00     0.074 A 
ATOM     50  C   UNL A   1      41.778  30.226  35.664  1.00  0.00     0.029 A 
ATOM     51  N   UNL A   1      41.538  29.454  33.592  1.00  0.00    -0.354 N 
ATOM     52  N   UNL A   1      42.286  27.855  31.244  1.00  0.00    -0.248 NA
ATOM     53  C   UNL A   1      43.798  26.443  30.160  1.00  0.00     0.031 C 
ATOM     54  C   UNL A   1      42.807  29.313  35.409  1.00  0.00     0.029 A 
ATOM     55  C   UNL A   1      42.649  28.824  34.122  1.00  0.00     0.049 A 
ATOM     56  H   UNL A   1      41.188  29.314  32.682  1.00  0.00     0.167 HD
ATOM     57  C   UNL A   1      43.280  27.478  32.138  1.00  0.00     0.074 A 
ATOM     58  C   UNL A   1      44.159  26.570  31.430  1.00  0.00     0.031 C 
ATOM     59  C   UNL A   1      43.463  27.863  33.426  1.00  0.00     0.034 A 
BRANCH  46  60
ATOM     60  C   UNL A   1      39.334  31.988  35.447  1.00  0.00     0.023 A 
ATOM     61  C   UNL A   1      38.454  31.448  36.407  1.00  0.00     0.012 A 
ATOM     62  C   UNL A   1      39.800  33.308  35.599  1.00  0.00     0.148 A 
ATOM     63  C   UNL A   1      38.020  32.218  37.485  1.00  0.00     0.002 A 
ATOM     64  C   UNL A   1      39.396  34.055  36.700  1.00  0.00     0.091 A 
ATOM     65  F   UNL A   1      40.622  33.808  34.666  1.00  0.00    -0.205 F 
ATOM     66  C   UNL A   1      38.499  33.515  37.638  1.00  0.00     0.022 A 
BRANCH  64  67
ATOM     67  S   UNL A   1      40.013  35.709  37.033  1.00  0.00     0.127 S 
ATOM     68  O   UNL A   1      41.445  35.461  37.198  1.00  0.00    -0.237 OA
ATOM     69  O   UNL A   1      39.655  36.423  35.808  1.00  0.00    -0.237 OA
ATOM     70  O   UNL A   1      39.320  36.164  38.230  1.00  0.00    -0.744 OA
ENDBRANCH  64  67
ENDBRANCH  46  60
BRANCH  47  71
ATOM     71  C   UNL A   1      42.250  26.410  27.671  1.00  0.00     0.023 A 
ATOM     72  C   UNL A   1      43.067  27.006  26.691  1.00  0.00     0.012 A 
ATOM     73  C   UNL A   1      41.894  25.054  27.532  1.00  0.00     0.148 A 
ATOM     74  C   UNL A   1      43.486  26.283  25.573  1.00  0.00     0.002 A 
ATOM     75  C   UNL A   1      42.359  24.324  26.444  1.00  0.00     0.091 A 
ATOM     76  F   UNL A   1      41.102  24.504  28.465  1.00  0.00    -0.205 F 
ATOM     77  C   UNL A   1      43.139  24.940  25.454  1.00  0.00     0.022 A 
BRANCH  75  78
ATOM     78  S   UNL A   1      42.063  22.559  26.287  1.00  0.00     0.127 S 
ATOM     79  O   UNL A   1      42.721  22.037  27.482  1.00  0.00    -0.237 OA
ATOM     80  O   UNL A   1      40.601  22.487  26.307  1.00  0.00    -0.237 OA
ATOM     81  O   UNL A   1      42.659  22.184  25.011  1.00  0.00    -0.744 OA
ENDBRANCH  75  78
ENDBRANCH  47  71
BRANCH  59  82
ATOM     82  C   UNL A   1      44.625  27.268  34.175  1.00  0.00     0.023 A 
ATOM     83  C   UNL A   1      45.904  27.843  34.053  1.00  0.00     0.012 A 
ATOM     84  C   UNL A   1      44.429  26.193  35.064  1.00  0.00     0.148 A 
ATOM     85  C   UNL A   1      46.979  27.338  34.783  1.00  0.00     0.002 A 
ATOM     86  C   UNL A   1      45.495  25.724  35.822  1.00  0.00     0.091 A 
ATOM     87  F   UNL A   1      43.208  25.646  35.150  1.00  0.00    -0.205 F 
ATOM     88  C   UNL A   1      46.772  26.289  35.676  1.00  0.00     0.022 A 
BRANCH  86  89
ATOM     89  S   UNL A   1      45.297  24.441  37.064  1.00  0.00     0.127 S 
ATOM     90  O   UNL A   1      45.114  23.251  36.235  1.00  0.00    -0.237 OA
ATOM     91  O   UNL A   1      46.573  24.497  37.779  1.00  0.00    -0.237 OA
ATOM     92  O   UNL A   1      44.143  24.834  37.862  1.00  0.00    -0.744 OA
ENDBRANCH  86  89
ENDBRANCH  59  82
ENDBRANCH  33  34
ENDBRANCH  25  28
ENDBRANCH  23  24
ENDBRANCH  22  23
ENDBRANCH   1  22
TORSDOF 18
ENDMDL
MODEL 3
REMARK VINA RESULT:     -10.8      5.104      9.637
REMARK SMILES COc1ccccc1S(=O)(=O)[C@@H](C)[C@H](C)C(=O)NCCCCNC(=O)c1ccc(-c2c3nc(c(-c4cccc(S(=O)(=O)[O-])c4F)c4ccc([nH]4)c(-c4cccc(S(=O)(=O)[O-])c4F)c4nc(c(-c5cccc(S(=O)(=O)[O-])c5F)c5ccc2[nH]5)C=C4)C=C3)cc1
REMARK SMILES IDX 20 1 19 2 18 3 16 4 17 5 14 7 15 8 12 9 13 10 9 11 10 12
REMARK SMILES IDX 11 13 8 14 3 15 4 16 5 17 7 18 6 19 2 20 1 21 21 22 22 23
REMARK SMILES IDX 23 24 24 25 25 27 26 28 27 29 88 30 28 31 87 32 29 33 30 34
REMARK SMILES IDX 31 35 81 36 32 37 86 38 80 39 82 40 33 41 85 42 79 43 78 44
REMARK SMILES IDX 34 46 66 47 46 48 65 49 47 50 50 51 64 52 83 53 48 54 49 55
REMARK SMILES IDX 63 57 84 58 51 59 35 60 36 61 44 62 37 63 39 64 45 65 38 66
REMARK SMILES IDX 40 67 41 68 42 69 43 70 67 71 68 72 76 73 69 74 71 75 77 76
REMARK SMILES IDX 70 77 72 78 73 79 74 80 75 81 52 82 53 83 61 84 54 85 56 86
REMARK SMILES IDX 62 87 55 88 57 89 58 90 59 91 60 92
REMARK H PARENT 18 6 23 26 82 45 50 56
REMARK Flexibility Score: inf
ROOT
ATOM      1  C   UNL A   1      36.501  20.554  25.040  1.00  0.00     0.023 C 
ENDROOT
BRANCH   1   2
ATOM      2  C   UNL A   1      36.326  21.858  25.812  1.00  0.00     0.116 C 
BRANCH   2   3
ATOM      3  N   UNL A   1      35.235  21.780  26.765  1.00  0.00    -0.356 N 
ATOM      4  C   UNL A   1      33.892  21.926  26.593  1.00  0.00     0.224 C 
ATOM      5  O   UNL A   1      33.170  21.910  27.591  1.00  0.00    -0.275 OA
ATOM      6  H   UNL A   1      35.512  21.591  27.691  1.00  0.00     0.163 HD
BRANCH   4   7
ATOM      7  C   UNL A   1      33.292  22.146  25.206  1.00  0.00     0.093 C 
ATOM      8  C   UNL A   1      32.215  21.080  24.963  1.00  0.00     0.019 C 
BRANCH   7   9
ATOM      9  C   UNL A   1      32.909  23.634  25.008  1.00  0.00     0.122 C 
ATOM     10  C   UNL A   1      31.659  23.985  24.196  1.00  0.00     0.026 C 
BRANCH   9  11
ATOM     11  S   UNL A   1      34.291  24.687  24.589  1.00  0.00     0.185 S 
ATOM     12  O   UNL A   1      34.965  24.065  23.463  1.00  0.00    -0.223 OA
ATOM     13  O   UNL A   1      35.039  24.913  25.817  1.00  0.00    -0.223 OA
BRANCH  11  14
ATOM     14  C   UNL A   1      33.841  26.312  24.032  1.00  0.00     0.109 A 
ATOM     15  C   UNL A   1      33.595  26.684  22.712  1.00  0.00     0.137 A 
ATOM     16  C   UNL A   1      33.311  28.028  22.422  1.00  0.00     0.048 A 
ATOM     17  C   UNL A   1      33.186  28.971  23.444  1.00  0.00     0.004 A 
ATOM     18  C   UNL A   1      33.704  27.266  25.058  1.00  0.00     0.024 A 
ATOM     19  C   UNL A   1      33.365  28.586  24.766  1.00  0.00     0.002 A 
BRANCH  15  20
ATOM     20  O   UNL A   1      33.690  25.780  21.699  1.00  0.00    -0.495 OA
ATOM     21  C   UNL A   1      32.523  25.721  20.875  1.00  0.00     0.278 C 
ENDBRANCH  15  20
ENDBRANCH  11  14
ENDBRANCH   9  11
ENDBRANCH   7   9
ENDBRANCH   4   7
ENDBRANCH   2   3
ENDBRANCH   1   2
BRANCH   1  22
ATOM     22  C   UNL A   1      37.951  20.215  24.695  1.00  0.00     0.023 C 
BRANCH  22  23
ATOM     23  C   UNL A   1      38.954  20.470  25.814  1.00  0.00     0.116 C 
BRANCH  23  24
ATOM     24  N   UNL A   1      39.960  19.421  25.930  1.00  0.00    -0.352 N 
ATOM     25  C   UNL A   1      41.295  19.562  26.217  1.00  0.00     0.251 C 
ATOM     26  H   UNL A   1      39.643  18.500  25.787  1.00  0.00     0.163 HD
ATOM     27  O   UNL A   1      42.048  18.594  26.180  1.00  0.00    -0.269 OA
BRANCH  25  28
ATOM     28  C   UNL A   1      41.814  20.909  26.530  1.00  0.00     0.039 A 
ATOM     29  C   UNL A   1      42.092  21.787  25.481  1.00  0.00     0.014 A 
ATOM     30  C   UNL A   1      41.957  21.314  27.859  1.00  0.00     0.014 A 
ATOM     31  C   UNL A   1      42.460  23.103  25.769  1.00  0.00     0.010 A 
ATOM     32  C   UNL A   1      42.254  22.643  28.141  1.00  0.00     0.010 A 
ATOM     33  C   UNL A   1      42.515  23.547  27.101  1.00  0.00    -0.014 A 
BRANCH  33  34
ATOM     34  C   UNL A   1      42.854  24.953  27.433  1.00  0.00     0.031 A 
ATOM     35  C   UNL A   1      44.273  25.431  27.282  1.00  0.00     0.074 A 
ATOM     36  C   UNL A   1      41.912  25.766  27.949  1.00  0.00     0.049 A 
ATOM     37  N   UNL A   1      44.788  26.592  27.593  1.00  0.00    -0.248 NA
ATOM     38  C   UNL A   1      45.248  24.469  26.739  1.00  0.00     0.031 C 
ATOM     39  C   UNL A   1      40.520  25.393  28.214  1.00  0.00     0.029 A 
ATOM     40  N   UNL A   1      41.989  27.071  28.368  1.00  0.00    -0.354 N 
ATOM     41  C   UNL A   1      46.146  26.488  27.316  1.00  0.00     0.074 A 
ATOM     42  C   UNL A   1      46.384  25.141  26.849  1.00  0.00     0.031 C 
ATOM     43  C   UNL A   1      39.876  26.445  28.748  1.00  0.00     0.029 A 
ATOM     44  C   UNL A   1      40.810  27.557  28.885  1.00  0.00     0.049 A 
ATOM     45  H   UNL A   1      42.811  27.610  28.305  1.00  0.00     0.167 HD
ATOM     46  C   UNL A   1      47.104  27.441  27.406  1.00  0.00     0.034 A 
ATOM     47  C   UNL A   1      40.519  28.764  29.409  1.00  0.00     0.034 A 
ATOM     48  C   UNL A   1      46.853  28.795  27.815  1.00  0.00     0.049 A 
ATOM     49  C   UNL A   1      41.593  29.820  29.443  1.00  0.00     0.074 A 
ATOM     50  C   UNL A   1      47.742  29.854  27.875  1.00  0.00     0.029 A 
ATOM     51  N   UNL A   1      45.621  29.281  28.222  1.00  0.00    -0.354 N 
ATOM     52  N   UNL A   1      42.837  29.746  29.037  1.00  0.00    -0.248 NA
ATOM     53  C   UNL A   1      41.212  31.139  29.969  1.00  0.00     0.031 C 
ATOM     54  C   UNL A   1      47.045  30.982  28.321  1.00  0.00     0.029 A 
ATOM     55  C   UNL A   1      45.722  30.626  28.526  1.00  0.00     0.049 A 
ATOM     56  H   UNL A   1      44.797  28.746  28.287  1.00  0.00     0.167 HD
ATOM     57  C   UNL A   1      43.372  31.015  29.216  1.00  0.00     0.074 A 
ATOM     58  C   UNL A   1      42.313  31.846  29.750  1.00  0.00     0.031 C 
ATOM     59  C   UNL A   1      44.634  31.453  28.979  1.00  0.00     0.034 A 
BRANCH  46  60
ATOM     60  C   UNL A   1      48.500  27.072  26.975  1.00  0.00     0.023 A 
ATOM     61  C   UNL A   1      49.311  26.320  27.849  1.00  0.00     0.012 A 
ATOM     62  C   UNL A   1      48.983  27.405  25.695  1.00  0.00     0.148 A 
ATOM     63  C   UNL A   1      50.593  25.930  27.468  1.00  0.00     0.002 A 
ATOM     64  C   UNL A   1      50.247  26.975  25.306  1.00  0.00     0.091 A 
ATOM     65  F   UNL A   1      48.203  28.136  24.887  1.00  0.00    -0.205 F 
ATOM     66  C   UNL A   1      51.056  26.247  26.195  1.00  0.00     0.022 A 
BRANCH  64  67
ATOM     67  S   UNL A   1      50.909  27.263  23.662  1.00  0.00     0.127 S 
ATOM     68  O   UNL A   1      49.898  26.623  22.821  1.00  0.00    -0.237 OA
ATOM     69  O   UNL A   1      50.927  28.724  23.589  1.00  0.00    -0.237 OA
ATOM     70  O   UNL A   1      52.223  26.635  23.641  1.00  0.00    -0.744 OA
ENDBRANCH  64  67
ENDBRANCH  46  60
BRANCH  47  71
ATOM     71  C   UNL A   1      39.134  29.074  29.867  1.00  0.00     0.023 A 
ATOM     72  C   UNL A   1      38.756  28.744  31.184  1.00  0.00     0.012 A 
ATOM     73  C   UNL A   1      38.193  29.690  29.020  1.00  0.00     0.148 A 
ATOM     74  C   UNL A   1      37.457  28.982  31.635  1.00  0.00     0.002 A 
ATOM     75  C   UNL A   1      36.916  29.973  29.493  1.00  0.00     0.091 A 
ATOM     76  F   UNL A   1      38.563  29.984  27.765  1.00  0.00    -0.205 F 
ATOM     77  C   UNL A   1      36.540  29.604  30.793  1.00  0.00     0.022 A 
BRANCH  75  78
ATOM     78  S   UNL A   1      35.721  30.888  28.512  1.00  0.00     0.127 S 
ATOM     79  O   UNL A   1      35.117  29.829  27.708  1.00  0.00    -0.237 OA
ATOM     80  O   UNL A   1      34.847  31.457  29.539  1.00  0.00    -0.237 OA
ATOM     81  O   UNL A   1      36.504  31.879  27.784  1.00  0.00    -0.744 OA
ENDBRANCH  75  78
ENDBRANCH  47  71
BRANCH  59  82
ATOM     82  C   UNL A   1      44.932  32.905  29.243  1.00  0.00     0.023 A 
ATOM     83  C   UNL A   1      45.476  33.293  30.481  1.00  0.00     0.012 A 
ATOM     84  C   UNL A   1      44.752  33.868  28.231  1.00  0.00     0.148 A 
ATOM     85  C   UNL A   1      45.808  34.625  30.721  1.00  0.00     0.002 A 
ATOM     86  C   UNL A   1      45.128  35.185  28.461  1.00  0.00     0.091 A 
ATOM     87  F   UNL A   1      44.213  33.481  27.065  1.00  0.00    -0.205 F 
ATOM     88  C   UNL A   1      45.647  35.568  29.708  1.00  0.00     0.022 A 
BRANCH  86  89
ATOM     89  S   UNL A   1      45.043  36.443  27.181  1.00  0.00     0.127 S 
ATOM     90  O   UNL A   1      45.414  37.647  27.922  1.00  0.00    -0.237 OA
ATOM     91  O   UNL A   1      46.047  35.982  26.221  1.00  0.00    -0.237 OA
ATOM     92  O   UNL A   1      43.674  36.411  26.681  1.00  0.00    -0.744 OA
ENDBRANCH  86  89
ENDBRANCH  59  82
ENDBRANCH  33  34
ENDBRANCH  25  28
ENDBRANCH  23  24
ENDBRANCH  22  23
ENDBRANCH   1  22
TORSDOF 18
ENDMDL
