MODEL 1
REMARK VINA RESULT:     -12.2      0.000      0.000
REMARK SMILES O=C(NCCCCNC(=O)[C@H]1CCCCN1c1cc(-c2ccccc2)nc(-c2cccc(Cl)c2)n1)c1ccc(-c2c3nc(c(-c4cccc(S(=O)(=O)[O-])c4F)c4ccc([nH]4)c(-c4cccc(S(=O)(=O)[O-])c4F)c4nc(c(-c5cccc(S(=O)(=O)[O-])c5F)c5ccc2[nH]5)C=C4)C=C3)cc1
REMARK SMILES IDX 5 1 4 2 3 3 1 4 2 5 36 7 37 8 98 9 38 10 97 11 39 12 40 13
REMARK SMILES IDX 41 14 91 15 42 16 96 17 90 18 92 19 43 20 95 21 89 22 88 23
REMARK SMILES IDX 44 25 76 26 56 27 75 28 57 29 60 30 74 31 93 32 58 33 59 34
REMARK SMILES IDX 73 36 94 37 61 38 45 39 46 40 54 41 47 42 49 43 55 44 48 45
REMARK SMILES IDX 50 46 51 47 52 48 53 49 77 50 78 51 86 52 79 53 81 54 87 55
REMARK SMILES IDX 80 56 82 57 83 58 84 59 85 60 62 61 63 62 71 63 64 64 66 65
REMARK SMILES IDX 72 66 65 67 67 68 68 69 69 70 70 71 6 72 7 73 8 74 9 75
REMARK SMILES IDX 10 77 11 78 12 79 16 80 13 81 15 82 14 83 17 84 18 85 35 86
REMARK SMILES IDX 19 87 27 88 26 89 20 90 21 91 25 92 22 93 24 94 23 95 28 96
REMARK SMILES IDX 29 97 34 98 30 99 32 100 31 101 33 102
REMARK H PARENT 3 6 92 24 60 35 8 76
REMARK Flexibility Score: inf
ROOT
ATOM      1  C   UNL A   1      33.818  30.810  27.812  1.00  0.00     0.023 C 
ENDROOT
BRANCH   1   2
ATOM      2  C   UNL A   1      34.288  32.209  27.428  1.00  0.00     0.116 C 
BRANCH   2   3
ATOM      3  N   UNL A   1      33.483  33.269  28.015  1.00  0.00    -0.352 N 
ATOM      4  O   UNL A   1      32.795  34.717  29.599  1.00  0.00    -0.269 OA
ATOM      5  C   UNL A   1      33.643  33.914  29.221  1.00  0.00     0.251 C 
ATOM      6  H   UNL A   1      32.717  33.567  27.475  1.00  0.00     0.163 HD
BRANCH   5   7
ATOM      7  C   UNL A   1      34.815  33.605  30.074  1.00  0.00     0.039 A 
ATOM      8  C   UNL A   1      36.029  34.271  29.893  1.00  0.00     0.014 A 
ATOM      9  C   UNL A   1      34.701  32.613  31.052  1.00  0.00     0.014 A 
ATOM     10  C   UNL A   1      37.163  33.832  30.567  1.00  0.00     0.010 A 
ATOM     11  C   UNL A   1      35.826  32.229  31.789  1.00  0.00     0.010 A 
ATOM     12  C   UNL A   1      37.079  32.798  31.517  1.00  0.00    -0.014 A 
BRANCH  12  13
ATOM     13  C   UNL A   1      38.311  32.355  32.222  1.00  0.00     0.031 A 
ATOM     14  C   UNL A   1      38.628  32.827  33.617  1.00  0.00     0.074 A 
ATOM     15  C   UNL A   1      39.141  31.492  31.603  1.00  0.00     0.049 A 
ATOM     16  N   UNL A   1      39.615  32.472  34.400  1.00  0.00    -0.248 NA
ATOM     17  C   UNL A   1      37.730  33.833  34.210  1.00  0.00     0.031 C 
ATOM     18  C   UNL A   1      38.973  31.001  30.234  1.00  0.00     0.029 A 
ATOM     19  N   UNL A   1      40.280  30.867  32.042  1.00  0.00    -0.354 N 
ATOM     20  C   UNL A   1      39.487  33.238  35.553  1.00  0.00     0.074 A 
ATOM     21  C   UNL A   1      38.328  34.084  35.367  1.00  0.00     0.031 C 
ATOM     22  C   UNL A   1      39.948  30.122  29.959  1.00  0.00     0.029 A 
ATOM     23  C   UNL A   1      40.832  30.014  31.115  1.00  0.00     0.049 A 
ATOM     24  H   UNL A   1      40.667  31.015  32.935  1.00  0.00     0.167 HD
ATOM     25  C   UNL A   1      40.251  33.224  36.673  1.00  0.00     0.034 A 
ATOM     26  C   UNL A   1      41.921  29.225  31.186  1.00  0.00     0.034 A 
ATOM     27  C   UNL A   1      41.368  32.341  36.880  1.00  0.00     0.049 A 
ATOM     28  C   UNL A   1      42.712  29.186  32.462  1.00  0.00     0.074 A 
ATOM     29  C   UNL A   1      42.153  32.198  38.011  1.00  0.00     0.029 A 
ATOM     30  N   UNL A   1      41.861  31.451  35.938  1.00  0.00    -0.354 N 
ATOM     31  N   UNL A   1      42.486  29.811  33.592  1.00  0.00    -0.248 NA
ATOM     32  C   UNL A   1      43.891  28.308  32.484  1.00  0.00     0.031 C 
ATOM     33  C   UNL A   1      43.128  31.227  37.749  1.00  0.00     0.029 A 
ATOM     34  C   UNL A   1      42.942  30.759  36.458  1.00  0.00     0.049 A 
ATOM     35  H   UNL A   1      41.496  31.328  35.032  1.00  0.00     0.167 HD
ATOM     36  C   UNL A   1      43.476  29.383  34.468  1.00  0.00     0.074 A 
ATOM     37  C   UNL A   1      44.288  28.424  33.745  1.00  0.00     0.031 C 
ATOM     38  C   UNL A   1      43.705  29.766  35.748  1.00  0.00     0.034 A 
BRANCH  25  39
ATOM     39  C   UNL A   1      39.877  34.160  37.793  1.00  0.00     0.023 A 
ATOM     40  C   UNL A   1      40.174  35.533  37.676  1.00  0.00     0.012 A 
ATOM     41  C   UNL A   1      39.170  33.700  38.920  1.00  0.00     0.148 A 
ATOM     42  C   UNL A   1      39.794  36.429  38.676  1.00  0.00     0.002 A 
ATOM     43  C   UNL A   1      38.762  34.605  39.895  1.00  0.00     0.091 A 
ATOM     44  F   UNL A   1      38.917  32.387  39.026  1.00  0.00    -0.205 F 
ATOM     45  C   UNL A   1      39.080  35.967  39.778  1.00  0.00     0.022 A 
BRANCH  43  46
ATOM     46  S   UNL A   1      37.775  34.111  41.313  1.00  0.00     0.127 S 
ATOM     47  O   UNL A   1      38.728  33.299  42.068  1.00  0.00    -0.237 OA
ATOM     48  O   UNL A   1      37.449  35.397  41.931  1.00  0.00    -0.237 OA
ATOM     49  O   UNL A   1      36.628  33.397  40.768  1.00  0.00    -0.744 OA
ENDBRANCH  43  46
ENDBRANCH  25  39
BRANCH  26  50
ATOM     50  C   UNL A   1      42.272  28.349  30.034  1.00  0.00     0.023 A 
ATOM     51  C   UNL A   1      41.616  27.112  29.884  1.00  0.00     0.012 A 
ATOM     52  C   UNL A   1      43.204  28.755  29.059  1.00  0.00     0.148 A 
ATOM     53  C   UNL A   1      41.896  26.286  28.795  1.00  0.00     0.002 A 
ATOM     54  C   UNL A   1      43.435  27.954  27.948  1.00  0.00     0.091 A 
ATOM     55  F   UNL A   1      43.833  29.926  29.229  1.00  0.00    -0.205 F 
ATOM     56  C   UNL A   1      42.795  26.713  27.821  1.00  0.00     0.022 A 
BRANCH  54  57
ATOM     57  S   UNL A   1      44.463  28.502  26.580  1.00  0.00     0.127 S 
ATOM     58  O   UNL A   1      44.175  27.491  25.566  1.00  0.00    -0.237 OA
ATOM     59  O   UNL A   1      43.919  29.831  26.297  1.00  0.00    -0.237 OA
ATOM     60  O   UNL A   1      45.823  28.514  27.102  1.00  0.00    -0.744 OA
ENDBRANCH  54  57
ENDBRANCH  26  50
BRANCH  38  61
ATOM     61  C   UNL A   1      44.868  29.132  36.463  1.00  0.00     0.023 A 
ATOM     62  C   UNL A   1      46.157  29.685  36.319  1.00  0.00     0.012 A 
ATOM     63  C   UNL A   1      44.680  28.031  37.320  1.00  0.00     0.148 A 
ATOM     64  C   UNL A   1      47.245  29.132  36.993  1.00  0.00     0.002 A 
ATOM     65  C   UNL A   1      45.761  27.512  38.021  1.00  0.00     0.091 A 
ATOM     66  F   UNL A   1      43.451  27.502  37.425  1.00  0.00    -0.205 F 
ATOM     67  C   UNL A   1      47.045  28.053  37.853  1.00  0.00     0.022 A 
BRANCH  65  68
ATOM     68  S   UNL A   1      45.567  26.181  39.213  1.00  0.00     0.127 S 
ATOM     69  O   UNL A   1      45.352  25.026  38.343  1.00  0.00    -0.237 OA
ATOM     70  O   UNL A   1      46.854  26.187  39.910  1.00  0.00    -0.237 OA
ATOM     71  O   UNL A   1      44.436  26.565  40.047  1.00  0.00    -0.744 OA
ENDBRANCH  65  68
ENDBRANCH  38  61
ENDBRANCH  12  13
ENDBRANCH   5   7
ENDBRANCH   2   3
ENDBRANCH   1   2
BRANCH   1  72
ATOM     72  C   UNL A   1      34.653  29.651  27.262  1.00  0.00     0.023 C 
BRANCH  72  73
ATOM     73  C   UNL A   1      33.866  28.393  26.902  1.00  0.00     0.116 C 
BRANCH  73  74
ATOM     74  N   UNL A   1      33.781  28.193  25.468  1.00  0.00    -0.354 N 
ATOM     75  C   UNL A   1      33.476  27.087  24.731  1.00  0.00     0.242 C 
ATOM     76  H   UNL A   1      33.978  28.996  24.933  1.00  0.00     0.163 HD
ATOM     77  O   UNL A   1      33.494  27.225  23.503  1.00  0.00    -0.273 OA
BRANCH  75  78
ATOM     78  C   UNL A   1      33.139  25.735  25.409  1.00  0.00     0.173 C 
ATOM     79  C   UNL A   1      31.770  25.804  26.097  1.00  0.00     0.035 C 
ATOM     80  N   UNL A   1      33.170  24.653  24.413  1.00  0.00    -0.344 N 
ATOM     81  C   UNL A   1      30.593  25.728  25.124  1.00  0.00     0.004 C 
ATOM     82  C   UNL A   1      32.083  24.553  23.447  1.00  0.00     0.119 C 
ATOM     83  C   UNL A   1      30.739  24.541  24.176  1.00  0.00     0.022 C 
BRANCH  80  84
ATOM     84  C   UNL A   1      34.039  23.602  24.601  1.00  0.00     0.133 A 
ATOM     85  C   UNL A   1      35.329  23.835  25.033  1.00  0.00     0.076 A 
ATOM     86  N   UNL A   1      33.591  22.354  24.399  1.00  0.00    -0.211 NA
ATOM     87  C   UNL A   1      36.131  22.738  25.280  1.00  0.00     0.076 A 
ATOM     88  C   UNL A   1      34.451  21.344  24.624  1.00  0.00     0.162 A 
ATOM     89  N   UNL A   1      35.710  21.477  25.066  1.00  0.00    -0.228 NA
BRANCH  87  90
ATOM     90  C   UNL A   1      37.489  22.875  25.825  1.00  0.00     0.000 A 
ATOM     91  C   UNL A   1      38.396  21.805  25.779  1.00  0.00     0.010 A 
ATOM     92  C   UNL A   1      37.912  24.078  26.416  1.00  0.00     0.010 A 
ATOM     93  C   UNL A   1      39.691  21.938  26.290  1.00  0.00     0.001 A 
ATOM     94  C   UNL A   1      39.202  24.209  26.938  1.00  0.00     0.001 A 
ATOM     95  C   UNL A   1      40.092  23.140  26.869  1.00  0.00     0.000 A 
ENDBRANCH  87  90
BRANCH  88  96
ATOM     96  C   UNL A   1      33.963  19.985  24.376  1.00  0.00     0.021 A 
ATOM     97  C   UNL A   1      32.708  19.766  23.778  1.00  0.00     0.012 A 
ATOM     98  C   UNL A   1      34.731  18.865  24.735  1.00  0.00     0.032 A 
ATOM     99  C   UNL A   1      32.236  18.473  23.541  1.00  0.00     0.002 A 
ATOM    100  C   UNL A   1      34.249  17.574  24.516  1.00  0.00     0.041 A 
ATOM    101  C   UNL A   1      33.006  17.374  23.917  1.00  0.00     0.020 A 
ATOM    102  Cl  UNL A   1      35.189  16.216  24.998  1.00  0.00    -0.084 Cl
ENDBRANCH  88  96
ENDBRANCH  80  84
ENDBRANCH  75  78
ENDBRANCH  73  74
ENDBRANCH  72  73
ENDBRANCH   1  72
TORSDOF 17
ENDMDL
MODEL 2
REMARK VINA RESULT:     -12.1      2.134      3.893
REMARK SMILES O=C(NCCCCNC(=O)[C@H]1CCCCN1c1cc(-c2ccccc2)nc(-c2cccc(Cl)c2)n1)c1ccc(-c2c3nc(c(-c4cccc(S(=O)(=O)[O-])c4F)c4ccc([nH]4)c(-c4cccc(S(=O)(=O)[O-])c4F)c4nc(c(-c5cccc(S(=O)(=O)[O-])c5F)c5ccc2[nH]5)C=C4)C=C3)cc1
REMARK SMILES IDX 5 1 4 2 3 3 1 4 2 5 36 7 37 8 98 9 38 10 97 11 39 12 40 13
REMARK SMILES IDX 41 14 91 15 42 16 96 17 90 18 92 19 43 20 95 21 89 22 88 23
REMARK SMILES IDX 44 25 76 26 56 27 75 28 57 29 60 30 74 31 93 32 58 33 59 34
REMARK SMILES IDX 73 36 94 37 61 38 45 39 46 40 54 41 47 42 49 43 55 44 48 45
REMARK SMILES IDX 50 46 51 47 52 48 53 49 77 50 78 51 86 52 79 53 81 54 87 55
REMARK SMILES IDX 80 56 82 57 83 58 84 59 85 60 62 61 63 62 71 63 64 64 66 65
REMARK SMILES IDX 72 66 65 67 67 68 68 69 69 70 70 71 6 72 7 73 8 74 9 75
REMARK SMILES IDX 10 77 11 78 12 79 16 80 13 81 15 82 14 83 17 84 18 85 35 86
REMARK SMILES IDX 19 87 27 88 26 89 20 90 21 91 25 92 22 93 24 94 23 95 28 96
REMARK SMILES IDX 29 97 34 98 30 99 32 100 31 101 33 102
REMARK H PARENT 3 6 92 24 60 35 8 76
REMARK Flexibility Score: inf
ROOT
ATOM      1  C   UNL A   1      33.325  28.071  26.578  1.00  0.00     0.023 C 
ENDROOT
BRANCH   1   2
ATOM      2  C   UNL A   1      33.918  29.278  25.857  1.00  0.00     0.116 C 
BRANCH   2   3
ATOM      3  N   UNL A   1      33.424  30.550  26.359  1.00  0.00    -0.352 N 
ATOM      4  O   UNL A   1      33.313  32.340  27.724  1.00  0.00    -0.269 OA
ATOM      5  C   UNL A   1      33.933  31.343  27.363  1.00  0.00     0.251 C 
ATOM      6  H   UNL A   1      32.612  30.891  25.921  1.00  0.00     0.163 HD
BRANCH   5   7
ATOM      7  C   UNL A   1      35.201  30.967  28.031  1.00  0.00     0.039 A 
ATOM      8  C   UNL A   1      35.316  29.758  28.720  1.00  0.00     0.014 A 
ATOM      9  C   UNL A   1      36.281  31.854  27.987  1.00  0.00     0.014 A 
ATOM     10  C   UNL A   1      36.443  29.514  29.499  1.00  0.00     0.010 A 
ATOM     11  C   UNL A   1      37.446  31.567  28.706  1.00  0.00     0.010 A 
ATOM     12  C   UNL A   1      37.518  30.419  29.511  1.00  0.00    -0.014 A 
BRANCH  12  13
ATOM     13  C   UNL A   1      38.708  30.126  30.353  1.00  0.00     0.031 A 
ATOM     14  C   UNL A   1      38.849  30.706  31.737  1.00  0.00     0.074 A 
ATOM     15  C   UNL A   1      39.660  29.303  29.872  1.00  0.00     0.049 A 
ATOM     16  N   UNL A   1      39.781  30.485  32.629  1.00  0.00    -0.248 NA
ATOM     17  C   UNL A   1      37.821  31.665  32.176  1.00  0.00     0.031 C 
ATOM     18  C   UNL A   1      39.666  28.719  28.530  1.00  0.00     0.029 A 
ATOM     19  N   UNL A   1      40.798  28.806  30.455  1.00  0.00    -0.354 N 
ATOM     20  C   UNL A   1      39.482  31.304  33.712  1.00  0.00     0.074 A 
ATOM     21  C   UNL A   1      38.282  32.035  33.364  1.00  0.00     0.031 C 
ATOM     22  C   UNL A   1      40.730  27.913  28.405  1.00  0.00     0.029 A 
ATOM     23  C   UNL A   1      41.503  27.950  29.641  1.00  0.00     0.049 A 
ATOM     24  H   UNL A   1      41.084  29.040  31.368  1.00  0.00     0.167 HD
ATOM     25  C   UNL A   1      40.132  31.422  34.895  1.00  0.00     0.034 A 
ATOM     26  C   UNL A   1      42.640  27.264  29.865  1.00  0.00     0.034 A 
ATOM     27  C   UNL A   1      41.291  30.653  35.262  1.00  0.00     0.049 A 
ATOM     28  C   UNL A   1      43.305  27.369  31.207  1.00  0.00     0.074 A 
ATOM     29  C   UNL A   1      41.973  30.645  36.467  1.00  0.00     0.029 A 
ATOM     30  N   UNL A   1      41.943  29.755  34.431  1.00  0.00    -0.354 N 
ATOM     31  N   UNL A   1      42.921  28.038  32.267  1.00  0.00    -0.248 NA
ATOM     32  C   UNL A   1      44.543  26.599  31.397  1.00  0.00     0.031 C 
ATOM     33  C   UNL A   1      43.042  29.749  36.361  1.00  0.00     0.029 A 
ATOM     34  C   UNL A   1      43.020  29.191  35.093  1.00  0.00     0.049 A 
ATOM     35  H   UNL A   1      41.678  29.547  33.506  1.00  0.00     0.167 HD
ATOM     36  C   UNL A   1      43.853  27.750  33.257  1.00  0.00     0.074 A 
ATOM     37  C   UNL A   1      44.805  26.824  32.677  1.00  0.00     0.031 C 
ATOM     38  C   UNL A   1      43.926  28.226  34.524  1.00  0.00     0.034 A 
BRANCH  25  39
ATOM     39  C   UNL A   1      39.578  32.388  35.910  1.00  0.00     0.023 A 
ATOM     40  C   UNL A   1      38.656  31.929  36.872  1.00  0.00     0.012 A 
ATOM     41  C   UNL A   1      40.022  33.724  35.961  1.00  0.00     0.148 A 
ATOM     42  C   UNL A   1      38.166  32.790  37.854  1.00  0.00     0.002 A 
ATOM     43  C   UNL A   1      39.557  34.567  36.965  1.00  0.00     0.091 A 
ATOM     44  F   UNL A   1      40.881  34.150  35.024  1.00  0.00    -0.205 F 
ATOM     45  C   UNL A   1      38.624  34.104  37.907  1.00  0.00     0.022 A 
BRANCH  43  46
ATOM     46  S   UNL A   1      40.147  36.253  37.156  1.00  0.00     0.127 S 
ATOM     47  O   UNL A   1      39.300  36.741  38.243  1.00  0.00    -0.237 OA
ATOM     48  O   UNL A   1      41.550  36.055  37.521  1.00  0.00    -0.237 OA
ATOM     49  O   UNL A   1      39.946  36.892  35.863  1.00  0.00    -0.744 OA
ENDBRANCH  43  46
ENDBRANCH  25  39
BRANCH  26  50
ATOM     50  C   UNL A   1      43.171  26.354  28.811  1.00  0.00     0.023 A 
ATOM     51  C   UNL A   1      42.670  25.041  28.719  1.00  0.00     0.012 A 
ATOM     52  C   UNL A   1      44.119  26.796  27.869  1.00  0.00     0.148 A 
ATOM     53  C   UNL A   1      43.120  24.178  27.720  1.00  0.00     0.002 A 
ATOM     54  C   UNL A   1      44.519  25.950  26.842  1.00  0.00     0.091 A 
ATOM     55  F   UNL A   1      44.599  28.042  27.984  1.00  0.00    -0.205 F 
ATOM     56  C   UNL A   1      44.033  24.636  26.774  1.00  0.00     0.022 A 
BRANCH  54  57
ATOM     57  S   UNL A   1      45.575  26.515  25.503  1.00  0.00     0.127 S 
ATOM     58  O   UNL A   1      44.797  27.622  24.954  1.00  0.00    -0.237 OA
ATOM     59  O   UNL A   1      46.792  26.909  26.214  1.00  0.00    -0.237 OA
ATOM     60  O   UNL A   1      45.744  25.358  24.633  1.00  0.00    -0.744 OA
ENDBRANCH  54  57
ENDBRANCH  26  50
BRANCH  38  61
ATOM     61  C   UNL A   1      45.062  27.739  35.383  1.00  0.00     0.023 A 
ATOM     62  C   UNL A   1      46.262  28.476  35.431  1.00  0.00     0.012 A 
ATOM     63  C   UNL A   1      44.923  26.590  36.185  1.00  0.00     0.148 A 
ATOM     64  C   UNL A   1      47.318  28.059  36.241  1.00  0.00     0.002 A 
ATOM     65  C   UNL A   1      45.963  26.204  37.021  1.00  0.00     0.091 A 
ATOM     66  F   UNL A   1      43.783  25.887  36.107  1.00  0.00    -0.205 F 
ATOM     67  C   UNL A   1      47.164  26.931  37.044  1.00  0.00     0.022 A 
BRANCH  65  68
ATOM     68  S   UNL A   1      45.807  24.814  38.149  1.00  0.00     0.127 S 
ATOM     69  O   UNL A   1      45.632  23.695  37.226  1.00  0.00    -0.237 OA
ATOM     70  O   UNL A   1      47.091  24.829  38.852  1.00  0.00    -0.237 OA
ATOM     71  O   UNL A   1      44.661  25.124  38.995  1.00  0.00    -0.744 OA
ENDBRANCH  65  68
ENDBRANCH  38  61
ENDBRANCH  12  13
ENDBRANCH   5   7
ENDBRANCH   2   3
ENDBRANCH   1   2
BRANCH   1  72
ATOM     72  C   UNL A   1      33.989  26.723  26.281  1.00  0.00     0.023 C 
BRANCH  72  73
ATOM     73  C   UNL A   1      33.097  25.499  26.482  1.00  0.00     0.116 C 
BRANCH  73  74
ATOM     74  N   UNL A   1      31.754  25.714  25.978  1.00  0.00    -0.354 N 
ATOM     75  C   UNL A   1      31.080  25.134  24.944  1.00  0.00     0.242 C 
ATOM     76  H   UNL A   1      31.240  26.396  26.466  1.00  0.00     0.163 HD
ATOM     77  O   UNL A   1      29.928  25.538  24.747  1.00  0.00    -0.273 OA
BRANCH  75  78
ATOM     78  C   UNL A   1      31.737  24.038  24.067  1.00  0.00     0.173 C 
ATOM     79  C   UNL A   1      31.173  24.079  22.641  1.00  0.00     0.035 C 
ATOM     80  N   UNL A   1      33.198  24.214  24.056  1.00  0.00    -0.344 N 
ATOM     81  C   UNL A   1      31.724  25.231  21.799  1.00  0.00     0.004 C 
ATOM     82  C   UNL A   1      33.770  25.313  23.288  1.00  0.00     0.119 C 
ATOM     83  C   UNL A   1      33.248  25.271  21.852  1.00  0.00     0.022 C 
BRANCH  80  84
ATOM     84  C   UNL A   1      33.994  23.185  24.507  1.00  0.00     0.133 A 
ATOM     85  C   UNL A   1      33.528  21.886  24.487  1.00  0.00     0.076 A 
ATOM     86  N   UNL A   1      35.238  23.469  24.918  1.00  0.00    -0.211 NA
ATOM     87  C   UNL A   1      34.398  20.886  24.878  1.00  0.00     0.076 A 
ATOM     88  C   UNL A   1      36.007  22.440  25.320  1.00  0.00     0.162 A 
ATOM     89  N   UNL A   1      35.645  21.149  25.313  1.00  0.00    -0.228 NA
BRANCH  87  90
ATOM     90  C   UNL A   1      34.030  19.466  24.811  1.00  0.00     0.000 A 
ATOM     91  C   UNL A   1      34.976  18.491  24.458  1.00  0.00     0.010 A 
ATOM     92  C   UNL A   1      32.718  19.046  25.088  1.00  0.00     0.010 A 
ATOM     93  C   UNL A   1      34.628  17.137  24.402  1.00  0.00     0.001 A 
ATOM     94  C   UNL A   1      32.365  17.695  25.022  1.00  0.00     0.001 A 
ATOM     95  C   UNL A   1      33.322  16.742  24.684  1.00  0.00     0.000 A 
ENDBRANCH  87  90
BRANCH  88  96
ATOM     96  C   UNL A   1      37.355  22.761  25.793  1.00  0.00     0.021 A 
ATOM     97  C   UNL A   1      37.683  24.063  26.213  1.00  0.00     0.012 A 
ATOM     98  C   UNL A   1      38.359  21.779  25.832  1.00  0.00     0.032 A 
ATOM     99  C   UNL A   1      38.969  24.376  26.663  1.00  0.00     0.002 A 
ATOM    100  C   UNL A   1      39.648  22.098  26.263  1.00  0.00     0.041 A 
ATOM    101  C   UNL A   1      39.954  23.392  26.682  1.00  0.00     0.020 A 
ATOM    102  Cl  UNL A   1      40.873  20.890  26.267  1.00  0.00    -0.084 Cl
ENDBRANCH  88  96
ENDBRANCH  80  84
ENDBRANCH  75  78
ENDBRANCH  73  74
ENDBRANCH  72  73
ENDBRANCH   1  72
TORSDOF 17
ENDMDL
MODEL 3
REMARK VINA RESULT:     -11.8      5.685      9.318
REMARK SMILES O=C(NCCCCNC(=O)[C@H]1CCCCN1c1cc(-c2ccccc2)nc(-c2cccc(Cl)c2)n1)c1ccc(-c2c3nc(c(-c4cccc(S(=O)(=O)[O-])c4F)c4ccc([nH]4)c(-c4cccc(S(=O)(=O)[O-])c4F)c4nc(c(-c5cccc(S(=O)(=O)[O-])c5F)c5ccc2[nH]5)C=C4)C=C3)cc1
REMARK SMILES IDX 5 1 4 2 3 3 1 4 2 5 36 7 37 8 98 9 38 10 97 11 39 12 40 13
REMARK SMILES IDX 41 14 91 15 42 16 96 17 90 18 92 19 43 20 95 21 89 22 88 23
REMARK SMILES IDX 44 25 76 26 56 27 75 28 57 29 60 30 74 31 93 32 58 33 59 34
REMARK SMILES IDX 73 36 94 37 61 38 45 39 46 40 54 41 47 42 49 43 55 44 48 45
REMARK SMILES IDX 50 46 51 47 52 48 53 49 77 50 78 51 86 52 79 53 81 54 87 55
REMARK SMILES IDX 80 56 82 57 83 58 84 59 85 60 62 61 63 62 71 63 64 64 66 65
REMARK SMILES IDX 72 66 65 67 67 68 68 69 69 70 70 71 6 72 7 73 8 74 9 75
REMARK SMILES IDX 10 77 11 78 12 79 16 80 13 81 15 82 14 83 17 84 18 85 35 86
REMARK SMILES IDX 19 87 27 88 26 89 20 90 21 91 25 92 22 93 24 94 23 95 28 96
REMARK SMILES IDX 29 97 34 98 30 99 32 100 31 101 33 102
REMARK H PARENT 3 6 92 24 60 35 8 76
REMARK Flexibility Score: inf
ROOT
ATOM      1  C   UNL A   1      38.713  24.272  27.229  1.00  0.00     0.023 C 
ENDROOT
BRANCH   1   2
ATOM      2  C   UNL A   1      39.853  25.262  27.012  1.00  0.00     0.116 C 
BRANCH   2   3
ATOM      3  N   UNL A   1      40.916  24.741  26.166  1.00  0.00    -0.352 N 
ATOM      4  O   UNL A   1      42.829  24.782  24.976  1.00  0.00    -0.269 OA
ATOM      5  C   UNL A   1      42.098  25.339  25.790  1.00  0.00     0.251 C 
ATOM      6  H   UNL A   1      40.769  23.834  25.813  1.00  0.00     0.163 HD
BRANCH   5   7
ATOM      7  C   UNL A   1      42.459  26.668  26.335  1.00  0.00     0.039 A 
ATOM      8  C   UNL A   1      43.292  26.783  27.450  1.00  0.00     0.014 A 
ATOM      9  C   UNL A   1      41.931  27.815  25.736  1.00  0.00     0.014 A 
ATOM     10  C   UNL A   1      43.460  28.022  28.061  1.00  0.00     0.010 A 
ATOM     11  C   UNL A   1      42.170  29.071  26.305  1.00  0.00     0.010 A 
ATOM     12  C   UNL A   1      42.893  29.181  27.502  1.00  0.00    -0.014 A 
BRANCH  12  13
ATOM     13  C   UNL A   1      43.093  30.489  28.180  1.00  0.00     0.031 A 
ATOM     14  C   UNL A   1      42.202  30.929  29.311  1.00  0.00     0.074 A 
ATOM     15  C   UNL A   1      44.112  31.278  27.785  1.00  0.00     0.049 A 
ATOM     16  N   UNL A   1      42.291  31.999  30.060  1.00  0.00    -0.248 NA
ATOM     17  C   UNL A   1      41.055  30.066  29.643  1.00  0.00     0.031 C 
ATOM     18  C   UNL A   1      45.014  30.989  26.669  1.00  0.00     0.029 A 
ATOM     19  N   UNL A   1      44.569  32.473  28.280  1.00  0.00    -0.354 N 
ATOM     20  C   UNL A   1      41.197  31.965  30.917  1.00  0.00     0.074 A 
ATOM     21  C   UNL A   1      40.449  30.769  30.592  1.00  0.00     0.031 C 
ATOM     22  C   UNL A   1      45.939  31.957  26.588  1.00  0.00     0.029 A 
ATOM     23  C   UNL A   1      45.676  32.954  27.620  1.00  0.00     0.049 A 
ATOM     24  H   UNL A   1      44.145  32.942  29.035  1.00  0.00     0.167 HD
ATOM     25  C   UNL A   1      40.856  32.836  31.897  1.00  0.00     0.034 A 
ATOM     26  C   UNL A   1      46.405  34.067  27.825  1.00  0.00     0.034 A 
ATOM     27  C   UNL A   1      41.632  33.993  32.257  1.00  0.00     0.049 A 
ATOM     28  C   UNL A   1      46.038  34.982  28.958  1.00  0.00     0.074 A 
ATOM     29  C   UNL A   1      41.409  34.892  33.287  1.00  0.00     0.029 A 
ATOM     30  N   UNL A   1      42.778  34.416  31.602  1.00  0.00    -0.354 N 
ATOM     31  N   UNL A   1      45.084  34.851  29.848  1.00  0.00    -0.248 NA
ATOM     32  C   UNL A   1      46.868  36.182  29.137  1.00  0.00     0.031 C 
ATOM     33  C   UNL A   1      42.417  35.863  33.248  1.00  0.00     0.029 A 
ATOM     34  C   UNL A   1      43.272  35.563  32.200  1.00  0.00     0.049 A 
ATOM     35  H   UNL A   1      43.182  33.966  30.825  1.00  0.00     0.167 HD
ATOM     36  C   UNL A   1      45.214  35.936  30.706  1.00  0.00     0.074 A 
ATOM     37  C   UNL A   1      46.357  36.699  30.246  1.00  0.00     0.031 C 
ATOM     38  C   UNL A   1      44.443  36.280  31.768  1.00  0.00     0.034 A 
BRANCH  25  39
ATOM     39  C   UNL A   1      39.609  32.549  32.693  1.00  0.00     0.023 A 
ATOM     40  C   UNL A   1      39.673  31.658  33.783  1.00  0.00     0.012 A 
ATOM     41  C   UNL A   1      38.399  33.213  32.413  1.00  0.00     0.148 A 
ATOM     42  C   UNL A   1      38.545  31.413  34.567  1.00  0.00     0.002 A 
ATOM     43  C   UNL A   1      37.288  32.991  33.221  1.00  0.00     0.091 A 
ATOM     44  F   UNL A   1      38.350  34.039  31.358  1.00  0.00    -0.205 F 
ATOM     45  C   UNL A   1      37.358  32.087  34.293  1.00  0.00     0.022 A 
BRANCH  43  46
ATOM     46  S   UNL A   1      35.738  33.870  32.989  1.00  0.00     0.127 S 
ATOM     47  O   UNL A   1      35.399  33.510  31.613  1.00  0.00    -0.237 OA
ATOM     48  O   UNL A   1      34.879  33.263  34.005  1.00  0.00    -0.237 OA
ATOM     49  O   UNL A   1      36.042  35.276  33.217  1.00  0.00    -0.744 OA
ENDBRANCH  43  46
ENDBRANCH  25  39
BRANCH  26  50
ATOM     50  C   UNL A   1      47.605  34.327  26.982  1.00  0.00     0.023 A 
ATOM     51  C   UNL A   1      47.462  35.063  25.790  1.00  0.00     0.012 A 
ATOM     52  C   UNL A   1      48.888  33.903  27.379  1.00  0.00     0.148 A 
ATOM     53  C   UNL A   1      48.573  35.355  24.998  1.00  0.00     0.002 A 
ATOM     54  C   UNL A   1      49.996  34.248  26.615  1.00  0.00     0.091 A 
ATOM     55  F   UNL A   1      49.001  33.187  28.506  1.00  0.00    -0.205 F 
ATOM     56  C   UNL A   1      49.840  34.960  25.417  1.00  0.00     0.022 A 
BRANCH  54  57
ATOM     57  S   UNL A   1      51.672  33.905  27.165  1.00  0.00     0.127 S 
ATOM     58  O   UNL A   1      51.714  34.599  28.448  1.00  0.00    -0.237 OA
ATOM     59  O   UNL A   1      51.675  32.444  27.253  1.00  0.00    -0.237 OA
ATOM     60  O   UNL A   1      52.536  34.439  26.119  1.00  0.00    -0.744 OA
ENDBRANCH  54  57
ENDBRANCH  26  50
BRANCH  38  61
ATOM     61  C   UNL A   1      44.820  37.527  32.522  1.00  0.00     0.023 A 
ATOM     62  C   UNL A   1      45.713  37.438  33.609  1.00  0.00     0.012 A 
ATOM     63  C   UNL A   1      44.340  38.789  32.122  1.00  0.00     0.148 A 
ATOM     64  C   UNL A   1      46.098  38.583  34.305  1.00  0.00     0.002 A 
ATOM     65  C   UNL A   1      44.761  39.930  32.794  1.00  0.00     0.091 A 
ATOM     66  F   UNL A   1      43.472  38.851  31.101  1.00  0.00    -0.205 F 
ATOM     67  C   UNL A   1      45.632  39.829  33.891  1.00  0.00     0.022 A 
BRANCH  65  68
ATOM     68  S   UNL A   1      44.274  41.576  32.263  1.00  0.00     0.127 S 
ATOM     69  O   UNL A   1      42.833  41.555  32.503  1.00  0.00    -0.237 OA
ATOM     70  O   UNL A   1      45.030  42.440  33.171  1.00  0.00    -0.237 OA
ATOM     71  O   UNL A   1      44.683  41.674  30.868  1.00  0.00    -0.744 OA
ENDBRANCH  65  68
ENDBRANCH  38  61
ENDBRANCH  12  13
ENDBRANCH   5   7
ENDBRANCH   2   3
ENDBRANCH   1   2
BRANCH   1  72
ATOM     72  C   UNL A   1      38.298  23.451  26.005  1.00  0.00     0.023 C 
BRANCH  72  73
ATOM     73  C   UNL A   1      36.986  23.877  25.349  1.00  0.00     0.116 C 
BRANCH  73  74
ATOM     74  N   UNL A   1      35.831  23.477  26.129  1.00  0.00    -0.354 N 
ATOM     75  C   UNL A   1      34.502  23.739  25.966  1.00  0.00     0.242 C 
ATOM     76  H   UNL A   1      36.042  22.920  26.913  1.00  0.00     0.163 HD
ATOM     77  O   UNL A   1      33.742  23.260  26.815  1.00  0.00    -0.273 OA
BRANCH  75  78
ATOM     78  C   UNL A   1      33.991  24.601  24.785  1.00  0.00     0.173 C 
ATOM     79  C   UNL A   1      34.015  23.796  23.480  1.00  0.00     0.035 C 
ATOM     80  N   UNL A   1      32.633  25.090  25.072  1.00  0.00    -0.344 N 
ATOM     81  C   UNL A   1      32.877  22.781  23.368  1.00  0.00     0.004 C 
ATOM     82  C   UNL A   1      31.517  24.154  25.003  1.00  0.00     0.119 C 
ATOM     83  C   UNL A   1      31.528  23.432  23.656  1.00  0.00     0.022 C 
BRANCH  80  84
ATOM     84  C   UNL A   1      32.408  26.448  25.098  1.00  0.00     0.133 A 
ATOM     85  C   UNL A   1      31.355  26.993  24.390  1.00  0.00     0.076 A 
ATOM     86  N   UNL A   1      33.201  27.216  25.859  1.00  0.00    -0.211 NA
ATOM     87  C   UNL A   1      31.131  28.350  24.517  1.00  0.00     0.076 A 
ATOM     88  C   UNL A   1      32.937  28.535  25.896  1.00  0.00     0.162 A 
ATOM     89  N   UNL A   1      31.925  29.143  25.260  1.00  0.00    -0.228 NA
BRANCH  87  90
ATOM     90  C   UNL A   1      29.987  29.011  23.876  1.00  0.00     0.000 A 
ATOM     91  C   UNL A   1      29.869  30.410  23.875  1.00  0.00     0.010 A 
ATOM     92  C   UNL A   1      28.974  28.261  23.254  1.00  0.00     0.010 A 
ATOM     93  C   UNL A   1      28.784  31.040  23.257  1.00  0.00     0.001 A 
ATOM     94  C   UNL A   1      27.883  28.888  22.646  1.00  0.00     0.001 A 
ATOM     95  C   UNL A   1      27.792  30.278  22.643  1.00  0.00     0.000 A 
ENDBRANCH  87  90
BRANCH  88  96
ATOM     96  C   UNL A   1      33.825  29.370  26.708  1.00  0.00     0.021 A 
ATOM     97  C   UNL A   1      33.371  30.581  27.261  1.00  0.00     0.012 A 
ATOM     98  C   UNL A   1      35.155  28.987  26.950  1.00  0.00     0.032 A 
ATOM     99  C   UNL A   1      34.213  31.384  28.035  1.00  0.00     0.002 A 
ATOM    100  C   UNL A   1      36.000  29.800  27.706  1.00  0.00     0.041 A 
ATOM    101  C   UNL A   1      35.533  30.995  28.252  1.00  0.00     0.020 A 
ATOM    102  Cl  UNL A   1      37.637  29.333  27.958  1.00  0.00    -0.084 Cl
ENDBRANCH  88  96
ENDBRANCH  80  84
ENDBRANCH  75  78
ENDBRANCH  73  74
ENDBRANCH  72  73
ENDBRANCH   1  72
TORSDOF 17
ENDMDL
