MODEL 1
REMARK VINA RESULT:     -12.9      0.000      0.000
REMARK SMILES CC1(C)[C@H](C(=O)NCCCCNC(=O)c2ccc(-c3c4nc(c(-c5cccc(S(=O)(=O)[O-])c5F)c5ccc([nH]5)c(-c5cccc(S(=O)(=O)[O-])c5F)c5nc(c(-c6cccc(S(=O)(=O)[O-])c6F)c6ccc3[nH]6)C=C5)C=C4)cc2)[C@H]1C(=O)Nc1cccc2[nH]ccc12
REMARK SMILES IDX 10 1 9 2 8 3 7 4 5 5 6 6 4 8 1 9 2 10 3 11 78 12 79 13 80 14
REMARK SMILES IDX 81 15 82 17 83 18 90 19 84 20 86 21 89 22 85 23 87 24 88 25
REMARK SMILES IDX 11 27 12 28 13 29 14 31 15 32 16 33 77 34 17 35 76 36 18 37
REMARK SMILES IDX 19 38 20 39 70 40 21 41 75 42 69 43 71 44 22 45 74 46 68 47
REMARK SMILES IDX 67 48 23 50 55 51 35 52 54 53 36 54 39 55 53 56 72 57 37 58
REMARK SMILES IDX 38 59 52 61 73 62 40 63 24 64 25 65 33 66 26 67 28 68 34 69
REMARK SMILES IDX 27 70 29 71 30 72 31 73 32 74 56 75 57 76 65 77 58 78 60 79
REMARK SMILES IDX 66 80 59 81 61 82 62 83 63 84 64 85 41 86 42 87 50 88 43 89
REMARK SMILES IDX 45 90 51 91 44 92 46 93 47 94 48 95 49 96
REMARK H PARENT 7 7 81 16 87 26 12 30 71 49 39 60
REMARK Flexibility Score: inf
ROOT
ATOM      1  C   UNL A   1      31.503  30.111  25.222  1.00  0.00     0.023 C 
ENDROOT
BRANCH   1   2
ATOM      2  C   UNL A   1      31.864  28.810  24.513  1.00  0.00     0.023 C 
BRANCH   2   3
ATOM      3  C   UNL A   1      31.421  28.711  23.055  1.00  0.00     0.116 C 
BRANCH   3   4
ATOM      4  N   UNL A   1      32.393  28.032  22.240  1.00  0.00    -0.356 N 
ATOM      5  C   UNL A   1      32.886  26.761  22.228  1.00  0.00     0.224 C 
ATOM      6  O   UNL A   1      33.642  26.493  21.290  1.00  0.00    -0.275 OA
ATOM      7  H   UNL A   1      32.785  28.606  21.544  1.00  0.00     0.163 HD
BRANCH   5   8
ATOM      8  C   UNL A   1      32.625  25.668  23.204  1.00  0.00     0.098 C 
ATOM      9  C   UNL A   1      31.426  23.478  23.506  1.00  0.00     0.013 C 
ATOM     10  C   UNL A   1      32.716  24.139  23.094  1.00  0.00    -0.011 C 
ATOM     11  C   UNL A   1      33.478  23.194  22.209  1.00  0.00     0.013 C 
ATOM     12  C   UNL A   1      33.653  24.960  24.004  1.00  0.00     0.098 C 
BRANCH  12  13
ATOM     13  C   UNL A   1      33.783  24.709  25.471  1.00  0.00     0.228 C 
ATOM     14  O   UNL A   1      33.397  25.601  26.228  1.00  0.00    -0.274 OA
ATOM     15  N   UNL A   1      34.021  23.461  25.996  1.00  0.00    -0.325 N 
ATOM     16  H   UNL A   1      33.422  23.185  26.728  1.00  0.00     0.169 HD
BRANCH  15  17
ATOM     17  C   UNL A   1      34.997  22.533  25.629  1.00  0.00     0.050 A 
ATOM     18  C   UNL A   1      36.320  22.976  25.533  1.00  0.00     0.027 A 
ATOM     19  C   UNL A   1      34.693  21.214  25.219  1.00  0.00     0.023 A 
ATOM     20  C   UNL A   1      37.349  22.081  25.245  1.00  0.00     0.004 A 
ATOM     21  C   UNL A   1      35.750  20.325  25.003  1.00  0.00     0.047 A 
ATOM     22  C   UNL A   1      33.503  20.503  24.882  1.00  0.00     0.030 A 
ATOM     23  C   UNL A   1      37.089  20.724  25.037  1.00  0.00     0.027 A 
ATOM     24  N   UNL A   1      35.199  19.079  24.797  1.00  0.00    -0.361 N 
ATOM     25  C   UNL A   1      33.840  19.183  24.669  1.00  0.00     0.083 A 
ATOM     26  H   UNL A   1      35.707  18.238  24.749  1.00  0.00     0.166 HD
ENDBRANCH  15  17
ENDBRANCH  12  13
ENDBRANCH   5   8
ENDBRANCH   3   4
ENDBRANCH   2   3
ENDBRANCH   1   2
BRANCH   1  27
ATOM     27  C   UNL A   1      32.339  30.437  26.452  1.00  0.00     0.116 C 
BRANCH  27  28
ATOM     28  N   UNL A   1      32.281  31.837  26.860  1.00  0.00    -0.352 N 
ATOM     29  C   UNL A   1      33.241  32.560  27.533  1.00  0.00     0.251 C 
ATOM     30  H   UNL A   1      31.457  32.323  26.626  1.00  0.00     0.163 HD
ATOM     31  O   UNL A   1      33.036  33.719  27.877  1.00  0.00    -0.269 OA
BRANCH  29  32
ATOM     32  C   UNL A   1      34.506  31.884  27.874  1.00  0.00     0.039 A 
ATOM     33  C   UNL A   1      35.663  32.651  28.027  1.00  0.00     0.014 A 
ATOM     34  C   UNL A   1      34.501  30.522  28.183  1.00  0.00     0.014 A 
ATOM     35  C   UNL A   1      36.796  32.070  28.597  1.00  0.00     0.010 A 
ATOM     36  C   UNL A   1      35.602  29.970  28.824  1.00  0.00     0.010 A 
ATOM     37  C   UNL A   1      36.752  30.742  29.054  1.00  0.00    -0.014 A 
BRANCH  37  38
ATOM     38  C   UNL A   1      37.869  30.149  29.831  1.00  0.00     0.031 A 
ATOM     39  C   UNL A   1      38.131  30.609  31.236  1.00  0.00     0.074 A 
ATOM     40  C   UNL A   1      38.720  29.298  29.224  1.00  0.00     0.049 A 
ATOM     41  N   UNL A   1      39.120  30.299  32.033  1.00  0.00    -0.248 NA
ATOM     42  C   UNL A   1      37.175  31.570  31.810  1.00  0.00     0.031 C 
ATOM     43  C   UNL A   1      38.618  28.842  27.836  1.00  0.00     0.029 A 
ATOM     44  N   UNL A   1      39.863  28.691  29.686  1.00  0.00    -0.354 N 
ATOM     45  C   UNL A   1      38.927  31.050  33.185  1.00  0.00     0.074 A 
ATOM     46  C   UNL A   1      37.747  31.859  32.971  1.00  0.00     0.031 C 
ATOM     47  C   UNL A   1      39.651  28.030  27.559  1.00  0.00     0.029 A 
ATOM     48  C   UNL A   1      40.511  27.937  28.735  1.00  0.00     0.049 A 
ATOM     49  H   UNL A   1      40.188  28.787  30.610  1.00  0.00     0.167 HD
ATOM     50  C   UNL A   1      39.649  31.045  34.329  1.00  0.00     0.034 A 
ATOM     51  C   UNL A   1      41.673  27.258  28.797  1.00  0.00     0.034 A 
ATOM     52  C   UNL A   1      40.795  30.206  34.551  1.00  0.00     0.049 A 
ATOM     53  C   UNL A   1      42.448  27.256  30.087  1.00  0.00     0.074 A 
ATOM     54  C   UNL A   1      41.530  30.049  35.711  1.00  0.00     0.029 A 
ATOM     55  N   UNL A   1      41.379  29.397  33.591  1.00  0.00    -0.354 N 
ATOM     56  N   UNL A   1      42.154  27.837  31.225  1.00  0.00    -0.248 NA
ATOM     57  C   UNL A   1      43.700  26.487  30.110  1.00  0.00     0.031 C 
ATOM     58  C   UNL A   1      42.578  29.161  35.445  1.00  0.00     0.029 A 
ATOM     59  C   UNL A   1      42.481  28.751  34.124  1.00  0.00     0.049 A 
ATOM     60  H   UNL A   1      41.058  29.295  32.666  1.00  0.00     0.167 HD
ATOM     61  C   UNL A   1      43.169  27.484  32.107  1.00  0.00     0.074 A 
ATOM     62  C   UNL A   1      44.074  26.619  31.377  1.00  0.00     0.031 C 
ATOM     63  C   UNL A   1      43.347  27.857  33.398  1.00  0.00     0.034 A 
BRANCH  50  64
ATOM     64  C   UNL A   1      39.182  31.935  35.450  1.00  0.00     0.023 A 
ATOM     65  C   UNL A   1      38.242  31.444  36.381  1.00  0.00     0.012 A 
ATOM     66  C   UNL A   1      39.704  33.233  35.614  1.00  0.00     0.148 A 
ATOM     67  C   UNL A   1      37.801  32.243  37.434  1.00  0.00     0.002 A 
ATOM     68  C   UNL A   1      39.293  34.007  36.693  1.00  0.00     0.091 A 
ATOM     69  F   UNL A   1      40.579  33.690  34.707  1.00  0.00    -0.205 F 
ATOM     70  C   UNL A   1      38.334  33.519  37.595  1.00  0.00     0.022 A 
BRANCH  68  71
ATOM     71  S   UNL A   1      39.975  35.634  37.032  1.00  0.00     0.127 S 
ATOM     72  O   UNL A   1      39.284  35.990  38.270  1.00  0.00    -0.237 OA
ATOM     73  O   UNL A   1      41.400  35.344  37.191  1.00  0.00    -0.237 OA
ATOM     74  O   UNL A   1      39.648  36.454  35.874  1.00  0.00    -0.744 OA
ENDBRANCH  68  71
ENDBRANCH  50  64
BRANCH  51  75
ATOM     75  C   UNL A   1      42.145  26.479  27.616  1.00  0.00     0.023 A 
ATOM     76  C   UNL A   1      42.928  27.120  26.638  1.00  0.00     0.012 A 
ATOM     77  C   UNL A   1      41.857  25.107  27.475  1.00  0.00     0.148 A 
ATOM     78  C   UNL A   1      43.395  26.418  25.525  1.00  0.00     0.002 A 
ATOM     79  C   UNL A   1      42.370  24.400  26.394  1.00  0.00     0.091 A 
ATOM     80  F   UNL A   1      41.100  24.518  28.410  1.00  0.00    -0.205 F 
ATOM     81  C   UNL A   1      43.125  25.057  25.409  1.00  0.00     0.022 A 
BRANCH  79  82
ATOM     82  S   UNL A   1      42.187  22.620  26.230  1.00  0.00     0.127 S 
ATOM     83  O   UNL A   1      42.858  22.365  24.959  1.00  0.00    -0.237 OA
ATOM     84  O   UNL A   1      42.899  22.134  27.413  1.00  0.00    -0.237 OA
ATOM     85  O   UNL A   1      40.753  22.371  26.251  1.00  0.00    -0.744 OA
ENDBRANCH  79  82
ENDBRANCH  51  75
BRANCH  63  86
ATOM     86  C   UNL A   1      44.558  27.328  34.119  1.00  0.00     0.023 A 
ATOM     87  C   UNL A   1      45.748  28.082  34.123  1.00  0.00     0.012 A 
ATOM     88  C   UNL A   1      44.488  26.138  34.870  1.00  0.00     0.148 A 
ATOM     89  C   UNL A   1      46.858  27.648  34.846  1.00  0.00     0.002 A 
ATOM     90  C   UNL A   1      45.582  25.737  35.626  1.00  0.00     0.091 A 
ATOM     91  F   UNL A   1      43.350  25.430  34.840  1.00  0.00    -0.205 F 
ATOM     92  C   UNL A   1      46.771  26.484  35.607  1.00  0.00     0.022 A 
BRANCH  90  93
ATOM     93  S   UNL A   1      45.538  24.305  36.710  1.00  0.00     0.127 S 
ATOM     94  O   UNL A   1      46.924  24.233  37.168  1.00  0.00    -0.237 OA
ATOM     95  O   UNL A   1      44.579  24.723  37.733  1.00  0.00    -0.237 OA
ATOM     96  O   UNL A   1      45.097  23.188  35.885  1.00  0.00    -0.744 OA
ENDBRANCH  90  93
ENDBRANCH  63  86
ENDBRANCH  37  38
ENDBRANCH  29  32
ENDBRANCH  27  28
ENDBRANCH   1  27
TORSDOF 16
ENDMDL
MODEL 2
REMARK VINA RESULT:     -12.8      0.438      7.718
REMARK SMILES CC1(C)[C@H](C(=O)NCCCCNC(=O)c2ccc(-c3c4nc(c(-c5cccc(S(=O)(=O)[O-])c5F)c5ccc([nH]5)c(-c5cccc(S(=O)(=O)[O-])c5F)c5nc(c(-c6cccc(S(=O)(=O)[O-])c6F)c6ccc3[nH]6)C=C5)C=C4)cc2)[C@H]1C(=O)Nc1cccc2[nH]ccc12
REMARK SMILES IDX 10 1 9 2 8 3 7 4 5 5 6 6 4 8 1 9 2 10 3 11 78 12 79 13 80 14
REMARK SMILES IDX 81 15 82 17 83 18 90 19 84 20 86 21 89 22 85 23 87 24 88 25
REMARK SMILES IDX 11 27 12 28 13 29 14 31 15 32 16 33 77 34 17 35 76 36 18 37
REMARK SMILES IDX 19 38 20 39 70 40 21 41 75 42 69 43 71 44 22 45 74 46 68 47
REMARK SMILES IDX 67 48 23 50 55 51 35 52 54 53 36 54 39 55 53 56 72 57 37 58
REMARK SMILES IDX 38 59 52 61 73 62 40 63 24 64 25 65 33 66 26 67 28 68 34 69
REMARK SMILES IDX 27 70 29 71 30 72 31 73 32 74 56 75 57 76 65 77 58 78 60 79
REMARK SMILES IDX 66 80 59 81 61 82 62 83 63 84 64 85 41 86 42 87 50 88 43 89
REMARK SMILES IDX 45 90 51 91 44 92 46 93 47 94 48 95 49 96
REMARK H PARENT 7 7 81 16 87 26 12 30 71 49 39 60
REMARK Flexibility Score: inf
ROOT
ATOM      1  C   UNL A   1      31.668  29.710  25.365  1.00  0.00     0.023 C 
ENDROOT
BRANCH   1   2
ATOM      2  C   UNL A   1      32.543  29.308  24.183  1.00  0.00     0.023 C 
BRANCH   2   3
ATOM      3  C   UNL A   1      31.793  28.884  22.923  1.00  0.00     0.116 C 
BRANCH   3   4
ATOM      4  N   UNL A   1      32.595  28.047  22.071  1.00  0.00    -0.356 N 
ATOM      5  C   UNL A   1      32.943  26.729  22.108  1.00  0.00     0.224 C 
ATOM      6  O   UNL A   1      33.564  26.317  21.124  1.00  0.00    -0.275 OA
ATOM      7  H   UNL A   1      32.972  28.526  21.299  1.00  0.00     0.163 HD
BRANCH   5   8
ATOM      8  C   UNL A   1      32.669  25.739  23.184  1.00  0.00     0.098 C 
ATOM      9  C   UNL A   1      31.276  23.727  23.766  1.00  0.00     0.013 C 
ATOM     10  C   UNL A   1      32.581  24.206  23.183  1.00  0.00    -0.011 C 
ATOM     11  C   UNL A   1      33.138  23.124  22.302  1.00  0.00     0.013 C 
ATOM     12  C   UNL A   1      33.691  24.969  23.933  1.00  0.00     0.098 C 
BRANCH  12  13
ATOM     13  C   UNL A   1      33.947  24.799  25.395  1.00  0.00     0.228 C 
ATOM     14  O   UNL A   1      33.640  25.739  26.129  1.00  0.00    -0.274 OA
ATOM     15  N   UNL A   1      34.213  23.579  25.969  1.00  0.00    -0.325 N 
ATOM     16  H   UNL A   1      33.678  23.356  26.764  1.00  0.00     0.169 HD
BRANCH  15  17
ATOM     17  C   UNL A   1      35.142  22.614  25.572  1.00  0.00     0.050 A 
ATOM     18  C   UNL A   1      36.468  23.018  25.384  1.00  0.00     0.027 A 
ATOM     19  C   UNL A   1      34.780  21.292  25.222  1.00  0.00     0.023 A 
ATOM     20  C   UNL A   1      37.454  22.088  25.063  1.00  0.00     0.004 A 
ATOM     21  C   UNL A   1      35.799  20.370  24.971  1.00  0.00     0.047 A 
ATOM     22  C   UNL A   1      33.554  20.605  24.978  1.00  0.00     0.030 A 
ATOM     23  C   UNL A   1      37.147  20.732  24.913  1.00  0.00     0.027 A 
ATOM     24  N   UNL A   1      35.205  19.134  24.836  1.00  0.00    -0.361 N 
ATOM     25  C   UNL A   1      33.844  19.271  24.786  1.00  0.00     0.083 A 
ATOM     26  H   UNL A   1      35.688  18.278  24.784  1.00  0.00     0.166 HD
ENDBRANCH  15  17
ENDBRANCH  12  13
ENDBRANCH   5   8
ENDBRANCH   3   4
ENDBRANCH   2   3
ENDBRANCH   1   2
BRANCH   1  27
ATOM     27  C   UNL A   1      32.418  30.204  26.594  1.00  0.00     0.116 C 
BRANCH  27  28
ATOM     28  N   UNL A   1      32.190  31.611  26.909  1.00  0.00    -0.352 N 
ATOM     29  C   UNL A   1      33.070  32.499  27.485  1.00  0.00     0.251 C 
ATOM     30  H   UNL A   1      31.301  31.967  26.681  1.00  0.00     0.163 HD
ATOM     31  O   UNL A   1      32.727  33.644  27.759  1.00  0.00    -0.269 OA
BRANCH  29  32
ATOM     32  C   UNL A   1      34.426  32.020  27.812  1.00  0.00     0.039 A 
ATOM     33  C   UNL A   1      35.458  32.950  27.947  1.00  0.00     0.014 A 
ATOM     34  C   UNL A   1      34.627  30.674  28.125  1.00  0.00     0.014 A 
ATOM     35  C   UNL A   1      36.672  32.546  28.504  1.00  0.00     0.010 A 
ATOM     36  C   UNL A   1      35.805  30.293  28.752  1.00  0.00     0.010 A 
ATOM     37  C   UNL A   1      36.831  31.228  28.965  1.00  0.00    -0.014 A 
BRANCH  37  38
ATOM     38  C   UNL A   1      38.033  30.810  29.729  1.00  0.00     0.031 A 
ATOM     39  C   UNL A   1      38.981  29.802  29.143  1.00  0.00     0.074 A 
ATOM     40  C   UNL A   1      38.195  31.239  30.996  1.00  0.00     0.049 A 
ATOM     41  N   UNL A   1      40.017  29.229  29.696  1.00  0.00    -0.248 NA
ATOM     42  C   UNL A   1      38.709  29.357  27.767  1.00  0.00     0.031 C 
ATOM     43  C   UNL A   1      37.295  32.153  31.704  1.00  0.00     0.029 A 
ATOM     44  N   UNL A   1      39.155  30.935  31.931  1.00  0.00    -0.354 N 
ATOM     45  C   UNL A   1      40.498  28.330  28.753  1.00  0.00     0.074 A 
ATOM     46  C   UNL A   1      39.620  28.408  27.606  1.00  0.00     0.031 C 
ATOM     47  C   UNL A   1      37.744  32.335  32.956  1.00  0.00     0.029 A 
ATOM     48  C   UNL A   1      38.940  31.523  33.156  1.00  0.00     0.049 A 
ATOM     49  H   UNL A   1      39.924  30.351  31.741  1.00  0.00     0.167 HD
ATOM     50  C   UNL A   1      41.590  27.534  28.823  1.00  0.00     0.034 A 
ATOM     51  C   UNL A   1      39.621  31.410  34.314  1.00  0.00     0.034 A 
ATOM     52  C   UNL A   1      42.483  27.494  29.949  1.00  0.00     0.049 A 
ATOM     53  C   UNL A   1      40.841  30.530  34.360  1.00  0.00     0.074 A 
ATOM     54  C   UNL A   1      43.673  26.802  30.076  1.00  0.00     0.029 A 
ATOM     55  N   UNL A   1      42.276  28.161  31.146  1.00  0.00    -0.354 N 
ATOM     56  N   UNL A   1      41.381  29.821  33.398  1.00  0.00    -0.248 NA
ATOM     57  C   UNL A   1      41.559  30.454  35.640  1.00  0.00     0.031 C 
ATOM     58  C   UNL A   1      44.175  27.031  31.361  1.00  0.00     0.029 A 
ATOM     59  C   UNL A   1      43.306  27.881  32.027  1.00  0.00     0.049 A 
ATOM     60  H   UNL A   1      41.510  28.748  31.340  1.00  0.00     0.167 HD
ATOM     61  C   UNL A   1      42.515  29.234  33.949  1.00  0.00     0.074 A 
ATOM     62  C   UNL A   1      42.597  29.691  35.322  1.00  0.00     0.031 C 
ATOM     63  C   UNL A   1      43.397  28.380  33.376  1.00  0.00     0.034 A 
BRANCH  50  64
ATOM     64  C   UNL A   1      41.910  26.684  27.623  1.00  0.00     0.023 A 
ATOM     65  C   UNL A   1      42.512  27.277  26.493  1.00  0.00     0.012 A 
ATOM     66  C   UNL A   1      41.664  25.297  27.626  1.00  0.00     0.148 A 
ATOM     67  C   UNL A   1      42.828  26.512  25.372  1.00  0.00     0.002 A 
ATOM     68  C   UNL A   1      42.023  24.534  26.522  1.00  0.00     0.091 A 
ATOM     69  F   UNL A   1      41.070  24.756  28.699  1.00  0.00    -0.205 F 
ATOM     70  C   UNL A   1      42.593  25.141  25.391  1.00  0.00     0.022 A 
BRANCH  68  71
ATOM     71  S   UNL A   1      41.832  22.748  26.477  1.00  0.00     0.127 S 
ATOM     72  O   UNL A   1      42.583  22.342  27.664  1.00  0.00    -0.237 OA
ATOM     73  O   UNL A   1      40.381  22.590  26.590  1.00  0.00    -0.237 OA
ATOM     74  O   UNL A   1      42.391  22.317  25.204  1.00  0.00    -0.744 OA
ENDBRANCH  68  71
ENDBRANCH  50  64
BRANCH  51  75
ATOM     75  C   UNL A   1      39.193  32.194  35.508  1.00  0.00     0.023 A 
ATOM     76  C   UNL A   1      38.324  31.602  36.444  1.00  0.00     0.012 A 
ATOM     77  C   UNL A   1      39.668  33.500  35.741  1.00  0.00     0.148 A 
ATOM     78  C   UNL A   1      37.913  32.305  37.578  1.00  0.00     0.002 A 
ATOM     79  C   UNL A   1      39.298  34.173  36.900  1.00  0.00     0.091 A 
ATOM     80  F   UNL A   1      40.484  34.050  34.832  1.00  0.00    -0.205 F 
ATOM     81  C   UNL A   1      38.408  33.584  37.811  1.00  0.00     0.022 A 
BRANCH  79  82
ATOM     82  S   UNL A   1      39.989  35.770  37.349  1.00  0.00     0.127 S 
ATOM     83  O   UNL A   1      41.410  35.457  37.473  1.00  0.00    -0.237 OA
ATOM     84  O   UNL A   1      39.637  36.588  36.188  1.00  0.00    -0.237 OA
ATOM     85  O   UNL A   1      39.315  36.156  38.581  1.00  0.00    -0.744 OA
ENDBRANCH  79  82
ENDBRANCH  51  75
BRANCH  63  86
ATOM     86  C   UNL A   1      44.541  27.884  34.220  1.00  0.00     0.023 A 
ATOM     87  C   UNL A   1      45.718  28.655  34.316  1.00  0.00     0.012 A 
ATOM     88  C   UNL A   1      44.415  26.713  34.991  1.00  0.00     0.148 A 
ATOM     89  C   UNL A   1      46.760  28.253  35.149  1.00  0.00     0.002 A 
ATOM     90  C   UNL A   1      45.439  26.345  35.856  1.00  0.00     0.091 A 
ATOM     91  F   UNL A   1      43.293  25.988  34.873  1.00  0.00    -0.205 F 
ATOM     92  C   UNL A   1      46.616  27.107  35.928  1.00  0.00     0.022 A 
BRANCH  90  93
ATOM     93  S   UNL A   1      45.309  24.938  36.966  1.00  0.00     0.127 S 
ATOM     94  O   UNL A   1      46.607  24.967  37.637  1.00  0.00    -0.237 OA
ATOM     95  O   UNL A   1      44.177  25.317  37.812  1.00  0.00    -0.237 OA
ATOM     96  O   UNL A   1      45.073  23.776  36.120  1.00  0.00    -0.744 OA
ENDBRANCH  90  93
ENDBRANCH  63  86
ENDBRANCH  37  38
ENDBRANCH  29  32
ENDBRANCH  27  28
ENDBRANCH   1  27
TORSDOF 16
ENDMDL
MODEL 3
REMARK VINA RESULT:     -12.7      5.067      8.116
REMARK SMILES CC1(C)[C@H](C(=O)NCCCCNC(=O)c2ccc(-c3c4nc(c(-c5cccc(S(=O)(=O)[O-])c5F)c5ccc([nH]5)c(-c5cccc(S(=O)(=O)[O-])c5F)c5nc(c(-c6cccc(S(=O)(=O)[O-])c6F)c6ccc3[nH]6)C=C5)C=C4)cc2)[C@H]1C(=O)Nc1cccc2[nH]ccc12
REMARK SMILES IDX 10 1 9 2 8 3 7 4 5 5 6 6 4 8 1 9 2 10 3 11 78 12 79 13 80 14
REMARK SMILES IDX 81 15 82 17 83 18 90 19 84 20 86 21 89 22 85 23 87 24 88 25
REMARK SMILES IDX 11 27 12 28 13 29 14 31 15 32 16 33 77 34 17 35 76 36 18 37
REMARK SMILES IDX 19 38 20 39 70 40 21 41 75 42 69 43 71 44 22 45 74 46 68 47
REMARK SMILES IDX 67 48 23 50 55 51 35 52 54 53 36 54 39 55 53 56 72 57 37 58
REMARK SMILES IDX 38 59 52 61 73 62 40 63 24 64 25 65 33 66 26 67 28 68 34 69
REMARK SMILES IDX 27 70 29 71 30 72 31 73 32 74 56 75 57 76 65 77 58 78 60 79
REMARK SMILES IDX 66 80 59 81 61 82 62 83 63 84 64 85 41 86 42 87 50 88 43 89
REMARK SMILES IDX 45 90 51 91 44 92 46 93 47 94 48 95 49 96
REMARK H PARENT 7 7 81 16 87 26 12 30 71 49 39 60
REMARK Flexibility Score: inf
ROOT
ATOM      1  C   UNL A   1      35.768  21.986  24.708  1.00  0.00     0.023 C 
ENDROOT
BRANCH   1   2
ATOM      2  C   UNL A   1      35.116  22.141  26.077  1.00  0.00     0.023 C 
BRANCH   2   3
ATOM      3  C   UNL A   1      33.855  21.309  26.303  1.00  0.00     0.116 C 
BRANCH   3   4
ATOM      4  N   UNL A   1      32.862  22.026  27.058  1.00  0.00    -0.356 N 
ATOM      5  C   UNL A   1      32.066  23.098  26.783  1.00  0.00     0.224 C 
ATOM      6  O   UNL A   1      31.231  23.375  27.648  1.00  0.00    -0.275 OA
ATOM      7  H   UNL A   1      32.730  21.667  27.965  1.00  0.00     0.163 HD
BRANCH   5   8
ATOM      8  C   UNL A   1      32.085  23.968  25.576  1.00  0.00     0.098 C 
ATOM      9  C   UNL A   1      33.419  24.536  23.520  1.00  0.00     0.013 C 
ATOM     10  C   UNL A   1      32.323  23.671  24.088  1.00  0.00    -0.011 C 
ATOM     11  C   UNL A   1      32.184  22.447  23.228  1.00  0.00     0.013 C 
ATOM     12  C   UNL A   1      30.962  24.156  24.627  1.00  0.00     0.098 C 
BRANCH  12  13
ATOM     13  C   UNL A   1      30.277  25.380  24.113  1.00  0.00     0.228 C 
ATOM     14  O   UNL A   1      29.462  25.225  23.203  1.00  0.00    -0.274 OA
ATOM     15  N   UNL A   1      30.287  26.579  24.786  1.00  0.00    -0.325 N 
ATOM     16  H   UNL A   1      29.409  27.007  24.907  1.00  0.00     0.169 HD
BRANCH  15  17
ATOM     17  C   UNL A   1      31.377  27.268  25.321  1.00  0.00     0.050 A 
ATOM     18  C   UNL A   1      31.450  27.400  26.712  1.00  0.00     0.027 A 
ATOM     19  C   UNL A   1      32.327  27.949  24.526  1.00  0.00     0.023 A 
ATOM     20  C   UNL A   1      32.551  28.011  27.310  1.00  0.00     0.004 A 
ATOM     21  C   UNL A   1      33.452  28.492  25.152  1.00  0.00     0.047 A 
ATOM     22  C   UNL A   1      32.426  28.314  23.150  1.00  0.00     0.030 A 
ATOM     23  C   UNL A   1      33.605  28.512  26.541  1.00  0.00     0.027 A 
ATOM     24  N   UNL A   1      34.299  28.932  24.159  1.00  0.00    -0.361 N 
ATOM     25  C   UNL A   1      33.667  28.878  22.946  1.00  0.00     0.083 A 
ATOM     26  H   UNL A   1      35.223  29.240  24.300  1.00  0.00     0.166 HD
ENDBRANCH  15  17
ENDBRANCH  12  13
ENDBRANCH   5   8
ENDBRANCH   3   4
ENDBRANCH   2   3
ENDBRANCH   1   2
BRANCH   1  27
ATOM     27  C   UNL A   1      37.278  22.185  24.679  1.00  0.00     0.116 C 
BRANCH  27  28
ATOM     28  N   UNL A   1      38.045  20.991  25.022  1.00  0.00    -0.352 N 
ATOM     29  C   UNL A   1      39.113  20.895  25.886  1.00  0.00     0.251 C 
ATOM     30  H   UNL A   1      37.765  20.156  24.584  1.00  0.00     0.163 HD
ATOM     31  O   UNL A   1      39.715  19.837  26.034  1.00  0.00    -0.269 OA
BRANCH  29  32
ATOM     32  C   UNL A   1      39.547  22.115  26.593  1.00  0.00     0.039 A 
ATOM     33  C   UNL A   1      40.600  22.030  27.505  1.00  0.00     0.014 A 
ATOM     34  C   UNL A   1      39.004  23.351  26.235  1.00  0.00     0.014 A 
ATOM     35  C   UNL A   1      41.186  23.204  27.980  1.00  0.00     0.010 A 
ATOM     36  C   UNL A   1      39.640  24.514  26.646  1.00  0.00     0.010 A 
ATOM     37  C   UNL A   1      40.748  24.452  27.507  1.00  0.00    -0.014 A 
BRANCH  37  38
ATOM     38  C   UNL A   1      41.465  25.707  27.843  1.00  0.00     0.031 A 
ATOM     39  C   UNL A   1      40.749  26.805  28.577  1.00  0.00     0.074 A 
ATOM     40  C   UNL A   1      42.712  25.905  27.372  1.00  0.00     0.049 A 
ATOM     41  N   UNL A   1      41.164  28.012  28.860  1.00  0.00    -0.248 NA
ATOM     42  C   UNL A   1      39.375  26.521  29.022  1.00  0.00     0.031 C 
ATOM     43  C   UNL A   1      43.480  24.945  26.574  1.00  0.00     0.029 A 
ATOM     44  N   UNL A   1      43.543  26.995  27.463  1.00  0.00    -0.354 N 
ATOM     45  C   UNL A   1      40.094  28.642  29.481  1.00  0.00     0.074 A 
ATOM     46  C   UNL A   1      38.999  27.697  29.503  1.00  0.00     0.031 C 
ATOM     47  C   UNL A   1      44.665  25.487  26.251  1.00  0.00     0.029 A 
ATOM     48  C   UNL A   1      44.729  26.844  26.782  1.00  0.00     0.049 A 
ATOM     49  H   UNL A   1      43.312  27.807  27.968  1.00  0.00     0.167 HD
ATOM     50  C   UNL A   1      40.038  29.885  30.014  1.00  0.00     0.034 A 
ATOM     51  C   UNL A   1      45.748  27.707  26.594  1.00  0.00     0.034 A 
ATOM     52  C   UNL A   1      41.143  30.803  30.028  1.00  0.00     0.049 A 
ATOM     53  C   UNL A   1      45.666  29.077  27.211  1.00  0.00     0.074 A 
ATOM     54  C   UNL A   1      41.222  32.043  30.635  1.00  0.00     0.029 A 
ATOM     55  N   UNL A   1      42.357  30.588  29.394  1.00  0.00    -0.354 N 
ATOM     56  N   UNL A   1      44.712  29.592  27.947  1.00  0.00    -0.248 NA
ATOM     57  C   UNL A   1      46.810  29.974  26.993  1.00  0.00     0.031 C 
ATOM     58  C   UNL A   1      42.476  32.590  30.347  1.00  0.00     0.029 A 
ATOM     59  C   UNL A   1      43.185  31.681  29.576  1.00  0.00     0.049 A 
ATOM     60  H   UNL A   1      42.595  29.777  28.890  1.00  0.00     0.167 HD
ATOM     61  C   UNL A   1      45.149  30.864  28.302  1.00  0.00     0.074 A 
ATOM     62  C   UNL A   1      46.465  31.031  27.718  1.00  0.00     0.031 C 
ATOM     63  C   UNL A   1      44.511  31.814  29.028  1.00  0.00     0.034 A 
BRANCH  50  64
ATOM     64  C   UNL A   1      38.752  30.300  30.677  1.00  0.00     0.023 A 
ATOM     65  C   UNL A   1      38.566  30.044  32.052  1.00  0.00     0.012 A 
ATOM     66  C   UNL A   1      37.750  30.983  29.960  1.00  0.00     0.148 A 
ATOM     67  C   UNL A   1      37.390  30.427  32.694  1.00  0.00     0.002 A 
ATOM     68  C   UNL A   1      36.599  31.401  30.618  1.00  0.00     0.091 A 
ATOM     69  F   UNL A   1      37.934  31.197  28.650  1.00  0.00    -0.205 F 
ATOM     70  C   UNL A   1      36.412  31.113  31.980  1.00  0.00     0.022 A 
BRANCH  68  71
ATOM     71  S   UNL A   1      35.315  32.359  29.805  1.00  0.00     0.127 S 
ATOM     72  O   UNL A   1      36.061  33.536  29.364  1.00  0.00    -0.237 OA
ATOM     73  O   UNL A   1      34.897  31.462  28.727  1.00  0.00    -0.237 OA
ATOM     74  O   UNL A   1      34.298  32.604  30.818  1.00  0.00    -0.744 OA
ENDBRANCH  68  71
ENDBRANCH  50  64
BRANCH  51  75
ATOM     75  C   UNL A   1      46.956  27.278  25.833  1.00  0.00     0.023 A 
ATOM     76  C   UNL A   1      47.888  26.421  26.448  1.00  0.00     0.012 A 
ATOM     77  C   UNL A   1      47.168  27.680  24.499  1.00  0.00     0.148 A 
ATOM     78  C   UNL A   1      49.024  25.991  25.759  1.00  0.00     0.002 A 
ATOM     79  C   UNL A   1      48.273  27.205  23.801  1.00  0.00     0.091 A 
ATOM     80  F   UNL A   1      46.276  28.506  23.936  1.00  0.00    -0.205 F 
ATOM     81  C   UNL A   1      49.211  26.375  24.434  1.00  0.00     0.022 A 
BRANCH  79  82
ATOM     82  S   UNL A   1      48.525  27.537  22.053  1.00  0.00     0.127 S 
ATOM     83  O   UNL A   1      48.778  26.199  21.527  1.00  0.00    -0.237 OA
ATOM     84  O   UNL A   1      47.238  28.118  21.668  1.00  0.00    -0.237 OA
ATOM     85  O   UNL A   1      49.644  28.466  21.988  1.00  0.00    -0.744 OA
ENDBRANCH  79  82
ENDBRANCH  51  75
BRANCH  63  86
ATOM     86  C   UNL A   1      45.224  33.122  29.249  1.00  0.00     0.023 A 
ATOM     87  C   UNL A   1      46.094  33.261  30.349  1.00  0.00     0.012 A 
ATOM     88  C   UNL A   1      45.107  34.174  28.320  1.00  0.00     0.148 A 
ATOM     89  C   UNL A   1      46.821  34.435  30.532  1.00  0.00     0.002 A 
ATOM     90  C   UNL A   1      45.871  35.323  28.484  1.00  0.00     0.091 A 
ATOM     91  F   UNL A   1      44.263  34.026  27.290  1.00  0.00    -0.205 F 
ATOM     92  C   UNL A   1      46.720  35.460  29.594  1.00  0.00     0.022 A 
BRANCH  90  93
ATOM     93  S   UNL A   1      45.880  36.659  27.282  1.00  0.00     0.127 S 
ATOM     94  O   UNL A   1      46.970  37.498  27.776  1.00  0.00    -0.237 OA
ATOM     95  O   UNL A   1      46.173  35.950  26.036  1.00  0.00    -0.237 OA
ATOM     96  O   UNL A   1      44.556  37.263  27.339  1.00  0.00    -0.744 OA
ENDBRANCH  90  93
ENDBRANCH  63  86
ENDBRANCH  37  38
ENDBRANCH  29  32
ENDBRANCH  27  28
ENDBRANCH   1  27
TORSDOF 16
ENDMDL
