MODEL 1
REMARK VINA RESULT:     -10.5      0.000      0.000
REMARK SMILES CC(C)C[C@H](NC(=O)CNC(=O)[C@@H]([NH3+])C(C)C)C(=O)NCCCCNC(=O)c1ccc(-c2c3nc(c(-c4cccc(S(=O)(=O)[O-])c4F)c4ccc([nH]4)c(-c4cccc(S(=O)(=O)[O-])c4F)c4nc(c(-c5cccc(S(=O)(=O)[O-])c5F)c5ccc2[nH]5)C=C4)C=C3)cc1
REMARK SMILES IDX 21 1 20 2 18 3 19 4 5 6 4 7 2 8 1 9 3 10 6 11 7 12 8 14 9 15
REMARK SMILES IDX 10 16 11 17 12 19 13 20 14 21 15 25 16 26 17 27 22 28 23 29
REMARK SMILES IDX 24 30 25 31 26 32 27 34 28 35 29 36 90 37 30 38 89 39 31 40
REMARK SMILES IDX 32 41 33 42 83 43 34 44 88 45 82 46 84 47 35 48 87 49 81 50
REMARK SMILES IDX 80 51 36 53 68 54 48 55 67 56 49 57 52 58 66 59 85 60 50 61
REMARK SMILES IDX 51 62 65 64 86 65 53 66 37 67 38 68 46 69 39 70 41 71 47 72
REMARK SMILES IDX 40 73 42 74 43 75 44 76 45 77 69 78 70 79 78 80 71 81 73 82
REMARK SMILES IDX 79 83 72 84 74 85 75 86 76 87 77 88 54 89 55 90 63 91 56 92
REMARK SMILES IDX 58 93 64 94 57 95 59 96 60 97 61 98 62 99
REMARK H PARENT 20 5 6 13 10 18 14 22 14 23 14 24 25 33 84 52 52 63
REMARK Flexibility Score: inf
ROOT
ATOM      1  C   UNL A   1      31.839  30.055  25.294  1.00  0.00     0.116 C 
ENDROOT
BRANCH   1   2
ATOM      2  N   UNL A   1      33.091  29.708  24.639  1.00  0.00    -0.354 N 
ATOM      3  C   UNL A   1      33.317  28.746  23.689  1.00  0.00     0.242 C 
ATOM      4  O   UNL A   1      34.424  28.677  23.157  1.00  0.00    -0.273 OA
ATOM      5  H   UNL A   1      33.878  30.232  24.914  1.00  0.00     0.163 HD
BRANCH   3   6
ATOM      6  C   UNL A   1      32.163  27.810  23.281  1.00  0.00     0.171 C 
BRANCH   6   7
ATOM      7  C   UNL A   1      31.821  26.862  24.435  1.00  0.00     0.038 C 
BRANCH   7   8
ATOM      8  C   UNL A   1      30.354  26.699  24.885  1.00  0.00    -0.015 C 
ATOM      9  C   UNL A   1      29.507  25.927  23.873  1.00  0.00     0.007 C 
ATOM     10  C   UNL A   1      30.338  25.949  26.225  1.00  0.00     0.007 C 
ENDBRANCH   7   8
ENDBRANCH   6   7
BRANCH   6  11
ATOM     11  N   UNL A   1      32.616  27.172  22.021  1.00  0.00    -0.343 N 
ATOM     12  C   UNL A   1      32.884  25.933  21.555  1.00  0.00     0.240 C 
ATOM     13  H   UNL A   1      32.765  27.849  21.321  1.00  0.00     0.164 HD
ATOM     14  O   UNL A   1      33.186  25.867  20.355  1.00  0.00    -0.273 OA
BRANCH  12  15
ATOM     15  C   UNL A   1      32.748  24.642  22.357  1.00  0.00     0.216 C 
BRANCH  15  16
ATOM     16  N   UNL A   1      33.988  24.043  22.803  1.00  0.00    -0.342 N 
ATOM     17  C   UNL A   1      34.198  22.976  23.623  1.00  0.00     0.278 C 
ATOM     18  H   UNL A   1      34.805  24.472  22.460  1.00  0.00     0.164 HD
ATOM     19  O   UNL A   1      35.369  22.656  23.849  1.00  0.00    -0.268 OA
BRANCH  17  20
ATOM     20  C   UNL A   1      33.029  22.169  24.248  1.00  0.00     0.273 C 
BRANCH  20  21
ATOM     21  N   UNL A   1      33.441  20.796  24.626  1.00  0.00    -0.347 N 
ATOM     22  H   UNL A   1      33.229  20.156  23.862  1.00  0.00     0.345 HD
ATOM     23  H   UNL A   1      32.933  20.507  25.462  1.00  0.00     0.345 HD
ATOM     24  H   UNL A   1      34.443  20.781  24.814  1.00  0.00     0.345 HD
ENDBRANCH  20  21
BRANCH  20  25
ATOM     25  C   UNL A   1      32.406  22.972  25.410  1.00  0.00     0.051 C 
ATOM     26  C   UNL A   1      31.022  22.397  25.752  1.00  0.00     0.014 C 
ATOM     27  C   UNL A   1      33.278  22.946  26.669  1.00  0.00     0.014 C 
ENDBRANCH  20  25
ENDBRANCH  17  20
ENDBRANCH  15  16
ENDBRANCH  12  15
ENDBRANCH   6  11
ENDBRANCH   3   6
ENDBRANCH   1   2
BRANCH   1  28
ATOM     28  C   UNL A   1      32.044  30.495  26.733  1.00  0.00     0.023 C 
BRANCH  28  29
ATOM     29  C   UNL A   1      31.633  31.937  26.998  1.00  0.00     0.023 C 
BRANCH  29  30
ATOM     30  C   UNL A   1      32.766  32.947  26.873  1.00  0.00     0.116 C 
BRANCH  30  31
ATOM     31  N   UNL A   1      32.515  34.171  27.626  1.00  0.00    -0.352 N 
ATOM     32  C   UNL A   1      33.135  34.603  28.774  1.00  0.00     0.251 C 
ATOM     33  H   UNL A   1      31.813  34.762  27.267  1.00  0.00     0.163 HD
ATOM     34  O   UNL A   1      32.712  35.574  29.392  1.00  0.00    -0.269 OA
BRANCH  32  35
ATOM     35  C   UNL A   1      34.305  33.850  29.258  1.00  0.00     0.039 A 
ATOM     36  C   UNL A   1      35.586  34.329  28.985  1.00  0.00     0.014 A 
ATOM     37  C   UNL A   1      34.115  32.729  30.069  1.00  0.00     0.014 A 
ATOM     38  C   UNL A   1      36.684  33.719  29.592  1.00  0.00     0.010 A 
ATOM     39  C   UNL A   1      35.200  32.183  30.742  1.00  0.00     0.010 A 
ATOM     40  C   UNL A   1      36.496  32.667  30.506  1.00  0.00    -0.014 A 
BRANCH  40  41
ATOM     41  C   UNL A   1      37.639  32.058  31.230  1.00  0.00     0.031 A 
ATOM     42  C   UNL A   1      38.412  30.934  30.596  1.00  0.00     0.074 A 
ATOM     43  C   UNL A   1      37.918  32.449  32.489  1.00  0.00     0.049 A 
ATOM     44  N   UNL A   1      39.397  30.232  31.091  1.00  0.00    -0.248 NA
ATOM     45  C   UNL A   1      38.002  30.520  29.243  1.00  0.00     0.031 C 
ATOM     46  C   UNL A   1      37.182  33.466  33.245  1.00  0.00     0.029 A 
ATOM     47  N   UNL A   1      38.881  32.018  33.367  1.00  0.00    -0.354 N 
ATOM     48  C   UNL A   1      39.697  29.274  30.131  1.00  0.00     0.074 A 
ATOM     49  C   UNL A   1      38.763  29.455  29.042  1.00  0.00     0.031 C 
ATOM     50  C   UNL A   1      37.726  33.586  34.467  1.00  0.00     0.029 A 
ATOM     51  C   UNL A   1      38.828  32.638  34.594  1.00  0.00     0.049 A 
ATOM     52  H   UNL A   1      39.547  31.329  33.140  1.00  0.00     0.167 HD
ATOM     53  C   UNL A   1      40.683  28.347  30.137  1.00  0.00     0.034 A 
ATOM     54  C   UNL A   1      39.581  32.459  35.697  1.00  0.00     0.034 A 
ATOM     55  C   UNL A   1      41.643  28.206  31.197  1.00  0.00     0.049 A 
ATOM     56  C   UNL A   1      40.705  31.459  35.657  1.00  0.00     0.074 A 
ATOM     57  C   UNL A   1      42.741  27.366  31.255  1.00  0.00     0.029 A 
ATOM     58  N   UNL A   1      41.619  28.918  32.386  1.00  0.00    -0.354 N 
ATOM     59  N   UNL A   1      41.080  30.678  34.674  1.00  0.00    -0.248 NA
ATOM     60  C   UNL A   1      41.536  31.343  36.865  1.00  0.00     0.031 C 
ATOM     61  C   UNL A   1      43.369  27.557  32.491  1.00  0.00     0.029 A 
ATOM     62  C   UNL A   1      42.677  28.532  33.190  1.00  0.00     0.049 A 
ATOM     63  H   UNL A   1      40.948  29.598  32.622  1.00  0.00     0.167 HD
ATOM     64  C   UNL A   1      42.209  30.006  35.128  1.00  0.00     0.074 A 
ATOM     65  C   UNL A   1      42.469  30.488  36.469  1.00  0.00     0.031 C 
ATOM     66  C   UNL A   1      42.954  29.063  34.500  1.00  0.00     0.034 A 
BRANCH  53  67
ATOM     67  C   UNL A   1      40.811  27.453  28.931  1.00  0.00     0.023 A 
ATOM     68  C   UNL A   1      39.941  26.353  28.786  1.00  0.00     0.012 A 
ATOM     69  C   UNL A   1      41.751  27.728  27.920  1.00  0.00     0.148 A 
ATOM     70  C   UNL A   1      40.029  25.519  27.673  1.00  0.00     0.002 A 
ATOM     71  C   UNL A   1      41.802  26.920  26.791  1.00  0.00     0.091 A 
ATOM     72  F   UNL A   1      42.586  28.764  28.086  1.00  0.00    -0.205 F 
ATOM     73  C   UNL A   1      40.951  25.808  26.671  1.00  0.00     0.022 A 
BRANCH  71  74
ATOM     74  S   UNL A   1      42.898  27.255  25.408  1.00  0.00     0.127 S 
ATOM     75  O   UNL A   1      42.766  26.028  24.623  1.00  0.00    -0.237 OA
ATOM     76  O   UNL A   1      42.279  28.435  24.803  1.00  0.00    -0.237 OA
ATOM     77  O   UNL A   1      44.214  27.489  25.987  1.00  0.00    -0.744 OA
ENDBRANCH  71  74
ENDBRANCH  53  67
BRANCH  54  78
ATOM     78  C   UNL A   1      39.344  33.298  36.907  1.00  0.00     0.023 A 
ATOM     79  C   UNL A   1      39.841  34.616  36.939  1.00  0.00     0.012 A 
ATOM     80  C   UNL A   1      38.615  32.812  38.008  1.00  0.00     0.148 A 
ATOM     81  C   UNL A   1      39.643  35.424  38.059  1.00  0.00     0.002 A 
ATOM     82  C   UNL A   1      38.375  33.640  39.098  1.00  0.00     0.091 A 
ATOM     83  F   UNL A   1      38.161  31.551  37.962  1.00  0.00    -0.205 F 
ATOM     84  C   UNL A   1      38.902  34.939  39.134  1.00  0.00     0.022 A 
BRANCH  82  85
ATOM     85  S   UNL A   1      37.321  33.147  40.468  1.00  0.00     0.127 S 
ATOM     86  O   UNL A   1      38.086  32.049  41.053  1.00  0.00    -0.237 OA
ATOM     87  O   UNL A   1      37.281  34.369  41.272  1.00  0.00    -0.237 OA
ATOM     88  O   UNL A   1      36.045  32.783  39.869  1.00  0.00    -0.744 OA
ENDBRANCH  82  85
ENDBRANCH  54  78
BRANCH  66  89
ATOM     89  C   UNL A   1      44.148  28.512  35.233  1.00  0.00     0.023 A 
ATOM     90  C   UNL A   1      45.426  29.058  35.001  1.00  0.00     0.012 A 
ATOM     91  C   UNL A   1      43.990  27.511  36.211  1.00  0.00     0.148 A 
ATOM     92  C   UNL A   1      46.534  28.593  35.707  1.00  0.00     0.002 A 
ATOM     93  C   UNL A   1      45.090  27.088  36.948  1.00  0.00     0.091 A 
ATOM     94  F   UNL A   1      42.769  26.992  36.404  1.00  0.00    -0.205 F 
ATOM     95  C   UNL A   1      46.365  27.619  36.689  1.00  0.00     0.022 A 
BRANCH  93  96
ATOM     96  S   UNL A   1      44.949  25.910  38.296  1.00  0.00     0.127 S 
ATOM     97  O   UNL A   1      46.309  25.909  38.834  1.00  0.00    -0.237 OA
ATOM     98  O   UNL A   1      43.952  26.544  39.160  1.00  0.00    -0.237 OA
ATOM     99  O   UNL A   1      44.514  24.658  37.692  1.00  0.00    -0.744 OA
ENDBRANCH  93  96
ENDBRANCH  66  89
ENDBRANCH  40  41
ENDBRANCH  32  35
ENDBRANCH  30  31
ENDBRANCH  29  30
ENDBRANCH  28  29
ENDBRANCH   1  28
TORSDOF 22
ENDMDL
MODEL 2
REMARK VINA RESULT:      -9.8      6.098     11.481
REMARK SMILES CC(C)C[C@H](NC(=O)CNC(=O)[C@@H]([NH3+])C(C)C)C(=O)NCCCCNC(=O)c1ccc(-c2c3nc(c(-c4cccc(S(=O)(=O)[O-])c4F)c4ccc([nH]4)c(-c4cccc(S(=O)(=O)[O-])c4F)c4nc(c(-c5cccc(S(=O)(=O)[O-])c5F)c5ccc2[nH]5)C=C4)C=C3)cc1
REMARK SMILES IDX 21 1 20 2 18 3 19 4 5 6 4 7 2 8 1 9 3 10 6 11 7 12 8 14 9 15
REMARK SMILES IDX 10 16 11 17 12 19 13 20 14 21 15 25 16 26 17 27 22 28 23 29
REMARK SMILES IDX 24 30 25 31 26 32 27 34 28 35 29 36 90 37 30 38 89 39 31 40
REMARK SMILES IDX 32 41 33 42 83 43 34 44 88 45 82 46 84 47 35 48 87 49 81 50
REMARK SMILES IDX 80 51 36 53 68 54 48 55 67 56 49 57 52 58 66 59 85 60 50 61
REMARK SMILES IDX 51 62 65 64 86 65 53 66 37 67 38 68 46 69 39 70 41 71 47 72
REMARK SMILES IDX 40 73 42 74 43 75 44 76 45 77 69 78 70 79 78 80 71 81 73 82
REMARK SMILES IDX 79 83 72 84 74 85 75 86 76 87 77 88 54 89 55 90 63 91 56 92
REMARK SMILES IDX 58 93 64 94 57 95 59 96 60 97 61 98 62 99
REMARK H PARENT 20 5 6 13 10 18 14 22 14 23 14 24 25 33 84 52 52 63
REMARK Flexibility Score: inf
ROOT
ATOM      1  C   UNL A   1      36.863  22.039  24.845  1.00  0.00     0.116 C 
ENDROOT
BRANCH   1   2
ATOM      2  N   UNL A   1      35.947  20.910  24.882  1.00  0.00    -0.354 N 
ATOM      3  C   UNL A   1      34.583  20.914  24.752  1.00  0.00     0.242 C 
ATOM      4  O   UNL A   1      33.983  19.842  24.686  1.00  0.00    -0.273 OA
ATOM      5  H   UNL A   1      36.362  20.027  25.019  1.00  0.00     0.163 HD
BRANCH   3   6
ATOM      6  C   UNL A   1      33.844  22.262  24.642  1.00  0.00     0.171 C 
BRANCH   6   7
ATOM      7  C   UNL A   1      32.517  22.198  25.405  1.00  0.00     0.038 C 
BRANCH   7   8
ATOM      8  C   UNL A   1      32.352  22.980  26.724  1.00  0.00    -0.015 C 
ATOM      9  C   UNL A   1      33.248  22.449  27.843  1.00  0.00     0.007 C 
ATOM     10  C   UNL A   1      32.700  24.453  26.462  1.00  0.00     0.007 C 
ENDBRANCH   7   8
ENDBRANCH   6   7
BRANCH   6  11
ATOM     11  N   UNL A   1      33.753  22.531  23.187  1.00  0.00    -0.343 N 
ATOM     12  C   UNL A   1      33.410  23.548  22.367  1.00  0.00     0.240 C 
ATOM     13  H   UNL A   1      34.020  21.737  22.668  1.00  0.00     0.164 HD
ATOM     14  O   UNL A   1      33.558  23.331  21.156  1.00  0.00    -0.273 OA
BRANCH  12  15
ATOM     15  C   UNL A   1      32.960  24.933  22.822  1.00  0.00     0.216 C 
BRANCH  15  16
ATOM     16  N   UNL A   1      33.640  26.052  22.203  1.00  0.00    -0.342 N 
ATOM     17  C   UNL A   1      33.403  27.388  22.317  1.00  0.00     0.278 C 
ATOM     18  H   UNL A   1      34.386  25.809  21.610  1.00  0.00     0.164 HD
ATOM     19  O   UNL A   1      34.137  28.150  21.680  1.00  0.00    -0.268 OA
BRANCH  17  20
ATOM     20  C   UNL A   1      32.274  27.957  23.216  1.00  0.00     0.273 C 
BRANCH  20  21
ATOM     21  N   UNL A   1      30.935  27.481  22.795  1.00  0.00    -0.347 N 
ATOM     22  H   UNL A   1      30.260  28.239  22.891  1.00  0.00     0.345 HD
ATOM     23  H   UNL A   1      30.652  26.697  23.383  1.00  0.00     0.345 HD
ATOM     24  H   UNL A   1      30.971  27.180  21.821  1.00  0.00     0.345 HD
ENDBRANCH  20  21
BRANCH  20  25
ATOM     25  C   UNL A   1      32.596  27.670  24.698  1.00  0.00     0.051 C 
ATOM     26  C   UNL A   1      33.856  28.446  25.113  1.00  0.00     0.014 C 
ATOM     27  C   UNL A   1      31.445  28.060  25.630  1.00  0.00     0.014 C 
ENDBRANCH  20  25
ENDBRANCH  17  20
ENDBRANCH  15  16
ENDBRANCH  12  15
ENDBRANCH   6  11
ENDBRANCH   3   6
ENDBRANCH   1   2
BRANCH   1  28
ATOM     28  C   UNL A   1      38.222  21.700  25.431  1.00  0.00     0.023 C 
BRANCH  28  29
ATOM     29  C   UNL A   1      38.620  20.241  25.250  1.00  0.00     0.023 C 
BRANCH  29  30
ATOM     30  C   UNL A   1      39.319  19.626  26.456  1.00  0.00     0.116 C 
BRANCH  30  31
ATOM     31  N   UNL A   1      40.572  18.968  26.104  1.00  0.00    -0.352 N 
ATOM     32  C   UNL A   1      41.819  19.532  25.971  1.00  0.00     0.251 C 
ATOM     33  H   UNL A   1      40.520  17.998  25.942  1.00  0.00     0.163 HD
ATOM     34  O   UNL A   1      42.757  18.889  25.511  1.00  0.00    -0.269 OA
BRANCH  32  35
ATOM     35  C   UNL A   1      41.990  20.940  26.369  1.00  0.00     0.039 A 
ATOM     36  C   UNL A   1      42.361  21.239  27.680  1.00  0.00     0.014 A 
ATOM     37  C   UNL A   1      41.883  21.946  25.405  1.00  0.00     0.014 A 
ATOM     38  C   UNL A   1      42.697  22.553  28.009  1.00  0.00     0.010 A 
ATOM     39  C   UNL A   1      42.306  23.232  25.713  1.00  0.00     0.010 A 
ATOM     40  C   UNL A   1      42.711  23.551  27.019  1.00  0.00    -0.014 A 
BRANCH  40  41
ATOM     41  C   UNL A   1      43.146  24.936  27.322  1.00  0.00     0.031 A 
ATOM     42  C   UNL A   1      42.190  25.894  27.978  1.00  0.00     0.074 A 
ATOM     43  C   UNL A   1      44.363  25.357  26.923  1.00  0.00     0.049 A 
ATOM     44  N   UNL A   1      42.360  27.157  28.267  1.00  0.00    -0.248 NA
ATOM     45  C   UNL A   1      40.856  25.375  28.324  1.00  0.00     0.031 C 
ATOM     46  C   UNL A   1      45.345  24.548  26.197  1.00  0.00     0.029 A 
ATOM     47  N   UNL A   1      44.972  26.581  27.047  1.00  0.00    -0.354 N 
ATOM     48  C   UNL A   1      41.148  27.592  28.788  1.00  0.00     0.074 A 
ATOM     49  C   UNL A   1      40.237  26.470  28.739  1.00  0.00     0.031 C 
ATOM     50  C   UNL A   1      46.435  25.294  25.950  1.00  0.00     0.029 A 
ATOM     51  C   UNL A   1      46.220  26.639  26.472  1.00  0.00     0.049 A 
ATOM     52  H   UNL A   1      44.553  27.346  27.506  1.00  0.00     0.167 HD
ATOM     53  C   UNL A   1      40.829  28.805  29.296  1.00  0.00     0.034 A 
ATOM     54  C   UNL A   1      47.090  27.663  26.375  1.00  0.00     0.034 A 
ATOM     55  C   UNL A   1      41.754  29.901  29.394  1.00  0.00     0.049 A 
ATOM     56  C   UNL A   1      46.731  28.986  26.996  1.00  0.00     0.074 A 
ATOM     57  C   UNL A   1      41.561  31.138  29.982  1.00  0.00     0.029 A 
ATOM     58  N   UNL A   1      43.044  29.894  28.887  1.00  0.00    -0.354 N 
ATOM     59  N   UNL A   1      45.640  29.328  27.637  1.00  0.00    -0.248 NA
ATOM     60  C   UNL A   1      47.738  30.055  26.915  1.00  0.00     0.031 C 
ATOM     61  C   UNL A   1      42.730  31.887  29.811  1.00  0.00     0.029 A 
ATOM     62  C   UNL A   1      43.658  31.107  29.140  1.00  0.00     0.049 A 
ATOM     63  H   UNL A   1      43.461  29.136  28.416  1.00  0.00     0.167 HD
ATOM     64  C   UNL A   1      45.843  30.634  28.067  1.00  0.00     0.074 A 
ATOM     65  C   UNL A   1      47.170  31.015  27.631  1.00  0.00     0.031 C 
ATOM     66  C   UNL A   1      45.001  31.451  28.748  1.00  0.00     0.034 A 
BRANCH  53  67
ATOM     67  C   UNL A   1      39.438  28.990  29.843  1.00  0.00     0.023 A 
ATOM     68  C   UNL A   1      39.130  28.520  31.136  1.00  0.00     0.012 A 
ATOM     69  C   UNL A   1      38.452  29.671  29.103  1.00  0.00     0.148 A 
ATOM     70  C   UNL A   1      37.855  28.691  31.671  1.00  0.00     0.002 A 
ATOM     71  C   UNL A   1      37.197  29.879  29.661  1.00  0.00     0.091 A 
ATOM     72  F   UNL A   1      38.755  30.091  27.866  1.00  0.00    -0.205 F 
ATOM     73  C   UNL A   1      36.892  29.380  30.938  1.00  0.00     0.022 A 
BRANCH  71  74
ATOM     74  S   UNL A   1      35.913  30.824  28.833  1.00  0.00     0.127 S 
ATOM     75  O   UNL A   1      35.208  29.777  28.094  1.00  0.00    -0.237 OA
ATOM     76  O   UNL A   1      35.166  31.382  29.960  1.00  0.00    -0.237 OA
ATOM     77  O   UNL A   1      36.605  31.810  28.015  1.00  0.00    -0.744 OA
ENDBRANCH  71  74
ENDBRANCH  53  67
BRANCH  54  78
ATOM     78  C   UNL A   1      48.417  27.456  25.726  1.00  0.00     0.023 A 
ATOM     79  C   UNL A   1      49.520  27.083  26.519  1.00  0.00     0.012 A 
ATOM     80  C   UNL A   1      48.587  27.600  24.336  1.00  0.00     0.148 A 
ATOM     81  C   UNL A   1      50.777  26.890  25.944  1.00  0.00     0.002 A 
ATOM     82  C   UNL A   1      49.829  27.352  23.763  1.00  0.00     0.091 A 
ATOM     83  F   UNL A   1      47.527  27.966  23.602  1.00  0.00    -0.205 F 
ATOM     84  C   UNL A   1      50.929  27.015  24.565  1.00  0.00     0.022 A 
BRANCH  82  85
ATOM     85  S   UNL A   1      50.086  27.360  21.984  1.00  0.00     0.127 S 
ATOM     86  O   UNL A   1      50.056  28.789  21.685  1.00  0.00    -0.237 OA
ATOM     87  O   UNL A   1      51.403  26.733  21.867  1.00  0.00    -0.237 OA
ATOM     88  O   UNL A   1      48.996  26.571  21.427  1.00  0.00    -0.744 OA
ENDBRANCH  82  85
ENDBRANCH  54  78
BRANCH  66  89
ATOM     89  C   UNL A   1      45.496  32.828  29.103  1.00  0.00     0.023 A 
ATOM     90  C   UNL A   1      46.126  33.048  30.343  1.00  0.00     0.012 A 
ATOM     91  C   UNL A   1      45.411  33.882  28.172  1.00  0.00     0.148 A 
ATOM     92  C   UNL A   1      46.634  34.305  30.666  1.00  0.00     0.002 A 
ATOM     93  C   UNL A   1      45.965  35.119  28.480  1.00  0.00     0.091 A 
ATOM     94  F   UNL A   1      44.793  33.657  27.004  1.00  0.00    -0.205 F 
ATOM     95  C   UNL A   1      46.566  35.336  29.731  1.00  0.00     0.022 A 
BRANCH  93  96
ATOM     96  S   UNL A   1      46.011  36.472  27.301  1.00  0.00     0.127 S 
ATOM     97  O   UNL A   1      47.043  37.334  27.876  1.00  0.00    -0.237 OA
ATOM     98  O   UNL A   1      46.401  35.795  26.064  1.00  0.00    -0.237 OA
ATOM     99  O   UNL A   1      44.666  37.034  27.282  1.00  0.00    -0.744 OA
ENDBRANCH  93  96
ENDBRANCH  66  89
ENDBRANCH  40  41
ENDBRANCH  32  35
ENDBRANCH  30  31
ENDBRANCH  29  30
ENDBRANCH  28  29
ENDBRANCH   1  28
TORSDOF 22
ENDMDL
MODEL 3
REMARK VINA RESULT:      -9.7      3.685      8.691
REMARK SMILES CC(C)C[C@H](NC(=O)CNC(=O)[C@@H]([NH3+])C(C)C)C(=O)NCCCCNC(=O)c1ccc(-c2c3nc(c(-c4cccc(S(=O)(=O)[O-])c4F)c4ccc([nH]4)c(-c4cccc(S(=O)(=O)[O-])c4F)c4nc(c(-c5cccc(S(=O)(=O)[O-])c5F)c5ccc2[nH]5)C=C4)C=C3)cc1
REMARK SMILES IDX 21 1 20 2 18 3 19 4 5 6 4 7 2 8 1 9 3 10 6 11 7 12 8 14 9 15
REMARK SMILES IDX 10 16 11 17 12 19 13 20 14 21 15 25 16 26 17 27 22 28 23 29
REMARK SMILES IDX 24 30 25 31 26 32 27 34 28 35 29 36 90 37 30 38 89 39 31 40
REMARK SMILES IDX 32 41 33 42 83 43 34 44 88 45 82 46 84 47 35 48 87 49 81 50
REMARK SMILES IDX 80 51 36 53 68 54 48 55 67 56 49 57 52 58 66 59 85 60 50 61
REMARK SMILES IDX 51 62 65 64 86 65 53 66 37 67 38 68 46 69 39 70 41 71 47 72
REMARK SMILES IDX 40 73 42 74 43 75 44 76 45 77 69 78 70 79 78 80 71 81 73 82
REMARK SMILES IDX 79 83 72 84 74 85 75 86 76 87 77 88 54 89 55 90 63 91 56 92
REMARK SMILES IDX 58 93 64 94 57 95 59 96 60 97 61 98 62 99
REMARK H PARENT 20 5 6 13 10 18 14 22 14 23 14 24 25 33 84 52 52 63
REMARK Flexibility Score: inf
ROOT
ATOM      1  C   UNL A   1      32.338  29.606  25.863  1.00  0.00     0.116 C 
ENDROOT
BRANCH   1   2
ATOM      2  N   UNL A   1      31.453  28.464  25.693  1.00  0.00    -0.354 N 
ATOM      3  C   UNL A   1      30.885  27.991  24.539  1.00  0.00     0.242 C 
ATOM      4  O   UNL A   1      30.258  26.933  24.568  1.00  0.00    -0.273 OA
ATOM      5  H   UNL A   1      31.233  27.966  26.513  1.00  0.00     0.163 HD
BRANCH   3   6
ATOM      6  C   UNL A   1      31.089  28.774  23.227  1.00  0.00     0.171 C 
BRANCH   6   7
ATOM      7  C   UNL A   1      29.832  28.680  22.357  1.00  0.00     0.038 C 
BRANCH   7   8
ATOM      8  C   UNL A   1      28.702  29.716  22.527  1.00  0.00    -0.015 C 
ATOM      9  C   UNL A   1      27.402  29.095  23.041  1.00  0.00     0.007 C 
ATOM     10  C   UNL A   1      29.172  30.787  23.523  1.00  0.00     0.007 C 
ENDBRANCH   7   8
ENDBRANCH   6   7
BRANCH   6  11
ATOM     11  N   UNL A   1      32.335  28.221  22.643  1.00  0.00    -0.343 N 
ATOM     12  C   UNL A   1      32.735  27.118  21.973  1.00  0.00     0.240 C 
ATOM     13  H   UNL A   1      33.090  28.837  22.784  1.00  0.00     0.164 HD
ATOM     14  O   UNL A   1      33.918  27.115  21.607  1.00  0.00    -0.273 OA
BRANCH  12  15
ATOM     15  C   UNL A   1      31.829  25.958  21.567  1.00  0.00     0.216 C 
BRANCH  15  16
ATOM     16  N   UNL A   1      32.442  24.647  21.574  1.00  0.00    -0.342 N 
ATOM     17  C   UNL A   1      32.549  23.739  22.584  1.00  0.00     0.278 C 
ATOM     18  H   UNL A   1      32.843  24.369  20.719  1.00  0.00     0.164 HD
ATOM     19  O   UNL A   1      33.123  22.675  22.331  1.00  0.00    -0.268 OA
BRANCH  17  20
ATOM     20  C   UNL A   1      31.968  23.999  23.998  1.00  0.00     0.273 C 
BRANCH  20  21
ATOM     21  N   UNL A   1      30.488  23.912  24.016  1.00  0.00    -0.347 N 
ATOM     22  H   UNL A   1      30.103  24.751  24.447  1.00  0.00     0.345 HD
ATOM     23  H   UNL A   1      30.202  23.092  24.552  1.00  0.00     0.345 HD
ATOM     24  H   UNL A   1      30.140  23.831  23.061  1.00  0.00     0.345 HD
ENDBRANCH  20  21
BRANCH  20  25
ATOM     25  C   UNL A   1      32.656  23.073  25.023  1.00  0.00     0.051 C 
ATOM     26  C   UNL A   1      32.944  23.853  26.315  1.00  0.00     0.014 C 
ATOM     27  C   UNL A   1      31.804  21.847  25.363  1.00  0.00     0.014 C 
ENDBRANCH  20  25
ENDBRANCH  17  20
ENDBRANCH  15  16
ENDBRANCH  12  15
ENDBRANCH   6  11
ENDBRANCH   3   6
ENDBRANCH   1   2
BRANCH   1  28
ATOM     28  C   UNL A   1      33.790  29.192  26.026  1.00  0.00     0.023 C 
BRANCH  28  29
ATOM     29  C   UNL A   1      34.289  29.264  27.463  1.00  0.00     0.023 C 
BRANCH  29  30
ATOM     30  C   UNL A   1      35.219  30.436  27.748  1.00  0.00     0.116 C 
BRANCH  30  31
ATOM     31  N   UNL A   1      34.614  31.435  28.622  1.00  0.00    -0.352 N 
ATOM     32  C   UNL A   1      35.061  31.876  29.845  1.00  0.00     0.251 C 
ATOM     33  H   UNL A   1      33.780  31.845  28.296  1.00  0.00     0.163 HD
ATOM     34  O   UNL A   1      34.365  32.603  30.546  1.00  0.00    -0.269 OA
BRANCH  32  35
ATOM     35  C   UNL A   1      36.388  31.428  30.302  1.00  0.00     0.039 A 
ATOM     36  C   UNL A   1      36.482  30.319  31.143  1.00  0.00     0.014 A 
ATOM     37  C   UNL A   1      37.535  32.053  29.805  1.00  0.00     0.014 A 
ATOM     38  C   UNL A   1      37.739  29.788  31.430  1.00  0.00     0.010 A 
ATOM     39  C   UNL A   1      38.775  31.467  30.018  1.00  0.00     0.010 A 
ATOM     40  C   UNL A   1      38.892  30.333  30.838  1.00  0.00    -0.014 A 
BRANCH  40  41
ATOM     41  C   UNL A   1      40.232  29.735  31.057  1.00  0.00     0.031 A 
ATOM     42  C   UNL A   1      41.117  30.264  32.152  1.00  0.00     0.074 A 
ATOM     43  C   UNL A   1      40.687  28.786  30.215  1.00  0.00     0.049 A 
ATOM     44  N   UNL A   1      42.338  29.919  32.462  1.00  0.00    -0.248 NA
ATOM     45  C   UNL A   1      40.571  31.347  32.988  1.00  0.00     0.031 C 
ATOM     46  C   UNL A   1      39.958  28.256  29.060  1.00  0.00     0.029 A 
ATOM     47  N   UNL A   1      41.886  28.118  30.183  1.00  0.00    -0.354 N 
ATOM     48  C   UNL A   1      42.720  30.765  33.496  1.00  0.00     0.074 A 
ATOM     49  C   UNL A   1      41.617  31.668  33.735  1.00  0.00     0.031 C 
ATOM     50  C   UNL A   1      40.720  27.339  28.441  1.00  0.00     0.029 A 
ATOM     51  C   UNL A   1      42.000  27.236  29.134  1.00  0.00     0.049 A 
ATOM     52  H   UNL A   1      42.597  28.257  30.850  1.00  0.00     0.167 HD
ATOM     53  C   UNL A   1      43.871  30.769  34.208  1.00  0.00     0.034 A 
ATOM     54  C   UNL A   1      43.022  26.438  28.771  1.00  0.00     0.034 A 
ATOM     55  C   UNL A   1      44.942  29.834  34.003  1.00  0.00     0.049 A 
ATOM     56  C   UNL A   1      44.270  26.423  29.613  1.00  0.00     0.074 A 
ATOM     57  C   UNL A   1      46.107  29.689  34.735  1.00  0.00     0.029 A 
ATOM     58  N   UNL A   1      44.984  28.888  32.990  1.00  0.00    -0.354 N 
ATOM     59  N   UNL A   1      44.545  27.114  30.692  1.00  0.00    -0.248 NA
ATOM     60  C   UNL A   1      45.335  25.492  29.210  1.00  0.00     0.031 C 
ATOM     61  C   UNL A   1      46.863  28.667  34.149  1.00  0.00     0.029 A 
ATOM     62  C   UNL A   1      46.158  28.160  33.071  1.00  0.00     0.049 A 
ATOM     63  H   UNL A   1      44.281  28.755  32.314  1.00  0.00     0.167 HD
ATOM     64  C   UNL A   1      45.793  26.676  31.119  1.00  0.00     0.074 A 
ATOM     65  C   UNL A   1      46.212  25.645  30.191  1.00  0.00     0.031 C 
ATOM     66  C   UNL A   1      46.534  27.099  32.173  1.00  0.00     0.034 A 
BRANCH  53  67
ATOM     67  C   UNL A   1      44.003  31.779  35.317  1.00  0.00     0.023 A 
ATOM     68  C   UNL A   1      44.560  33.044  35.043  1.00  0.00     0.012 A 
ATOM     69  C   UNL A   1      43.532  31.497  36.614  1.00  0.00     0.148 A 
ATOM     70  C   UNL A   1      44.681  34.002  36.049  1.00  0.00     0.002 A 
ATOM     71  C   UNL A   1      43.613  32.473  37.601  1.00  0.00     0.091 A 
ATOM     72  F   UNL A   1      43.027  30.280  36.863  1.00  0.00    -0.205 F 
ATOM     73  C   UNL A   1      44.198  33.720  37.323  1.00  0.00     0.022 A 
BRANCH  71  74
ATOM     74  S   UNL A   1      42.948  32.238  39.252  1.00  0.00     0.127 S 
ATOM     75  O   UNL A   1      43.817  31.184  39.774  1.00  0.00    -0.237 OA
ATOM     76  O   UNL A   1      43.156  33.554  39.858  1.00  0.00    -0.237 OA
ATOM     77  O   UNL A   1      41.552  31.867  39.073  1.00  0.00    -0.744 OA
ENDBRANCH  71  74
ENDBRANCH  53  67
BRANCH  54  78
ATOM     78  C   UNL A   1      42.881  25.531  27.596  1.00  0.00     0.023 A 
ATOM     79  C   UNL A   1      43.373  25.944  26.343  1.00  0.00     0.012 A 
ATOM     80  C   UNL A   1      42.288  24.259  27.715  1.00  0.00     0.148 A 
ATOM     81  C   UNL A   1      43.248  25.123  25.222  1.00  0.00     0.002 A 
ATOM     82  C   UNL A   1      42.217  23.423  26.607  1.00  0.00     0.091 A 
ATOM     83  F   UNL A   1      41.816  23.888  28.914  1.00  0.00    -0.205 F 
ATOM     84  C   UNL A   1      42.680  23.859  25.356  1.00  0.00     0.022 A 
BRANCH  82  85
ATOM     85  S   UNL A   1      41.621  21.731  26.714  1.00  0.00     0.127 S 
ATOM     86  O   UNL A   1      40.176  21.927  26.773  1.00  0.00    -0.237 OA
ATOM     87  O   UNL A   1      42.116  21.157  25.462  1.00  0.00    -0.237 OA
ATOM     88  O   UNL A   1      42.236  21.175  27.912  1.00  0.00    -0.744 OA
ENDBRANCH  82  85
ENDBRANCH  54  78
BRANCH  66  89
ATOM     89  C   UNL A   1      47.860  26.426  32.412  1.00  0.00     0.023 A 
ATOM     90  C   UNL A   1      47.935  25.310  33.269  1.00  0.00     0.012 A 
ATOM     91  C   UNL A   1      49.013  26.848  31.722  1.00  0.00     0.148 A 
ATOM     92  C   UNL A   1      49.145  24.646  33.461  1.00  0.00     0.002 A 
ATOM     93  C   UNL A   1      50.204  26.150  31.879  1.00  0.00     0.091 A 
ATOM     94  F   UNL A   1      48.925  27.922  30.924  1.00  0.00    -0.205 F 
ATOM     95  C   UNL A   1      50.275  25.056  32.758  1.00  0.00     0.022 A 
BRANCH  93  96
ATOM     96  S   UNL A   1      51.682  26.546  30.941  1.00  0.00     0.127 S 
ATOM     97  O   UNL A   1      51.980  27.898  31.410  1.00  0.00    -0.237 OA
ATOM     98  O   UNL A   1      52.624  25.522  31.395  1.00  0.00    -0.237 OA
ATOM     99  O   UNL A   1      51.307  26.440  29.537  1.00  0.00    -0.744 OA
ENDBRANCH  93  96
ENDBRANCH  66  89
ENDBRANCH  40  41
ENDBRANCH  32  35
ENDBRANCH  30  31
ENDBRANCH  29  30
ENDBRANCH  28  29
ENDBRANCH   1  28
TORSDOF 22
ENDMDL
