MODEL 1
REMARK VINA RESULT:     -11.4      0.000      0.000
REMARK SMILES C[C@@H]1C[C@@]([NH2+]Cc2cccs2)(C(=O)NCCCCNC(=O)c2ccc(-c3c4nc(c(-c5cccc(S(=O)(=O)[O-])c5F)c5ccc([nH]5)c(-c5cccc(S(=O)(=O)[O-])c5F)c5nc(c(-c6cccc(S(=O)(=O)[O-])c6F)c6ccc3[nH]6)C=C5)C=C4)cc2)CS1
REMARK SMILES IDX 16 1 15 2 14 3 12 4 13 5 4 7 1 8 2 9 3 10 86 11 85 12 5 13
REMARK SMILES IDX 6 16 7 17 8 18 11 19 9 20 10 21 17 22 18 23 19 24 20 25
REMARK SMILES IDX 21 27 22 28 23 29 84 30 24 31 83 32 25 33 26 34 27 35 77 36
REMARK SMILES IDX 28 37 82 38 76 39 78 40 29 41 81 42 75 43 74 44 30 46 62 47
REMARK SMILES IDX 42 48 61 49 43 50 46 51 60 52 79 53 44 54 45 55 59 57 80 58
REMARK SMILES IDX 47 59 31 60 32 61 40 62 33 63 35 64 41 65 34 66 36 67 37 68
REMARK SMILES IDX 38 69 39 70 63 71 64 72 72 73 65 74 67 75 73 76 66 77 68 78
REMARK SMILES IDX 69 79 70 80 71 81 48 82 49 83 57 84 50 85 52 86 58 87 51 88
REMARK SMILES IDX 53 89 54 90 55 91 56 92
REMARK H PARENT 14 6 5 14 5 15 19 26 78 45 46 56
REMARK Flexibility Score: inf
ROOT
ATOM      1  C   UNL A   1      31.829  29.690  26.968  1.00  0.00     0.023 C 
ENDROOT
BRANCH   1   2
ATOM      2  C   UNL A   1      31.977  28.740  25.780  1.00  0.00     0.116 C 
BRANCH   2   3
ATOM      3  N   UNL A   1      33.056  29.139  24.896  1.00  0.00    -0.351 N 
ATOM      4  C   UNL A   1      33.346  28.762  23.618  1.00  0.00     0.282 C 
ATOM      5  O   UNL A   1      34.308  29.319  23.080  1.00  0.00    -0.268 OA
ATOM      6  H   UNL A   1      33.683  29.790  25.284  1.00  0.00     0.163 HD
BRANCH   4   7
ATOM      7  C   UNL A   1      32.484  27.718  22.852  1.00  0.00     0.185 C 
ATOM      8  C   UNL A   1      30.688  24.449  23.759  1.00  0.00     0.019 C 
ATOM      9  C   UNL A   1      31.921  25.301  23.524  1.00  0.00     0.050 C 
ATOM     10  C   UNL A   1      31.719  26.788  23.854  1.00  0.00     0.094 C 
ATOM     11  S   UNL A   1      32.446  25.286  21.802  1.00  0.00    -0.151 SA
ATOM     12  C   UNL A   1      33.431  26.779  22.066  1.00  0.00     0.148 C 
BRANCH   7  13
ATOM     13  N   UNL A   1      31.452  28.412  22.012  1.00  0.00    -0.328 N 
ATOM     14  H   UNL A   1      31.499  28.016  21.074  1.00  0.00     0.347 HD
ATOM     15  H   UNL A   1      31.683  29.403  22.070  1.00  0.00     0.347 HD
BRANCH  13  16
ATOM     16  C   UNL A   1      30.055  28.315  22.467  1.00  0.00     0.309 C 
BRANCH  16  17
ATOM     17  C   UNL A   1      29.407  29.649  22.709  1.00  0.00     0.059 A 
ATOM     18  C   UNL A   1      29.648  30.569  23.714  1.00  0.00     0.021 A 
ATOM     19  S   UNL A   1      28.174  30.202  21.648  1.00  0.00    -0.143 S 
ATOM     20  C   UNL A   1      28.723  31.652  23.692  1.00  0.00     0.012 A 
ATOM     21  C   UNL A   1      27.859  31.569  22.624  1.00  0.00     0.065 A 
ENDBRANCH  16  17
ENDBRANCH  13  16
ENDBRANCH   7  13
ENDBRANCH   4   7
ENDBRANCH   2   3
ENDBRANCH   1   2
BRANCH   1  22
ATOM     22  C   UNL A   1      31.840  31.178  26.611  1.00  0.00     0.023 C 
BRANCH  22  23
ATOM     23  C   UNL A   1      32.940  31.999  27.277  1.00  0.00     0.116 C 
BRANCH  23  24
ATOM     24  N   UNL A   1      32.566  33.393  27.468  1.00  0.00    -0.352 N 
ATOM     25  C   UNL A   1      33.072  34.320  28.352  1.00  0.00     0.251 C 
ATOM     26  H   UNL A   1      31.848  33.721  26.879  1.00  0.00     0.163 HD
ATOM     27  O   UNL A   1      32.540  35.410  28.472  1.00  0.00    -0.269 OA
BRANCH  25  28
ATOM     28  C   UNL A   1      34.249  33.965  29.180  1.00  0.00     0.039 A 
ATOM     29  C   UNL A   1      34.053  33.224  30.347  1.00  0.00     0.014 A 
ATOM     30  C   UNL A   1      35.538  34.333  28.784  1.00  0.00     0.014 A 
ATOM     31  C   UNL A   1      35.159  32.773  31.072  1.00  0.00     0.010 A 
ATOM     32  C   UNL A   1      36.639  33.826  29.471  1.00  0.00     0.010 A 
ATOM     33  C   UNL A   1      36.460  33.029  30.612  1.00  0.00    -0.014 A 
BRANCH  33  34
ATOM     34  C   UNL A   1      37.646  32.421  31.269  1.00  0.00     0.031 A 
ATOM     35  C   UNL A   1      38.371  31.270  30.629  1.00  0.00     0.074 A 
ATOM     36  C   UNL A   1      37.998  32.835  32.503  1.00  0.00     0.049 A 
ATOM     37  N   UNL A   1      39.372  30.568  31.093  1.00  0.00    -0.248 NA
ATOM     38  C   UNL A   1      37.895  30.834  29.307  1.00  0.00     0.031 C 
ATOM     39  C   UNL A   1      37.320  33.885  33.268  1.00  0.00     0.029 A 
ATOM     40  N   UNL A   1      38.991  32.402  33.347  1.00  0.00    -0.354 N 
ATOM     41  C   UNL A   1      39.623  29.588  30.142  1.00  0.00     0.074 A 
ATOM     42  C   UNL A   1      38.652  29.769  29.084  1.00  0.00     0.031 C 
ATOM     43  C   UNL A   1      37.910  34.008  34.467  1.00  0.00     0.029 A 
ATOM     44  C   UNL A   1      38.986  33.029  34.572  1.00  0.00     0.049 A 
ATOM     45  H   UNL A   1      39.643  31.707  33.100  1.00  0.00     0.167 HD
ATOM     46  C   UNL A   1      40.591  28.640  30.136  1.00  0.00     0.034 A 
ATOM     47  C   UNL A   1      39.749  32.829  35.664  1.00  0.00     0.034 A 
ATOM     48  C   UNL A   1      41.579  28.488  31.170  1.00  0.00     0.049 A 
ATOM     49  C   UNL A   1      40.836  31.790  35.618  1.00  0.00     0.074 A 
ATOM     50  C   UNL A   1      42.665  27.630  31.203  1.00  0.00     0.029 A 
ATOM     51  N   UNL A   1      41.597  29.198  32.360  1.00  0.00    -0.354 N 
ATOM     52  N   UNL A   1      41.174  30.994  34.633  1.00  0.00    -0.248 NA
ATOM     53  C   UNL A   1      41.667  31.641  36.823  1.00  0.00     0.031 C 
ATOM     54  C   UNL A   1      43.323  27.802  32.425  1.00  0.00     0.029 A 
ATOM     55  C   UNL A   1      42.662  28.785  33.144  1.00  0.00     0.049 A 
ATOM     56  H   UNL A   1      40.949  29.895  32.612  1.00  0.00     0.167 HD
ATOM     57  C   UNL A   1      42.271  30.270  35.088  1.00  0.00     0.074 A 
ATOM     58  C   UNL A   1      42.557  30.741  36.427  1.00  0.00     0.031 C 
ATOM     59  C   UNL A   1      42.966  29.290  34.457  1.00  0.00     0.034 A 
BRANCH  46  60
ATOM     60  C   UNL A   1      40.665  27.721  28.945  1.00  0.00     0.023 A 
ATOM     61  C   UNL A   1      39.728  26.676  28.816  1.00  0.00     0.012 A 
ATOM     62  C   UNL A   1      41.613  27.929  27.924  1.00  0.00     0.148 A 
ATOM     63  C   UNL A   1      39.752  25.833  27.706  1.00  0.00     0.002 A 
ATOM     64  C   UNL A   1      41.603  27.111  26.800  1.00  0.00     0.091 A 
ATOM     65  F   UNL A   1      42.509  28.914  28.074  1.00  0.00    -0.205 F 
ATOM     66  C   UNL A   1      40.682  26.057  26.695  1.00  0.00     0.022 A 
BRANCH  64  67
ATOM     67  S   UNL A   1      42.710  27.366  25.407  1.00  0.00     0.127 S 
ATOM     68  O   UNL A   1      42.533  26.121  24.660  1.00  0.00    -0.237 OA
ATOM     69  O   UNL A   1      42.132  28.549  24.767  1.00  0.00    -0.237 OA
ATOM     70  O   UNL A   1      44.033  27.570  25.979  1.00  0.00    -0.744 OA
ENDBRANCH  64  67
ENDBRANCH  46  60
BRANCH  47  71
ATOM     71  C   UNL A   1      39.545  33.672  36.877  1.00  0.00     0.023 A 
ATOM     72  C   UNL A   1      39.992  35.007  36.874  1.00  0.00     0.012 A 
ATOM     73  C   UNL A   1      38.878  33.172  38.013  1.00  0.00     0.148 A 
ATOM     74  C   UNL A   1      39.805  35.821  37.991  1.00  0.00     0.002 A 
ATOM     75  C   UNL A   1      38.645  34.006  39.100  1.00  0.00     0.091 A 
ATOM     76  F   UNL A   1      38.473  31.894  38.001  1.00  0.00    -0.205 F 
ATOM     77  C   UNL A   1      39.122  35.325  39.099  1.00  0.00     0.022 A 
BRANCH  75  78
ATOM     78  S   UNL A   1      37.655  33.493  40.509  1.00  0.00     0.127 S 
ATOM     79  O   UNL A   1      38.449  32.393  41.049  1.00  0.00    -0.237 OA
ATOM     80  O   UNL A   1      37.645  34.706  41.329  1.00  0.00    -0.237 OA
ATOM     81  O   UNL A   1      36.354  33.130  39.962  1.00  0.00    -0.744 OA
ENDBRANCH  75  78
ENDBRANCH  47  71
BRANCH  59  82
ATOM     82  C   UNL A   1      44.119  28.664  35.199  1.00  0.00     0.023 A 
ATOM     83  C   UNL A   1      45.425  29.147  34.989  1.00  0.00     0.012 A 
ATOM     84  C   UNL A   1      43.899  27.656  36.158  1.00  0.00     0.148 A 
ATOM     85  C   UNL A   1      46.500  28.616  35.702  1.00  0.00     0.002 A 
ATOM     86  C   UNL A   1      44.967  27.166  36.898  1.00  0.00     0.091 A 
ATOM     87  F   UNL A   1      42.650  27.198  36.329  1.00  0.00    -0.205 F 
ATOM     88  C   UNL A   1      46.270  27.636  36.664  1.00  0.00     0.022 A 
BRANCH  86  89
ATOM     89  S   UNL A   1      44.756  25.969  38.221  1.00  0.00     0.127 S 
ATOM     90  O   UNL A   1      45.961  26.189  39.019  1.00  0.00    -0.237 OA
ATOM     91  O   UNL A   1      43.516  26.423  38.853  1.00  0.00    -0.237 OA
ATOM     92  O   UNL A   1      44.664  24.666  37.576  1.00  0.00    -0.744 OA
ENDBRANCH  86  89
ENDBRANCH  59  82
ENDBRANCH  33  34
ENDBRANCH  25  28
ENDBRANCH  23  24
ENDBRANCH  22  23
ENDBRANCH   1  22
TORSDOF 17
ENDMDL
MODEL 2
REMARK VINA RESULT:     -11.3      5.979     10.980
REMARK SMILES C[C@@H]1C[C@@]([NH2+]Cc2cccs2)(C(=O)NCCCCNC(=O)c2ccc(-c3c4nc(c(-c5cccc(S(=O)(=O)[O-])c5F)c5ccc([nH]5)c(-c5cccc(S(=O)(=O)[O-])c5F)c5nc(c(-c6cccc(S(=O)(=O)[O-])c6F)c6ccc3[nH]6)C=C5)C=C4)cc2)CS1
REMARK SMILES IDX 16 1 15 2 14 3 12 4 13 5 4 7 1 8 2 9 3 10 86 11 85 12 5 13
REMARK SMILES IDX 6 16 7 17 8 18 11 19 9 20 10 21 17 22 18 23 19 24 20 25
REMARK SMILES IDX 21 27 22 28 23 29 84 30 24 31 83 32 25 33 26 34 27 35 77 36
REMARK SMILES IDX 28 37 82 38 76 39 78 40 29 41 81 42 75 43 74 44 30 46 62 47
REMARK SMILES IDX 42 48 61 49 43 50 46 51 60 52 79 53 44 54 45 55 59 57 80 58
REMARK SMILES IDX 47 59 31 60 32 61 40 62 33 63 35 64 41 65 34 66 36 67 37 68
REMARK SMILES IDX 38 69 39 70 63 71 64 72 72 73 65 74 67 75 73 76 66 77 68 78
REMARK SMILES IDX 69 79 70 80 71 81 48 82 49 83 57 84 50 85 52 86 58 87 51 88
REMARK SMILES IDX 53 89 54 90 55 91 56 92
REMARK H PARENT 14 6 5 14 5 15 19 26 78 45 46 56
REMARK Flexibility Score: inf
ROOT
ATOM      1  C   UNL A   1      35.295  22.427  25.885  1.00  0.00     0.023 C 
ENDROOT
BRANCH   1   2
ATOM      2  C   UNL A   1      33.910  22.594  25.261  1.00  0.00     0.116 C 
BRANCH   2   3
ATOM      3  N   UNL A   1      33.978  22.759  23.822  1.00  0.00    -0.351 N 
ATOM      4  C   UNL A   1      33.557  23.779  23.021  1.00  0.00     0.282 C 
ATOM      5  O   UNL A   1      33.804  23.676  21.815  1.00  0.00    -0.268 OA
ATOM      6  H   UNL A   1      34.399  22.009  23.343  1.00  0.00     0.163 HD
BRANCH   4   7
ATOM      7  C   UNL A   1      32.842  25.035  23.595  1.00  0.00     0.185 C 
ATOM      8  C   UNL A   1      29.763  25.672  25.798  1.00  0.00     0.019 C 
ATOM      9  C   UNL A   1      30.450  25.238  24.516  1.00  0.00     0.050 C 
ATOM     10  C   UNL A   1      31.845  24.634  24.735  1.00  0.00     0.094 C 
ATOM     11  S   UNL A   1      30.723  26.613  23.386  1.00  0.00    -0.151 SA
ATOM     12  C   UNL A   1      31.960  25.653  22.483  1.00  0.00     0.148 C 
BRANCH   7  13
ATOM     13  N   UNL A   1      33.846  25.977  24.193  1.00  0.00    -0.328 N 
ATOM     14  H   UNL A   1      33.739  26.878  23.730  1.00  0.00     0.347 HD
ATOM     15  H   UNL A   1      34.751  25.528  24.051  1.00  0.00     0.347 HD
BRANCH  13  16
ATOM     16  C   UNL A   1      33.755  26.207  25.643  1.00  0.00     0.309 C 
BRANCH  16  17
ATOM     17  C   UNL A   1      33.254  27.578  26.005  1.00  0.00     0.059 A 
ATOM     18  C   UNL A   1      32.622  28.002  27.160  1.00  0.00     0.021 A 
ATOM     19  S   UNL A   1      33.438  28.873  24.891  1.00  0.00    -0.143 S 
ATOM     20  C   UNL A   1      32.163  29.347  27.067  1.00  0.00     0.012 A 
ATOM     21  C   UNL A   1      32.532  29.934  25.878  1.00  0.00     0.065 A 
ENDBRANCH  16  17
ENDBRANCH  13  16
ENDBRANCH   7  13
ENDBRANCH   4   7
ENDBRANCH   2   3
ENDBRANCH   1   2
BRANCH   1  22
ATOM     22  C   UNL A   1      36.068  21.191  25.420  1.00  0.00     0.023 C 
BRANCH  22  23
ATOM     23  C   UNL A   1      37.507  21.448  24.986  1.00  0.00     0.116 C 
BRANCH  23  24
ATOM     24  N   UNL A   1      38.422  20.402  25.419  1.00  0.00    -0.352 N 
ATOM     25  C   UNL A   1      39.600  20.509  26.125  1.00  0.00     0.251 C 
ATOM     26  H   UNL A   1      38.162  19.485  25.172  1.00  0.00     0.163 HD
ATOM     27  O   UNL A   1      40.316  19.535  26.280  1.00  0.00    -0.269 OA
BRANCH  25  28
ATOM     28  C   UNL A   1      40.004  21.829  26.666  1.00  0.00     0.039 A 
ATOM     29  C   UNL A   1      40.971  21.876  27.673  1.00  0.00     0.014 A 
ATOM     30  C   UNL A   1      39.458  23.008  26.155  1.00  0.00     0.014 A 
ATOM     31  C   UNL A   1      41.455  23.112  28.107  1.00  0.00     0.010 A 
ATOM     32  C   UNL A   1      39.990  24.236  26.540  1.00  0.00     0.010 A 
ATOM     33  C   UNL A   1      41.004  24.300  27.509  1.00  0.00    -0.014 A 
BRANCH  33  34
ATOM     34  C   UNL A   1      41.623  25.612  27.831  1.00  0.00     0.031 A 
ATOM     35  C   UNL A   1      40.830  26.682  28.529  1.00  0.00     0.074 A 
ATOM     36  C   UNL A   1      42.869  25.877  27.390  1.00  0.00     0.049 A 
ATOM     37  N   UNL A   1      41.181  27.908  28.819  1.00  0.00    -0.248 NA
ATOM     38  C   UNL A   1      39.457  26.340  28.931  1.00  0.00     0.031 C 
ATOM     39  C   UNL A   1      43.709  24.953  26.625  1.00  0.00     0.029 A 
ATOM     40  N   UNL A   1      43.634  27.013  27.488  1.00  0.00    -0.354 N 
ATOM     41  C   UNL A   1      40.066  28.494  29.403  1.00  0.00     0.074 A 
ATOM     42  C   UNL A   1      39.017  27.498  29.403  1.00  0.00     0.031 C 
ATOM     43  C   UNL A   1      44.866  25.559  26.318  1.00  0.00     0.029 A 
ATOM     44  C   UNL A   1      44.841  26.923  26.834  1.00  0.00     0.049 A 
ATOM     45  H   UNL A   1      43.345  27.817  27.978  1.00  0.00     0.167 HD
ATOM     46  C   UNL A   1      39.934  29.742  29.916  1.00  0.00     0.034 A 
ATOM     47  C   UNL A   1      45.813  27.839  26.654  1.00  0.00     0.034 A 
ATOM     48  C   UNL A   1      40.991  30.717  29.950  1.00  0.00     0.049 A 
ATOM     49  C   UNL A   1      45.653  29.206  27.262  1.00  0.00     0.074 A 
ATOM     50  C   UNL A   1      40.990  31.966  30.545  1.00  0.00     0.029 A 
ATOM     51  N   UNL A   1      42.233  30.562  29.353  1.00  0.00    -0.354 N 
ATOM     52  N   UNL A   1      44.659  29.681  27.971  1.00  0.00    -0.248 NA
ATOM     53  C   UNL A   1      46.762  30.154  27.071  1.00  0.00     0.031 C 
ATOM     54  C   UNL A   1      42.220  32.577  30.284  1.00  0.00     0.029 A 
ATOM     55  C   UNL A   1      42.999  31.699  29.548  1.00  0.00     0.049 A 
ATOM     56  H   UNL A   1      42.528  29.760  28.864  1.00  0.00     0.167 HD
ATOM     57  C   UNL A   1      45.031  30.971  28.333  1.00  0.00     0.074 A 
ATOM     58  C   UNL A   1      46.354  31.193  27.788  1.00  0.00     0.031 C 
ATOM     59  C   UNL A   1      44.332  31.894  29.039  1.00  0.00     0.034 A 
BRANCH  46  60
ATOM     60  C   UNL A   1      38.612  30.109  30.537  1.00  0.00     0.023 A 
ATOM     61  C   UNL A   1      38.350  29.748  31.874  1.00  0.00     0.012 A 
ATOM     62  C   UNL A   1      37.659  30.864  29.825  1.00  0.00     0.148 A 
ATOM     63  C   UNL A   1      37.148  30.106  32.484  1.00  0.00     0.002 A 
ATOM     64  C   UNL A   1      36.482  31.252  30.453  1.00  0.00     0.091 A 
ATOM     65  F   UNL A   1      37.917  31.178  28.547  1.00  0.00    -0.205 F 
ATOM     66  C   UNL A   1      36.220  30.866  31.777  1.00  0.00     0.022 A 
BRANCH  64  67
ATOM     67  S   UNL A   1      35.257  32.298  29.654  1.00  0.00     0.127 S 
ATOM     68  O   UNL A   1      34.743  31.406  28.615  1.00  0.00    -0.237 OA
ATOM     69  O   UNL A   1      34.321  32.565  30.747  1.00  0.00    -0.237 OA
ATOM     70  O   UNL A   1      35.980  33.466  29.175  1.00  0.00    -0.744 OA
ENDBRANCH  64  67
ENDBRANCH  46  60
BRANCH  47  71
ATOM     71  C   UNL A   1      47.050  27.472  25.908  1.00  0.00     0.023 A 
ATOM     72  C   UNL A   1      48.078  26.776  26.573  1.00  0.00     0.012 A 
ATOM     73  C   UNL A   1      47.196  27.771  24.539  1.00  0.00     0.148 A 
ATOM     74  C   UNL A   1      49.242  26.412  25.896  1.00  0.00     0.002 A 
ATOM     75  C   UNL A   1      48.333  27.354  23.858  1.00  0.00     0.091 A 
ATOM     76  F   UNL A   1      46.212  28.446  23.927  1.00  0.00    -0.205 F 
ATOM     77  C   UNL A   1      49.365  26.689  24.537  1.00  0.00     0.022 A 
BRANCH  75  78
ATOM     78  S   UNL A   1      48.514  27.547  22.080  1.00  0.00     0.127 S 
ATOM     79  O   UNL A   1      49.688  28.410  21.991  1.00  0.00    -0.237 OA
ATOM     80  O   UNL A   1      48.730  26.166  21.647  1.00  0.00    -0.237 OA
ATOM     81  O   UNL A   1      47.260  28.129  21.620  1.00  0.00    -0.744 OA
ENDBRANCH  75  78
ENDBRANCH  47  71
BRANCH  59  82
ATOM     82  C   UNL A   1      44.983  33.231  29.279  1.00  0.00     0.023 A 
ATOM     83  C   UNL A   1      45.787  33.418  30.421  1.00  0.00     0.012 A 
ATOM     84  C   UNL A   1      44.865  34.273  28.339  1.00  0.00     0.148 A 
ATOM     85  C   UNL A   1      46.441  34.631  30.636  1.00  0.00     0.002 A 
ATOM     86  C   UNL A   1      45.557  35.461  28.536  1.00  0.00     0.091 A 
ATOM     87  F   UNL A   1      44.080  34.081  27.268  1.00  0.00    -0.205 F 
ATOM     88  C   UNL A   1      46.336  35.647  29.690  1.00  0.00     0.022 A 
BRANCH  86  89
ATOM     89  S   UNL A   1      45.556  36.790  27.328  1.00  0.00     0.127 S 
ATOM     90  O   UNL A   1      46.398  37.790  27.983  1.00  0.00    -0.237 OA
ATOM     91  O   UNL A   1      46.167  36.149  26.162  1.00  0.00    -0.237 OA
ATOM     92  O   UNL A   1      44.162  37.171  27.148  1.00  0.00    -0.744 OA
ENDBRANCH  86  89
ENDBRANCH  59  82
ENDBRANCH  33  34
ENDBRANCH  25  28
ENDBRANCH  23  24
ENDBRANCH  22  23
ENDBRANCH   1  22
TORSDOF 17
ENDMDL
MODEL 3
REMARK VINA RESULT:     -11.3      2.651      3.476
REMARK SMILES C[C@@H]1C[C@@]([NH2+]Cc2cccs2)(C(=O)NCCCCNC(=O)c2ccc(-c3c4nc(c(-c5cccc(S(=O)(=O)[O-])c5F)c5ccc([nH]5)c(-c5cccc(S(=O)(=O)[O-])c5F)c5nc(c(-c6cccc(S(=O)(=O)[O-])c6F)c6ccc3[nH]6)C=C5)C=C4)cc2)CS1
REMARK SMILES IDX 16 1 15 2 14 3 12 4 13 5 4 7 1 8 2 9 3 10 86 11 85 12 5 13
REMARK SMILES IDX 6 16 7 17 8 18 11 19 9 20 10 21 17 22 18 23 19 24 20 25
REMARK SMILES IDX 21 27 22 28 23 29 84 30 24 31 83 32 25 33 26 34 27 35 77 36
REMARK SMILES IDX 28 37 82 38 76 39 78 40 29 41 81 42 75 43 74 44 30 46 62 47
REMARK SMILES IDX 42 48 61 49 43 50 46 51 60 52 79 53 44 54 45 55 59 57 80 58
REMARK SMILES IDX 47 59 31 60 32 61 40 62 33 63 35 64 41 65 34 66 36 67 37 68
REMARK SMILES IDX 38 69 39 70 63 71 64 72 72 73 65 74 67 75 73 76 66 77 68 78
REMARK SMILES IDX 69 79 70 80 71 81 48 82 49 83 57 84 50 85 52 86 58 87 51 88
REMARK SMILES IDX 53 89 54 90 55 91 56 92
REMARK H PARENT 14 6 5 14 5 15 19 26 78 45 46 56
REMARK Flexibility Score: inf
ROOT
ATOM      1  C   UNL A   1      31.356  27.751  26.245  1.00  0.00     0.023 C 
ENDROOT
BRANCH   1   2
ATOM      2  C   UNL A   1      32.140  26.451  26.423  1.00  0.00     0.116 C 
BRANCH   2   3
ATOM      3  N   UNL A   1      31.306  25.380  26.935  1.00  0.00    -0.351 N 
ATOM      4  C   UNL A   1      31.260  24.055  26.614  1.00  0.00     0.282 C 
ATOM      5  O   UNL A   1      30.480  23.353  27.265  1.00  0.00    -0.268 OA
ATOM      6  H   UNL A   1      30.666  25.655  27.630  1.00  0.00     0.163 HD
BRANCH   4   7
ATOM      7  C   UNL A   1      32.174  23.443  25.516  1.00  0.00     0.185 C 
ATOM      8  C   UNL A   1      32.949  19.903  24.249  1.00  0.00     0.019 C 
ATOM      9  C   UNL A   1      32.993  21.017  25.278  1.00  0.00     0.050 C 
ATOM     10  C   UNL A   1      31.777  21.955  25.228  1.00  0.00     0.094 C 
ATOM     11  S   UNL A   1      34.412  22.101  25.053  1.00  0.00    -0.151 SA
ATOM     12  C   UNL A   1      33.623  23.380  26.058  1.00  0.00     0.148 C 
BRANCH   7  13
ATOM     13  N   UNL A   1      32.021  24.201  24.229  1.00  0.00    -0.328 N 
ATOM     14  H   UNL A   1      32.609  23.748  23.531  1.00  0.00     0.347 HD
ATOM     15  H   UNL A   1      32.284  25.161  24.452  1.00  0.00     0.347 HD
BRANCH  13  16
ATOM     16  C   UNL A   1      30.661  24.293  23.674  1.00  0.00     0.309 C 
BRANCH  16  17
ATOM     17  C   UNL A   1      30.172  25.705  23.512  1.00  0.00     0.059 A 
ATOM     18  C   UNL A   1      29.012  26.289  23.989  1.00  0.00     0.021 A 
ATOM     19  S   UNL A   1      31.109  26.834  22.618  1.00  0.00    -0.143 S 
ATOM     20  C   UNL A   1      28.828  27.613  23.498  1.00  0.00     0.012 A 
ATOM     21  C   UNL A   1      29.893  28.029  22.730  1.00  0.00     0.065 A 
ENDBRANCH  16  17
ENDBRANCH  13  16
ENDBRANCH   7  13
ENDBRANCH   4   7
ENDBRANCH   2   3
ENDBRANCH   1   2
BRANCH   1  22
ATOM     22  C   UNL A   1      31.944  28.964  26.968  1.00  0.00     0.023 C 
BRANCH  22  23
ATOM     23  C   UNL A   1      32.669  29.966  26.075  1.00  0.00     0.116 C 
BRANCH  23  24
ATOM     24  N   UNL A   1      32.432  31.347  26.469  1.00  0.00    -0.352 N 
ATOM     25  C   UNL A   1      33.181  32.162  27.289  1.00  0.00     0.251 C 
ATOM     26  H   UNL A   1      31.620  31.759  26.094  1.00  0.00     0.163 HD
ATOM     27  O   UNL A   1      32.756  33.254  27.625  1.00  0.00    -0.269 OA
BRANCH  25  28
ATOM     28  C   UNL A   1      34.492  31.683  27.786  1.00  0.00     0.039 A 
ATOM     29  C   UNL A   1      35.511  32.615  28.003  1.00  0.00     0.014 A 
ATOM     30  C   UNL A   1      34.700  30.331  28.068  1.00  0.00     0.014 A 
ATOM     31  C   UNL A   1      36.710  32.201  28.588  1.00  0.00     0.010 A 
ATOM     32  C   UNL A   1      35.869  29.934  28.712  1.00  0.00     0.010 A 
ATOM     33  C   UNL A   1      36.879  30.867  28.993  1.00  0.00    -0.014 A 
BRANCH  33  34
ATOM     34  C   UNL A   1      38.073  30.439  29.766  1.00  0.00     0.031 A 
ATOM     35  C   UNL A   1      39.029  29.425  29.203  1.00  0.00     0.074 A 
ATOM     36  C   UNL A   1      38.230  30.882  31.030  1.00  0.00     0.049 A 
ATOM     37  N   UNL A   1      40.075  28.879  29.766  1.00  0.00    -0.248 NA
ATOM     38  C   UNL A   1      38.762  28.943  27.838  1.00  0.00     0.031 C 
ATOM     39  C   UNL A   1      37.324  31.801  31.722  1.00  0.00     0.029 A 
ATOM     40  N   UNL A   1      39.188  30.594  31.971  1.00  0.00    -0.354 N 
ATOM     41  C   UNL A   1      40.570  27.966  28.844  1.00  0.00     0.074 A 
ATOM     42  C   UNL A   1      39.694  28.012  27.693  1.00  0.00     0.031 C 
ATOM     43  C   UNL A   1      37.763  31.994  32.976  1.00  0.00     0.029 A 
ATOM     44  C   UNL A   1      38.963  31.192  33.189  1.00  0.00     0.049 A 
ATOM     45  H   UNL A   1      39.962  30.013  31.791  1.00  0.00     0.167 HD
ATOM     46  C   UNL A   1      41.669  27.179  28.936  1.00  0.00     0.034 A 
ATOM     47  C   UNL A   1      39.634  31.094  34.353  1.00  0.00     0.034 A 
ATOM     48  C   UNL A   1      42.560  27.165  30.065  1.00  0.00     0.049 A 
ATOM     49  C   UNL A   1      40.868  30.236  34.418  1.00  0.00     0.074 A 
ATOM     50  C   UNL A   1      43.757  26.484  30.208  1.00  0.00     0.029 A 
ATOM     51  N   UNL A   1      42.348  27.849  31.252  1.00  0.00    -0.354 N 
ATOM     52  N   UNL A   1      41.423  29.519  33.472  1.00  0.00    -0.248 NA
ATOM     53  C   UNL A   1      41.587  30.198  35.701  1.00  0.00     0.031 C 
ATOM     54  C   UNL A   1      44.254  26.736  31.491  1.00  0.00     0.029 A 
ATOM     55  C   UNL A   1      43.379  27.592  32.140  1.00  0.00     0.049 A 
ATOM     56  H   UNL A   1      41.577  28.433  31.437  1.00  0.00     0.167 HD
ATOM     57  C   UNL A   1      42.568  28.966  34.035  1.00  0.00     0.074 A 
ATOM     58  C   UNL A   1      42.641  29.453  35.397  1.00  0.00     0.031 C 
ATOM     59  C   UNL A   1      43.467  28.116  33.478  1.00  0.00     0.034 A 
BRANCH  46  60
ATOM     60  C   UNL A   1      42.005  26.303  27.758  1.00  0.00     0.023 A 
ATOM     61  C   UNL A   1      42.765  26.831  26.695  1.00  0.00     0.012 A 
ATOM     62  C   UNL A   1      41.629  24.945  27.731  1.00  0.00     0.148 A 
ATOM     63  C   UNL A   1      43.119  26.033  25.609  1.00  0.00     0.002 A 
ATOM     64  C   UNL A   1      42.023  24.145  26.664  1.00  0.00     0.091 A 
ATOM     65  F   UNL A   1      40.888  24.466  28.740  1.00  0.00    -0.205 F 
ATOM     66  C   UNL A   1      42.757  24.689  25.599  1.00  0.00     0.022 A 
BRANCH  64  67
ATOM     67  S   UNL A   1      41.672  22.383  26.595  1.00  0.00     0.127 S 
ATOM     68  O   UNL A   1      42.273  21.915  27.843  1.00  0.00    -0.237 OA
ATOM     69  O   UNL A   1      40.209  22.361  26.577  1.00  0.00    -0.237 OA
ATOM     70  O   UNL A   1      42.302  21.897  25.376  1.00  0.00    -0.744 OA
ENDBRANCH  64  67
ENDBRANCH  46  60
BRANCH  47  71
ATOM     71  C   UNL A   1      39.180  31.874  35.540  1.00  0.00     0.023 A 
ATOM     72  C   UNL A   1      38.262  31.296  36.437  1.00  0.00     0.012 A 
ATOM     73  C   UNL A   1      39.680  33.165  35.803  1.00  0.00     0.148 A 
ATOM     74  C   UNL A   1      37.828  32.000  37.561  1.00  0.00     0.002 A 
ATOM     75  C   UNL A   1      39.287  33.836  36.955  1.00  0.00     0.091 A 
ATOM     76  F   UNL A   1      40.543  33.703  34.930  1.00  0.00    -0.205 F 
ATOM     77  C   UNL A   1      38.349  33.264  37.826  1.00  0.00     0.022 A 
BRANCH  75  78
ATOM     78  S   UNL A   1      40.010  35.406  37.446  1.00  0.00     0.127 S 
ATOM     79  O   UNL A   1      39.353  35.652  38.726  1.00  0.00    -0.237 OA
ATOM     80  O   UNL A   1      41.432  35.068  37.537  1.00  0.00    -0.237 OA
ATOM     81  O   UNL A   1      39.685  36.339  36.375  1.00  0.00    -0.744 OA
ENDBRANCH  75  78
ENDBRANCH  47  71
BRANCH  59  82
ATOM     82  C   UNL A   1      44.622  27.664  34.333  1.00  0.00     0.023 A 
ATOM     83  C   UNL A   1      45.783  28.458  34.411  1.00  0.00     0.012 A 
ATOM     84  C   UNL A   1      44.528  26.497  35.117  1.00  0.00     0.148 A 
ATOM     85  C   UNL A   1      46.844  28.084  35.235  1.00  0.00     0.002 A 
ATOM     86  C   UNL A   1      45.569  26.156  35.971  1.00  0.00     0.091 A 
ATOM     87  F   UNL A   1      43.422  25.746  35.014  1.00  0.00    -0.205 F 
ATOM     88  C   UNL A   1      46.733  26.941  36.023  1.00  0.00     0.022 A 
BRANCH  86  89
ATOM     89  S   UNL A   1      45.478  24.755  37.091  1.00  0.00     0.127 S 
ATOM     90  O   UNL A   1      46.771  24.830  37.770  1.00  0.00    -0.237 OA
ATOM     91  O   UNL A   1      44.329  25.102  37.929  1.00  0.00    -0.237 OA
ATOM     92  O   UNL A   1      45.282  23.580  36.252  1.00  0.00    -0.744 OA
ENDBRANCH  86  89
ENDBRANCH  59  82
ENDBRANCH  33  34
ENDBRANCH  25  28
ENDBRANCH  23  24
ENDBRANCH  22  23
ENDBRANCH   1  22
TORSDOF 17
ENDMDL
