MODEL 1
REMARK VINA RESULT:     -11.5      0.000      0.000
REMARK SMILES CNC(=O)NC(=O)CCSc1csc(C(=O)NCCCCNC(=O)c2ccc(-c3c4nc(c(-c5cccc(S(=O)(=O)[O-])c5F)c5ccc([nH]5)c(-c5cccc(S(=O)(=O)[O-])c5F)c5nc(c(-c6cccc(S(=O)(=O)[O-])c6F)c6ccc3[nH]6)C=C5)C=C4)cc2)c1
REMARK SMILES IDX 19 1 18 2 17 3 15 4 16 5 14 7 11 8 12 9 88 10 13 11 10 12
REMARK SMILES IDX 9 13 8 14 6 15 1 16 2 17 3 18 4 20 5 21 7 23 20 24 21 25
REMARK SMILES IDX 22 26 23 27 24 29 25 30 26 31 87 32 27 33 86 34 28 35 29 36
REMARK SMILES IDX 30 37 80 38 31 39 85 40 79 41 81 42 32 43 84 44 78 45 77 46
REMARK SMILES IDX 33 48 65 49 45 50 64 51 46 52 49 53 63 54 82 55 47 56 48 57
REMARK SMILES IDX 62 59 83 60 50 61 34 62 35 63 43 64 36 65 38 66 44 67 37 68
REMARK SMILES IDX 39 69 40 70 41 71 42 72 66 73 67 74 75 75 68 76 70 77 76 78
REMARK SMILES IDX 69 79 71 80 72 81 73 82 74 83 51 84 52 85 60 86 53 87 55 88
REMARK SMILES IDX 61 89 54 90 56 91 57 92 58 93 59 94
REMARK H PARENT 17 6 2 19 5 22 22 28 81 47 49 58
REMARK Flexibility Score: inf
ROOT
ATOM      1  C   UNL A   1      31.821  30.153  26.777  1.00  0.00     0.023 C 
ENDROOT
BRANCH   1   2
ATOM      2  C   UNL A   1      32.274  29.502  25.473  1.00  0.00     0.116 C 
BRANCH   2   3
ATOM      3  N   UNL A   1      31.312  29.709  24.409  1.00  0.00    -0.351 N 
ATOM      4  C   UNL A   1      30.661  28.844  23.564  1.00  0.00     0.261 C 
ATOM      5  O   UNL A   1      29.795  29.365  22.856  1.00  0.00    -0.268 OA
ATOM      6  H   UNL A   1      31.077  30.655  24.265  1.00  0.00     0.163 HD
BRANCH   4   7
ATOM      7  C   UNL A   1      30.953  27.414  23.534  1.00  0.00     0.093 A 
ATOM      8  C   UNL A   1      31.926  25.286  23.418  1.00  0.00     0.019 A 
ATOM      9  C   UNL A   1      30.659  24.965  23.833  1.00  0.00     0.080 A 
ATOM     10  C   UNL A   1      32.059  26.679  23.140  1.00  0.00     0.040 A 
ATOM     11  S   UNL A   1      29.684  26.349  24.029  1.00  0.00    -0.137 S 
BRANCH   8  12
ATOM     12  S   UNL A   1      33.265  24.166  23.212  1.00  0.00    -0.125 SA
BRANCH  12  13
ATOM     13  C   UNL A   1      33.390  23.376  24.849  1.00  0.00     0.085 C 
BRANCH  13  14
ATOM     14  C   UNL A   1      34.155  22.063  24.983  1.00  0.00     0.112 C 
BRANCH  14  15
ATOM     15  C   UNL A   1      34.991  21.888  26.214  1.00  0.00     0.228 C 
ATOM     16  C   UNL A   1      36.717  22.814  23.158  1.00  0.00     0.144 C 
ATOM     17  N   UNL A   1      37.341  23.284  24.365  1.00  0.00    -0.341 N 
ATOM     18  C   UNL A   1      37.348  22.845  25.625  1.00  0.00     0.321 C 
ATOM     19  H   UNL A   1      37.874  24.101  24.235  1.00  0.00     0.165 HD
ATOM     20  O   UNL A   1      38.332  23.145  26.308  1.00  0.00    -0.248 OA
ATOM     21  N   UNL A   1      36.349  22.149  26.241  1.00  0.00    -0.278 N 
ATOM     22  H   UNL A   1      36.744  21.641  26.986  1.00  0.00     0.174 HD
ATOM     23  O   UNL A   1      34.456  21.491  27.254  1.00  0.00    -0.275 OA
ENDBRANCH  14  15
ENDBRANCH  13  14
ENDBRANCH  12  13
ENDBRANCH   8  12
ENDBRANCH   4   7
ENDBRANCH   2   3
ENDBRANCH   1   2
BRANCH   1  24
ATOM     24  C   UNL A   1      31.707  31.679  26.715  1.00  0.00     0.023 C 
BRANCH  24  25
ATOM     25  C   UNL A   1      32.877  32.447  27.325  1.00  0.00     0.116 C 
BRANCH  25  26
ATOM     26  N   UNL A   1      32.565  33.842  27.604  1.00  0.00    -0.352 N 
ATOM     27  C   UNL A   1      33.123  34.692  28.532  1.00  0.00     0.251 C 
ATOM     28  H   UNL A   1      31.851  34.233  27.050  1.00  0.00     0.163 HD
ATOM     29  O   UNL A   1      32.641  35.801  28.715  1.00  0.00    -0.269 OA
BRANCH  27  30
ATOM     30  C   UNL A   1      34.293  34.248  29.327  1.00  0.00     0.039 A 
ATOM     31  C   UNL A   1      34.075  33.642  30.567  1.00  0.00     0.014 A 
ATOM     32  C   UNL A   1      35.594  34.410  28.845  1.00  0.00     0.014 A 
ATOM     33  C   UNL A   1      35.160  33.131  31.287  1.00  0.00     0.010 A 
ATOM     34  C   UNL A   1      36.661  33.830  29.525  1.00  0.00     0.010 A 
ATOM     35  C   UNL A   1      36.458  33.183  30.753  1.00  0.00    -0.014 A 
BRANCH  35  36
ATOM     36  C   UNL A   1      37.608  32.547  31.450  1.00  0.00     0.031 A 
ATOM     37  C   UNL A   1      38.341  31.394  30.817  1.00  0.00     0.074 A 
ATOM     38  C   UNL A   1      37.936  32.947  32.695  1.00  0.00     0.049 A 
ATOM     39  N   UNL A   1      39.325  30.679  31.297  1.00  0.00    -0.248 NA
ATOM     40  C   UNL A   1      37.894  30.972  29.479  1.00  0.00     0.031 C 
ATOM     41  C   UNL A   1      37.255  33.997  33.456  1.00  0.00     0.029 A 
ATOM     42  N   UNL A   1      38.910  32.499  33.555  1.00  0.00    -0.354 N 
ATOM     43  C   UNL A   1      39.590  29.704  30.344  1.00  0.00     0.074 A 
ATOM     44  C   UNL A   1      38.641  29.897  29.269  1.00  0.00     0.031 C 
ATOM     45  C   UNL A   1      37.832  34.116  34.661  1.00  0.00     0.029 A 
ATOM     46  C   UNL A   1      38.901  33.129  34.778  1.00  0.00     0.049 A 
ATOM     47  H   UNL A   1      39.553  31.793  33.318  1.00  0.00     0.167 HD
ATOM     48  C   UNL A   1      40.552  28.750  30.345  1.00  0.00     0.034 A 
ATOM     49  C   UNL A   1      39.657  32.929  35.876  1.00  0.00     0.034 A 
ATOM     50  C   UNL A   1      41.519  28.583  31.397  1.00  0.00     0.049 A 
ATOM     51  C   UNL A   1      40.740  31.884  35.839  1.00  0.00     0.074 A 
ATOM     52  C   UNL A   1      42.588  27.706  31.449  1.00  0.00     0.029 A 
ATOM     53  N   UNL A   1      41.529  29.295  32.586  1.00  0.00    -0.354 N 
ATOM     54  N   UNL A   1      41.078  31.080  34.860  1.00  0.00    -0.248 NA
ATOM     55  C   UNL A   1      41.569  31.742  37.045  1.00  0.00     0.031 C 
ATOM     56  C   UNL A   1      43.225  27.865  32.684  1.00  0.00     0.029 A 
ATOM     57  C   UNL A   1      42.577  28.869  33.384  1.00  0.00     0.049 A 
ATOM     58  H   UNL A   1      40.886  30.001  32.827  1.00  0.00     0.167 HD
ATOM     59  C   UNL A   1      42.181  30.366  35.317  1.00  0.00     0.074 A 
ATOM     60  C   UNL A   1      42.466  30.848  36.652  1.00  0.00     0.031 C 
ATOM     61  C   UNL A   1      42.885  29.391  34.691  1.00  0.00     0.034 A 
BRANCH  48  62
ATOM     62  C   UNL A   1      40.641  27.838  29.149  1.00  0.00     0.023 A 
ATOM     63  C   UNL A   1      39.776  26.728  29.053  1.00  0.00     0.012 A 
ATOM     64  C   UNL A   1      41.530  28.114  28.092  1.00  0.00     0.148 A 
ATOM     65  C   UNL A   1      39.819  25.887  27.941  1.00  0.00     0.002 A 
ATOM     66  C   UNL A   1      41.533  27.298  26.966  1.00  0.00     0.091 A 
ATOM     67  F   UNL A   1      42.357  29.162  28.208  1.00  0.00    -0.205 F 
ATOM     68  C   UNL A   1      40.689  26.178  26.895  1.00  0.00     0.022 A 
BRANCH  66  69
ATOM     69  S   UNL A   1      42.556  27.633  25.527  1.00  0.00     0.127 S 
ATOM     70  O   UNL A   1      42.285  26.462  24.694  1.00  0.00    -0.237 OA
ATOM     71  O   UNL A   1      41.981  28.883  25.027  1.00  0.00    -0.237 OA
ATOM     72  O   UNL A   1      43.921  27.745  26.020  1.00  0.00    -0.744 OA
ENDBRANCH  66  69
ENDBRANCH  48  62
BRANCH  49  73
ATOM     73  C   UNL A   1      39.456  33.773  37.088  1.00  0.00     0.023 A 
ATOM     74  C   UNL A   1      39.897  35.112  37.082  1.00  0.00     0.012 A 
ATOM     75  C   UNL A   1      38.820  33.266  38.237  1.00  0.00     0.148 A 
ATOM     76  C   UNL A   1      39.744  35.917  38.211  1.00  0.00     0.002 A 
ATOM     77  C   UNL A   1      38.618  34.092  39.338  1.00  0.00     0.091 A 
ATOM     78  F   UNL A   1      38.416  31.988  38.228  1.00  0.00    -0.205 F 
ATOM     79  C   UNL A   1      39.097  35.410  39.335  1.00  0.00     0.022 A 
BRANCH  77  80
ATOM     80  S   UNL A   1      37.681  33.566  40.777  1.00  0.00     0.127 S 
ATOM     81  O   UNL A   1      37.636  34.793  41.568  1.00  0.00    -0.237 OA
ATOM     82  O   UNL A   1      36.406  33.171  40.177  1.00  0.00    -0.237 OA
ATOM     83  O   UNL A   1      38.437  32.466  41.360  1.00  0.00    -0.744 OA
ENDBRANCH  77  80
ENDBRANCH  49  73
BRANCH  61  84
ATOM     84  C   UNL A   1      44.068  28.805  35.417  1.00  0.00     0.023 A 
ATOM     85  C   UNL A   1      45.352  29.359  35.240  1.00  0.00     0.012 A 
ATOM     86  C   UNL A   1      43.892  27.747  36.332  1.00  0.00     0.148 A 
ATOM     87  C   UNL A   1      46.446  28.847  35.937  1.00  0.00     0.002 A 
ATOM     88  C   UNL A   1      44.978  27.278  37.061  1.00  0.00     0.091 A 
ATOM     89  F   UNL A   1      42.667  27.221  36.474  1.00  0.00    -0.205 F 
ATOM     90  C   UNL A   1      46.258  27.817  36.855  1.00  0.00     0.022 A 
BRANCH  88  91
ATOM     91  S   UNL A   1      44.813  26.024  38.337  1.00  0.00     0.127 S 
ATOM     92  O   UNL A   1      46.207  25.805  38.721  1.00  0.00    -0.237 OA
ATOM     93  O   UNL A   1      44.004  26.710  39.344  1.00  0.00    -0.237 OA
ATOM     94  O   UNL A   1      44.157  24.888  37.703  1.00  0.00    -0.744 OA
ENDBRANCH  88  91
ENDBRANCH  61  84
ENDBRANCH  35  36
ENDBRANCH  27  30
ENDBRANCH  25  26
ENDBRANCH  24  25
ENDBRANCH   1  24
TORSDOF 18
ENDMDL
MODEL 2
REMARK VINA RESULT:     -11.1      2.573      8.146
REMARK SMILES CNC(=O)NC(=O)CCSc1csc(C(=O)NCCCCNC(=O)c2ccc(-c3c4nc(c(-c5cccc(S(=O)(=O)[O-])c5F)c5ccc([nH]5)c(-c5cccc(S(=O)(=O)[O-])c5F)c5nc(c(-c6cccc(S(=O)(=O)[O-])c6F)c6ccc3[nH]6)C=C5)C=C4)cc2)c1
REMARK SMILES IDX 19 1 18 2 17 3 15 4 16 5 14 7 11 8 12 9 88 10 13 11 10 12
REMARK SMILES IDX 9 13 8 14 6 15 1 16 2 17 3 18 4 20 5 21 7 23 20 24 21 25
REMARK SMILES IDX 22 26 23 27 24 29 25 30 26 31 87 32 27 33 86 34 28 35 29 36
REMARK SMILES IDX 30 37 80 38 31 39 85 40 79 41 81 42 32 43 84 44 78 45 77 46
REMARK SMILES IDX 33 48 65 49 45 50 64 51 46 52 49 53 63 54 82 55 47 56 48 57
REMARK SMILES IDX 62 59 83 60 50 61 34 62 35 63 43 64 36 65 38 66 44 67 37 68
REMARK SMILES IDX 39 69 40 70 41 71 42 72 66 73 67 74 75 75 68 76 70 77 76 78
REMARK SMILES IDX 69 79 71 80 72 81 73 82 74 83 51 84 52 85 60 86 53 87 55 88
REMARK SMILES IDX 61 89 54 90 56 91 57 92 58 93 59 94
REMARK H PARENT 17 6 2 19 5 22 22 28 81 47 49 58
REMARK Flexibility Score: inf
ROOT
ATOM      1  C   UNL A   1      33.517  28.722  24.198  1.00  0.00     0.023 C 
ENDROOT
BRANCH   1   2
ATOM      2  C   UNL A   1      33.281  28.107  22.821  1.00  0.00     0.116 C 
BRANCH   2   3
ATOM      3  N   UNL A   1      32.117  27.245  22.812  1.00  0.00    -0.351 N 
ATOM      4  C   UNL A   1      31.949  25.908  23.078  1.00  0.00     0.261 C 
ATOM      5  O   UNL A   1      30.774  25.528  23.104  1.00  0.00    -0.268 OA
ATOM      6  H   UNL A   1      31.282  27.708  22.568  1.00  0.00     0.163 HD
BRANCH   4   7
ATOM      7  C   UNL A   1      33.073  25.017  23.344  1.00  0.00     0.093 A 
ATOM      8  C   UNL A   1      34.882  23.833  24.246  1.00  0.00     0.019 A 
ATOM      9  C   UNL A   1      34.643  23.105  23.109  1.00  0.00     0.080 A 
ATOM     10  C   UNL A   1      34.054  24.992  24.321  1.00  0.00     0.040 A 
ATOM     11  S   UNL A   1      33.332  23.731  22.218  1.00  0.00    -0.137 S 
BRANCH   8  12
ATOM     12  S   UNL A   1      36.065  23.453  25.490  1.00  0.00    -0.125 SA
BRANCH  12  13
ATOM     13  C   UNL A   1      35.651  21.735  25.934  1.00  0.00     0.085 C 
BRANCH  13  14
ATOM     14  C   UNL A   1      34.302  21.439  26.580  1.00  0.00     0.112 C 
BRANCH  14  15
ATOM     15  C   UNL A   1      33.724  22.504  27.462  1.00  0.00     0.228 C 
ATOM     16  C   UNL A   1      31.738  21.459  24.608  1.00  0.00     0.144 C 
ATOM     17  N   UNL A   1      30.973  21.918  25.736  1.00  0.00    -0.341 N 
ATOM     18  C   UNL A   1      31.230  22.764  26.736  1.00  0.00     0.321 C 
ATOM     19  H   UNL A   1      30.072  21.526  25.780  1.00  0.00     0.165 HD
ATOM     20  O   UNL A   1      30.256  23.325  27.247  1.00  0.00    -0.248 OA
ATOM     21  N   UNL A   1      32.455  23.021  27.279  1.00  0.00    -0.278 N 
ATOM     22  H   UNL A   1      32.422  23.911  27.699  1.00  0.00     0.174 HD
ATOM     23  O   UNL A   1      34.403  22.948  28.393  1.00  0.00    -0.275 OA
ENDBRANCH  14  15
ENDBRANCH  13  14
ENDBRANCH  12  13
ENDBRANCH   8  12
ENDBRANCH   4   7
ENDBRANCH   2   3
ENDBRANCH   1   2
BRANCH   1  24
ATOM     24  C   UNL A   1      32.304  29.457  24.776  1.00  0.00     0.023 C 
BRANCH  24  25
ATOM     25  C   UNL A   1      32.402  29.815  26.257  1.00  0.00     0.116 C 
BRANCH  25  26
ATOM     26  N   UNL A   1      32.315  31.246  26.508  1.00  0.00    -0.352 N 
ATOM     27  C   UNL A   1      33.147  32.054  27.251  1.00  0.00     0.251 C 
ATOM     28  H   UNL A   1      31.551  31.703  26.087  1.00  0.00     0.163 HD
ATOM     29  O   UNL A   1      32.843  33.220  27.460  1.00  0.00    -0.269 OA
BRANCH  27  30
ATOM     30  C   UNL A   1      34.398  31.497  27.820  1.00  0.00     0.039 A 
ATOM     31  C   UNL A   1      35.489  32.347  28.015  1.00  0.00     0.014 A 
ATOM     32  C   UNL A   1      34.487  30.149  28.175  1.00  0.00     0.014 A 
ATOM     33  C   UNL A   1      36.643  31.861  28.637  1.00  0.00     0.010 A 
ATOM     34  C   UNL A   1      35.604  29.688  28.867  1.00  0.00     0.010 A 
ATOM     35  C   UNL A   1      36.696  30.537  29.106  1.00  0.00    -0.014 A 
BRANCH  35  36
ATOM     36  C   UNL A   1      37.868  30.033  29.870  1.00  0.00     0.031 A 
ATOM     37  C   UNL A   1      38.143  30.530  31.264  1.00  0.00     0.074 A 
ATOM     38  C   UNL A   1      38.739  29.193  29.274  1.00  0.00     0.049 A 
ATOM     39  N   UNL A   1      39.144  30.250  32.058  1.00  0.00    -0.248 NA
ATOM     40  C   UNL A   1      37.181  31.490  31.832  1.00  0.00     0.031 C 
ATOM     41  C   UNL A   1      38.635  28.698  27.900  1.00  0.00     0.029 A 
ATOM     42  N   UNL A   1      39.903  28.628  29.739  1.00  0.00    -0.354 N 
ATOM     43  C   UNL A   1      38.955  31.021  33.198  1.00  0.00     0.074 A 
ATOM     44  C   UNL A   1      37.760  31.807  32.981  1.00  0.00     0.031 C 
ATOM     45  C   UNL A   1      39.682  27.902  27.635  1.00  0.00     0.029 A 
ATOM     46  C   UNL A   1      40.554  27.856  28.805  1.00  0.00     0.049 A 
ATOM     47  H   UNL A   1      40.238  28.763  30.654  1.00  0.00     0.167 HD
ATOM     48  C   UNL A   1      39.691  31.053  34.335  1.00  0.00     0.034 A 
ATOM     49  C   UNL A   1      41.727  27.195  28.875  1.00  0.00     0.034 A 
ATOM     50  C   UNL A   1      40.858  30.243  34.564  1.00  0.00     0.049 A 
ATOM     51  C   UNL A   1      42.508  27.223  30.161  1.00  0.00     0.074 A 
ATOM     52  C   UNL A   1      41.617  30.138  35.715  1.00  0.00     0.029 A 
ATOM     53  N   UNL A   1      41.441  29.410  33.622  1.00  0.00    -0.354 N 
ATOM     54  N   UNL A   1      42.224  27.832  31.286  1.00  0.00    -0.248 NA
ATOM     55  C   UNL A   1      43.754  26.443  30.199  1.00  0.00     0.031 C 
ATOM     56  C   UNL A   1      42.681  29.266  35.460  1.00  0.00     0.029 A 
ATOM     57  C   UNL A   1      42.560  28.798  34.162  1.00  0.00     0.049 A 
ATOM     58  H   UNL A   1      41.109  29.274  32.705  1.00  0.00     0.167 HD
ATOM     59  C   UNL A   1      43.232  27.479  32.177  1.00  0.00     0.074 A 
ATOM     60  C   UNL A   1      44.123  26.585  31.465  1.00  0.00     0.031 C 
ATOM     61  C   UNL A   1      43.411  27.869  33.462  1.00  0.00     0.034 A 
BRANCH  48  62
ATOM     62  C   UNL A   1      39.230  31.963  35.445  1.00  0.00     0.023 A 
ATOM     63  C   UNL A   1      38.349  31.471  36.430  1.00  0.00     0.012 A 
ATOM     64  C   UNL A   1      39.718  33.280  35.551  1.00  0.00     0.148 A 
ATOM     65  C   UNL A   1      37.933  32.286  37.482  1.00  0.00     0.002 A 
ATOM     66  C   UNL A   1      39.336  34.070  36.630  1.00  0.00     0.091 A 
ATOM     67  F   UNL A   1      40.540  33.738  34.596  1.00  0.00    -0.205 F 
ATOM     68  C   UNL A   1      38.434  33.579  37.588  1.00  0.00     0.022 A 
BRANCH  66  69
ATOM     69  S   UNL A   1      39.988  35.721  36.904  1.00  0.00     0.127 S 
ATOM     70  O   UNL A   1      39.284  36.119  38.122  1.00  0.00    -0.237 OA
ATOM     71  O   UNL A   1      41.417  35.460  37.084  1.00  0.00    -0.237 OA
ATOM     72  O   UNL A   1      39.656  36.489  35.712  1.00  0.00    -0.744 OA
ENDBRANCH  66  69
ENDBRANCH  48  62
BRANCH  49  73
ATOM     73  C   UNL A   1      42.210  26.402  27.708  1.00  0.00     0.023 A 
ATOM     74  C   UNL A   1      43.046  27.014  26.752  1.00  0.00     0.012 A 
ATOM     75  C   UNL A   1      41.861  25.048  27.547  1.00  0.00     0.148 A 
ATOM     76  C   UNL A   1      43.493  26.303  25.638  1.00  0.00     0.002 A 
ATOM     77  C   UNL A   1      42.358  24.329  26.465  1.00  0.00     0.091 A 
ATOM     78  F   UNL A   1      41.058  24.486  28.461  1.00  0.00    -0.205 F 
ATOM     79  C   UNL A   1      43.156  24.959  25.499  1.00  0.00     0.022 A 
BRANCH  77  80
ATOM     80  S   UNL A   1      42.085  22.564  26.274  1.00  0.00     0.127 S 
ATOM     81  O   UNL A   1      42.747  22.030  27.462  1.00  0.00    -0.237 OA
ATOM     82  O   UNL A   1      40.624  22.482  26.292  1.00  0.00    -0.237 OA
ATOM     83  O   UNL A   1      42.690  22.207  24.999  1.00  0.00    -0.744 OA
ENDBRANCH  77  80
ENDBRANCH  49  73
BRANCH  61  84
ATOM     84  C   UNL A   1      44.587  27.300  34.211  1.00  0.00     0.023 A 
ATOM     85  C   UNL A   1      45.827  27.970  34.195  1.00  0.00     0.012 A 
ATOM     86  C   UNL A   1      44.442  26.135  34.993  1.00  0.00     0.148 A 
ATOM     87  C   UNL A   1      46.912  27.472  34.916  1.00  0.00     0.002 A 
ATOM     88  C   UNL A   1      45.512  25.675  35.750  1.00  0.00     0.091 A 
ATOM     89  F   UNL A   1      43.260  25.501  34.983  1.00  0.00    -0.205 F 
ATOM     90  C   UNL A   1      46.751  26.333  35.702  1.00  0.00     0.022 A 
BRANCH  88  91
ATOM     91  S   UNL A   1      45.370  24.276  36.869  1.00  0.00     0.127 S 
ATOM     92  O   UNL A   1      46.742  24.148  37.360  1.00  0.00    -0.237 OA
ATOM     93  O   UNL A   1      44.411  24.767  37.858  1.00  0.00    -0.237 OA
ATOM     94  O   UNL A   1      44.892  23.162  36.062  1.00  0.00    -0.744 OA
ENDBRANCH  88  91
ENDBRANCH  61  84
ENDBRANCH  35  36
ENDBRANCH  27  30
ENDBRANCH  25  26
ENDBRANCH  24  25
ENDBRANCH   1  24
TORSDOF 18
ENDMDL
MODEL 3
REMARK VINA RESULT:     -11.0      1.465      2.028
REMARK SMILES CNC(=O)NC(=O)CCSc1csc(C(=O)NCCCCNC(=O)c2ccc(-c3c4nc(c(-c5cccc(S(=O)(=O)[O-])c5F)c5ccc([nH]5)c(-c5cccc(S(=O)(=O)[O-])c5F)c5nc(c(-c6cccc(S(=O)(=O)[O-])c6F)c6ccc3[nH]6)C=C5)C=C4)cc2)c1
REMARK SMILES IDX 19 1 18 2 17 3 15 4 16 5 14 7 11 8 12 9 88 10 13 11 10 12
REMARK SMILES IDX 9 13 8 14 6 15 1 16 2 17 3 18 4 20 5 21 7 23 20 24 21 25
REMARK SMILES IDX 22 26 23 27 24 29 25 30 26 31 87 32 27 33 86 34 28 35 29 36
REMARK SMILES IDX 30 37 80 38 31 39 85 40 79 41 81 42 32 43 84 44 78 45 77 46
REMARK SMILES IDX 33 48 65 49 45 50 64 51 46 52 49 53 63 54 82 55 47 56 48 57
REMARK SMILES IDX 62 59 83 60 50 61 34 62 35 63 43 64 36 65 38 66 44 67 37 68
REMARK SMILES IDX 39 69 40 70 41 71 42 72 66 73 67 74 75 75 68 76 70 77 76 78
REMARK SMILES IDX 69 79 71 80 72 81 73 82 74 83 51 84 52 85 60 86 53 87 55 88
REMARK SMILES IDX 61 89 54 90 56 91 57 92 58 93 59 94
REMARK H PARENT 17 6 2 19 5 22 22 28 81 47 49 58
REMARK Flexibility Score: inf
ROOT
ATOM      1  C   UNL A   1      31.926  30.489  26.690  1.00  0.00     0.023 C 
ENDROOT
BRANCH   1   2
ATOM      2  C   UNL A   1      31.586  29.910  25.319  1.00  0.00     0.116 C 
BRANCH   2   3
ATOM      3  N   UNL A   1      32.766  29.764  24.491  1.00  0.00    -0.351 N 
ATOM      4  C   UNL A   1      33.308  28.690  23.827  1.00  0.00     0.261 C 
ATOM      5  O   UNL A   1      34.265  28.963  23.097  1.00  0.00    -0.268 OA
ATOM      6  H   UNL A   1      33.280  30.597  24.383  1.00  0.00     0.163 HD
BRANCH   4   7
ATOM      7  C   UNL A   1      32.768  27.341  23.952  1.00  0.00     0.093 A 
ATOM      8  C   UNL A   1      32.107  25.203  24.648  1.00  0.00     0.019 A 
ATOM      9  C   UNL A   1      31.414  25.314  23.470  1.00  0.00     0.080 A 
ATOM     10  C   UNL A   1      32.968  26.319  24.867  1.00  0.00     0.040 A 
ATOM     11  S   UNL A   1      31.686  26.816  22.710  1.00  0.00    -0.137 S 
BRANCH   8  12
ATOM     12  S   UNL A   1      32.010  23.867  25.786  1.00  0.00    -0.125 SA
BRANCH  12  13
ATOM     13  C   UNL A   1      32.193  22.406  24.714  1.00  0.00     0.085 C 
BRANCH  13  14
ATOM     14  C   UNL A   1      33.380  21.472  24.928  1.00  0.00     0.112 C 
BRANCH  14  15
ATOM     15  C   UNL A   1      33.356  20.615  26.156  1.00  0.00     0.228 C 
ATOM     16  C   UNL A   1      32.179  19.116  23.066  1.00  0.00     0.144 C 
ATOM     17  N   UNL A   1      32.763  18.190  23.998  1.00  0.00    -0.341 N 
ATOM     18  C   UNL A   1      32.892  18.183  25.327  1.00  0.00     0.321 C 
ATOM     19  H   UNL A   1      33.148  17.394  23.566  1.00  0.00     0.165 HD
ATOM     20  O   UNL A   1      32.977  17.076  25.866  1.00  0.00    -0.248 OA
ATOM     21  N   UNL A   1      32.994  19.280  26.131  1.00  0.00    -0.278 N 
ATOM     22  H   UNL A   1      32.699  19.025  27.035  1.00  0.00     0.174 HD
ATOM     23  O   UNL A   1      33.667  21.111  27.243  1.00  0.00    -0.275 OA
ENDBRANCH  14  15
ENDBRANCH  13  14
ENDBRANCH  12  13
ENDBRANCH   8  12
ENDBRANCH   4   7
ENDBRANCH   2   3
ENDBRANCH   1   2
BRANCH   1  24
ATOM     24  C   UNL A   1      31.583  31.972  26.850  1.00  0.00     0.023 C 
BRANCH  24  25
ATOM     25  C   UNL A   1      32.780  32.920  26.882  1.00  0.00     0.116 C 
BRANCH  25  26
ATOM     26  N   UNL A   1      32.522  34.145  27.626  1.00  0.00    -0.352 N 
ATOM     27  C   UNL A   1      33.139  34.624  28.760  1.00  0.00     0.251 C 
ATOM     28  H   UNL A   1      31.802  34.712  27.266  1.00  0.00     0.163 HD
ATOM     29  O   UNL A   1      32.698  35.616  29.325  1.00  0.00    -0.269 OA
BRANCH  27  30
ATOM     30  C   UNL A   1      34.320  33.917  29.309  1.00  0.00     0.039 A 
ATOM     31  C   UNL A   1      35.597  34.368  28.967  1.00  0.00     0.014 A 
ATOM     32  C   UNL A   1      34.169  32.827  30.170  1.00  0.00     0.014 A 
ATOM     33  C   UNL A   1      36.721  33.774  29.550  1.00  0.00     0.010 A 
ATOM     34  C   UNL A   1      35.284  32.291  30.810  1.00  0.00     0.010 A 
ATOM     35  C   UNL A   1      36.572  32.757  30.509  1.00  0.00    -0.014 A 
BRANCH  35  36
ATOM     36  C   UNL A   1      37.747  32.190  31.223  1.00  0.00     0.031 A 
ATOM     37  C   UNL A   1      38.518  31.040  30.632  1.00  0.00     0.074 A 
ATOM     38  C   UNL A   1      38.066  32.650  32.450  1.00  0.00     0.049 A 
ATOM     39  N   UNL A   1      39.529  30.380  31.134  1.00  0.00    -0.248 NA
ATOM     40  C   UNL A   1      38.080  30.549  29.315  1.00  0.00     0.031 C 
ATOM     41  C   UNL A   1      37.351  33.705  33.172  1.00  0.00     0.029 A 
ATOM     42  N   UNL A   1      39.059  32.271  33.322  1.00  0.00    -0.354 N 
ATOM     43  C   UNL A   1      39.825  29.377  30.219  1.00  0.00     0.074 A 
ATOM     44  C   UNL A   1      38.864  29.495  29.143  1.00  0.00     0.031 C 
ATOM     45  C   UNL A   1      37.928  33.891  34.369  1.00  0.00     0.029 A 
ATOM     46  C   UNL A   1      39.032  32.949  34.518  1.00  0.00     0.049 A 
ATOM     47  H   UNL A   1      39.726  31.579  33.109  1.00  0.00     0.167 HD
ATOM     48  C   UNL A   1      40.820  28.460  30.252  1.00  0.00     0.034 A 
ATOM     49  C   UNL A   1      39.800  32.819  35.619  1.00  0.00     0.034 A 
ATOM     50  C   UNL A   1      41.797  28.368  31.305  1.00  0.00     0.049 A 
ATOM     51  C   UNL A   1      40.919  31.812  35.617  1.00  0.00     0.074 A 
ATOM     52  C   UNL A   1      42.897  27.532  31.385  1.00  0.00     0.029 A 
ATOM     53  N   UNL A   1      41.786  29.127  32.464  1.00  0.00    -0.354 N 
ATOM     54  N   UNL A   1      41.282  30.983  34.669  1.00  0.00    -0.248 NA
ATOM     55  C   UNL A   1      41.758  31.748  36.823  1.00  0.00     0.031 C 
ATOM     56  C   UNL A   1      43.533  27.763  32.609  1.00  0.00     0.029 A 
ATOM     57  C   UNL A   1      42.852  28.770  33.272  1.00  0.00     0.049 A 
ATOM     58  H   UNL A   1      41.120  29.819  32.681  1.00  0.00     0.167 HD
ATOM     59  C   UNL A   1      42.411  30.327  35.147  1.00  0.00     0.074 A 
ATOM     60  C   UNL A   1      42.685  30.872  36.461  1.00  0.00     0.031 C 
ATOM     61  C   UNL A   1      43.147  29.355  34.556  1.00  0.00     0.034 A 
BRANCH  48  62
ATOM     62  C   UNL A   1      40.936  27.504  29.092  1.00  0.00     0.023 A 
ATOM     63  C   UNL A   1      40.141  26.340  29.065  1.00  0.00     0.012 A 
ATOM     64  C   UNL A   1      41.779  27.790  28.000  1.00  0.00     0.148 A 
ATOM     65  C   UNL A   1      40.210  25.456  27.989  1.00  0.00     0.002 A 
ATOM     66  C   UNL A   1      41.805  26.929  26.909  1.00  0.00     0.091 A 
ATOM     67  F   UNL A   1      42.541  28.892  28.050  1.00  0.00    -0.205 F 
ATOM     68  C   UNL A   1      41.032  25.756  26.907  1.00  0.00     0.022 A 
BRANCH  66  69
ATOM     69  S   UNL A   1      42.768  27.265  25.429  1.00  0.00     0.127 S 
ATOM     70  O   UNL A   1      44.116  27.403  25.979  1.00  0.00    -0.237 OA
ATOM     71  O   UNL A   1      42.552  26.051  24.642  1.00  0.00    -0.237 OA
ATOM     72  O   UNL A   1      42.204  28.475  24.848  1.00  0.00    -0.744 OA
ENDBRANCH  66  69
ENDBRANCH  48  62
BRANCH  49  73
ATOM     73  C   UNL A   1      39.574  33.703  36.798  1.00  0.00     0.023 A 
ATOM     74  C   UNL A   1      39.949  35.060  36.730  1.00  0.00     0.012 A 
ATOM     75  C   UNL A   1      38.979  33.214  37.977  1.00  0.00     0.148 A 
ATOM     76  C   UNL A   1      39.772  35.904  37.827  1.00  0.00     0.002 A 
ATOM     77  C   UNL A   1      38.752  34.075  39.046  1.00  0.00     0.091 A 
ATOM     78  F   UNL A   1      38.638  31.920  38.026  1.00  0.00    -0.205 F 
ATOM     79  C   UNL A   1      39.165  35.414  38.981  1.00  0.00     0.022 A 
BRANCH  77  80
ATOM     80  S   UNL A   1      37.860  33.566  40.520  1.00  0.00     0.127 S 
ATOM     81  O   UNL A   1      38.806  32.639  41.135  1.00  0.00    -0.237 OA
ATOM     82  O   UNL A   1      37.694  34.838  41.224  1.00  0.00    -0.237 OA
ATOM     83  O   UNL A   1      36.616  32.977  40.043  1.00  0.00    -0.744 OA
ENDBRANCH  77  80
ENDBRANCH  49  73
BRANCH  61  84
ATOM     84  C   UNL A   1      44.353  28.839  35.297  1.00  0.00     0.023 A 
ATOM     85  C   UNL A   1      45.623  29.405  35.062  1.00  0.00     0.012 A 
ATOM     86  C   UNL A   1      44.214  27.841  36.283  1.00  0.00     0.148 A 
ATOM     87  C   UNL A   1      46.739  28.961  35.771  1.00  0.00     0.002 A 
ATOM     88  C   UNL A   1      45.321  27.442  37.022  1.00  0.00     0.091 A 
ATOM     89  F   UNL A   1      43.002  27.303  36.481  1.00  0.00    -0.205 F 
ATOM     90  C   UNL A   1      46.586  27.990  36.758  1.00  0.00     0.022 A 
BRANCH  88  91
ATOM     91  S   UNL A   1      45.202  26.272  38.380  1.00  0.00     0.127 S 
ATOM     92  O   UNL A   1      43.938  26.664  39.002  1.00  0.00    -0.237 OA
ATOM     93  O   UNL A   1      45.165  24.987  37.680  1.00  0.00    -0.237 OA
ATOM     94  O   UNL A   1      46.390  26.481  39.197  1.00  0.00    -0.744 OA
ENDBRANCH  88  91
ENDBRANCH  61  84
ENDBRANCH  35  36
ENDBRANCH  27  30
ENDBRANCH  25  26
ENDBRANCH  24  25
ENDBRANCH   1  24
TORSDOF 18
ENDMDL
