MODEL 1
REMARK VINA RESULT:     -12.7      0.000      0.000
REMARK SMILES COc1cccc(N2/C(=[NH+]/C(=O)CCC(=O)NCCCCNC(=O)c3ccc(-c4c5nc(c(-c6cccc(S(=O)(=O)[O-])c6F)c6ccc([nH]6)c(-c6cccc(S(=O)(=O)[O-])c6F)c6nc(c(-c7cccc(S(=O)(=O)[O-])c7F)c7ccc4[nH]7)C=C6)C=C5)cc3)S[C@@H]3CS(=O)(=O)C[C@H]32)c1
REMARK SMILES IDX 19 1 18 2 17 3 15 4 16 5 14 7 13 8 11 9 8 10 9 11 95 12
REMARK SMILES IDX 10 13 88 14 89 15 94 16 90 18 91 19 12 20 92 21 93 22 7 23
REMARK SMILES IDX 3 24 4 25 96 26 5 27 6 28 2 29 1 30 20 31 21 32 22 33 23 34
REMARK SMILES IDX 24 36 25 37 26 38 87 39 27 40 86 41 28 42 29 43 30 44 80 45
REMARK SMILES IDX 31 46 85 47 79 48 81 49 32 50 84 51 78 52 77 53 33 55 65 56
REMARK SMILES IDX 45 57 64 58 46 59 49 60 63 61 82 62 47 63 48 64 62 66 83 67
REMARK SMILES IDX 50 68 34 69 35 70 43 71 36 72 38 73 44 74 37 75 39 76 40 77
REMARK SMILES IDX 41 78 42 79 66 80 67 81 75 82 68 83 70 84 76 85 69 86 71 87
REMARK SMILES IDX 72 88 73 89 74 90 51 91 52 92 60 93 53 94 55 95 61 96 54 97
REMARK SMILES IDX 56 98 57 99 58 100 59 101
REMARK H PARENT 17 6 10 17 22 35 81 54 49 65
REMARK Flexibility Score: inf
ROOT
ATOM      1  C   UNL A   1      31.414  27.502  26.413  1.00  0.00     0.023 C 
ENDROOT
BRANCH   1   2
ATOM      2  C   UNL A   1      30.567  26.272  26.077  1.00  0.00     0.116 C 
BRANCH   2   3
ATOM      3  N   UNL A   1      30.941  25.082  26.828  1.00  0.00    -0.356 N 
ATOM      4  C   UNL A   1      32.092  24.358  26.845  1.00  0.00     0.220 C 
ATOM      5  O   UNL A   1      32.143  23.370  27.577  1.00  0.00    -0.275 OA
ATOM      6  H   UNL A   1      30.238  24.743  27.428  1.00  0.00     0.163 HD
BRANCH   4   7
ATOM      7  C   UNL A   1      33.282  24.789  26.024  1.00  0.00     0.112 C 
BRANCH   7   8
ATOM      8  C   UNL A   1      33.016  24.581  24.536  1.00  0.00     0.138 C 
BRANCH   8   9
ATOM      9  C   UNL A   1      32.805  23.116  24.225  1.00  0.00     0.308 C 
ATOM     10  N   UNL A   1      34.924  20.129  24.670  1.00  0.00    -0.216 N 
ATOM     11  C   UNL A   1      33.849  21.034  24.528  1.00  0.00     0.319 C 
ATOM     12  C   UNL A   1      34.480  18.744  24.959  1.00  0.00     0.212 C 
ATOM     13  N   UNL A   1      33.913  22.323  24.425  1.00  0.00    -0.204 N 
ATOM     14  S   UNL A   1      32.302  20.103  24.563  1.00  0.00    -0.029 SA
ATOM     15  C   UNL A   1      33.175  18.599  24.171  1.00  0.00     0.120 C 
ATOM     16  C   UNL A   1      35.289  17.522  24.552  1.00  0.00     0.188 C 
ATOM     17  H   UNL A   1      34.794  22.757  24.493  1.00  0.00     0.316 HD
ATOM     18  C   UNL A   1      32.591  17.271  24.563  1.00  0.00     0.156 C 
ATOM     19  S   UNL A   1      34.026  16.233  24.310  1.00  0.00     0.155 S 
ATOM     20  O   UNL A   1      31.705  22.767  23.798  1.00  0.00    -0.247 OA
ATOM     21  O   UNL A   1      34.032  15.840  22.917  1.00  0.00    -0.229 OA
ATOM     22  O   UNL A   1      34.084  15.250  25.370  1.00  0.00    -0.229 OA
BRANCH  10  23
ATOM     23  C   UNL A   1      36.244  20.506  25.009  1.00  0.00     0.132 A 
ATOM     24  C   UNL A   1      38.628  19.971  25.340  1.00  0.00     0.123 A 
ATOM     25  C   UNL A   1      38.863  21.283  25.737  1.00  0.00     0.047 A 
ATOM     26  C   UNL A   1      37.323  19.595  25.001  1.00  0.00     0.098 A 
ATOM     27  C   UNL A   1      37.818  22.201  25.784  1.00  0.00     0.008 A 
ATOM     28  C   UNL A   1      36.524  21.817  25.417  1.00  0.00     0.052 A 
BRANCH  24  29
ATOM     29  O   UNL A   1      39.737  19.173  25.382  1.00  0.00    -0.497 OA
ATOM     30  C   UNL A   1      40.878  19.576  26.121  1.00  0.00     0.278 C 
ENDBRANCH  24  29
ENDBRANCH  10  23
ENDBRANCH   8   9
ENDBRANCH   7   8
ENDBRANCH   4   7
ENDBRANCH   2   3
ENDBRANCH   1   2
BRANCH   1  31
ATOM     31  C   UNL A   1      31.926  28.231  25.176  1.00  0.00     0.023 C 
BRANCH  31  32
ATOM     32  C   UNL A   1      32.933  29.354  25.330  1.00  0.00     0.116 C 
BRANCH  32  33
ATOM     33  N   UNL A   1      32.384  30.541  25.957  1.00  0.00    -0.352 N 
ATOM     34  C   UNL A   1      32.872  31.404  26.910  1.00  0.00     0.251 C 
ATOM     35  H   UNL A   1      31.483  30.775  25.637  1.00  0.00     0.163 HD
ATOM     36  O   UNL A   1      32.116  32.315  27.256  1.00  0.00    -0.269 OA
BRANCH  34  37
ATOM     37  C   UNL A   1      34.190  31.245  27.602  1.00  0.00     0.039 A 
ATOM     38  C   UNL A   1      34.542  29.953  28.028  1.00  0.00     0.014 A 
ATOM     39  C   UNL A   1      35.079  32.281  27.882  1.00  0.00     0.014 A 
ATOM     40  C   UNL A   1      35.777  29.684  28.632  1.00  0.00     0.010 A 
ATOM     41  C   UNL A   1      36.335  32.017  28.441  1.00  0.00     0.010 A 
ATOM     42  C   UNL A   1      36.688  30.719  28.839  1.00  0.00    -0.014 A 
BRANCH  42  43
ATOM     43  C   UNL A   1      37.911  30.524  29.658  1.00  0.00     0.031 A 
ATOM     44  C   UNL A   1      39.019  29.684  29.084  1.00  0.00     0.074 A 
ATOM     45  C   UNL A   1      38.022  31.029  30.901  1.00  0.00     0.049 A 
ATOM     46  N   UNL A   1      40.117  29.255  29.649  1.00  0.00    -0.248 NA
ATOM     47  C   UNL A   1      38.854  29.253  27.685  1.00  0.00     0.031 C 
ATOM     48  C   UNL A   1      37.028  31.866  31.571  1.00  0.00     0.029 A 
ATOM     49  N   UNL A   1      39.019  30.877  31.835  1.00  0.00    -0.354 N 
ATOM     50  C   UNL A   1      40.749  28.470  28.693  1.00  0.00     0.074 A 
ATOM     51  C   UNL A   1      39.905  28.466  27.518  1.00  0.00     0.031 C 
ATOM     52  C   UNL A   1      37.453  32.132  32.818  1.00  0.00     0.029 A 
ATOM     53  C   UNL A   1      38.728  31.456  33.049  1.00  0.00     0.049 A 
ATOM     54  H   UNL A   1      39.861  30.401  31.652  1.00  0.00     0.167 HD
ATOM     55  C   UNL A   1      41.932  27.819  28.776  1.00  0.00     0.034 A 
ATOM     56  C   UNL A   1      39.402  31.416  34.219  1.00  0.00     0.034 A 
ATOM     57  C   UNL A   1      42.783  27.844  29.933  1.00  0.00     0.049 A 
ATOM     58  C   UNL A   1      40.707  30.661  34.295  1.00  0.00     0.074 A 
ATOM     59  C   UNL A   1      44.023  27.254  30.099  1.00  0.00     0.029 A 
ATOM     60  N   UNL A   1      42.480  28.482  31.124  1.00  0.00    -0.354 N 
ATOM     61  N   UNL A   1      41.341  30.005  33.353  1.00  0.00    -0.248 NA
ATOM     62  C   UNL A   1      41.404  30.666  35.591  1.00  0.00     0.031 C 
ATOM     63  C   UNL A   1      44.452  27.504  31.405  1.00  0.00     0.029 A 
ATOM     64  C   UNL A   1      43.501  28.289  32.038  1.00  0.00     0.049 A 
ATOM     65  H   UNL A   1      41.658  28.996  31.296  1.00  0.00     0.167 HD
ATOM     66  C   UNL A   1      42.527  29.557  33.929  1.00  0.00     0.074 A 
ATOM     67  C   UNL A   1      42.531  30.030  35.297  1.00  0.00     0.031 C 
ATOM     68  C   UNL A   1      43.519  28.814  33.378  1.00  0.00     0.034 A 
BRANCH  55  69
ATOM     69  C   UNL A   1      42.375  27.029  27.575  1.00  0.00     0.023 A 
ATOM     70  C   UNL A   1      42.935  27.692  26.462  1.00  0.00     0.012 A 
ATOM     71  C   UNL A   1      42.265  25.626  27.561  1.00  0.00     0.148 A 
ATOM     72  C   UNL A   1      43.340  26.974  25.339  1.00  0.00     0.002 A 
ATOM     73  C   UNL A   1      42.718  24.912  26.459  1.00  0.00     0.091 A 
ATOM     74  F   UNL A   1      41.707  25.017  28.617  1.00  0.00    -0.205 F 
ATOM     75  C   UNL A   1      43.242  25.584  25.342  1.00  0.00     0.022 A 
BRANCH  73  76
ATOM     76  S   UNL A   1      42.706  23.118  26.396  1.00  0.00     0.127 S 
ATOM     77  O   UNL A   1      41.379  22.814  26.927  1.00  0.00    -0.237 OA
ATOM     78  O   UNL A   1      42.865  22.861  24.965  1.00  0.00    -0.237 OA
ATOM     79  O   UNL A   1      43.822  22.679  27.221  1.00  0.00    -0.744 OA
ENDBRANCH  73  76
ENDBRANCH  55  69
BRANCH  56  80
ATOM     80  C   UNL A   1      38.869  32.125  35.419  1.00  0.00     0.023 A 
ATOM     81  C   UNL A   1      38.962  33.529  35.498  1.00  0.00     0.012 A 
ATOM     82  C   UNL A   1      38.282  31.418  36.486  1.00  0.00     0.148 A 
ATOM     83  C   UNL A   1      38.517  34.210  36.632  1.00  0.00     0.002 A 
ATOM     84  C   UNL A   1      37.785  32.108  37.586  1.00  0.00     0.091 A 
ATOM     85  F   UNL A   1      38.218  30.082  36.403  1.00  0.00    -0.205 F 
ATOM     86  C   UNL A   1      37.919  33.501  37.671  1.00  0.00     0.022 A 
BRANCH  84  87
ATOM     87  S   UNL A   1      36.881  31.291  38.906  1.00  0.00     0.127 S 
ATOM     88  O   UNL A   1      37.812  31.413  40.025  1.00  0.00    -0.237 OA
ATOM     89  O   UNL A   1      35.682  32.124  39.007  1.00  0.00    -0.237 OA
ATOM     90  O   UNL A   1      36.631  29.936  38.434  1.00  0.00    -0.744 OA
ENDBRANCH  84  87
ENDBRANCH  56  80
BRANCH  68  91
ATOM     91  C   UNL A   1      44.727  28.506  34.226  1.00  0.00     0.023 A 
ATOM     92  C   UNL A   1      44.758  27.344  35.021  1.00  0.00     0.012 A 
ATOM     93  C   UNL A   1      45.871  29.329  34.161  1.00  0.00     0.148 A 
ATOM     94  C   UNL A   1      45.895  27.025  35.766  1.00  0.00     0.002 A 
ATOM     95  C   UNL A   1      47.017  28.975  34.862  1.00  0.00     0.091 A 
ATOM     96  F   UNL A   1      45.817  30.439  33.410  1.00  0.00    -0.205 F 
ATOM     97  C   UNL A   1      47.026  27.832  35.675  1.00  0.00     0.022 A 
BRANCH  95  98
ATOM     98  S   UNL A   1      48.554  29.897  34.724  1.00  0.00     0.127 S 
ATOM     99  O   UNL A   1      48.875  29.730  33.307  1.00  0.00    -0.237 OA
ATOM    100  O   UNL A   1      48.138  31.248  35.100  1.00  0.00    -0.237 OA
ATOM    101  O   UNL A   1      49.485  29.270  35.652  1.00  0.00    -0.744 OA
ENDBRANCH  95  98
ENDBRANCH  68  91
ENDBRANCH  42  43
ENDBRANCH  34  37
ENDBRANCH  32  33
ENDBRANCH  31  32
ENDBRANCH   1  31
TORSDOF 18
ENDMDL
MODEL 2
REMARK VINA RESULT:     -12.6      1.913      2.185
REMARK SMILES COc1cccc(N2/C(=[NH+]/C(=O)CCC(=O)NCCCCNC(=O)c3ccc(-c4c5nc(c(-c6cccc(S(=O)(=O)[O-])c6F)c6ccc([nH]6)c(-c6cccc(S(=O)(=O)[O-])c6F)c6nc(c(-c7cccc(S(=O)(=O)[O-])c7F)c7ccc4[nH]7)C=C6)C=C5)cc3)S[C@@H]3CS(=O)(=O)C[C@H]32)c1
REMARK SMILES IDX 19 1 18 2 17 3 15 4 16 5 14 7 13 8 11 9 8 10 9 11 95 12
REMARK SMILES IDX 10 13 88 14 89 15 94 16 90 18 91 19 12 20 92 21 93 22 7 23
REMARK SMILES IDX 3 24 4 25 96 26 5 27 6 28 2 29 1 30 20 31 21 32 22 33 23 34
REMARK SMILES IDX 24 36 25 37 26 38 87 39 27 40 86 41 28 42 29 43 30 44 80 45
REMARK SMILES IDX 31 46 85 47 79 48 81 49 32 50 84 51 78 52 77 53 33 55 65 56
REMARK SMILES IDX 45 57 64 58 46 59 49 60 63 61 82 62 47 63 48 64 62 66 83 67
REMARK SMILES IDX 50 68 34 69 35 70 43 71 36 72 38 73 44 74 37 75 39 76 40 77
REMARK SMILES IDX 41 78 42 79 66 80 67 81 75 82 68 83 70 84 76 85 69 86 71 87
REMARK SMILES IDX 72 88 73 89 74 90 51 91 52 92 60 93 53 94 55 95 61 96 54 97
REMARK SMILES IDX 56 98 57 99 58 100 59 101
REMARK H PARENT 17 6 10 17 22 35 81 54 49 65
REMARK Flexibility Score: inf
ROOT
ATOM      1  C   UNL A   1      30.976  28.287  24.554  1.00  0.00     0.023 C 
ENDROOT
BRANCH   1   2
ATOM      2  C   UNL A   1      31.020  26.789  24.242  1.00  0.00     0.116 C 
BRANCH   2   3
ATOM      3  N   UNL A   1      30.810  25.943  25.407  1.00  0.00    -0.356 N 
ATOM      4  C   UNL A   1      31.686  25.250  26.182  1.00  0.00     0.220 C 
ATOM      5  O   UNL A   1      31.235  24.590  27.119  1.00  0.00    -0.275 OA
ATOM      6  H   UNL A   1      29.868  25.857  25.682  1.00  0.00     0.163 HD
BRANCH   4   7
ATOM      7  C   UNL A   1      33.171  25.330  25.923  1.00  0.00     0.112 C 
BRANCH   7   8
ATOM      8  C   UNL A   1      33.482  25.012  24.463  1.00  0.00     0.138 C 
BRANCH   8   9
ATOM      9  C   UNL A   1      33.163  23.569  24.145  1.00  0.00     0.308 C 
ATOM     10  N   UNL A   1      35.028  20.423  24.633  1.00  0.00    -0.216 N 
ATOM     11  C   UNL A   1      34.031  21.410  24.469  1.00  0.00     0.319 C 
ATOM     12  C   UNL A   1      34.470  19.078  24.910  1.00  0.00     0.212 C 
ATOM     13  N   UNL A   1      34.199  22.690  24.368  1.00  0.00    -0.204 N 
ATOM     14  S   UNL A   1      32.415  20.605  24.468  1.00  0.00    -0.029 SA
ATOM     15  C   UNL A   1      33.174  19.037  24.093  1.00  0.00     0.120 C 
ATOM     16  C   UNL A   1      35.188  17.795  24.519  1.00  0.00     0.188 C 
ATOM     17  H   UNL A   1      35.111  23.053  24.457  1.00  0.00     0.316 HD
ATOM     18  C   UNL A   1      32.479  17.759  24.470  1.00  0.00     0.156 C 
ATOM     19  S   UNL A   1      33.832  16.610  24.248  1.00  0.00     0.155 S 
ATOM     20  O   UNL A   1      32.049  23.308  23.694  1.00  0.00    -0.247 OA
ATOM     21  O   UNL A   1      33.838  16.218  22.855  1.00  0.00    -0.229 OA
ATOM     22  O   UNL A   1      33.788  15.627  25.307  1.00  0.00    -0.229 OA
BRANCH  10  23
ATOM     23  C   UNL A   1      36.365  20.694  25.002  1.00  0.00     0.132 A 
ATOM     24  C   UNL A   1      38.694  19.973  25.378  1.00  0.00     0.123 A 
ATOM     25  C   UNL A   1      39.022  21.261  25.789  1.00  0.00     0.047 A 
ATOM     26  C   UNL A   1      37.371  19.702  25.009  1.00  0.00     0.098 A 
ATOM     27  C   UNL A   1      38.050  22.258  25.821  1.00  0.00     0.008 A 
ATOM     28  C   UNL A   1      36.738  21.977  25.424  1.00  0.00     0.052 A 
BRANCH  24  29
ATOM     29  O   UNL A   1      39.736  19.091  25.437  1.00  0.00    -0.497 OA
ATOM     30  C   UNL A   1      40.919  19.432  26.140  1.00  0.00     0.278 C 
ENDBRANCH  24  29
ENDBRANCH  10  23
ENDBRANCH   8   9
ENDBRANCH   7   8
ENDBRANCH   4   7
ENDBRANCH   2   3
ENDBRANCH   1   2
BRANCH   1  31
ATOM     31  C   UNL A   1      31.711  28.653  25.839  1.00  0.00     0.023 C 
BRANCH  31  32
ATOM     32  C   UNL A   1      32.839  29.665  25.796  1.00  0.00     0.116 C 
BRANCH  32  33
ATOM     33  N   UNL A   1      32.465  30.969  26.308  1.00  0.00    -0.352 N 
ATOM     34  C   UNL A   1      33.103  31.867  27.132  1.00  0.00     0.251 C 
ATOM     35  H   UNL A   1      31.578  31.272  26.007  1.00  0.00     0.163 HD
ATOM     36  O   UNL A   1      32.477  32.892  27.407  1.00  0.00    -0.269 OA
BRANCH  34  37
ATOM     37  C   UNL A   1      34.435  31.629  27.774  1.00  0.00     0.039 A 
ATOM     38  C   UNL A   1      34.684  30.342  28.283  1.00  0.00     0.014 A 
ATOM     39  C   UNL A   1      35.432  32.589  27.931  1.00  0.00     0.014 A 
ATOM     40  C   UNL A   1      35.918  29.997  28.850  1.00  0.00     0.010 A 
ATOM     41  C   UNL A   1      36.685  32.244  28.451  1.00  0.00     0.010 A 
ATOM     42  C   UNL A   1      36.933  30.950  28.933  1.00  0.00    -0.014 A 
BRANCH  42  43
ATOM     43  C   UNL A   1      38.174  30.695  29.709  1.00  0.00     0.031 A 
ATOM     44  C   UNL A   1      39.202  29.772  29.113  1.00  0.00     0.074 A 
ATOM     45  C   UNL A   1      38.368  31.221  30.932  1.00  0.00     0.049 A 
ATOM     46  N   UNL A   1      40.292  29.286  29.645  1.00  0.00    -0.248 NA
ATOM     47  C   UNL A   1      38.953  29.320  27.733  1.00  0.00     0.031 C 
ATOM     48  C   UNL A   1      37.457  32.136  31.619  1.00  0.00     0.029 A 
ATOM     49  N   UNL A   1      39.390  31.027  31.831  1.00  0.00    -0.354 N 
ATOM     50  C   UNL A   1      40.833  28.440  28.687  1.00  0.00     0.074 A 
ATOM     51  C   UNL A   1      39.944  28.463  27.546  1.00  0.00     0.031 C 
ATOM     52  C   UNL A   1      37.949  32.403  32.841  1.00  0.00     0.029 A 
ATOM     53  C   UNL A   1      39.187  31.651  33.040  1.00  0.00     0.049 A 
ATOM     54  H   UNL A   1      40.191  30.493  31.627  1.00  0.00     0.167 HD
ATOM     55  C   UNL A   1      41.975  27.715  28.740  1.00  0.00     0.034 A 
ATOM     56  C   UNL A   1      39.903  31.595  34.182  1.00  0.00     0.034 A 
ATOM     57  C   UNL A   1      42.872  27.712  29.861  1.00  0.00     0.049 A 
ATOM     58  C   UNL A   1      41.160  30.759  34.227  1.00  0.00     0.074 A 
ATOM     59  C   UNL A   1      44.078  27.047  29.994  1.00  0.00     0.029 A 
ATOM     60  N   UNL A   1      42.659  28.396  31.047  1.00  0.00    -0.354 N 
ATOM     61  N   UNL A   1      41.712  30.041  33.278  1.00  0.00    -0.248 NA
ATOM     62  C   UNL A   1      41.908  30.749  35.494  1.00  0.00     0.031 C 
ATOM     63  C   UNL A   1      44.575  27.299  31.276  1.00  0.00     0.029 A 
ATOM     64  C   UNL A   1      43.702  28.159  31.924  1.00  0.00     0.049 A 
ATOM     65  H   UNL A   1      41.880  28.967  31.237  1.00  0.00     0.167 HD
ATOM     66  C   UNL A   1      42.889  29.531  33.819  1.00  0.00     0.074 A 
ATOM     67  C   UNL A   1      42.979  30.035  35.173  1.00  0.00     0.031 C 
ATOM     68  C   UNL A   1      43.808  28.712  33.249  1.00  0.00     0.034 A 
BRANCH  55  69
ATOM     69  C   UNL A   1      42.317  26.871  27.543  1.00  0.00     0.023 A 
ATOM     70  C   UNL A   1      42.735  27.484  26.343  1.00  0.00     0.012 A 
ATOM     71  C   UNL A   1      42.255  25.467  27.617  1.00  0.00     0.148 A 
ATOM     72  C   UNL A   1      43.046  26.714  25.224  1.00  0.00     0.002 A 
ATOM     73  C   UNL A   1      42.614  24.703  26.513  1.00  0.00     0.091 A 
ATOM     74  F   UNL A   1      41.831  24.904  28.758  1.00  0.00    -0.205 F 
ATOM     75  C   UNL A   1      42.996  25.325  25.313  1.00  0.00     0.022 A 
BRANCH  73  76
ATOM     76  S   UNL A   1      42.657  22.909  26.550  1.00  0.00     0.127 S 
ATOM     77  O   UNL A   1      42.358  22.579  25.158  1.00  0.00    -0.237 OA
ATOM     78  O   UNL A   1      44.037  22.644  26.957  1.00  0.00    -0.237 OA
ATOM     79  O   UNL A   1      41.648  22.502  27.517  1.00  0.00    -0.744 OA
ENDBRANCH  73  76
ENDBRANCH  55  69
BRANCH  56  80
ATOM     80  C   UNL A   1      39.467  32.365  35.384  1.00  0.00     0.023 A 
ATOM     81  C   UNL A   1      38.606  31.762  36.323  1.00  0.00     0.012 A 
ATOM     82  C   UNL A   1      39.890  33.691  35.597  1.00  0.00     0.148 A 
ATOM     83  C   UNL A   1      38.144  32.478  37.429  1.00  0.00     0.002 A 
ATOM     84  C   UNL A   1      39.475  34.378  36.732  1.00  0.00     0.091 A 
ATOM     85  F   UNL A   1      40.693  34.255  34.685  1.00  0.00    -0.205 F 
ATOM     86  C   UNL A   1      38.586  33.782  37.639  1.00  0.00     0.022 A 
BRANCH  84  87
ATOM     87  S   UNL A   1      40.100  36.009  37.152  1.00  0.00     0.127 S 
ATOM     88  O   UNL A   1      41.524  35.746  37.334  1.00  0.00    -0.237 OA
ATOM     89  O   UNL A   1      39.763  36.776  35.952  1.00  0.00    -0.237 OA
ATOM     90  O   UNL A   1      39.372  36.415  38.346  1.00  0.00    -0.744 OA
ENDBRANCH  84  87
ENDBRANCH  56  80
BRANCH  68  91
ATOM     91  C   UNL A   1      45.028  28.346  34.056  1.00  0.00     0.023 A 
ATOM     92  C   UNL A   1      46.155  29.191  34.062  1.00  0.00     0.012 A 
ATOM     93  C   UNL A   1      45.018  27.203  34.882  1.00  0.00     0.148 A 
ATOM     94  C   UNL A   1      47.265  28.887  34.851  1.00  0.00     0.002 A 
ATOM     95  C   UNL A   1      46.105  26.935  35.705  1.00  0.00     0.091 A 
ATOM     96  F   UNL A   1      43.943  26.402  34.851  1.00  0.00    -0.205 F 
ATOM     97  C   UNL A   1      47.235  27.768  35.680  1.00  0.00     0.022 A 
BRANCH  95  98
ATOM     98  S   UNL A   1      46.113  25.577  36.881  1.00  0.00     0.127 S 
ATOM     99  O   UNL A   1      47.401  25.766  37.547  1.00  0.00    -0.237 OA
ATOM    100  O   UNL A   1      44.948  25.881  37.711  1.00  0.00    -0.237 OA
ATOM    101  O   UNL A   1      45.993  24.359  36.091  1.00  0.00    -0.744 OA
ENDBRANCH  95  98
ENDBRANCH  68  91
ENDBRANCH  42  43
ENDBRANCH  34  37
ENDBRANCH  32  33
ENDBRANCH  31  32
ENDBRANCH   1  31
TORSDOF 18
ENDMDL
MODEL 3
REMARK VINA RESULT:     -12.6      2.521      3.144
REMARK SMILES COc1cccc(N2/C(=[NH+]/C(=O)CCC(=O)NCCCCNC(=O)c3ccc(-c4c5nc(c(-c6cccc(S(=O)(=O)[O-])c6F)c6ccc([nH]6)c(-c6cccc(S(=O)(=O)[O-])c6F)c6nc(c(-c7cccc(S(=O)(=O)[O-])c7F)c7ccc4[nH]7)C=C6)C=C5)cc3)S[C@@H]3CS(=O)(=O)C[C@H]32)c1
REMARK SMILES IDX 19 1 18 2 17 3 15 4 16 5 14 7 13 8 11 9 8 10 9 11 95 12
REMARK SMILES IDX 10 13 88 14 89 15 94 16 90 18 91 19 12 20 92 21 93 22 7 23
REMARK SMILES IDX 3 24 4 25 96 26 5 27 6 28 2 29 1 30 20 31 21 32 22 33 23 34
REMARK SMILES IDX 24 36 25 37 26 38 87 39 27 40 86 41 28 42 29 43 30 44 80 45
REMARK SMILES IDX 31 46 85 47 79 48 81 49 32 50 84 51 78 52 77 53 33 55 65 56
REMARK SMILES IDX 45 57 64 58 46 59 49 60 63 61 82 62 47 63 48 64 62 66 83 67
REMARK SMILES IDX 50 68 34 69 35 70 43 71 36 72 38 73 44 74 37 75 39 76 40 77
REMARK SMILES IDX 41 78 42 79 66 80 67 81 75 82 68 83 70 84 76 85 69 86 71 87
REMARK SMILES IDX 72 88 73 89 74 90 51 91 52 92 60 93 53 94 55 95 61 96 54 97
REMARK SMILES IDX 56 98 57 99 58 100 59 101
REMARK H PARENT 17 6 10 17 22 35 81 54 49 65
REMARK Flexibility Score: inf
ROOT
ATOM      1  C   UNL A   1      30.970  31.104  25.397  1.00  0.00     0.023 C 
ENDROOT
BRANCH   1   2
ATOM      2  C   UNL A   1      31.738  29.812  25.104  1.00  0.00     0.116 C 
BRANCH   2   3
ATOM      3  N   UNL A   1      31.326  29.155  23.872  1.00  0.00    -0.356 N 
ATOM      4  C   UNL A   1      31.818  28.061  23.233  1.00  0.00     0.220 C 
ATOM      5  O   UNL A   1      31.283  27.716  22.180  1.00  0.00    -0.275 OA
ATOM      6  H   UNL A   1      30.558  29.577  23.424  1.00  0.00     0.163 HD
BRANCH   4   7
ATOM      7  C   UNL A   1      32.958  27.270  23.829  1.00  0.00     0.112 C 
BRANCH   7   8
ATOM      8  C   UNL A   1      33.749  26.556  22.737  1.00  0.00     0.138 C 
BRANCH   8   9
ATOM      9  C   UNL A   1      33.397  25.086  22.688  1.00  0.00     0.308 C 
ATOM     10  N   UNL A   1      34.828  22.111  24.334  1.00  0.00    -0.216 N 
ATOM     11  C   UNL A   1      33.983  23.051  23.704  1.00  0.00     0.319 C 
ATOM     12  C   UNL A   1      34.111  20.885  24.763  1.00  0.00     0.212 C 
ATOM     13  N   UNL A   1      34.275  24.264  23.359  1.00  0.00    -0.204 N 
ATOM     14  S   UNL A   1      32.353  22.307  23.484  1.00  0.00    -0.029 SA
ATOM     15  C   UNL A   1      33.048  20.678  23.680  1.00  0.00     0.120 C 
ATOM     16  C   UNL A   1      34.794  19.530  24.868  1.00  0.00     0.188 C 
ATOM     17  H   UNL A   1      35.166  24.617  23.587  1.00  0.00     0.316 HD
ATOM     18  C   UNL A   1      32.180  19.546  24.153  1.00  0.00     0.156 C 
ATOM     19  S   UNL A   1      33.449  18.346  24.545  1.00  0.00     0.155 S 
ATOM     20  O   UNL A   1      32.404  24.750  22.045  1.00  0.00    -0.247 OA
ATOM     21  O   UNL A   1      33.753  17.628  23.326  1.00  0.00    -0.229 OA
ATOM     22  O   UNL A   1      33.074  17.650  25.756  1.00  0.00    -0.229 OA
BRANCH  10  23
ATOM     23  C   UNL A   1      36.057  22.432  24.953  1.00  0.00     0.132 A 
ATOM     24  C   UNL A   1      38.339  21.832  25.673  1.00  0.00     0.123 A 
ATOM     25  C   UNL A   1      38.488  23.094  26.239  1.00  0.00     0.047 A 
ATOM     26  C   UNL A   1      37.123  21.511  25.056  1.00  0.00     0.098 A 
ATOM     27  C   UNL A   1      37.447  24.018  26.180  1.00  0.00     0.008 A 
ATOM     28  C   UNL A   1      36.249  23.691  25.538  1.00  0.00     0.052 A 
BRANCH  24  29
ATOM     29  O   UNL A   1      39.423  21.018  25.842  1.00  0.00    -0.497 OA
ATOM     30  C   UNL A   1      39.326  19.632  25.559  1.00  0.00     0.278 C 
ENDBRANCH  24  29
ENDBRANCH  10  23
ENDBRANCH   8   9
ENDBRANCH   7   8
ENDBRANCH   4   7
ENDBRANCH   2   3
ENDBRANCH   1   2
BRANCH   1  31
ATOM     31  C   UNL A   1      31.277  31.684  26.773  1.00  0.00     0.023 C 
BRANCH  31  32
ATOM     32  C   UNL A   1      32.599  32.386  27.014  1.00  0.00     0.116 C 
BRANCH  32  33
ATOM     33  N   UNL A   1      32.457  33.684  27.643  1.00  0.00    -0.352 N 
ATOM     34  C   UNL A   1      33.230  34.372  28.549  1.00  0.00     0.251 C 
ATOM     35  H   UNL A   1      31.647  34.171  27.367  1.00  0.00     0.163 HD
ATOM     36  O   UNL A   1      32.794  35.466  28.915  1.00  0.00    -0.269 OA
BRANCH  34  37
ATOM     37  C   UNL A   1      34.482  33.838  29.173  1.00  0.00     0.039 A 
ATOM     38  C   UNL A   1      34.348  32.761  30.067  1.00  0.00     0.014 A 
ATOM     39  C   UNL A   1      35.763  34.343  28.959  1.00  0.00     0.014 A 
ATOM     40  C   UNL A   1      35.460  32.148  30.659  1.00  0.00     0.010 A 
ATOM     41  C   UNL A   1      36.885  33.709  29.508  1.00  0.00     0.010 A 
ATOM     42  C   UNL A   1      36.742  32.619  30.378  1.00  0.00    -0.014 A 
BRANCH  42  43
ATOM     43  C   UNL A   1      37.926  32.143  31.137  1.00  0.00     0.031 A 
ATOM     44  C   UNL A   1      38.758  31.045  30.533  1.00  0.00     0.074 A 
ATOM     45  C   UNL A   1      38.231  32.629  32.355  1.00  0.00     0.049 A 
ATOM     46  N   UNL A   1      39.748  30.369  31.053  1.00  0.00    -0.248 NA
ATOM     47  C   UNL A   1      38.410  30.642  29.160  1.00  0.00     0.031 C 
ATOM     48  C   UNL A   1      37.514  33.697  33.048  1.00  0.00     0.029 A 
ATOM     49  N   UNL A   1      39.214  32.253  33.240  1.00  0.00    -0.354 N 
ATOM     50  C   UNL A   1      40.110  29.434  30.092  1.00  0.00     0.074 A 
ATOM     51  C   UNL A   1      39.224  29.617  28.964  1.00  0.00     0.031 C 
ATOM     52  C   UNL A   1      38.065  33.874  34.262  1.00  0.00     0.029 A 
ATOM     53  C   UNL A   1      39.147  32.908  34.448  1.00  0.00     0.049 A 
ATOM     54  H   UNL A   1      39.900  31.580  33.029  1.00  0.00     0.167 HD
ATOM     55  C   UNL A   1      41.100  28.512  30.134  1.00  0.00     0.034 A 
ATOM     56  C   UNL A   1      39.857  32.724  35.581  1.00  0.00     0.034 A 
ATOM     57  C   UNL A   1      41.999  28.348  31.242  1.00  0.00     0.049 A 
ATOM     58  C   UNL A   1      40.940  31.673  35.613  1.00  0.00     0.074 A 
ATOM     59  C   UNL A   1      43.063  27.473  31.362  1.00  0.00     0.029 A 
ATOM     60  N   UNL A   1      41.932  29.063  32.427  1.00  0.00    -0.354 N 
ATOM     61  N   UNL A   1      41.336  30.862  34.661  1.00  0.00    -0.248 NA
ATOM     62  C   UNL A   1      41.692  31.529  36.870  1.00  0.00     0.031 C 
ATOM     63  C   UNL A   1      43.617  27.634  32.635  1.00  0.00     0.029 A 
ATOM     64  C   UNL A   1      42.927  28.641  33.291  1.00  0.00     0.049 A 
ATOM     65  H   UNL A   1      41.274  29.768  32.624  1.00  0.00     0.167 HD
ATOM     66  C   UNL A   1      42.408  30.147  35.188  1.00  0.00     0.074 A 
ATOM     67  C   UNL A   1      42.609  30.629  36.538  1.00  0.00     0.031 C 
ATOM     68  C   UNL A   1      43.152  29.171  34.610  1.00  0.00     0.034 A 
BRANCH  55  69
ATOM     69  C   UNL A   1      41.264  27.615  28.937  1.00  0.00     0.023 A 
ATOM     70  C   UNL A   1      40.448  26.473  28.795  1.00  0.00     0.012 A 
ATOM     71  C   UNL A   1      42.206  27.922  27.937  1.00  0.00     0.148 A 
ATOM     72  C   UNL A   1      40.596  25.628  27.696  1.00  0.00     0.002 A 
ATOM     73  C   UNL A   1      42.313  27.103  26.820  1.00  0.00     0.091 A 
ATOM     74  F   UNL A   1      42.989  28.998  28.103  1.00  0.00    -0.205 F 
ATOM     75  C   UNL A   1      41.520  25.950  26.705  1.00  0.00     0.022 A 
BRANCH  73  76
ATOM     76  S   UNL A   1      43.417  27.471  25.452  1.00  0.00     0.127 S 
ATOM     77  O   UNL A   1      43.966  26.150  25.154  1.00  0.00    -0.237 OA
ATOM     78  O   UNL A   1      42.492  27.991  24.445  1.00  0.00    -0.237 OA
ATOM     79  O   UNL A   1      44.374  28.444  25.959  1.00  0.00    -0.744 OA
ENDBRANCH  73  76
ENDBRANCH  55  69
BRANCH  56  80
ATOM     80  C   UNL A   1      39.587  33.566  36.784  1.00  0.00     0.023 A 
ATOM     81  C   UNL A   1      40.061  34.893  36.827  1.00  0.00     0.012 A 
ATOM     82  C   UNL A   1      38.875  33.057  37.887  1.00  0.00     0.148 A 
ATOM     83  C   UNL A   1      39.864  35.683  37.961  1.00  0.00     0.002 A 
ATOM     84  C   UNL A   1      38.630  33.869  38.989  1.00  0.00     0.091 A 
ATOM     85  F   UNL A   1      38.449  31.788  37.837  1.00  0.00    -0.205 F 
ATOM     86  C   UNL A   1      39.140  35.175  39.037  1.00  0.00     0.022 A 
BRANCH  84  87
ATOM     87  S   UNL A   1      37.594  33.345  40.360  1.00  0.00     0.127 S 
ATOM     88  O   UNL A   1      38.360  32.226  40.902  1.00  0.00    -0.237 OA
ATOM     89  O   UNL A   1      37.576  34.545  41.197  1.00  0.00    -0.237 OA
ATOM     90  O   UNL A   1      36.305  33.005  39.773  1.00  0.00    -0.744 OA
ENDBRANCH  84  87
ENDBRANCH  56  80
BRANCH  68  91
ATOM     91  C   UNL A   1      44.296  28.590  35.403  1.00  0.00     0.023 A 
ATOM     92  C   UNL A   1      45.592  29.127  35.277  1.00  0.00     0.012 A 
ATOM     93  C   UNL A   1      44.062  27.564  36.343  1.00  0.00     0.148 A 
ATOM     94  C   UNL A   1      46.643  28.630  36.049  1.00  0.00     0.002 A 
ATOM     95  C   UNL A   1      45.102  27.112  37.145  1.00  0.00     0.091 A 
ATOM     96  F   UNL A   1      42.825  27.054  36.437  1.00  0.00    -0.205 F 
ATOM     97  C   UNL A   1      46.396  27.634  36.990  1.00  0.00     0.022 A 
BRANCH  95  98
ATOM     98  S   UNL A   1      44.855  25.906  38.455  1.00  0.00     0.127 S 
ATOM     99  O   UNL A   1      46.217  25.733  38.960  1.00  0.00    -0.237 OA
ATOM    100  O   UNL A   1      43.954  26.616  39.362  1.00  0.00    -0.237 OA
ATOM    101  O   UNL A   1      44.273  24.733  37.818  1.00  0.00    -0.744 OA
ENDBRANCH  95  98
ENDBRANCH  68  91
ENDBRANCH  42  43
ENDBRANCH  34  37
ENDBRANCH  32  33
ENDBRANCH  31  32
ENDBRANCH   1  31
TORSDOF 18
ENDMDL
