MODEL 1
REMARK VINA RESULT:     -12.1      0.000      0.000
REMARK SMILES C=Cc1cccc(-c2ccc([C@@H](C)C(=O)NCCCCNC(=O)c3ccc(-c4c5nc(c(-c6cccc(S(=O)(=O)[O-])c6F)c6ccc([nH]6)c(-c6cccc(S(=O)(=O)[O-])c6F)c6nc(c(-c7cccc(S(=O)(=O)[O-])c7F)c7ccc4[nH]7)C=C6)C=C5)cc3)cc2)c1
REMARK SMILES IDX 18 1 17 2 16 3 14 4 15 5 12 7 13 8 11 9 8 10 9 11 88 12
REMARK SMILES IDX 10 13 87 14 7 15 3 16 4 17 89 18 5 19 6 20 2 21 1 22 19 23
REMARK SMILES IDX 20 24 21 25 22 26 23 28 24 29 25 30 86 31 26 32 85 33 27 34
REMARK SMILES IDX 28 35 29 36 79 37 30 38 84 39 78 40 80 41 31 42 83 43 77 44
REMARK SMILES IDX 76 45 32 47 64 48 44 49 63 50 45 51 48 52 62 53 81 54 46 55
REMARK SMILES IDX 47 56 61 58 82 59 49 60 33 61 34 62 42 63 35 64 37 65 43 66
REMARK SMILES IDX 36 67 38 68 39 69 40 70 41 71 65 72 66 73 74 74 67 75 69 76
REMARK SMILES IDX 75 77 68 78 70 79 71 80 72 81 73 82 50 83 51 84 59 85 52 86
REMARK SMILES IDX 54 87 60 88 53 89 55 90 56 91 57 92 58 93
REMARK H PARENT 16 6 21 27 80 46 48 57
REMARK Flexibility Score: inf
ROOT
ATOM      1  C   UNL A   1      36.372  23.176  23.638  1.00  0.00     0.023 C 
ENDROOT
BRANCH   1   2
ATOM      2  C   UNL A   1      35.013  23.337  22.958  1.00  0.00     0.116 C 
BRANCH   2   3
ATOM      3  N   UNL A   1      34.032  22.390  23.448  1.00  0.00    -0.356 N 
ATOM      4  C   UNL A   1      33.220  22.419  24.540  1.00  0.00     0.227 C 
ATOM      5  O   UNL A   1      32.495  21.433  24.724  1.00  0.00    -0.274 OA
ATOM      6  H   UNL A   1      33.936  21.583  22.893  1.00  0.00     0.163 HD
BRANCH   4   7
ATOM      7  C   UNL A   1      33.151  23.600  25.519  1.00  0.00     0.105 C 
ATOM      8  C   UNL A   1      33.080  23.185  26.990  1.00  0.00     0.023 C 
BRANCH   7   9
ATOM      9  C   UNL A   1      32.195  24.697  25.077  1.00  0.00    -0.036 A 
ATOM     10  C   UNL A   1      30.286  26.604  24.116  1.00  0.00    -0.018 A 
ATOM     11  C   UNL A   1      30.404  26.294  25.482  1.00  0.00     0.009 A 
ATOM     12  C   UNL A   1      31.182  25.959  23.248  1.00  0.00     0.009 A 
ATOM     13  C   UNL A   1      31.359  25.385  25.958  1.00  0.00     0.005 A 
ATOM     14  C   UNL A   1      32.102  25.010  23.714  1.00  0.00     0.005 A 
BRANCH  10  15
ATOM     15  C   UNL A   1      29.253  27.549  23.620  1.00  0.00    -0.018 A 
ATOM     16  C   UNL A   1      28.624  29.581  22.377  1.00  0.00    -0.026 A 
ATOM     17  C   UNL A   1      27.278  29.336  22.657  1.00  0.00     0.008 A 
ATOM     18  C   UNL A   1      29.595  28.687  22.860  1.00  0.00     0.016 A 
ATOM     19  C   UNL A   1      26.908  28.216  23.396  1.00  0.00     0.001 A 
ATOM     20  C   UNL A   1      27.885  27.340  23.876  1.00  0.00     0.009 A 
BRANCH  16  21
ATOM     21  C   UNL A   1      28.980  30.799  21.637  1.00  0.00     0.000 C 
ATOM     22  C   UNL A   1      28.160  31.842  21.458  1.00  0.00     0.009 C 
ENDBRANCH  16  21
ENDBRANCH  10  15
ENDBRANCH   7   9
ENDBRANCH   4   7
ENDBRANCH   2   3
ENDBRANCH   1   2
BRANCH   1  23
ATOM     23  C   UNL A   1      36.784  21.734  23.930  1.00  0.00     0.023 C 
BRANCH  23  24
ATOM     24  C   UNL A   1      37.209  21.448  25.368  1.00  0.00     0.116 C 
BRANCH  24  25
ATOM     25  N   UNL A   1      38.235  20.420  25.494  1.00  0.00    -0.352 N 
ATOM     26  C   UNL A   1      39.482  20.532  26.071  1.00  0.00     0.251 C 
ATOM     27  H   UNL A   1      38.010  19.538  25.121  1.00  0.00     0.163 HD
ATOM     28  O   UNL A   1      40.270  19.595  26.048  1.00  0.00    -0.269 OA
BRANCH  26  29
ATOM     29  C   UNL A   1      39.870  21.824  26.676  1.00  0.00     0.039 A 
ATOM     30  C   UNL A   1      40.796  21.830  27.722  1.00  0.00     0.014 A 
ATOM     31  C   UNL A   1      39.394  23.022  26.140  1.00  0.00     0.014 A 
ATOM     32  C   UNL A   1      41.324  23.045  28.165  1.00  0.00     0.010 A 
ATOM     33  C   UNL A   1      39.969  24.224  26.537  1.00  0.00     0.010 A 
ATOM     34  C   UNL A   1      40.954  24.245  27.538  1.00  0.00    -0.014 A 
BRANCH  34  35
ATOM     35  C   UNL A   1      41.618  25.534  27.859  1.00  0.00     0.031 A 
ATOM     36  C   UNL A   1      40.853  26.622  28.558  1.00  0.00     0.074 A 
ATOM     37  C   UNL A   1      42.862  25.771  27.396  1.00  0.00     0.049 A 
ATOM     38  N   UNL A   1      41.213  27.854  28.802  1.00  0.00    -0.248 NA
ATOM     39  C   UNL A   1      39.493  26.290  29.013  1.00  0.00     0.031 C 
ATOM     40  C   UNL A   1      43.675  24.824  26.630  1.00  0.00     0.029 A 
ATOM     41  N   UNL A   1      43.644  26.898  27.465  1.00  0.00    -0.354 N 
ATOM     42  C   UNL A   1      40.112  28.458  29.398  1.00  0.00     0.074 A 
ATOM     43  C   UNL A   1      39.064  27.463  29.458  1.00  0.00     0.031 C 
ATOM     44  C   UNL A   1      44.835  25.410  26.294  1.00  0.00     0.029 A 
ATOM     45  C   UNL A   1      44.839  26.781  26.791  1.00  0.00     0.049 A 
ATOM     46  H   UNL A   1      43.376  27.711  27.950  1.00  0.00     0.167 HD
ATOM     47  C   UNL A   1      39.996  29.718  29.880  1.00  0.00     0.034 A 
ATOM     48  C   UNL A   1      45.820  27.682  26.585  1.00  0.00     0.034 A 
ATOM     49  C   UNL A   1      41.061  30.682  29.877  1.00  0.00     0.049 A 
ATOM     50  C   UNL A   1      45.680  29.063  27.164  1.00  0.00     0.074 A 
ATOM     51  C   UNL A   1      41.082  31.941  30.452  1.00  0.00     0.029 A 
ATOM     52  N   UNL A   1      42.291  30.500  29.266  1.00  0.00    -0.354 N 
ATOM     53  N   UNL A   1      44.701  29.560  27.882  1.00  0.00    -0.248 NA
ATOM     54  C   UNL A   1      46.788  30.001  26.929  1.00  0.00     0.031 C 
ATOM     55  C   UNL A   1      42.324  32.524  30.179  1.00  0.00     0.029 A 
ATOM     56  C   UNL A   1      43.077  31.627  29.437  1.00  0.00     0.049 A 
ATOM     57  H   UNL A   1      42.567  29.688  28.782  1.00  0.00     0.167 HD
ATOM     58  C   UNL A   1      45.083  30.856  28.202  1.00  0.00     0.074 A 
ATOM     59  C   UNL A   1      46.394  31.062  27.622  1.00  0.00     0.031 C 
ATOM     60  C   UNL A   1      44.401  31.800  28.897  1.00  0.00     0.034 A 
BRANCH  47  61
ATOM     61  C   UNL A   1      38.690  30.101  30.519  1.00  0.00     0.023 A 
ATOM     62  C   UNL A   1      38.438  29.716  31.852  1.00  0.00     0.012 A 
ATOM     63  C   UNL A   1      37.740  30.880  29.831  1.00  0.00     0.148 A 
ATOM     64  C   UNL A   1      37.247  30.076  32.481  1.00  0.00     0.002 A 
ATOM     65  C   UNL A   1      36.572  31.267  30.478  1.00  0.00     0.091 A 
ATOM     66  F   UNL A   1      37.987  31.214  28.556  1.00  0.00    -0.205 F 
ATOM     67  C   UNL A   1      36.320  30.859  31.799  1.00  0.00     0.022 A 
BRANCH  65  68
ATOM     68  S   UNL A   1      35.348  32.330  29.704  1.00  0.00     0.127 S 
ATOM     69  O   UNL A   1      34.843  31.468  28.636  1.00  0.00    -0.237 OA
ATOM     70  O   UNL A   1      34.403  32.563  30.797  1.00  0.00    -0.237 OA
ATOM     71  O   UNL A   1      36.071  33.517  29.268  1.00  0.00    -0.744 OA
ENDBRANCH  65  68
ENDBRANCH  47  61
BRANCH  48  72
ATOM     72  C   UNL A   1      47.050  27.283  25.846  1.00  0.00     0.023 A 
ATOM     73  C   UNL A   1      47.142  27.566  24.468  1.00  0.00     0.012 A 
ATOM     74  C   UNL A   1      48.139  26.670  26.494  1.00  0.00     0.148 A 
ATOM     75  C   UNL A   1      48.286  27.224  23.746  1.00  0.00     0.002 A 
ATOM     76  C   UNL A   1      49.296  26.378  25.779  1.00  0.00     0.091 A 
ATOM     77  F   UNL A   1      48.027  26.392  27.801  1.00  0.00    -0.205 F 
ATOM     78  C   UNL A   1      49.366  26.641  24.403  1.00  0.00     0.022 A 
BRANCH  76  79
ATOM     79  S   UNL A   1      50.778  25.748  26.576  1.00  0.00     0.127 S 
ATOM     80  O   UNL A   1      51.680  25.578  25.441  1.00  0.00    -0.237 OA
ATOM     81  O   UNL A   1      51.128  26.842  27.484  1.00  0.00    -0.237 OA
ATOM     82  O   UNL A   1      50.363  24.525  27.252  1.00  0.00    -0.744 OA
ENDBRANCH  76  79
ENDBRANCH  48  72
BRANCH  60  83
ATOM     83  C   UNL A   1      45.051  33.144  29.078  1.00  0.00     0.023 A 
ATOM     84  C   UNL A   1      45.855  33.373  30.210  1.00  0.00     0.012 A 
ATOM     85  C   UNL A   1      44.945  34.141  28.088  1.00  0.00     0.148 A 
ATOM     86  C   UNL A   1      46.535  34.581  30.364  1.00  0.00     0.002 A 
ATOM     87  C   UNL A   1      45.658  35.326  28.228  1.00  0.00     0.091 A 
ATOM     88  F   UNL A   1      44.159  33.908  27.027  1.00  0.00    -0.205 F 
ATOM     89  C   UNL A   1      46.446  35.550  29.369  1.00  0.00     0.022 A 
BRANCH  87  90
ATOM     90  S   UNL A   1      45.675  36.598  26.958  1.00  0.00     0.127 S 
ATOM     91  O   UNL A   1      46.177  35.858  25.802  1.00  0.00    -0.237 OA
ATOM     92  O   UNL A   1      44.263  36.974  26.876  1.00  0.00    -0.237 OA
ATOM     93  O   UNL A   1      46.551  37.649  27.456  1.00  0.00    -0.744 OA
ENDBRANCH  87  90
ENDBRANCH  60  83
ENDBRANCH  34  35
ENDBRANCH  26  29
ENDBRANCH  24  25
ENDBRANCH  23  24
ENDBRANCH   1  23
TORSDOF 17
ENDMDL
MODEL 2
REMARK VINA RESULT:     -12.0      1.787      7.914
REMARK SMILES C=Cc1cccc(-c2ccc([C@@H](C)C(=O)NCCCCNC(=O)c3ccc(-c4c5nc(c(-c6cccc(S(=O)(=O)[O-])c6F)c6ccc([nH]6)c(-c6cccc(S(=O)(=O)[O-])c6F)c6nc(c(-c7cccc(S(=O)(=O)[O-])c7F)c7ccc4[nH]7)C=C6)C=C5)cc3)cc2)c1
REMARK SMILES IDX 18 1 17 2 16 3 14 4 15 5 12 7 13 8 11 9 8 10 9 11 88 12
REMARK SMILES IDX 10 13 87 14 7 15 3 16 4 17 89 18 5 19 6 20 2 21 1 22 19 23
REMARK SMILES IDX 20 24 21 25 22 26 23 28 24 29 25 30 86 31 26 32 85 33 27 34
REMARK SMILES IDX 28 35 29 36 79 37 30 38 84 39 78 40 80 41 31 42 83 43 77 44
REMARK SMILES IDX 76 45 32 47 64 48 44 49 63 50 45 51 48 52 62 53 81 54 46 55
REMARK SMILES IDX 47 56 61 58 82 59 49 60 33 61 34 62 42 63 35 64 37 65 43 66
REMARK SMILES IDX 36 67 38 68 39 69 40 70 41 71 65 72 66 73 74 74 67 75 69 76
REMARK SMILES IDX 75 77 68 78 70 79 71 80 72 81 73 82 50 83 51 84 59 85 52 86
REMARK SMILES IDX 54 87 60 88 53 89 55 90 56 91 57 92 58 93
REMARK H PARENT 16 6 21 27 80 46 48 57
REMARK Flexibility Score: inf
ROOT
ATOM      1  C   UNL A   1      36.877  19.718  25.014  1.00  0.00     0.023 C 
ENDROOT
BRANCH   1   2
ATOM      2  C   UNL A   1      35.519  20.366  24.750  1.00  0.00     0.116 C 
BRANCH   2   3
ATOM      3  N   UNL A   1      35.004  21.065  25.910  1.00  0.00    -0.356 N 
ATOM      4  C   UNL A   1      35.077  22.375  26.278  1.00  0.00     0.227 C 
ATOM      5  O   UNL A   1      34.561  22.679  27.360  1.00  0.00    -0.274 OA
ATOM      6  H   UNL A   1      34.515  20.493  26.543  1.00  0.00     0.163 HD
BRANCH   4   7
ATOM      7  C   UNL A   1      35.739  23.464  25.421  1.00  0.00     0.105 C 
ATOM      8  C   UNL A   1      37.073  23.965  25.977  1.00  0.00     0.023 C 
BRANCH   7   9
ATOM      9  C   UNL A   1      34.765  24.526  24.936  1.00  0.00    -0.036 A 
ATOM     10  C   UNL A   1      32.781  26.355  23.974  1.00  0.00    -0.018 A 
ATOM     11  C   UNL A   1      33.255  26.401  25.296  1.00  0.00     0.009 A 
ATOM     12  C   UNL A   1      33.360  25.390  23.134  1.00  0.00     0.009 A 
ATOM     13  C   UNL A   1      34.249  25.527  25.760  1.00  0.00     0.005 A 
ATOM     14  C   UNL A   1      34.316  24.481  23.608  1.00  0.00     0.005 A 
BRANCH  10  15
ATOM     15  C   UNL A   1      31.710  27.268  23.502  1.00  0.00    -0.018 A 
ATOM     16  C   UNL A   1      29.325  27.860  23.308  1.00  0.00    -0.026 A 
ATOM     17  C   UNL A   1      29.671  29.025  22.619  1.00  0.00     0.008 A 
ATOM     18  C   UNL A   1      30.346  26.995  23.740  1.00  0.00     0.016 A 
ATOM     19  C   UNL A   1      31.008  29.326  22.377  1.00  0.00     0.001 A 
ATOM     20  C   UNL A   1      32.011  28.454  22.807  1.00  0.00     0.009 A 
BRANCH  16  21
ATOM     21  C   UNL A   1      27.903  27.549  23.501  1.00  0.00     0.000 C 
ATOM     22  C   UNL A   1      26.922  28.461  23.485  1.00  0.00     0.009 C 
ENDBRANCH  16  21
ENDBRANCH  10  15
ENDBRANCH   7   9
ENDBRANCH   4   7
ENDBRANCH   2   3
ENDBRANCH   1   2
BRANCH   1  23
ATOM     23  C   UNL A   1      38.077  20.657  24.895  1.00  0.00     0.023 C 
BRANCH  23  24
ATOM     24  C   UNL A   1      39.057  20.626  26.064  1.00  0.00     0.116 C 
BRANCH  24  25
ATOM     25  N   UNL A   1      39.989  19.505  26.033  1.00  0.00    -0.352 N 
ATOM     26  C   UNL A   1      41.363  19.540  26.140  1.00  0.00     0.251 C 
ATOM     27  H   UNL A   1      39.588  18.614  25.922  1.00  0.00     0.163 HD
ATOM     28  O   UNL A   1      42.026  18.517  26.032  1.00  0.00    -0.269 OA
BRANCH  26  29
ATOM     29  C   UNL A   1      42.025  20.848  26.338  1.00  0.00     0.039 A 
ATOM     30  C   UNL A   1      42.315  21.634  25.220  1.00  0.00     0.014 A 
ATOM     31  C   UNL A   1      42.261  21.328  27.627  1.00  0.00     0.014 A 
ATOM     32  C   UNL A   1      42.750  22.949  25.400  1.00  0.00     0.010 A 
ATOM     33  C   UNL A   1      42.631  22.657  27.804  1.00  0.00     0.010 A 
ATOM     34  C   UNL A   1      42.858  23.485  26.693  1.00  0.00    -0.014 A 
BRANCH  34  35
ATOM     35  C   UNL A   1      43.148  24.923  26.923  1.00  0.00     0.031 A 
ATOM     36  C   UNL A   1      44.518  25.471  26.639  1.00  0.00     0.074 A 
ATOM     37  C   UNL A   1      42.219  25.699  27.518  1.00  0.00     0.049 A 
ATOM     38  N   UNL A   1      45.001  26.657  26.900  1.00  0.00    -0.248 NA
ATOM     39  C   UNL A   1      45.482  24.554  26.008  1.00  0.00     0.031 C 
ATOM     40  C   UNL A   1      40.881  25.260  27.920  1.00  0.00     0.029 A 
ATOM     41  N   UNL A   1      42.274  27.008  27.927  1.00  0.00    -0.354 N 
ATOM     42  C   UNL A   1      46.333  26.617  26.508  1.00  0.00     0.074 A 
ATOM     43  C   UNL A   1      46.589  25.282  26.012  1.00  0.00     0.031 C 
ATOM     44  C   UNL A   1      40.246  26.277  28.523  1.00  0.00     0.029 A 
ATOM     45  C   UNL A   1      41.138  27.430  28.581  1.00  0.00     0.049 A 
ATOM     46  H   UNL A   1      43.051  27.591  27.768  1.00  0.00     0.167 HD
ATOM     47  C   UNL A   1      47.251  27.612  26.530  1.00  0.00     0.034 A 
ATOM     48  C   UNL A   1      40.853  28.607  29.171  1.00  0.00     0.034 A 
ATOM     49  C   UNL A   1      46.975  28.953  26.962  1.00  0.00     0.049 A 
ATOM     50  C   UNL A   1      41.879  29.707  29.148  1.00  0.00     0.074 A 
ATOM     51  C   UNL A   1      47.801  30.062  26.905  1.00  0.00     0.029 A 
ATOM     52  N   UNL A   1      45.784  29.370  27.535  1.00  0.00    -0.354 N 
ATOM     53  N   UNL A   1      43.075  29.705  28.610  1.00  0.00    -0.248 NA
ATOM     54  C   UNL A   1      41.510  30.979  29.787  1.00  0.00     0.031 C 
ATOM     55  C   UNL A   1      47.112  31.148  27.455  1.00  0.00     0.029 A 
ATOM     56  C   UNL A   1      45.856  30.716  27.850  1.00  0.00     0.049 A 
ATOM     57  H   UNL A   1      45.002  28.794  27.693  1.00  0.00     0.167 HD
ATOM     58  C   UNL A   1      43.592  30.976  28.826  1.00  0.00     0.074 A 
ATOM     59  C   UNL A   1      42.570  31.731  29.521  1.00  0.00     0.031 C 
ATOM     60  C   UNL A   1      44.812  31.469  28.497  1.00  0.00     0.034 A 
BRANCH  47  61
ATOM     61  C   UNL A   1      48.625  27.302  26.001  1.00  0.00     0.023 A 
ATOM     62  C   UNL A   1      49.582  26.733  26.866  1.00  0.00     0.012 A 
ATOM     63  C   UNL A   1      48.954  27.517  24.649  1.00  0.00     0.148 A 
ATOM     64  C   UNL A   1      50.857  26.412  26.401  1.00  0.00     0.002 A 
ATOM     65  C   UNL A   1      50.214  27.159  24.184  1.00  0.00     0.091 A 
ATOM     66  F   UNL A   1      48.038  28.083  23.849  1.00  0.00    -0.205 F 
ATOM     67  C   UNL A   1      51.169  26.616  25.060  1.00  0.00     0.022 A 
BRANCH  65  68
ATOM     68  S   UNL A   1      50.687  27.322  22.459  1.00  0.00     0.127 S 
ATOM     69  O   UNL A   1      50.658  28.774  22.281  1.00  0.00    -0.237 OA
ATOM     70  O   UNL A   1      52.027  26.734  22.447  1.00  0.00    -0.237 OA
ATOM     71  O   UNL A   1      49.693  26.575  21.701  1.00  0.00    -0.744 OA
ENDBRANCH  65  68
ENDBRANCH  47  61
BRANCH  48  72
ATOM     72  C   UNL A   1      39.511  28.826  29.782  1.00  0.00     0.023 A 
ATOM     73  C   UNL A   1      39.277  28.378  31.097  1.00  0.00     0.012 A 
ATOM     74  C   UNL A   1      38.486  29.504  29.095  1.00  0.00     0.148 A 
ATOM     75  C   UNL A   1      38.039  28.581  31.708  1.00  0.00     0.002 A 
ATOM     76  C   UNL A   1      37.272  29.747  29.728  1.00  0.00     0.091 A 
ATOM     77  F   UNL A   1      38.720  29.906  27.838  1.00  0.00    -0.205 F 
ATOM     78  C   UNL A   1      37.042  29.275  31.029  1.00  0.00     0.022 A 
BRANCH  76  79
ATOM     79  S   UNL A   1      35.984  30.746  28.972  1.00  0.00     0.127 S 
ATOM     80  O   UNL A   1      35.293  31.280  30.143  1.00  0.00    -0.237 OA
ATOM     81  O   UNL A   1      36.761  31.728  28.213  1.00  0.00    -0.237 OA
ATOM     82  O   UNL A   1      35.218  29.825  28.143  1.00  0.00    -0.744 OA
ENDBRANCH  76  79
ENDBRANCH  48  72
BRANCH  60  83
ATOM     83  C   UNL A   1      45.119  32.891  28.877  1.00  0.00     0.023 A 
ATOM     84  C   UNL A   1      45.683  33.161  30.139  1.00  0.00     0.012 A 
ATOM     85  C   UNL A   1      44.942  33.942  27.956  1.00  0.00     0.148 A 
ATOM     86  C   UNL A   1      46.052  34.460  30.487  1.00  0.00     0.002 A 
ATOM     87  C   UNL A   1      45.350  35.227  28.294  1.00  0.00     0.091 A 
ATOM     88  F   UNL A   1      44.387  33.665  26.768  1.00  0.00    -0.205 F 
ATOM     89  C   UNL A   1      45.897  35.488  29.561  1.00  0.00     0.022 A 
BRANCH  87  90
ATOM     90  S   UNL A   1      45.271  36.601  27.137  1.00  0.00     0.127 S 
ATOM     91  O   UNL A   1      43.834  36.710  26.902  1.00  0.00    -0.237 OA
ATOM     92  O   UNL A   1      45.848  37.697  27.917  1.00  0.00    -0.237 OA
ATOM     93  O   UNL A   1      46.065  36.198  25.984  1.00  0.00    -0.744 OA
ENDBRANCH  87  90
ENDBRANCH  60  83
ENDBRANCH  34  35
ENDBRANCH  26  29
ENDBRANCH  24  25
ENDBRANCH  23  24
ENDBRANCH   1  23
TORSDOF 17
ENDMDL
MODEL 3
REMARK VINA RESULT:     -12.0      1.757      2.361
REMARK SMILES C=Cc1cccc(-c2ccc([C@@H](C)C(=O)NCCCCNC(=O)c3ccc(-c4c5nc(c(-c6cccc(S(=O)(=O)[O-])c6F)c6ccc([nH]6)c(-c6cccc(S(=O)(=O)[O-])c6F)c6nc(c(-c7cccc(S(=O)(=O)[O-])c7F)c7ccc4[nH]7)C=C6)C=C5)cc3)cc2)c1
REMARK SMILES IDX 18 1 17 2 16 3 14 4 15 5 12 7 13 8 11 9 8 10 9 11 88 12
REMARK SMILES IDX 10 13 87 14 7 15 3 16 4 17 89 18 5 19 6 20 2 21 1 22 19 23
REMARK SMILES IDX 20 24 21 25 22 26 23 28 24 29 25 30 86 31 26 32 85 33 27 34
REMARK SMILES IDX 28 35 29 36 79 37 30 38 84 39 78 40 80 41 31 42 83 43 77 44
REMARK SMILES IDX 76 45 32 47 64 48 44 49 63 50 45 51 48 52 62 53 81 54 46 55
REMARK SMILES IDX 47 56 61 58 82 59 49 60 33 61 34 62 42 63 35 64 37 65 43 66
REMARK SMILES IDX 36 67 38 68 39 69 40 70 41 71 65 72 66 73 74 74 67 75 69 76
REMARK SMILES IDX 75 77 68 78 70 79 71 80 72 81 73 82 50 83 51 84 59 85 52 86
REMARK SMILES IDX 54 87 60 88 53 89 55 90 56 91 57 92 58 93
REMARK H PARENT 16 6 21 27 80 46 48 57
REMARK Flexibility Score: inf
ROOT
ATOM      1  C   UNL A   1      36.855  22.709  24.486  1.00  0.00     0.023 C 
ENDROOT
BRANCH   1   2
ATOM      2  C   UNL A   1      35.562  22.711  23.672  1.00  0.00     0.116 C 
BRANCH   2   3
ATOM      3  N   UNL A   1      34.568  21.804  24.209  1.00  0.00    -0.356 N 
ATOM      4  C   UNL A   1      33.938  21.771  25.416  1.00  0.00     0.227 C 
ATOM      5  O   UNL A   1      33.145  20.840  25.606  1.00  0.00    -0.274 OA
ATOM      6  H   UNL A   1      34.300  21.085  23.593  1.00  0.00     0.163 HD
BRANCH   4   7
ATOM      7  C   UNL A   1      34.150  22.821  26.516  1.00  0.00     0.105 C 
ATOM      8  C   UNL A   1      33.840  22.315  27.926  1.00  0.00     0.023 C 
BRANCH   7   9
ATOM      9  C   UNL A   1      33.605  24.194  26.154  1.00  0.00    -0.036 A 
ATOM     10  C   UNL A   1      32.508  26.799  25.691  1.00  0.00    -0.018 A 
ATOM     11  C   UNL A   1      33.876  26.528  25.519  1.00  0.00     0.009 A 
ATOM     12  C   UNL A   1      31.696  25.716  26.064  1.00  0.00     0.009 A 
ATOM     13  C   UNL A   1      34.409  25.246  25.714  1.00  0.00     0.005 A 
ATOM     14  C   UNL A   1      32.235  24.445  26.311  1.00  0.00     0.005 A 
BRANCH  10  15
ATOM     15  C   UNL A   1      31.959  28.167  25.506  1.00  0.00    -0.018 A 
ATOM     16  C   UNL A   1      30.517  29.754  24.292  1.00  0.00    -0.026 A 
ATOM     17  C   UNL A   1      30.896  30.770  25.173  1.00  0.00     0.008 A 
ATOM     18  C   UNL A   1      31.052  28.466  24.468  1.00  0.00     0.016 A 
ATOM     19  C   UNL A   1      31.781  30.504  26.213  1.00  0.00     0.001 A 
ATOM     20  C   UNL A   1      32.310  29.220  26.371  1.00  0.00     0.009 A 
BRANCH  16  21
ATOM     21  C   UNL A   1      29.620  30.084  23.177  1.00  0.00     0.000 C 
ATOM     22  C   UNL A   1      29.891  29.833  21.890  1.00  0.00     0.009 C 
ENDBRANCH  16  21
ENDBRANCH  10  15
ENDBRANCH   7   9
ENDBRANCH   4   7
ENDBRANCH   2   3
ENDBRANCH   1   2
BRANCH   1  23
ATOM     23  C   UNL A   1      37.410  21.325  24.818  1.00  0.00     0.023 C 
BRANCH  23  24
ATOM     24  C   UNL A   1      38.594  21.303  25.780  1.00  0.00     0.116 C 
BRANCH  24  25
ATOM     25  N   UNL A   1      39.347  20.055  25.773  1.00  0.00    -0.352 N 
ATOM     26  C   UNL A   1      40.683  19.867  26.055  1.00  0.00     0.251 C 
ATOM     27  H   UNL A   1      38.839  19.245  25.538  1.00  0.00     0.163 HD
ATOM     28  O   UNL A   1      41.198  18.762  25.947  1.00  0.00    -0.269 OA
BRANCH  26  29
ATOM     29  C   UNL A   1      41.496  21.040  26.444  1.00  0.00     0.039 A 
ATOM     30  C   UNL A   1      42.077  21.822  25.442  1.00  0.00     0.014 A 
ATOM     31  C   UNL A   1      41.595  21.414  27.785  1.00  0.00     0.014 A 
ATOM     32  C   UNL A   1      42.672  23.040  25.779  1.00  0.00     0.010 A 
ATOM     33  C   UNL A   1      42.130  22.655  28.111  1.00  0.00     0.010 A 
ATOM     34  C   UNL A   1      42.654  23.488  27.109  1.00  0.00    -0.014 A 
BRANCH  34  35
ATOM     35  C   UNL A   1      43.119  24.848  27.483  1.00  0.00     0.031 A 
ATOM     36  C   UNL A   1      42.164  25.826  28.106  1.00  0.00     0.074 A 
ATOM     37  C   UNL A   1      44.360  25.243  27.132  1.00  0.00     0.049 A 
ATOM     38  N   UNL A   1      42.342  27.093  28.376  1.00  0.00    -0.248 NA
ATOM     39  C   UNL A   1      40.821  25.323  28.439  1.00  0.00     0.031 C 
ATOM     40  C   UNL A   1      45.351  24.411  26.446  1.00  0.00     0.029 A 
ATOM     41  N   UNL A   1      44.984  26.458  27.266  1.00  0.00    -0.354 N 
ATOM     42  C   UNL A   1      41.126  27.549  28.868  1.00  0.00     0.074 A 
ATOM     43  C   UNL A   1      40.210  26.430  28.838  1.00  0.00     0.031 C 
ATOM     44  C   UNL A   1      46.454  25.140  26.213  1.00  0.00     0.029 A 
ATOM     45  C   UNL A   1      46.240  26.498  26.703  1.00  0.00     0.049 A 
ATOM     46  H   UNL A   1      44.574  27.228  27.722  1.00  0.00     0.167 HD
ATOM     47  C   UNL A   1      40.810  28.781  29.332  1.00  0.00     0.034 A 
ATOM     48  C   UNL A   1      47.114  27.516  26.581  1.00  0.00     0.034 A 
ATOM     49  C   UNL A   1      41.741  29.871  29.421  1.00  0.00     0.049 A 
ATOM     50  C   UNL A   1      46.750  28.865  27.140  1.00  0.00     0.074 A 
ATOM     51  C   UNL A   1      41.552  31.119  29.990  1.00  0.00     0.029 A 
ATOM     52  N   UNL A   1      43.034  29.850  28.923  1.00  0.00    -0.354 N 
ATOM     53  N   UNL A   1      45.657  29.229  27.765  1.00  0.00    -0.248 NA
ATOM     54  C   UNL A   1      47.749  29.936  27.001  1.00  0.00     0.031 C 
ATOM     55  C   UNL A   1      42.730  31.855  29.827  1.00  0.00     0.029 A 
ATOM     56  C   UNL A   1      43.653  31.065  29.159  1.00  0.00     0.049 A 
ATOM     57  H   UNL A   1      43.452  29.083  28.470  1.00  0.00     0.167 HD
ATOM     58  C   UNL A   1      45.842  30.561  28.112  1.00  0.00     0.074 A 
ATOM     59  C   UNL A   1      47.164  30.934  27.651  1.00  0.00     0.031 C 
ATOM     60  C   UNL A   1      44.987  31.407  28.739  1.00  0.00     0.034 A 
BRANCH  47  61
ATOM     61  C   UNL A   1      39.414  28.992  29.850  1.00  0.00     0.023 A 
ATOM     62  C   UNL A   1      39.088  28.549  31.148  1.00  0.00     0.012 A 
ATOM     63  C   UNL A   1      38.446  29.671  29.086  1.00  0.00     0.148 A 
ATOM     64  C   UNL A   1      37.810  28.751  31.667  1.00  0.00     0.002 A 
ATOM     65  C   UNL A   1      37.185  29.902  29.625  1.00  0.00     0.091 A 
ATOM     66  F   UNL A   1      38.767  30.062  27.844  1.00  0.00    -0.205 F 
ATOM     67  C   UNL A   1      36.863  29.435  30.910  1.00  0.00     0.022 A 
BRANCH  65  68
ATOM     68  S   UNL A   1      35.920  30.832  28.752  1.00  0.00     0.127 S 
ATOM     69  O   UNL A   1      35.240  29.775  28.004  1.00  0.00    -0.237 OA
ATOM     70  O   UNL A   1      35.137  31.399  29.851  1.00  0.00    -0.237 OA
ATOM     71  O   UNL A   1      36.632  31.816  27.949  1.00  0.00    -0.744 OA
ENDBRANCH  65  68
ENDBRANCH  47  61
BRANCH  48  72
ATOM     72  C   UNL A   1      48.446  27.281  25.957  1.00  0.00     0.023 A 
ATOM     73  C   UNL A   1      49.488  26.752  26.745  1.00  0.00     0.012 A 
ATOM     74  C   UNL A   1      48.680  27.533  24.591  1.00  0.00     0.148 A 
ATOM     75  C   UNL A   1      50.743  26.500  26.190  1.00  0.00     0.002 A 
ATOM     76  C   UNL A   1      49.918  27.233  24.034  1.00  0.00     0.091 A 
ATOM     77  F   UNL A   1      47.684  28.054  23.861  1.00  0.00    -0.205 F 
ATOM     78  C   UNL A   1      50.955  26.729  24.834  1.00  0.00     0.022 A 
BRANCH  76  79
ATOM     79  S   UNL A   1      50.231  27.376  22.270  1.00  0.00     0.127 S 
ATOM     80  O   UNL A   1      51.620  26.932  22.175  1.00  0.00    -0.237 OA
ATOM     81  O   UNL A   1      49.248  26.449  21.707  1.00  0.00    -0.237 OA
ATOM     82  O   UNL A   1      49.984  28.774  21.946  1.00  0.00    -0.744 OA
ENDBRANCH  76  79
ENDBRANCH  48  72
BRANCH  60  83
ATOM     83  C   UNL A   1      45.445  32.821  28.971  1.00  0.00     0.023 A 
ATOM     84  C   UNL A   1      46.156  33.130  30.146  1.00  0.00     0.012 A 
ATOM     85  C   UNL A   1      45.256  33.815  27.992  1.00  0.00     0.148 A 
ATOM     86  C   UNL A   1      46.662  34.413  30.352  1.00  0.00     0.002 A 
ATOM     87  C   UNL A   1      45.798  35.080  28.184  1.00  0.00     0.091 A 
ATOM     88  F   UNL A   1      44.560  33.503  26.889  1.00  0.00    -0.205 F 
ATOM     89  C   UNL A   1      46.494  35.383  29.367  1.00  0.00     0.022 A 
BRANCH  87  90
ATOM     90  S   UNL A   1      45.709  36.369  26.935  1.00  0.00     0.127 S 
ATOM     91  O   UNL A   1      44.270  36.612  26.860  1.00  0.00    -0.237 OA
ATOM     92  O   UNL A   1      46.480  37.451  27.548  1.00  0.00    -0.237 OA
ATOM     93  O   UNL A   1      46.311  35.805  25.734  1.00  0.00    -0.744 OA
ENDBRANCH  87  90
ENDBRANCH  60  83
ENDBRANCH  34  35
ENDBRANCH  26  29
ENDBRANCH  24  25
ENDBRANCH  23  24
ENDBRANCH   1  23
TORSDOF 17
ENDMDL
