MODEL 1
REMARK VINA RESULT:     -11.2      0.000      0.000
REMARK SMILES CCCCOc1ccc(-c2nc(C)c(C(=O)NCCCCNC(=O)c3ccc(-c4c5nc(c(-c6cccc(S(=O)(=O)[O-])c6F)c6ccc([nH]6)c(-c6cccc(S(=O)(=O)[O-])c6F)c6nc(c(-c7cccc(S(=O)(=O)[O-])c7F)c7ccc4[nH]7)C=C6)C=C5)cc3)s2)cc1
REMARK SMILES IDX 18 1 17 2 15 3 16 4 14 6 10 7 11 8 88 9 12 10 13 11 9 12
REMARK SMILES IDX 6 13 7 14 90 15 8 16 89 17 5 18 4 19 3 20 2 21 1 22 19 23
REMARK SMILES IDX 20 24 21 25 22 26 23 27 24 29 25 30 26 31 87 32 27 33 86 34
REMARK SMILES IDX 28 35 29 36 30 37 80 38 31 39 85 40 79 41 81 42 32 43 84 44
REMARK SMILES IDX 78 45 77 46 33 48 65 49 45 50 64 51 46 52 49 53 63 54 82 55
REMARK SMILES IDX 47 56 48 57 62 59 83 60 50 61 34 62 35 63 43 64 36 65 38 66
REMARK SMILES IDX 44 67 37 68 39 69 40 70 41 71 42 72 66 73 67 74 75 75 68 76
REMARK SMILES IDX 70 77 76 78 69 79 71 80 72 81 73 82 74 83 51 84 52 85 60 86
REMARK SMILES IDX 53 87 55 88 61 89 54 90 56 91 57 92 58 93 59 94
REMARK H PARENT 17 5 22 28 81 47 49 58
REMARK Flexibility Score: inf
ROOT
ATOM      1  C   UNL A   1      32.346  29.863  25.261  1.00  0.00     0.116 C 
ENDROOT
BRANCH   1   2
ATOM      2  N   UNL A   1      31.330  29.099  24.586  1.00  0.00    -0.351 N 
ATOM      3  C   UNL A   1      31.074  27.758  24.484  1.00  0.00     0.263 C 
ATOM      4  O   UNL A   1      30.082  27.506  23.788  1.00  0.00    -0.268 OA
ATOM      5  H   UNL A   1      30.684  29.657  24.096  1.00  0.00     0.163 HD
BRANCH   3   6
ATOM      6  C   UNL A   1      31.847  26.704  25.135  1.00  0.00     0.115 A 
ATOM      7  C   UNL A   1      32.574  24.403  25.616  1.00  0.00     0.124 A 
ATOM      8  N   UNL A   1      33.373  25.266  26.194  1.00  0.00    -0.241 NA
ATOM      9  S   UNL A   1      31.202  25.097  24.890  1.00  0.00    -0.108 S 
ATOM     10  C   UNL A   1      33.026  26.573  25.867  1.00  0.00     0.062 A 
ATOM     11  C   UNL A   1      34.054  27.558  26.289  1.00  0.00     0.068 C 
BRANCH   7  12
ATOM     12  C   UNL A   1      32.877  22.969  25.531  1.00  0.00     0.011 A 
ATOM     13  C   UNL A   1      33.650  20.358  24.903  1.00  0.00     0.119 A 
ATOM     14  C   UNL A   1      34.584  21.234  25.449  1.00  0.00     0.047 A 
ATOM     15  C   UNL A   1      32.314  20.725  24.792  1.00  0.00     0.047 A 
ATOM     16  C   UNL A   1      34.197  22.540  25.752  1.00  0.00     0.015 A 
ATOM     17  C   UNL A   1      31.931  22.034  25.083  1.00  0.00     0.015 A 
BRANCH  13  18
ATOM     18  O   UNL A   1      34.006  19.123  24.445  1.00  0.00    -0.494 OA
BRANCH  18  19
ATOM     19  C   UNL A   1      32.865  18.354  24.030  1.00  0.00     0.229 C 
BRANCH  19  20
ATOM     20  C   UNL A   1      33.202  16.869  23.835  1.00  0.00     0.041 C 
BRANCH  20  21
ATOM     21  C   UNL A   1      33.536  16.065  25.098  1.00  0.00     0.000 C 
ATOM     22  C   UNL A   1      32.582  14.917  25.383  1.00  0.00     0.004 C 
ENDBRANCH  20  21
ENDBRANCH  19  20
ENDBRANCH  18  19
ENDBRANCH  13  18
ENDBRANCH   7  12
ENDBRANCH   3   6
ENDBRANCH   1   2
BRANCH   1  23
ATOM     23  C   UNL A   1      31.734  30.647  26.423  1.00  0.00     0.023 C 
BRANCH  23  24
ATOM     24  C   UNL A   1      32.722  31.043  27.519  1.00  0.00     0.023 C 
BRANCH  24  25
ATOM     25  C   UNL A   1      33.565  32.268  27.193  1.00  0.00     0.116 C 
BRANCH  25  26
ATOM     26  N   UNL A   1      32.905  33.530  27.502  1.00  0.00    -0.352 N 
ATOM     27  C   UNL A   1      33.212  34.403  28.519  1.00  0.00     0.251 C 
ATOM     28  H   UNL A   1      32.155  33.787  26.917  1.00  0.00     0.163 HD
ATOM     29  O   UNL A   1      32.529  35.401  28.724  1.00  0.00    -0.269 OA
BRANCH  27  30
ATOM     30  C   UNL A   1      34.354  34.076  29.393  1.00  0.00     0.039 A 
ATOM     31  C   UNL A   1      34.130  33.319  30.545  1.00  0.00     0.014 A 
ATOM     32  C   UNL A   1      35.649  34.418  28.999  1.00  0.00     0.014 A 
ATOM     33  C   UNL A   1      35.221  32.838  31.269  1.00  0.00     0.010 A 
ATOM     34  C   UNL A   1      36.731  33.874  29.678  1.00  0.00     0.010 A 
ATOM     35  C   UNL A   1      36.529  33.078  30.816  1.00  0.00    -0.014 A 
BRANCH  35  36
ATOM     36  C   UNL A   1      37.714  32.518  31.508  1.00  0.00     0.031 A 
ATOM     37  C   UNL A   1      38.471  31.386  30.871  1.00  0.00     0.074 A 
ATOM     38  C   UNL A   1      38.026  32.935  32.750  1.00  0.00     0.049 A 
ATOM     39  N   UNL A   1      39.430  30.652  31.369  1.00  0.00    -0.248 NA
ATOM     40  C   UNL A   1      38.064  31.002  29.509  1.00  0.00     0.031 C 
ATOM     41  C   UNL A   1      37.317  33.972  33.503  1.00  0.00     0.029 A 
ATOM     42  N   UNL A   1      39.002  32.508  33.617  1.00  0.00    -0.354 N 
ATOM     43  C   UNL A   1      39.702  29.687  30.407  1.00  0.00     0.074 A 
ATOM     44  C   UNL A   1      38.790  29.911  29.307  1.00  0.00     0.031 C 
ATOM     45  C   UNL A   1      37.877  34.098  34.717  1.00  0.00     0.029 A 
ATOM     46  C   UNL A   1      38.967  33.134  34.841  1.00  0.00     0.049 A 
ATOM     47  H   UNL A   1      39.664  31.818  33.384  1.00  0.00     0.167 HD
ATOM     48  C   UNL A   1      40.649  28.721  30.424  1.00  0.00     0.034 A 
ATOM     49  C   UNL A   1      39.725  32.947  35.939  1.00  0.00     0.034 A 
ATOM     50  C   UNL A   1      41.602  28.552  31.484  1.00  0.00     0.049 A 
ATOM     51  C   UNL A   1      40.827  31.922  35.897  1.00  0.00     0.074 A 
ATOM     52  C   UNL A   1      42.660  27.665  31.558  1.00  0.00     0.029 A 
ATOM     53  N   UNL A   1      41.621  29.298  32.652  1.00  0.00    -0.354 N 
ATOM     54  N   UNL A   1      41.164  31.115  34.921  1.00  0.00    -0.248 NA
ATOM     55  C   UNL A   1      41.676  31.805  37.092  1.00  0.00     0.031 C 
ATOM     56  C   UNL A   1      43.322  27.876  32.771  1.00  0.00     0.029 A 
ATOM     57  C   UNL A   1      42.678  28.901  33.450  1.00  0.00     0.049 A 
ATOM     58  H   UNL A   1      40.977  30.007  32.880  1.00  0.00     0.167 HD
ATOM     59  C   UNL A   1      42.287  30.427  35.364  1.00  0.00     0.074 A 
ATOM     60  C   UNL A   1      42.581  30.921  36.694  1.00  0.00     0.031 C 
ATOM     61  C   UNL A   1      43.001  29.461  34.736  1.00  0.00     0.034 A 
BRANCH  48  62
ATOM     62  C   UNL A   1      40.744  27.819  29.223  1.00  0.00     0.023 A 
ATOM     63  C   UNL A   1      39.930  26.670  29.157  1.00  0.00     0.012 A 
ATOM     64  C   UNL A   1      41.602  28.122  28.149  1.00  0.00     0.148 A 
ATOM     65  C   UNL A   1      39.993  25.817  28.056  1.00  0.00     0.002 A 
ATOM     66  C   UNL A   1      41.628  27.290  27.035  1.00  0.00     0.091 A 
ATOM     67  F   UNL A   1      42.389  29.203  28.242  1.00  0.00    -0.205 F 
ATOM     68  C   UNL A   1      40.833  26.133  26.991  1.00  0.00     0.022 A 
BRANCH  66  69
ATOM     69  S   UNL A   1      42.624  27.654  25.585  1.00  0.00     0.127 S 
ATOM     70  O   UNL A   1      42.010  28.892  25.107  1.00  0.00    -0.237 OA
ATOM     71  O   UNL A   1      43.960  27.819  26.159  1.00  0.00    -0.237 OA
ATOM     72  O   UNL A   1      42.483  26.500  24.707  1.00  0.00    -0.744 OA
ENDBRANCH  66  69
ENDBRANCH  48  62
BRANCH  49  73
ATOM     73  C   UNL A   1      39.527  33.811  37.138  1.00  0.00     0.023 A 
ATOM     74  C   UNL A   1      39.983  35.143  37.102  1.00  0.00     0.012 A 
ATOM     75  C   UNL A   1      38.868  33.343  38.290  1.00  0.00     0.148 A 
ATOM     76  C   UNL A   1      39.814  35.986  38.202  1.00  0.00     0.002 A 
ATOM     77  C   UNL A   1      38.659  34.201  39.365  1.00  0.00     0.091 A 
ATOM     78  F   UNL A   1      38.453  32.068  38.313  1.00  0.00    -0.205 F 
ATOM     79  C   UNL A   1      39.144  35.517  39.329  1.00  0.00     0.022 A 
BRANCH  77  80
ATOM     80  S   UNL A   1      37.692  33.719  40.801  1.00  0.00     0.127 S 
ATOM     81  O   UNL A   1      38.612  32.821  41.494  1.00  0.00    -0.237 OA
ATOM     82  O   UNL A   1      37.468  35.004  41.465  1.00  0.00    -0.237 OA
ATOM     83  O   UNL A   1      36.484  33.107  40.265  1.00  0.00    -0.744 OA
ENDBRANCH  77  80
ENDBRANCH  49  73
BRANCH  61  84
ATOM     84  C   UNL A   1      44.202  28.901  35.445  1.00  0.00     0.023 A 
ATOM     85  C   UNL A   1      45.465  29.492  35.251  1.00  0.00     0.012 A 
ATOM     86  C   UNL A   1      44.059  27.859  36.382  1.00  0.00     0.148 A 
ATOM     87  C   UNL A   1      46.573  29.043  35.968  1.00  0.00     0.002 A 
ATOM     88  C   UNL A   1      45.158  27.445  37.124  1.00  0.00     0.091 A 
ATOM     89  F   UNL A   1      42.851  27.297  36.534  1.00  0.00    -0.205 F 
ATOM     90  C   UNL A   1      46.417  28.030  36.913  1.00  0.00     0.022 A 
BRANCH  88  91
ATOM     91  S   UNL A   1      45.026  26.214  38.427  1.00  0.00     0.127 S 
ATOM     92  O   UNL A   1      44.277  26.943  39.448  1.00  0.00    -0.237 OA
ATOM     93  O   UNL A   1      44.278  25.141  37.770  1.00  0.00    -0.237 OA
ATOM     94  O   UNL A   1      46.395  25.863  38.782  1.00  0.00    -0.744 OA
ENDBRANCH  88  91
ENDBRANCH  61  84
ENDBRANCH  35  36
ENDBRANCH  27  30
ENDBRANCH  25  26
ENDBRANCH  24  25
ENDBRANCH  23  24
ENDBRANCH   1  23
TORSDOF 19
ENDMDL
MODEL 2
REMARK VINA RESULT:     -11.0      3.536      8.429
REMARK SMILES CCCCOc1ccc(-c2nc(C)c(C(=O)NCCCCNC(=O)c3ccc(-c4c5nc(c(-c6cccc(S(=O)(=O)[O-])c6F)c6ccc([nH]6)c(-c6cccc(S(=O)(=O)[O-])c6F)c6nc(c(-c7cccc(S(=O)(=O)[O-])c7F)c7ccc4[nH]7)C=C6)C=C5)cc3)s2)cc1
REMARK SMILES IDX 18 1 17 2 15 3 16 4 14 6 10 7 11 8 88 9 12 10 13 11 9 12
REMARK SMILES IDX 6 13 7 14 90 15 8 16 89 17 5 18 4 19 3 20 2 21 1 22 19 23
REMARK SMILES IDX 20 24 21 25 22 26 23 27 24 29 25 30 26 31 87 32 27 33 86 34
REMARK SMILES IDX 28 35 29 36 30 37 80 38 31 39 85 40 79 41 81 42 32 43 84 44
REMARK SMILES IDX 78 45 77 46 33 48 65 49 45 50 64 51 46 52 49 53 63 54 82 55
REMARK SMILES IDX 47 56 48 57 62 59 83 60 50 61 34 62 35 63 43 64 36 65 38 66
REMARK SMILES IDX 44 67 37 68 39 69 40 70 41 71 42 72 66 73 67 74 75 75 68 76
REMARK SMILES IDX 70 77 76 78 69 79 71 80 72 81 73 82 74 83 51 84 52 85 60 86
REMARK SMILES IDX 53 87 55 88 61 89 54 90 56 91 57 92 58 93 59 94
REMARK H PARENT 17 5 22 28 81 47 49 58
REMARK Flexibility Score: inf
ROOT
ATOM      1  C   UNL A   1      31.546  28.410  26.560  1.00  0.00     0.116 C 
ENDROOT
BRANCH   1   2
ATOM      2  N   UNL A   1      31.797  28.849  25.213  1.00  0.00    -0.351 N 
ATOM      3  C   UNL A   1      31.712  28.234  23.993  1.00  0.00     0.263 C 
ATOM      4  O   UNL A   1      32.029  28.976  23.054  1.00  0.00    -0.268 OA
ATOM      5  H   UNL A   1      32.091  29.787  25.156  1.00  0.00     0.163 HD
BRANCH   3   6
ATOM      6  C   UNL A   1      31.272  26.859  23.774  1.00  0.00     0.115 A 
ATOM      7  C   UNL A   1      31.476  24.409  23.675  1.00  0.00     0.124 A 
ATOM      8  N   UNL A   1      30.223  24.770  23.546  1.00  0.00    -0.241 NA
ATOM      9  S   UNL A   1      32.580  25.703  23.676  1.00  0.00    -0.108 S 
ATOM     10  C   UNL A   1      30.077  26.147  23.681  1.00  0.00     0.062 A 
ATOM     11  C   UNL A   1      28.656  26.560  23.799  1.00  0.00     0.068 C 
BRANCH   7  12
ATOM     12  C   UNL A   1      31.887  23.015  23.882  1.00  0.00     0.011 A 
ATOM     13  C   UNL A   1      32.174  20.251  24.170  1.00  0.00     0.119 A 
ATOM     14  C   UNL A   1      32.250  20.816  22.901  1.00  0.00     0.047 A 
ATOM     15  C   UNL A   1      32.090  21.055  25.301  1.00  0.00     0.047 A 
ATOM     16  C   UNL A   1      32.097  22.195  22.759  1.00  0.00     0.015 A 
ATOM     17  C   UNL A   1      31.924  22.431  25.158  1.00  0.00     0.015 A 
BRANCH  13  18
ATOM     18  O   UNL A   1      32.161  18.898  24.354  1.00  0.00    -0.494 OA
BRANCH  18  19
ATOM     19  C   UNL A   1      32.825  18.515  25.570  1.00  0.00     0.229 C 
BRANCH  19  20
ATOM     20  C   UNL A   1      33.141  17.014  25.613  1.00  0.00     0.041 C 
BRANCH  20  21
ATOM     21  C   UNL A   1      33.230  16.288  24.264  1.00  0.00     0.000 C 
ATOM     22  C   UNL A   1      34.227  16.893  23.289  1.00  0.00     0.004 C 
ENDBRANCH  20  21
ENDBRANCH  19  20
ENDBRANCH  18  19
ENDBRANCH  13  18
ENDBRANCH   7  12
ENDBRANCH   3   6
ENDBRANCH   1   2
BRANCH   1  23
ATOM     23  C   UNL A   1      32.853  28.366  27.354  1.00  0.00     0.023 C 
BRANCH  23  24
ATOM     24  C   UNL A   1      34.113  28.214  26.503  1.00  0.00     0.023 C 
BRANCH  24  25
ATOM     25  C   UNL A   1      35.028  29.431  26.511  1.00  0.00     0.116 C 
BRANCH  25  26
ATOM     26  N   UNL A   1      34.415  30.619  27.093  1.00  0.00    -0.352 N 
ATOM     27  C   UNL A   1      34.828  31.304  28.212  1.00  0.00     0.251 C 
ATOM     28  H   UNL A   1      33.617  30.969  26.635  1.00  0.00     0.163 HD
ATOM     29  O   UNL A   1      34.180  32.249  28.649  1.00  0.00    -0.269 OA
BRANCH  27  30
ATOM     30  C   UNL A   1      36.043  30.835  28.904  1.00  0.00     0.039 A 
ATOM     31  C   UNL A   1      35.933  29.808  29.843  1.00  0.00     0.014 A 
ATOM     32  C   UNL A   1      37.292  31.334  28.527  1.00  0.00     0.014 A 
ATOM     33  C   UNL A   1      37.092  29.224  30.355  1.00  0.00     0.010 A 
ATOM     34  C   UNL A   1      38.441  30.701  28.981  1.00  0.00     0.010 A 
ATOM     35  C   UNL A   1      38.353  29.640  29.896  1.00  0.00    -0.014 A 
BRANCH  35  36
ATOM     36  C   UNL A   1      39.606  28.992  30.352  1.00  0.00     0.031 A 
ATOM     37  C   UNL A   1      40.307  29.522  31.571  1.00  0.00     0.074 A 
ATOM     38  C   UNL A   1      40.173  28.026  29.604  1.00  0.00     0.049 A 
ATOM     39  N   UNL A   1      41.483  29.211  32.047  1.00  0.00    -0.248 NA
ATOM     40  C   UNL A   1      39.609  30.574  32.331  1.00  0.00     0.031 C 
ATOM     41  C   UNL A   1      39.627  27.484  28.358  1.00  0.00     0.029 A 
ATOM     42  N   UNL A   1      41.359  27.353  29.764  1.00  0.00    -0.354 N 
ATOM     43  C   UNL A   1      41.690  30.063  33.125  1.00  0.00     0.074 A 
ATOM     44  C   UNL A   1      40.530  30.924  33.217  1.00  0.00     0.031 C 
ATOM     45  C   UNL A   1      40.475  26.567  27.866  1.00  0.00     0.029 A 
ATOM     46  C   UNL A   1      41.639  26.473  28.744  1.00  0.00     0.049 A 
ATOM     47  H   UNL A   1      41.955  27.488  30.537  1.00  0.00     0.167 HD
ATOM     48  C   UNL A   1      42.736  30.105  33.981  1.00  0.00     0.034 A 
ATOM     49  C   UNL A   1      42.713  25.686  28.540  1.00  0.00     0.034 A 
ATOM     50  C   UNL A   1      43.848  29.197  33.932  1.00  0.00     0.049 A 
ATOM     51  C   UNL A   1      43.824  25.692  29.556  1.00  0.00     0.074 A 
ATOM     52  C   UNL A   1      44.914  29.094  34.805  1.00  0.00     0.029 A 
ATOM     53  N   UNL A   1      44.028  28.226  32.960  1.00  0.00    -0.354 N 
ATOM     54  N   UNL A   1      43.934  26.404  30.650  1.00  0.00    -0.248 NA
ATOM     55  C   UNL A   1      44.940  24.762  29.330  1.00  0.00     0.031 C 
ATOM     56  C   UNL A   1      45.739  28.055  34.363  1.00  0.00     0.029 A 
ATOM     57  C   UNL A   1      45.182  27.509  33.217  1.00  0.00     0.049 A 
ATOM     58  H   UNL A   1      43.423  28.068  32.199  1.00  0.00     0.167 HD
ATOM     59  C   UNL A   1      45.106  25.980  31.266  1.00  0.00     0.074 A 
ATOM     60  C   UNL A   1      45.664  24.939  30.427  1.00  0.00     0.031 C 
ATOM     61  C   UNL A   1      45.678  26.422  32.413  1.00  0.00     0.034 A 
BRANCH  48  62
ATOM     62  C   UNL A   1      42.689  31.122  35.089  1.00  0.00     0.023 A 
ATOM     63  C   UNL A   1      42.175  30.748  36.348  1.00  0.00     0.012 A 
ATOM     64  C   UNL A   1      43.182  32.427  34.904  1.00  0.00     0.148 A 
ATOM     65  C   UNL A   1      42.121  31.666  37.395  1.00  0.00     0.002 A 
ATOM     66  C   UNL A   1      43.165  33.325  35.965  1.00  0.00     0.091 A 
ATOM     67  F   UNL A   1      43.641  32.773  33.693  1.00  0.00    -0.205 F 
ATOM     68  C   UNL A   1      42.626  32.950  37.207  1.00  0.00     0.022 A 
BRANCH  66  69
ATOM     69  S   UNL A   1      43.859  34.977  35.840  1.00  0.00     0.127 S 
ATOM     70  O   UNL A   1      43.665  35.483  37.199  1.00  0.00    -0.237 OA
ATOM     71  O   UNL A   1      45.252  34.703  35.486  1.00  0.00    -0.237 OA
ATOM     72  O   UNL A   1      43.094  35.652  34.801  1.00  0.00    -0.744 OA
ENDBRANCH  66  69
ENDBRANCH  48  62
BRANCH  49  73
ATOM     73  C   UNL A   1      42.747  24.760  27.372  1.00  0.00     0.023 A 
ATOM     74  C   UNL A   1      43.356  25.191  26.177  1.00  0.00     0.012 A 
ATOM     75  C   UNL A   1      42.217  23.458  27.441  1.00  0.00     0.148 A 
ATOM     76  C   UNL A   1      43.411  24.353  25.062  1.00  0.00     0.002 A 
ATOM     77  C   UNL A   1      42.319  22.610  26.343  1.00  0.00     0.091 A 
ATOM     78  F   UNL A   1      41.628  23.070  28.581  1.00  0.00    -0.205 F 
ATOM     79  C   UNL A   1      42.902  23.060  25.148  1.00  0.00     0.022 A 
BRANCH  77  80
ATOM     80  S   UNL A   1      41.806  20.889  26.411  1.00  0.00     0.127 S 
ATOM     81  O   UNL A   1      42.580  20.303  25.320  1.00  0.00    -0.237 OA
ATOM     82  O   UNL A   1      42.236  20.494  27.753  1.00  0.00    -0.237 OA
ATOM     83  O   UNL A   1      40.361  20.910  26.229  1.00  0.00    -0.744 OA
ENDBRANCH  77  80
ENDBRANCH  49  73
BRANCH  61  84
ATOM     84  C   UNL A   1      46.948  25.758  32.867  1.00  0.00     0.023 A 
ATOM     85  C   UNL A   1      48.191  26.286  32.470  1.00  0.00     0.012 A 
ATOM     86  C   UNL A   1      46.907  24.678  33.771  1.00  0.00     0.148 A 
ATOM     87  C   UNL A   1      49.378  25.737  32.954  1.00  0.00     0.002 A 
ATOM     88  C   UNL A   1      48.092  24.164  34.281  1.00  0.00     0.091 A 
ATOM     89  F   UNL A   1      45.711  24.179  34.117  1.00  0.00    -0.205 F 
ATOM     90  C   UNL A   1      49.328  24.687  33.868  1.00  0.00     0.022 A 
BRANCH  88  91
ATOM     91  S   UNL A   1      48.116  22.876  35.535  1.00  0.00     0.127 S 
ATOM     92  O   UNL A   1      47.509  21.755  34.821  1.00  0.00    -0.237 OA
ATOM     93  O   UNL A   1      49.547  22.726  35.803  1.00  0.00    -0.237 OA
ATOM     94  O   UNL A   1      47.346  23.399  36.656  1.00  0.00    -0.744 OA
ENDBRANCH  88  91
ENDBRANCH  61  84
ENDBRANCH  35  36
ENDBRANCH  27  30
ENDBRANCH  25  26
ENDBRANCH  24  25
ENDBRANCH  23  24
ENDBRANCH   1  23
TORSDOF 19
ENDMDL
MODEL 3
REMARK VINA RESULT:     -10.7      5.735     10.017
REMARK SMILES CCCCOc1ccc(-c2nc(C)c(C(=O)NCCCCNC(=O)c3ccc(-c4c5nc(c(-c6cccc(S(=O)(=O)[O-])c6F)c6ccc([nH]6)c(-c6cccc(S(=O)(=O)[O-])c6F)c6nc(c(-c7cccc(S(=O)(=O)[O-])c7F)c7ccc4[nH]7)C=C6)C=C5)cc3)s2)cc1
REMARK SMILES IDX 18 1 17 2 15 3 16 4 14 6 10 7 11 8 88 9 12 10 13 11 9 12
REMARK SMILES IDX 6 13 7 14 90 15 8 16 89 17 5 18 4 19 3 20 2 21 1 22 19 23
REMARK SMILES IDX 20 24 21 25 22 26 23 27 24 29 25 30 26 31 87 32 27 33 86 34
REMARK SMILES IDX 28 35 29 36 30 37 80 38 31 39 85 40 79 41 81 42 32 43 84 44
REMARK SMILES IDX 78 45 77 46 33 48 65 49 45 50 64 51 46 52 49 53 63 54 82 55
REMARK SMILES IDX 47 56 48 57 62 59 83 60 50 61 34 62 35 63 43 64 36 65 38 66
REMARK SMILES IDX 44 67 37 68 39 69 40 70 41 71 42 72 66 73 67 74 75 75 68 76
REMARK SMILES IDX 70 77 76 78 69 79 71 80 72 81 73 82 74 83 51 84 52 85 60 86
REMARK SMILES IDX 53 87 55 88 61 89 54 90 56 91 57 92 58 93 59 94
REMARK H PARENT 17 5 22 28 81 47 49 58
REMARK Flexibility Score: inf
ROOT
ATOM      1  C   UNL A   1      34.883  32.916  33.266  1.00  0.00     0.116 C 
ENDROOT
BRANCH   1   2
ATOM      2  N   UNL A   1      34.329  33.140  31.957  1.00  0.00    -0.351 N 
ATOM      3  C   UNL A   1      34.812  32.962  30.688  1.00  0.00     0.263 C 
ATOM      4  O   UNL A   1      34.002  33.290  29.812  1.00  0.00    -0.268 OA
ATOM      5  H   UNL A   1      33.411  33.495  31.978  1.00  0.00     0.163 HD
BRANCH   3   6
ATOM      6  C   UNL A   1      36.127  32.420  30.359  1.00  0.00     0.115 A 
ATOM      7  C   UNL A   1      37.773  30.694  29.754  1.00  0.00     0.124 A 
ATOM      8  N   UNL A   1      38.308  31.888  29.668  1.00  0.00    -0.241 NA
ATOM      9  S   UNL A   1      36.211  30.674  30.425  1.00  0.00    -0.108 S 
ATOM     10  C   UNL A   1      37.370  32.882  29.927  1.00  0.00     0.062 A 
ATOM     11  C   UNL A   1      37.868  34.238  29.589  1.00  0.00     0.068 C 
BRANCH   7  12
ATOM     12  C   UNL A   1      38.432  29.487  29.242  1.00  0.00     0.011 A 
ATOM     13  C   UNL A   1      40.115  27.390  28.480  1.00  0.00     0.119 A 
ATOM     14  C   UNL A   1      39.560  27.390  29.756  1.00  0.00     0.047 A 
ATOM     15  C   UNL A   1      39.738  28.345  27.542  1.00  0.00     0.047 A 
ATOM     16  C   UNL A   1      38.728  28.443  30.137  1.00  0.00     0.015 A 
ATOM     17  C   UNL A   1      38.917  29.404  27.927  1.00  0.00     0.015 A 
BRANCH  13  18
ATOM     18  O   UNL A   1      41.054  26.473  28.105  1.00  0.00    -0.494 OA
BRANCH  18  19
ATOM     19  C   UNL A   1      42.187  26.471  28.991  1.00  0.00     0.229 C 
BRANCH  19  20
ATOM     20  C   UNL A   1      43.445  25.896  28.327  1.00  0.00     0.041 C 
BRANCH  20  21
ATOM     21  C   UNL A   1      43.880  26.536  27.002  1.00  0.00     0.000 C 
ATOM     22  C   UNL A   1      43.638  28.035  26.918  1.00  0.00     0.004 C 
ENDBRANCH  20  21
ENDBRANCH  19  20
ENDBRANCH  18  19
ENDBRANCH  13  18
ENDBRANCH   7  12
ENDBRANCH   3   6
ENDBRANCH   1   2
BRANCH   1  23
ATOM     23  C   UNL A   1      35.515  34.203  33.800  1.00  0.00     0.023 C 
BRANCH  23  24
ATOM     24  C   UNL A   1      36.995  34.377  33.462  1.00  0.00     0.023 C 
BRANCH  24  25
ATOM     25  C   UNL A   1      37.923  34.349  34.667  1.00  0.00     0.116 C 
BRANCH  25  26
ATOM     26  N   UNL A   1      37.462  33.476  35.740  1.00  0.00    -0.352 N 
ATOM     27  C   UNL A   1      37.850  32.180  35.983  1.00  0.00     0.251 C 
ATOM     28  H   UNL A   1      36.798  33.858  36.360  1.00  0.00     0.163 HD
ATOM     29  O   UNL A   1      37.329  31.521  36.877  1.00  0.00    -0.269 OA
BRANCH  27  30
ATOM     30  C   UNL A   1      38.872  31.585  35.102  1.00  0.00     0.039 A 
ATOM     31  C   UNL A   1      38.473  31.013  33.892  1.00  0.00     0.014 A 
ATOM     32  C   UNL A   1      40.224  31.707  35.427  1.00  0.00     0.014 A 
ATOM     33  C   UNL A   1      39.443  30.629  32.966  1.00  0.00     0.010 A 
ATOM     34  C   UNL A   1      41.183  31.393  34.473  1.00  0.00     0.010 A 
ATOM     35  C   UNL A   1      40.802  30.854  33.234  1.00  0.00    -0.014 A 
BRANCH  35  36
ATOM     36  C   UNL A   1      41.861  30.536  32.246  1.00  0.00     0.031 A 
ATOM     37  C   UNL A   1      42.584  29.222  32.340  1.00  0.00     0.074 A 
ATOM     38  C   UNL A   1      42.254  31.470  31.358  1.00  0.00     0.049 A 
ATOM     39  N   UNL A   1      43.637  28.811  31.685  1.00  0.00    -0.248 NA
ATOM     40  C   UNL A   1      42.081  28.259  33.336  1.00  0.00     0.031 C 
ATOM     41  C   UNL A   1      41.680  32.810  31.225  1.00  0.00     0.029 A 
ATOM     42  N   UNL A   1      43.258  31.446  30.423  1.00  0.00    -0.354 N 
ATOM     43  C   UNL A   1      43.955  27.571  32.225  1.00  0.00     0.074 A 
ATOM     44  C   UNL A   1      43.001  27.307  33.280  1.00  0.00     0.031 C 
ATOM     45  C   UNL A   1      42.342  33.481  30.268  1.00  0.00     0.029 A 
ATOM     46  C   UNL A   1      43.405  32.630  29.738  1.00  0.00     0.049 A 
ATOM     47  H   UNL A   1      43.822  30.655  30.258  1.00  0.00     0.167 HD
ATOM     48  C   UNL A   1      44.934  26.713  31.854  1.00  0.00     0.034 A 
ATOM     49  C   UNL A   1      44.298  32.988  28.795  1.00  0.00     0.034 A 
ATOM     50  C   UNL A   1      45.828  26.946  30.755  1.00  0.00     0.049 A 
ATOM     51  C   UNL A   1      45.322  31.982  28.343  1.00  0.00     0.074 A 
ATOM     52  C   UNL A   1      46.794  26.104  30.238  1.00  0.00     0.029 A 
ATOM     53  N   UNL A   1      45.856  28.105  29.995  1.00  0.00    -0.354 N 
ATOM     54  N   UNL A   1      45.516  30.757  28.766  1.00  0.00    -0.248 NA
ATOM     55  C   UNL A   1      46.227  32.392  27.259  1.00  0.00     0.031 C 
ATOM     56  C   UNL A   1      47.406  26.752  29.160  1.00  0.00     0.029 A 
ATOM     57  C   UNL A   1      46.815  27.997  29.004  1.00  0.00     0.049 A 
ATOM     58  H   UNL A   1      45.278  28.889  30.138  1.00  0.00     0.167 HD
ATOM     59  C   UNL A   1      46.532  30.235  27.975  1.00  0.00     0.074 A 
ATOM     60  C   UNL A   1      46.906  31.274  27.037  1.00  0.00     0.031 C 
ATOM     61  C   UNL A   1      47.116  29.013  28.029  1.00  0.00     0.034 A 
BRANCH  48  62
ATOM     62  C   UNL A   1      45.037  25.411  32.600  1.00  0.00     0.023 A 
ATOM     63  C   UNL A   1      44.290  24.301  32.156  1.00  0.00     0.012 A 
ATOM     64  C   UNL A   1      45.894  25.270  33.708  1.00  0.00     0.148 A 
ATOM     65  C   UNL A   1      44.367  23.079  32.824  1.00  0.00     0.002 A 
ATOM     66  C   UNL A   1      45.999  24.037  34.343  1.00  0.00     0.091 A 
ATOM     67  F   UNL A   1      46.576  26.344  34.132  1.00  0.00    -0.205 F 
ATOM     68  C   UNL A   1      45.229  22.945  33.909  1.00  0.00     0.022 A 
BRANCH  66  69
ATOM     69  S   UNL A   1      47.136  23.748  35.703  1.00  0.00     0.127 S 
ATOM     70  O   UNL A   1      47.118  25.042  36.384  1.00  0.00    -0.237 OA
ATOM     71  O   UNL A   1      46.476  22.666  36.435  1.00  0.00    -0.237 OA
ATOM     72  O   UNL A   1      48.403  23.376  35.089  1.00  0.00    -0.744 OA
ENDBRANCH  66  69
ENDBRANCH  48  62
BRANCH  49  73
ATOM     73  C   UNL A   1      44.204  34.330  28.152  1.00  0.00     0.023 A 
ATOM     74  C   UNL A   1      43.398  34.483  27.007  1.00  0.00     0.012 A 
ATOM     75  C   UNL A   1      44.872  35.453  28.675  1.00  0.00     0.148 A 
ATOM     76  C   UNL A   1      43.282  35.724  26.377  1.00  0.00     0.002 A 
ATOM     77  C   UNL A   1      44.714  36.696  28.072  1.00  0.00     0.091 A 
ATOM     78  F   UNL A   1      45.647  35.286  29.757  1.00  0.00    -0.205 F 
ATOM     79  C   UNL A   1      43.932  36.831  26.915  1.00  0.00     0.022 A 
BRANCH  77  80
ATOM     80  S   UNL A   1      45.409  38.197  28.774  1.00  0.00     0.127 S 
ATOM     81  O   UNL A   1      45.043  39.194  27.772  1.00  0.00    -0.237 OA
ATOM     82  O   UNL A   1      44.688  38.305  30.044  1.00  0.00    -0.237 OA
ATOM     83  O   UNL A   1      46.834  37.931  28.919  1.00  0.00    -0.744 OA
ENDBRANCH  77  80
ENDBRANCH  49  73
BRANCH  61  84
ATOM     84  C   UNL A   1      48.186  28.699  27.022  1.00  0.00     0.023 A 
ATOM     85  C   UNL A   1      49.541  28.826  27.382  1.00  0.00     0.012 A 
ATOM     86  C   UNL A   1      47.848  28.179  25.756  1.00  0.00     0.148 A 
ATOM     87  C   UNL A   1      50.547  28.454  26.490  1.00  0.00     0.002 A 
ATOM     88  C   UNL A   1      48.855  27.772  24.890  1.00  0.00     0.091 A 
ATOM     89  F   UNL A   1      46.552  28.088  25.427  1.00  0.00    -0.205 F 
ATOM     90  C   UNL A   1      50.204  27.915  25.252  1.00  0.00     0.022 A 
BRANCH  88  91
ATOM     91  S   UNL A   1      48.501  26.980  23.316  1.00  0.00     0.127 S 
ATOM     92  O   UNL A   1      47.857  25.740  23.745  1.00  0.00    -0.237 OA
ATOM     93  O   UNL A   1      47.604  27.943  22.675  1.00  0.00    -0.237 OA
ATOM     94  O   UNL A   1      49.788  26.823  22.651  1.00  0.00    -0.744 OA
ENDBRANCH  88  91
ENDBRANCH  61  84
ENDBRANCH  35  36
ENDBRANCH  27  30
ENDBRANCH  25  26
ENDBRANCH  24  25
ENDBRANCH  23  24
ENDBRANCH   1  23
TORSDOF 19
ENDMDL
