MODEL 1
REMARK VINA RESULT:     -11.8      0.000      0.000
REMARK SMILES COc1ccc(C2=NO[C@](C)(C(=O)NCCCCNC(=O)c3ccc(-c4c5nc(c(-c6cccc(S(=O)(=O)[O-])c6F)c6ccc([nH]6)c(-c6cccc(S(=O)(=O)[O-])c6F)c6nc(c(-c7cccc(S(=O)(=O)[O-])c7F)c7ccc4[nH]7)C=C6)C=C5)cc3)C2)c(OC)c1OC
REMARK SMILES IDX 17 1 16 2 15 3 14 4 12 5 13 6 10 8 7 9 8 10 85 11 9 12 11 13
REMARK SMILES IDX 6 14 3 15 4 16 89 17 5 18 86 19 2 20 1 21 90 22 91 23 87 24
REMARK SMILES IDX 88 25 18 26 19 27 20 28 21 30 22 31 23 32 84 33 24 34 83 35
REMARK SMILES IDX 25 36 26 37 27 38 77 39 28 40 82 41 76 42 78 43 29 44 81 45
REMARK SMILES IDX 75 46 74 47 30 49 62 50 42 51 61 52 43 53 46 54 60 55 79 56
REMARK SMILES IDX 44 57 45 58 59 60 80 61 47 62 31 63 32 64 40 65 33 66 35 67
REMARK SMILES IDX 41 68 34 69 36 70 37 71 38 72 39 73 63 74 64 75 72 76 65 77
REMARK SMILES IDX 67 78 73 79 66 80 68 81 69 82 70 83 71 84 48 85 49 86 57 87
REMARK SMILES IDX 50 88 52 89 58 90 51 91 53 92 54 93 55 94 56 95
REMARK H PARENT 14 7 19 29 78 48 46 59
REMARK Flexibility Score: inf
ROOT
ATOM      1  C   UNL A   1      31.912  31.550  26.804  1.00  0.00     0.023 C 
ENDROOT
BRANCH   1   2
ATOM      2  C   UNL A   1      32.175  30.046  26.878  1.00  0.00     0.023 C 
BRANCH   2   3
ATOM      3  C   UNL A   1      33.212  29.528  25.876  1.00  0.00     0.116 C 
BRANCH   3   4
ATOM      4  N   UNL A   1      32.741  29.683  24.512  1.00  0.00    -0.353 N 
ATOM      5  C   UNL A   1      32.316  28.765  23.588  1.00  0.00     0.267 C 
ATOM      6  O   UNL A   1      32.084  29.204  22.458  1.00  0.00    -0.270 OA
ATOM      7  H   UNL A   1      32.723  30.615  24.193  1.00  0.00     0.163 HD
BRANCH   5   8
ATOM      8  C   UNL A   1      32.028  27.288  23.963  1.00  0.00     0.217 C 
ATOM      9  C   UNL A   1      33.017  25.228  23.737  1.00  0.00     0.095 C 
ATOM     10  N   UNL A   1      32.103  25.244  22.827  1.00  0.00    -0.089 NA
ATOM     11  C   UNL A   1      33.227  26.505  24.450  1.00  0.00     0.122 C 
ATOM     12  O   UNL A   1      31.602  26.573  22.781  1.00  0.00    -0.379 OA
ATOM     13  C   UNL A   1      30.850  27.262  24.942  1.00  0.00     0.071 C 
BRANCH   9  14
ATOM     14  C   UNL A   1      33.864  24.076  24.074  1.00  0.00     0.046 A 
ATOM     15  C   UNL A   1      35.444  21.849  24.549  1.00  0.00     0.164 A 
ATOM     16  C   UNL A   1      35.820  22.776  23.568  1.00  0.00     0.051 A 
ATOM     17  C   UNL A   1      34.274  22.032  25.320  1.00  0.00     0.203 A 
ATOM     18  C   UNL A   1      35.027  23.891  23.326  1.00  0.00     0.018 A 
ATOM     19  C   UNL A   1      33.458  23.156  25.062  1.00  0.00     0.173 A 
BRANCH  15  20
ATOM     20  O   UNL A   1      36.302  20.809  24.814  1.00  0.00    -0.493 OA
ATOM     21  C   UNL A   1      37.619  21.264  25.132  1.00  0.00     0.278 C 
ENDBRANCH  15  20
BRANCH  17  22
ATOM     22  O   UNL A   1      33.909  21.215  26.358  1.00  0.00    -0.490 OA
ATOM     23  C   UNL A   1      34.122  21.670  27.686  1.00  0.00     0.278 C 
ENDBRANCH  17  22
BRANCH  19  24
ATOM     24  O   UNL A   1      32.252  23.464  25.639  1.00  0.00    -0.492 OA
ATOM     25  C   UNL A   1      31.114  22.652  25.409  1.00  0.00     0.278 C 
ENDBRANCH  19  24
ENDBRANCH   9  14
ENDBRANCH   5   8
ENDBRANCH   3   4
ENDBRANCH   2   3
ENDBRANCH   1   2
BRANCH   1  26
ATOM     26  C   UNL A   1      33.001  32.423  27.413  1.00  0.00     0.116 C 
BRANCH  26  27
ATOM     27  N   UNL A   1      32.577  33.796  27.655  1.00  0.00    -0.352 N 
ATOM     28  C   UNL A   1      33.095  34.694  28.560  1.00  0.00     0.251 C 
ATOM     29  H   UNL A   1      31.829  34.120  27.105  1.00  0.00     0.163 HD
ATOM     30  O   UNL A   1      32.568  35.793  28.711  1.00  0.00    -0.269 OA
BRANCH  28  31
ATOM     31  C   UNL A   1      34.261  34.299  29.375  1.00  0.00     0.039 A 
ATOM     32  C   UNL A   1      34.043  33.692  30.614  1.00  0.00     0.014 A 
ATOM     33  C   UNL A   1      35.558  34.467  28.886  1.00  0.00     0.014 A 
ATOM     34  C   UNL A   1      35.128  33.183  31.330  1.00  0.00     0.010 A 
ATOM     35  C   UNL A   1      36.628  33.896  29.565  1.00  0.00     0.010 A 
ATOM     36  C   UNL A   1      36.424  33.246  30.792  1.00  0.00    -0.014 A 
BRANCH  36  37
ATOM     37  C   UNL A   1      37.576  32.613  31.480  1.00  0.00     0.031 A 
ATOM     38  C   UNL A   1      38.295  31.455  30.846  1.00  0.00     0.074 A 
ATOM     39  C   UNL A   1      37.909  33.017  32.722  1.00  0.00     0.049 A 
ATOM     40  N   UNL A   1      39.283  30.740  31.319  1.00  0.00    -0.248 NA
ATOM     41  C   UNL A   1      37.825  31.023  29.519  1.00  0.00     0.031 C 
ATOM     42  C   UNL A   1      37.228  34.067  33.481  1.00  0.00     0.029 A 
ATOM     43  N   UNL A   1      38.886  32.572  33.577  1.00  0.00    -0.354 N 
ATOM     44  C   UNL A   1      39.528  29.756  30.369  1.00  0.00     0.074 A 
ATOM     45  C   UNL A   1      38.563  29.943  29.307  1.00  0.00     0.031 C 
ATOM     46  C   UNL A   1      37.809  34.188  34.687  1.00  0.00     0.029 A 
ATOM     47  C   UNL A   1      38.886  33.210  34.796  1.00  0.00     0.049 A 
ATOM     48  H   UNL A   1      39.528  31.863  33.341  1.00  0.00     0.167 HD
ATOM     49  C   UNL A   1      40.490  28.804  30.363  1.00  0.00     0.034 A 
ATOM     50  C   UNL A   1      39.664  33.025  35.881  1.00  0.00     0.034 A 
ATOM     51  C   UNL A   1      41.479  28.653  31.396  1.00  0.00     0.049 A 
ATOM     52  C   UNL A   1      40.759  31.995  35.828  1.00  0.00     0.074 A 
ATOM     53  C   UNL A   1      42.557  27.787  31.434  1.00  0.00     0.029 A 
ATOM     54  N   UNL A   1      41.508  29.382  32.575  1.00  0.00    -0.354 N 
ATOM     55  N   UNL A   1      41.088  31.192  34.845  1.00  0.00    -0.248 NA
ATOM     56  C   UNL A   1      41.614  31.871  37.016  1.00  0.00     0.031 C 
ATOM     57  C   UNL A   1      43.230  27.981  32.646  1.00  0.00     0.029 A 
ATOM     58  C   UNL A   1      42.580  28.981  33.354  1.00  0.00     0.049 A 
ATOM     59  H   UNL A   1      40.862  30.083  32.822  1.00  0.00     0.167 HD
ATOM     60  C   UNL A   1      42.206  30.490  35.283  1.00  0.00     0.074 A 
ATOM     61  C   UNL A   1      42.511  30.981  36.612  1.00  0.00     0.031 C 
ATOM     62  C   UNL A   1      42.904  29.516  34.651  1.00  0.00     0.034 A 
BRANCH  49  63
ATOM     63  C   UNL A   1      40.561  27.889  29.169  1.00  0.00     0.023 A 
ATOM     64  C   UNL A   1      39.664  26.803  29.077  1.00  0.00     0.012 A 
ATOM     65  C   UNL A   1      41.467  28.128  28.119  1.00  0.00     0.148 A 
ATOM     66  C   UNL A   1      39.692  25.951  27.975  1.00  0.00     0.002 A 
ATOM     67  C   UNL A   1      41.458  27.298  27.002  1.00  0.00     0.091 A 
ATOM     68  F   UNL A   1      42.327  29.150  28.235  1.00  0.00    -0.205 F 
ATOM     69  C   UNL A   1      40.581  26.205  26.934  1.00  0.00     0.022 A 
BRANCH  67  70
ATOM     70  S   UNL A   1      42.513  27.585  25.577  1.00  0.00     0.127 S 
ATOM     71  O   UNL A   1      42.229  26.408  24.758  1.00  0.00    -0.237 OA
ATOM     72  O   UNL A   1      41.980  28.840  25.045  1.00  0.00    -0.237 OA
ATOM     73  O   UNL A   1      43.871  27.675  26.095  1.00  0.00    -0.744 OA
ENDBRANCH  67  70
ENDBRANCH  49  63
BRANCH  50  74
ATOM     74  C   UNL A   1      39.482  33.889  37.082  1.00  0.00     0.023 A 
ATOM     75  C   UNL A   1      39.904  35.232  37.033  1.00  0.00     0.012 A 
ATOM     76  C   UNL A   1      38.869  33.403  38.252  1.00  0.00     0.148 A 
ATOM     77  C   UNL A   1      39.746  36.068  38.139  1.00  0.00     0.002 A 
ATOM     78  C   UNL A   1      38.664  34.257  39.331  1.00  0.00     0.091 A 
ATOM     79  F   UNL A   1      38.486  32.119  38.284  1.00  0.00    -0.205 F 
ATOM     80  C   UNL A   1      39.117  35.585  39.283  1.00  0.00     0.022 A 
BRANCH  78  81
ATOM     81  S   UNL A   1      37.744  33.756  40.791  1.00  0.00     0.127 S 
ATOM     82  O   UNL A   1      36.542  33.174  40.201  1.00  0.00    -0.237 OA
ATOM     83  O   UNL A   1      38.657  32.794  41.409  1.00  0.00    -0.237 OA
ATOM     84  O   UNL A   1      37.547  34.976  41.563  1.00  0.00    -0.744 OA
ENDBRANCH  78  81
ENDBRANCH  50  74
BRANCH  62  85
ATOM     85  C   UNL A   1      44.086  28.925  35.372  1.00  0.00     0.023 A 
ATOM     86  C   UNL A   1      45.366  29.483  35.187  1.00  0.00     0.012 A 
ATOM     87  C   UNL A   1      43.917  27.869  36.290  1.00  0.00     0.148 A 
ATOM     88  C   UNL A   1      46.466  28.980  35.882  1.00  0.00     0.002 A 
ATOM     89  C   UNL A   1      45.008  27.404  37.013  1.00  0.00     0.091 A 
ATOM     90  F   UNL A   1      42.695  27.338  36.437  1.00  0.00    -0.205 F 
ATOM     91  C   UNL A   1      46.285  27.951  36.802  1.00  0.00     0.022 A 
BRANCH  89  92
ATOM     92  S   UNL A   1      44.852  26.147  38.287  1.00  0.00     0.127 S 
ATOM     93  O   UNL A   1      44.761  24.925  37.490  1.00  0.00    -0.237 OA
ATOM     94  O   UNL A   1      46.103  26.299  39.031  1.00  0.00    -0.237 OA
ATOM     95  O   UNL A   1      43.657  26.493  39.044  1.00  0.00    -0.744 OA
ENDBRANCH  89  92
ENDBRANCH  62  85
ENDBRANCH  36  37
ENDBRANCH  28  31
ENDBRANCH  26  27
ENDBRANCH   1  26
TORSDOF 18
ENDMDL
MODEL 2
REMARK VINA RESULT:     -11.7      5.685      9.230
REMARK SMILES COc1ccc(C2=NO[C@](C)(C(=O)NCCCCNC(=O)c3ccc(-c4c5nc(c(-c6cccc(S(=O)(=O)[O-])c6F)c6ccc([nH]6)c(-c6cccc(S(=O)(=O)[O-])c6F)c6nc(c(-c7cccc(S(=O)(=O)[O-])c7F)c7ccc4[nH]7)C=C6)C=C5)cc3)C2)c(OC)c1OC
REMARK SMILES IDX 17 1 16 2 15 3 14 4 12 5 13 6 10 8 7 9 8 10 85 11 9 12 11 13
REMARK SMILES IDX 6 14 3 15 4 16 89 17 5 18 86 19 2 20 1 21 90 22 91 23 87 24
REMARK SMILES IDX 88 25 18 26 19 27 20 28 21 30 22 31 23 32 84 33 24 34 83 35
REMARK SMILES IDX 25 36 26 37 27 38 77 39 28 40 82 41 76 42 78 43 29 44 81 45
REMARK SMILES IDX 75 46 74 47 30 49 62 50 42 51 61 52 43 53 46 54 60 55 79 56
REMARK SMILES IDX 44 57 45 58 59 60 80 61 47 62 31 63 32 64 40 65 33 66 35 67
REMARK SMILES IDX 41 68 34 69 36 70 37 71 38 72 39 73 63 74 64 75 72 76 65 77
REMARK SMILES IDX 67 78 73 79 66 80 68 81 69 82 70 83 71 84 48 85 49 86 57 87
REMARK SMILES IDX 50 88 52 89 58 90 51 91 53 92 54 93 55 94 56 95
REMARK H PARENT 14 7 19 29 78 48 46 59
REMARK Flexibility Score: inf
ROOT
ATOM      1  C   UNL A   1      36.667  21.163  25.423  1.00  0.00     0.023 C 
ENDROOT
BRANCH   1   2
ATOM      2  C   UNL A   1      35.634  22.170  24.919  1.00  0.00     0.023 C 
BRANCH   2   3
ATOM      3  C   UNL A   1      34.175  21.750  25.132  1.00  0.00     0.116 C 
BRANCH   3   4
ATOM      4  N   UNL A   1      33.794  21.878  26.526  1.00  0.00    -0.353 N 
ATOM      5  C   UNL A   1      32.776  22.567  27.130  1.00  0.00     0.267 C 
ATOM      6  O   UNL A   1      32.785  22.571  28.365  1.00  0.00    -0.270 OA
ATOM      7  H   UNL A   1      34.370  21.380  27.150  1.00  0.00     0.163 HD
BRANCH   5   8
ATOM      8  C   UNL A   1      31.616  23.203  26.322  1.00  0.00     0.217 C 
ATOM      9  C   UNL A   1      30.849  25.294  25.761  1.00  0.00     0.095 C 
ATOM     10  N   UNL A   1      30.065  24.912  26.711  1.00  0.00    -0.089 NA
ATOM     11  C   UNL A   1      32.000  24.408  25.490  1.00  0.00     0.122 C 
ATOM     12  O   UNL A   1      30.623  23.717  27.239  1.00  0.00    -0.379 OA
ATOM     13  C   UNL A   1      30.934  22.098  25.509  1.00  0.00     0.071 C 
BRANCH   9  14
ATOM     14  C   UNL A   1      30.705  26.532  24.984  1.00  0.00     0.046 A 
ATOM     15  C   UNL A   1      30.495  28.786  23.384  1.00  0.00     0.164 A 
ATOM     16  C   UNL A   1      29.815  27.612  23.031  1.00  0.00     0.051 A 
ATOM     17  C   UNL A   1      31.281  28.853  24.556  1.00  0.00     0.203 A 
ATOM     18  C   UNL A   1      29.922  26.480  23.830  1.00  0.00     0.018 A 
ATOM     19  C   UNL A   1      31.404  27.698  25.359  1.00  0.00     0.173 A 
BRANCH  15  20
ATOM     20  O   UNL A   1      30.290  29.904  22.613  1.00  0.00    -0.493 OA
ATOM     21  C   UNL A   1      28.901  30.191  22.437  1.00  0.00     0.278 C 
ENDBRANCH  15  20
BRANCH  17  22
ATOM     22  O   UNL A   1      31.885  29.998  25.004  1.00  0.00    -0.490 OA
ATOM     23  C   UNL A   1      31.098  30.953  25.700  1.00  0.00     0.278 C 
ENDBRANCH  17  22
BRANCH  19  24
ATOM     24  O   UNL A   1      32.180  27.536  26.479  1.00  0.00    -0.492 OA
ATOM     25  C   UNL A   1      31.798  28.122  27.712  1.00  0.00     0.278 C 
ENDBRANCH  19  24
ENDBRANCH   9  14
ENDBRANCH   5   8
ENDBRANCH   3   4
ENDBRANCH   2   3
ENDBRANCH   1   2
BRANCH   1  26
ATOM     26  C   UNL A   1      38.117  21.614  25.300  1.00  0.00     0.116 C 
BRANCH  26  27
ATOM     27  N   UNL A   1      39.073  20.648  25.825  1.00  0.00    -0.352 N 
ATOM     28  C   UNL A   1      40.180  20.889  26.605  1.00  0.00     0.251 C 
ATOM     29  H   UNL A   1      38.905  19.706  25.592  1.00  0.00     0.163 HD
ATOM     30  O   UNL A   1      40.945  19.973  26.895  1.00  0.00    -0.269 OA
BRANCH  28  31
ATOM     31  C   UNL A   1      40.458  22.271  27.046  1.00  0.00     0.039 A 
ATOM     32  C   UNL A   1      41.345  22.475  28.106  1.00  0.00     0.014 A 
ATOM     33  C   UNL A   1      39.898  23.358  26.371  1.00  0.00     0.014 A 
ATOM     34  C   UNL A   1      41.729  23.774  28.440  1.00  0.00     0.010 A 
ATOM     35  C   UNL A   1      40.337  24.646  26.658  1.00  0.00     0.010 A 
ATOM     36  C   UNL A   1      41.259  24.866  27.692  1.00  0.00    -0.014 A 
BRANCH  36  37
ATOM     37  C   UNL A   1      41.739  26.245  27.955  1.00  0.00     0.031 A 
ATOM     38  C   UNL A   1      43.145  26.640  27.596  1.00  0.00     0.074 A 
ATOM     39  C   UNL A   1      40.941  27.112  28.610  1.00  0.00     0.049 A 
ATOM     40  N   UNL A   1      43.760  27.776  27.800  1.00  0.00    -0.248 NA
ATOM     41  C   UNL A   1      43.981  25.614  26.949  1.00  0.00     0.031 C 
ATOM     42  C   UNL A   1      39.590  26.817  29.094  1.00  0.00     0.029 A 
ATOM     43  N   UNL A   1      41.160  28.407  29.009  1.00  0.00    -0.354 N 
ATOM     44  C   UNL A   1      45.058  27.592  27.343  1.00  0.00     0.074 A 
ATOM     45  C   UNL A   1      45.156  26.225  26.881  1.00  0.00     0.031 C 
ATOM     46  C   UNL A   1      39.101  27.900  29.721  1.00  0.00     0.029 A 
ATOM     47  C   UNL A   1      40.109  28.956  29.706  1.00  0.00     0.049 A 
ATOM     48  H   UNL A   1      41.992  28.897  28.815  1.00  0.00     0.167 HD
ATOM     49  C   UNL A   1      46.070  28.490  27.280  1.00  0.00     0.034 A 
ATOM     50  C   UNL A   1      39.973  30.171  30.271  1.00  0.00     0.034 A 
ATOM     51  C   UNL A   1      45.954  29.862  27.692  1.00  0.00     0.049 A 
ATOM     52  C   UNL A   1      41.093  31.167  30.141  1.00  0.00     0.074 A 
ATOM     53  C   UNL A   1      46.887  30.877  27.575  1.00  0.00     0.029 A 
ATOM     54  N   UNL A   1      44.840  30.412  28.306  1.00  0.00    -0.354 N 
ATOM     55  N   UNL A   1      42.253  31.030  29.544  1.00  0.00    -0.248 NA
ATOM     56  C   UNL A   1      40.874  32.496  30.727  1.00  0.00     0.031 C 
ATOM     57  C   UNL A   1      46.342  32.038  28.134  1.00  0.00     0.029 A 
ATOM     58  C   UNL A   1      45.062  31.750  28.583  1.00  0.00     0.049 A 
ATOM     59  H   UNL A   1      44.011  29.924  28.515  1.00  0.00     0.167 HD
ATOM     60  C   UNL A   1      42.888  32.261  29.655  1.00  0.00     0.074 A 
ATOM     61  C   UNL A   1      41.972  33.140  30.356  1.00  0.00     0.031 C 
ATOM     62  C   UNL A   1      44.122  32.627  29.233  1.00  0.00     0.034 A 
BRANCH  49  63
ATOM     63  C   UNL A   1      47.374  28.032  26.683  1.00  0.00     0.023 A 
ATOM     64  C   UNL A   1      48.432  27.659  27.540  1.00  0.00     0.012 A 
ATOM     65  C   UNL A   1      47.540  27.917  25.290  1.00  0.00     0.148 A 
ATOM     66  C   UNL A   1      49.645  27.213  27.018  1.00  0.00     0.002 A 
ATOM     67  C   UNL A   1      48.738  27.428  24.779  1.00  0.00     0.091 A 
ATOM     68  F   UNL A   1      46.533  28.297  24.492  1.00  0.00    -0.205 F 
ATOM     69  C   UNL A   1      49.793  27.087  25.640  1.00  0.00     0.022 A 
BRANCH  67  70
ATOM     70  S   UNL A   1      49.001  27.160  23.023  1.00  0.00     0.127 S 
ATOM     71  O   UNL A   1      48.445  28.385  22.451  1.00  0.00    -0.237 OA
ATOM     72  O   UNL A   1      50.459  27.058  22.941  1.00  0.00    -0.237 OA
ATOM     73  O   UNL A   1      48.289  25.934  22.693  1.00  0.00    -0.744 OA
ENDBRANCH  67  70
ENDBRANCH  49  63
BRANCH  50  74
ATOM     74  C   UNL A   1      38.695  30.539  30.945  1.00  0.00     0.023 A 
ATOM     75  C   UNL A   1      38.545  30.282  32.321  1.00  0.00     0.012 A 
ATOM     76  C   UNL A   1      37.649  31.168  30.245  1.00  0.00     0.148 A 
ATOM     77  C   UNL A   1      37.363  30.616  32.982  1.00  0.00     0.002 A 
ATOM     78  C   UNL A   1      36.495  31.549  30.922  1.00  0.00     0.091 A 
ATOM     79  F   UNL A   1      37.805  31.393  28.933  1.00  0.00    -0.205 F 
ATOM     80  C   UNL A   1      36.342  31.259  32.287  1.00  0.00     0.022 A 
BRANCH  78  81
ATOM     81  S   UNL A   1      35.189  32.500  30.135  1.00  0.00     0.127 S 
ATOM     82  O   UNL A   1      35.924  33.658  29.634  1.00  0.00    -0.237 OA
ATOM     83  O   UNL A   1      34.719  31.573  29.104  1.00  0.00    -0.237 OA
ATOM     84  O   UNL A   1      34.217  32.769  31.187  1.00  0.00    -0.744 OA
ENDBRANCH  78  81
ENDBRANCH  50  74
BRANCH  62  85
ATOM     85  C   UNL A   1      44.557  34.045  29.491  1.00  0.00     0.023 A 
ATOM     86  C   UNL A   1      45.170  34.375  30.715  1.00  0.00     0.012 A 
ATOM     87  C   UNL A   1      44.428  35.031  28.493  1.00  0.00     0.148 A 
ATOM     88  C   UNL A   1      45.622  35.672  30.954  1.00  0.00     0.002 A 
ATOM     89  C   UNL A   1      44.923  36.310  28.720  1.00  0.00     0.091 A 
ATOM     90  F   UNL A   1      43.823  34.704  27.342  1.00  0.00    -0.205 F 
ATOM     91  C   UNL A   1      45.510  36.635  29.955  1.00  0.00     0.022 A 
BRANCH  89  92
ATOM     92  S   UNL A   1      44.907  37.586  27.456  1.00  0.00     0.127 S 
ATOM     93  O   UNL A   1      45.813  37.025  26.455  1.00  0.00    -0.237 OA
ATOM     94  O   UNL A   1      43.499  37.612  27.057  1.00  0.00    -0.237 OA
ATOM     95  O   UNL A   1      45.370  38.802  28.110  1.00  0.00    -0.744 OA
ENDBRANCH  89  92
ENDBRANCH  62  85
ENDBRANCH  36  37
ENDBRANCH  28  31
ENDBRANCH  26  27
ENDBRANCH   1  26
TORSDOF 18
ENDMDL
MODEL 3
REMARK VINA RESULT:     -11.6      5.855     11.151
REMARK SMILES COc1ccc(C2=NO[C@](C)(C(=O)NCCCCNC(=O)c3ccc(-c4c5nc(c(-c6cccc(S(=O)(=O)[O-])c6F)c6ccc([nH]6)c(-c6cccc(S(=O)(=O)[O-])c6F)c6nc(c(-c7cccc(S(=O)(=O)[O-])c7F)c7ccc4[nH]7)C=C6)C=C5)cc3)C2)c(OC)c1OC
REMARK SMILES IDX 17 1 16 2 15 3 14 4 12 5 13 6 10 8 7 9 8 10 85 11 9 12 11 13
REMARK SMILES IDX 6 14 3 15 4 16 89 17 5 18 86 19 2 20 1 21 90 22 91 23 87 24
REMARK SMILES IDX 88 25 18 26 19 27 20 28 21 30 22 31 23 32 84 33 24 34 83 35
REMARK SMILES IDX 25 36 26 37 27 38 77 39 28 40 82 41 76 42 78 43 29 44 81 45
REMARK SMILES IDX 75 46 74 47 30 49 62 50 42 51 61 52 43 53 46 54 60 55 79 56
REMARK SMILES IDX 44 57 45 58 59 60 80 61 47 62 31 63 32 64 40 65 33 66 35 67
REMARK SMILES IDX 41 68 34 69 36 70 37 71 38 72 39 73 63 74 64 75 72 76 65 77
REMARK SMILES IDX 67 78 73 79 66 80 68 81 69 82 70 83 71 84 48 85 49 86 57 87
REMARK SMILES IDX 50 88 52 89 58 90 51 91 53 92 54 93 55 94 56 95
REMARK H PARENT 14 7 19 29 78 48 46 59
REMARK Flexibility Score: inf
ROOT
ATOM      1  C   UNL A   1      36.454  20.889  24.680  1.00  0.00     0.023 C 
ENDROOT
BRANCH   1   2
ATOM      2  C   UNL A   1      35.263  21.845  24.724  1.00  0.00     0.023 C 
BRANCH   2   3
ATOM      3  C   UNL A   1      33.961  21.222  25.239  1.00  0.00     0.116 C 
BRANCH   3   4
ATOM      4  N   UNL A   1      33.715  21.593  26.620  1.00  0.00    -0.353 N 
ATOM      5  C   UNL A   1      32.817  22.462  27.181  1.00  0.00     0.267 C 
ATOM      6  O   UNL A   1      32.934  22.650  28.396  1.00  0.00    -0.270 OA
ATOM      7  H   UNL A   1      34.299  21.140  27.271  1.00  0.00     0.163 HD
BRANCH   5   8
ATOM      8  C   UNL A   1      31.650  23.082  26.369  1.00  0.00     0.217 C 
ATOM      9  C   UNL A   1      30.854  25.161  25.809  1.00  0.00     0.095 C 
ATOM     10  N   UNL A   1      30.072  24.766  26.756  1.00  0.00    -0.089 NA
ATOM     11  C   UNL A   1      32.018  24.293  25.541  1.00  0.00     0.122 C 
ATOM     12  O   UNL A   1      30.647  23.579  27.285  1.00  0.00    -0.379 OA
ATOM     13  C   UNL A   1      30.988  21.967  25.553  1.00  0.00     0.071 C 
BRANCH   9  14
ATOM     14  C   UNL A   1      30.693  26.398  25.033  1.00  0.00     0.046 A 
ATOM     15  C   UNL A   1      30.439  28.646  23.431  1.00  0.00     0.164 A 
ATOM     16  C   UNL A   1      29.695  27.494  23.142  1.00  0.00     0.051 A 
ATOM     17  C   UNL A   1      31.314  28.694  24.540  1.00  0.00     0.203 A 
ATOM     18  C   UNL A   1      29.823  26.365  23.942  1.00  0.00     0.018 A 
ATOM     19  C   UNL A   1      31.458  27.541  25.343  1.00  0.00     0.173 A 
BRANCH  15  20
ATOM     20  O   UNL A   1      30.215  29.765  22.667  1.00  0.00    -0.493 OA
ATOM     21  C   UNL A   1      28.881  29.810  22.154  1.00  0.00     0.278 C 
ENDBRANCH  15  20
BRANCH  17  22
ATOM     22  O   UNL A   1      31.989  29.821  24.930  1.00  0.00    -0.490 OA
ATOM     23  C   UNL A   1      31.332  30.742  25.788  1.00  0.00     0.278 C 
ENDBRANCH  17  22
BRANCH  19  24
ATOM     24  O   UNL A   1      32.310  27.361  26.403  1.00  0.00    -0.492 OA
ATOM     25  C   UNL A   1      31.998  27.894  27.679  1.00  0.00     0.278 C 
ENDBRANCH  19  24
ENDBRANCH   9  14
ENDBRANCH   5   8
ENDBRANCH   3   4
ENDBRANCH   2   3
ENDBRANCH   1   2
BRANCH   1  26
ATOM     26  C   UNL A   1      37.745  21.443  25.269  1.00  0.00     0.116 C 
BRANCH  26  27
ATOM     27  N   UNL A   1      38.686  20.409  25.680  1.00  0.00    -0.352 N 
ATOM     28  C   UNL A   1      39.858  20.563  26.385  1.00  0.00     0.251 C 
ATOM     29  H   UNL A   1      38.456  19.488  25.421  1.00  0.00     0.163 HD
ATOM     30  O   UNL A   1      40.595  19.599  26.579  1.00  0.00    -0.269 OA
BRANCH  28  31
ATOM     31  C   UNL A   1      40.236  21.908  26.862  1.00  0.00     0.039 A 
ATOM     32  C   UNL A   1      41.165  22.019  27.899  1.00  0.00     0.014 A 
ATOM     33  C   UNL A   1      39.727  23.050  26.240  1.00  0.00     0.014 A 
ATOM     34  C   UNL A   1      41.641  23.280  28.263  1.00  0.00     0.010 A 
ATOM     35  C   UNL A   1      40.256  24.298  26.554  1.00  0.00     0.010 A 
ATOM     36  C   UNL A   1      41.220  24.424  27.566  1.00  0.00    -0.014 A 
BRANCH  36  37
ATOM     37  C   UNL A   1      41.795  25.761  27.858  1.00  0.00     0.031 A 
ATOM     38  C   UNL A   1      40.967  26.808  28.551  1.00  0.00     0.074 A 
ATOM     39  C   UNL A   1      43.030  26.063  27.409  1.00  0.00     0.049 A 
ATOM     40  N   UNL A   1      41.277  28.045  28.839  1.00  0.00    -0.248 NA
ATOM     41  C   UNL A   1      39.601  26.424  28.945  1.00  0.00     0.031 C 
ATOM     42  C   UNL A   1      43.895  25.164  26.643  1.00  0.00     0.029 A 
ATOM     43  N   UNL A   1      43.759  27.222  27.505  1.00  0.00    -0.354 N 
ATOM     44  C   UNL A   1      40.139  28.597  29.412  1.00  0.00     0.074 A 
ATOM     45  C   UNL A   1      39.118  27.571  29.402  1.00  0.00     0.031 C 
ATOM     46  C   UNL A   1      45.038  25.803  26.342  1.00  0.00     0.029 A 
ATOM     47  C   UNL A   1      44.978  27.162  26.871  1.00  0.00     0.049 A 
ATOM     48  H   UNL A   1      43.440  28.022  27.983  1.00  0.00     0.167 HD
ATOM     49  C   UNL A   1      39.967  29.835  29.933  1.00  0.00     0.034 A 
ATOM     50  C   UNL A   1      45.938  28.097  26.728  1.00  0.00     0.034 A 
ATOM     51  C   UNL A   1      40.998  30.835  29.988  1.00  0.00     0.049 A 
ATOM     52  C   UNL A   1      45.742  29.447  27.362  1.00  0.00     0.074 A 
ATOM     53  C   UNL A   1      40.957  32.082  30.586  1.00  0.00     0.029 A 
ATOM     54  N   UNL A   1      42.257  30.705  29.421  1.00  0.00    -0.354 N 
ATOM     55  N   UNL A   1      44.723  29.891  28.058  1.00  0.00    -0.248 NA
ATOM     56  C   UNL A   1      46.841  30.413  27.224  1.00  0.00     0.031 C 
ATOM     57  C   UNL A   1      42.185  32.714  30.364  1.00  0.00     0.029 A 
ATOM     58  C   UNL A   1      42.999  31.852  29.645  1.00  0.00     0.049 A 
ATOM     59  H   UNL A   1      42.576  29.913  28.930  1.00  0.00     0.167 HD
ATOM     60  C   UNL A   1      45.071  31.174  28.467  1.00  0.00     0.074 A 
ATOM     61  C   UNL A   1      46.405  31.425  27.961  1.00  0.00     0.031 C 
ATOM     62  C   UNL A   1      44.345  32.068  29.181  1.00  0.00     0.034 A 
BRANCH  49  63
ATOM     63  C   UNL A   1      38.629  30.156  30.546  1.00  0.00     0.023 A 
ATOM     64  C   UNL A   1      38.349  29.722  31.859  1.00  0.00     0.012 A 
ATOM     65  C   UNL A   1      37.676  30.927  29.855  1.00  0.00     0.148 A 
ATOM     66  C   UNL A   1      37.128  30.020  32.460  1.00  0.00     0.002 A 
ATOM     67  C   UNL A   1      36.477  31.257  30.478  1.00  0.00     0.091 A 
ATOM     68  F   UNL A   1      37.950  31.310  28.600  1.00  0.00    -0.205 F 
ATOM     69  C   UNL A   1      36.198  30.796  31.774  1.00  0.00     0.022 A 
BRANCH  67  70
ATOM     70  S   UNL A   1      35.246  32.314  29.707  1.00  0.00     0.127 S 
ATOM     71  O   UNL A   1      34.324  32.550  30.818  1.00  0.00    -0.237 OA
ATOM     72  O   UNL A   1      36.039  33.479  29.317  1.00  0.00    -0.237 OA
ATOM     73  O   UNL A   1      34.703  31.549  28.594  1.00  0.00    -0.744 OA
ENDBRANCH  67  70
ENDBRANCH  49  63
BRANCH  50  74
ATOM     74  C   UNL A   1      47.204  27.760  26.018  1.00  0.00     0.023 A 
ATOM     75  C   UNL A   1      48.299  27.273  26.757  1.00  0.00     0.012 A 
ATOM     76  C   UNL A   1      47.320  27.886  24.621  1.00  0.00     0.148 A 
ATOM     77  C   UNL A   1      49.497  26.945  26.122  1.00  0.00     0.002 A 
ATOM     78  C   UNL A   1      48.498  27.506  23.987  1.00  0.00     0.091 A 
ATOM     79  F   UNL A   1      46.272  28.364  23.936  1.00  0.00    -0.205 F 
ATOM     80  C   UNL A   1      49.594  27.052  24.737  1.00  0.00     0.022 A 
BRANCH  78  81
ATOM     81  S   UNL A   1      48.663  27.483  22.198  1.00  0.00     0.127 S 
ATOM     82  O   UNL A   1      47.461  28.197  21.778  1.00  0.00    -0.237 OA
ATOM     83  O   UNL A   1      49.917  28.212  22.000  1.00  0.00    -0.237 OA
ATOM     84  O   UNL A   1      48.728  26.074  21.832  1.00  0.00    -0.744 OA
ENDBRANCH  78  81
ENDBRANCH  50  74
BRANCH  62  85
ATOM     85  C   UNL A   1      44.980  33.399  29.484  1.00  0.00     0.023 A 
ATOM     86  C   UNL A   1      45.759  33.552  30.648  1.00  0.00     0.012 A 
ATOM     87  C   UNL A   1      44.869  34.473  28.579  1.00  0.00     0.148 A 
ATOM     88  C   UNL A   1      46.394  34.763  30.922  1.00  0.00     0.002 A 
ATOM     89  C   UNL A   1      45.542  35.662  28.835  1.00  0.00     0.091 A 
ATOM     90  F   UNL A   1      44.106  34.316  27.487  1.00  0.00    -0.205 F 
ATOM     91  C   UNL A   1      46.296  35.812  30.011  1.00  0.00     0.022 A 
BRANCH  89  92
ATOM     92  S   UNL A   1      45.550  37.031  27.673  1.00  0.00     0.127 S 
ATOM     93  O   UNL A   1      46.138  36.413  26.486  1.00  0.00    -0.237 OA
ATOM     94  O   UNL A   1      44.126  37.347  27.554  1.00  0.00    -0.237 OA
ATOM     95  O   UNL A   1      46.348  38.079  28.296  1.00  0.00    -0.744 OA
ENDBRANCH  89  92
ENDBRANCH  62  85
ENDBRANCH  36  37
ENDBRANCH  28  31
ENDBRANCH  26  27
ENDBRANCH   1  26
TORSDOF 18
ENDMDL
