MODEL 1
REMARK VINA RESULT:     -13.0      0.000      0.000
REMARK SMILES O=C(NCCCCNC(=O)c1cc(Cl)ccc1N1C(=O)CC2(CCCC2)C1=O)c1ccc(-c2c3nc(c(-c4cccc(S(=O)(=O)[O-])c4F)c4ccc([nH]4)c(-c4cccc(S(=O)(=O)[O-])c4F)c4nc(c(-c5cccc(S(=O)(=O)[O-])c5F)c5ccc2[nH]5)C=C4)C=C3)cc1
REMARK SMILES IDX 4 1 3 2 1 3 2 4 29 6 30 7 91 8 31 9 90 10 32 11 33 12 34 13
REMARK SMILES IDX 84 14 35 15 89 16 83 17 85 18 36 19 88 20 82 21 81 22 37 24
REMARK SMILES IDX 69 25 49 26 68 27 50 28 53 29 67 30 86 31 51 32 52 33 66 35
REMARK SMILES IDX 87 36 54 37 38 38 39 39 47 40 40 41 42 42 48 43 41 44 43 45
REMARK SMILES IDX 44 46 45 47 46 48 70 49 71 50 79 51 72 52 74 53 80 54 73 55
REMARK SMILES IDX 75 56 76 57 77 58 78 59 55 60 56 61 64 62 57 63 59 64 65 65
REMARK SMILES IDX 58 66 60 67 61 68 62 69 63 70 5 71 6 72 7 73 8 74 9 75 10 77
REMARK SMILES IDX 11 78 12 79 17 80 13 81 16 82 14 83 15 84 18 85 19 86 27 87
REMARK SMILES IDX 20 88 21 89 22 90 28 91 23 92 26 93 24 94 25 95
REMARK H PARENT 3 5 85 23 53 34 8 76
REMARK Flexibility Score: inf
ROOT
ATOM      1  C   UNL A   1      32.501  30.094  25.871  1.00  0.00     0.116 C 
ENDROOT
BRANCH   1   2
ATOM      2  N   UNL A   1      32.217  31.426  26.383  1.00  0.00    -0.352 N 
ATOM      3  O   UNL A   1      32.487  33.278  27.636  1.00  0.00    -0.269 OA
ATOM      4  C   UNL A   1      32.949  32.210  27.247  1.00  0.00     0.251 C 
ATOM      5  H   UNL A   1      31.377  31.827  26.063  1.00  0.00     0.163 HD
BRANCH   4   6
ATOM      6  C   UNL A   1      34.266  31.742  27.739  1.00  0.00     0.039 A 
ATOM      7  C   UNL A   1      34.480  30.399  28.052  1.00  0.00     0.014 A 
ATOM      8  C   UNL A   1      35.293  32.673  27.922  1.00  0.00     0.014 A 
ATOM      9  C   UNL A   1      35.641  30.024  28.721  1.00  0.00     0.010 A 
ATOM     10  C   UNL A   1      36.498  32.273  28.511  1.00  0.00     0.010 A 
ATOM     11  C   UNL A   1      36.660  30.958  28.971  1.00  0.00    -0.014 A 
BRANCH  11  12
ATOM     12  C   UNL A   1      37.880  30.526  29.705  1.00  0.00     0.031 A 
ATOM     13  C   UNL A   1      38.119  30.937  31.136  1.00  0.00     0.074 A 
ATOM     14  C   UNL A   1      38.766  29.723  29.083  1.00  0.00     0.049 A 
ATOM     15  N   UNL A   1      39.085  30.577  31.943  1.00  0.00    -0.248 NA
ATOM     16  C   UNL A   1      37.161  31.878  31.740  1.00  0.00     0.031 C 
ATOM     17  C   UNL A   1      38.675  29.296  27.685  1.00  0.00     0.029 A 
ATOM     18  N   UNL A   1      39.905  29.114  29.544  1.00  0.00    -0.354 N 
ATOM     19  C   UNL A   1      38.882  31.279  33.126  1.00  0.00     0.074 A 
ATOM     20  C   UNL A   1      37.702  32.093  32.933  1.00  0.00     0.031 C 
ATOM     21  C   UNL A   1      39.688  28.461  27.414  1.00  0.00     0.029 A 
ATOM     22  C   UNL A   1      40.522  28.322  28.604  1.00  0.00     0.049 A 
ATOM     23  H   UNL A   1      40.249  29.231  30.459  1.00  0.00     0.167 HD
ATOM     24  C   UNL A   1      39.598  31.234  34.276  1.00  0.00     0.034 A 
ATOM     25  C   UNL A   1      41.630  27.560  28.688  1.00  0.00     0.034 A 
ATOM     26  C   UNL A   1      40.735  30.377  34.490  1.00  0.00     0.049 A 
ATOM     27  C   UNL A   1      42.363  27.478  29.996  1.00  0.00     0.074 A 
ATOM     28  C   UNL A   1      41.477  30.208  35.646  1.00  0.00     0.029 A 
ATOM     29  N   UNL A   1      41.292  29.545  33.532  1.00  0.00    -0.354 N 
ATOM     30  N   UNL A   1      42.069  28.041  31.143  1.00  0.00    -0.248 NA
ATOM     31  C   UNL A   1      43.564  26.631  30.032  1.00  0.00     0.031 C 
ATOM     32  C   UNL A   1      42.489  29.276  35.384  1.00  0.00     0.029 A 
ATOM     33  C   UNL A   1      42.370  28.861  34.067  1.00  0.00     0.049 A 
ATOM     34  H   UNL A   1      40.969  29.455  32.606  1.00  0.00     0.167 HD
ATOM     35  C   UNL A   1      43.029  27.595  32.042  1.00  0.00     0.074 A 
ATOM     36  C   UNL A   1      43.899  26.695  31.313  1.00  0.00     0.031 C 
ATOM     37  C   UNL A   1      43.189  27.920  33.348  1.00  0.00     0.034 A 
BRANCH  24  38
ATOM     38  C   UNL A   1      39.145  32.100  35.422  1.00  0.00     0.023 A 
ATOM     39  C   UNL A   1      38.239  31.578  36.369  1.00  0.00     0.012 A 
ATOM     40  C   UNL A   1      39.666  33.396  35.607  1.00  0.00     0.148 A 
ATOM     41  C   UNL A   1      37.842  32.340  37.468  1.00  0.00     0.002 A 
ATOM     42  C   UNL A   1      39.292  34.136  36.724  1.00  0.00     0.091 A 
ATOM     43  F   UNL A   1      40.506  33.886  34.685  1.00  0.00    -0.205 F 
ATOM     44  C   UNL A   1      38.376  33.613  37.650  1.00  0.00     0.022 A 
BRANCH  42  45
ATOM     45  S   UNL A   1      39.986  35.755  37.079  1.00  0.00     0.127 S 
ATOM     46  O   UNL A   1      41.407  35.442  37.227  1.00  0.00    -0.237 OA
ATOM     47  O   UNL A   1      39.653  36.512  35.871  1.00  0.00    -0.237 OA
ATOM     48  O   UNL A   1      39.312  36.218  38.284  1.00  0.00    -0.744 OA
ENDBRANCH  42  45
ENDBRANCH  24  38
BRANCH  25  49
ATOM     49  C   UNL A   1      42.056  26.750  27.513  1.00  0.00     0.023 A 
ATOM     50  C   UNL A   1      42.828  27.356  26.502  1.00  0.00     0.012 A 
ATOM     51  C   UNL A   1      41.751  25.379  27.416  1.00  0.00     0.148 A 
ATOM     52  C   UNL A   1      43.273  26.615  25.408  1.00  0.00     0.002 A 
ATOM     53  C   UNL A   1      42.246  24.634  26.352  1.00  0.00     0.091 A 
ATOM     54  F   UNL A   1      40.997  24.825  28.376  1.00  0.00    -0.205 F 
ATOM     55  C   UNL A   1      42.995  25.252  25.339  1.00  0.00     0.022 A 
BRANCH  53  56
ATOM     56  S   UNL A   1      42.054  22.849  26.274  1.00  0.00     0.127 S 
ATOM     57  O   UNL A   1      42.692  22.535  24.999  1.00  0.00    -0.237 OA
ATOM     58  O   UNL A   1      42.792  22.407  27.458  1.00  0.00    -0.237 OA
ATOM     59  O   UNL A   1      40.617  22.616  26.348  1.00  0.00    -0.744 OA
ENDBRANCH  53  56
ENDBRANCH  25  49
BRANCH  37  60
ATOM     60  C   UNL A   1      44.336  27.283  34.086  1.00  0.00     0.023 A 
ATOM     61  C   UNL A   1      45.610  27.881  34.040  1.00  0.00     0.012 A 
ATOM     62  C   UNL A   1      44.141  26.130  34.870  1.00  0.00     0.148 A 
ATOM     63  C   UNL A   1      46.679  27.325  34.741  1.00  0.00     0.002 A 
ATOM     64  C   UNL A   1      45.202  25.604  35.599  1.00  0.00     0.091 A 
ATOM     65  F   UNL A   1      42.927  25.558  34.882  1.00  0.00    -0.205 F 
ATOM     66  C   UNL A   1      46.474  26.195  35.528  1.00  0.00     0.022 A 
BRANCH  64  67
ATOM     67  S   UNL A   1      44.990  24.203  36.702  1.00  0.00     0.127 S 
ATOM     68  O   UNL A   1      46.346  24.014  37.213  1.00  0.00    -0.237 OA
ATOM     69  O   UNL A   1      44.034  24.714  37.686  1.00  0.00    -0.237 OA
ATOM     70  O   UNL A   1      44.470  23.125  35.870  1.00  0.00    -0.744 OA
ENDBRANCH  64  67
ENDBRANCH  37  60
ENDBRANCH  11  12
ENDBRANCH   4   6
ENDBRANCH   1   2
BRANCH   1  71
ATOM     71  C   UNL A   1      31.410  29.076  26.179  1.00  0.00     0.023 C 
BRANCH  71  72
ATOM     72  C   UNL A   1      31.740  28.053  27.264  1.00  0.00     0.023 C 
BRANCH  72  73
ATOM     73  C   UNL A   1      32.540  26.837  26.808  1.00  0.00     0.116 C 
BRANCH  73  74
ATOM     74  N   UNL A   1      31.764  25.607  26.811  1.00  0.00    -0.352 N 
ATOM     75  C   UNL A   1      30.969  25.070  25.831  1.00  0.00     0.253 C 
ATOM     76  H   UNL A   1      31.819  25.080  27.641  1.00  0.00     0.163 HD
ATOM     77  O   UNL A   1      30.285  24.074  26.061  1.00  0.00    -0.269 OA
BRANCH  75  78
ATOM     78  C   UNL A   1      30.937  25.662  24.475  1.00  0.00     0.065 A 
ATOM     79  C   UNL A   1      30.059  26.737  24.252  1.00  0.00     0.036 A 
ATOM     80  C   UNL A   1      31.901  25.317  23.503  1.00  0.00     0.065 A 
ATOM     81  C   UNL A   1      30.077  27.410  23.037  1.00  0.00     0.041 A 
ATOM     82  C   UNL A   1      31.924  26.044  22.300  1.00  0.00     0.029 A 
ATOM     83  Cl  UNL A   1      28.960  28.685  22.751  1.00  0.00    -0.084 Cl
ATOM     84  C   UNL A   1      31.002  27.066  22.058  1.00  0.00     0.023 A 
BRANCH  80  85
ATOM     85  N   UNL A   1      32.849  24.281  23.703  1.00  0.00    -0.249 N 
ATOM     86  C   UNL A   1      32.605  22.957  23.434  1.00  0.00     0.234 C 
ATOM     87  C   UNL A   1      34.100  24.484  24.242  1.00  0.00     0.240 C 
ATOM     88  O   UNL A   1      31.550  22.426  23.108  1.00  0.00    -0.274 OA
ATOM     89  C   UNL A   1      33.902  22.206  23.532  1.00  0.00     0.118 C 
ATOM     90  C   UNL A   1      34.806  23.147  24.321  1.00  0.00     0.059 C 
ATOM     91  O   UNL A   1      34.533  25.518  24.735  1.00  0.00    -0.273 OA
ATOM     92  C   UNL A   1      34.984  22.695  25.775  1.00  0.00     0.017 C 
ATOM     93  C   UNL A   1      36.244  23.194  23.818  1.00  0.00     0.017 C 
ATOM     94  C   UNL A   1      36.123  21.678  25.727  1.00  0.00     0.001 C 
ATOM     95  C   UNL A   1      36.910  21.977  24.451  1.00  0.00     0.001 C 
ENDBRANCH  80  85
ENDBRANCH  75  78
ENDBRANCH  73  74
ENDBRANCH  72  73
ENDBRANCH  71  72
ENDBRANCH   1  71
TORSDOF 15
ENDMDL
MODEL 2
REMARK VINA RESULT:     -12.8      5.023     10.025
REMARK SMILES O=C(NCCCCNC(=O)c1cc(Cl)ccc1N1C(=O)CC2(CCCC2)C1=O)c1ccc(-c2c3nc(c(-c4cccc(S(=O)(=O)[O-])c4F)c4ccc([nH]4)c(-c4cccc(S(=O)(=O)[O-])c4F)c4nc(c(-c5cccc(S(=O)(=O)[O-])c5F)c5ccc2[nH]5)C=C4)C=C3)cc1
REMARK SMILES IDX 4 1 3 2 1 3 2 4 29 6 30 7 91 8 31 9 90 10 32 11 33 12 34 13
REMARK SMILES IDX 84 14 35 15 89 16 83 17 85 18 36 19 88 20 82 21 81 22 37 24
REMARK SMILES IDX 69 25 49 26 68 27 50 28 53 29 67 30 86 31 51 32 52 33 66 35
REMARK SMILES IDX 87 36 54 37 38 38 39 39 47 40 40 41 42 42 48 43 41 44 43 45
REMARK SMILES IDX 44 46 45 47 46 48 70 49 71 50 79 51 72 52 74 53 80 54 73 55
REMARK SMILES IDX 75 56 76 57 77 58 78 59 55 60 56 61 64 62 57 63 59 64 65 65
REMARK SMILES IDX 58 66 60 67 61 68 62 69 63 70 5 71 6 72 7 73 8 74 9 75 10 77
REMARK SMILES IDX 11 78 12 79 17 80 13 81 16 82 14 83 15 84 18 85 19 86 27 87
REMARK SMILES IDX 20 88 21 89 22 90 28 91 23 92 26 93 24 94 25 95
REMARK H PARENT 3 5 85 23 53 34 8 76
REMARK Flexibility Score: inf
ROOT
ATOM      1  C   UNL A   1      37.153  22.024  25.290  1.00  0.00     0.116 C 
ENDROOT
BRANCH   1   2
ATOM      2  N   UNL A   1      38.179  21.017  25.518  1.00  0.00    -0.352 N 
ATOM      3  O   UNL A   1      40.179  20.181  26.131  1.00  0.00    -0.269 OA
ATOM      4  C   UNL A   1      39.410  21.139  26.122  1.00  0.00     0.251 C 
ATOM      5  H   UNL A   1      37.958  20.115  25.193  1.00  0.00     0.163 HD
BRANCH   4   6
ATOM      6  C   UNL A   1      39.823  22.433  26.713  1.00  0.00     0.039 A 
ATOM      7  C   UNL A   1      39.301  23.637  26.241  1.00  0.00     0.014 A 
ATOM      8  C   UNL A   1      40.777  22.439  27.735  1.00  0.00     0.014 A 
ATOM      9  C   UNL A   1      39.865  24.841  26.651  1.00  0.00     0.010 A 
ATOM     10  C   UNL A   1      41.277  23.656  28.212  1.00  0.00     0.010 A 
ATOM     11  C   UNL A   1      40.870  24.867  27.632  1.00  0.00    -0.014 A 
BRANCH  11  12
ATOM     12  C   UNL A   1      41.463  26.171  28.033  1.00  0.00     0.031 A 
ATOM     13  C   UNL A   1      42.878  26.534  27.659  1.00  0.00     0.074 A 
ATOM     14  C   UNL A   1      40.704  27.052  28.713  1.00  0.00     0.049 A 
ATOM     15  N   UNL A   1      43.516  27.661  27.857  1.00  0.00    -0.248 NA
ATOM     16  C   UNL A   1      43.688  25.504  26.988  1.00  0.00     0.031 C 
ATOM     17  C   UNL A   1      39.338  26.801  29.178  1.00  0.00     0.029 A 
ATOM     18  N   UNL A   1      40.963  28.337  29.120  1.00  0.00    -0.354 N 
ATOM     19  C   UNL A   1      44.807  27.463  27.381  1.00  0.00     0.074 A 
ATOM     20  C   UNL A   1      44.868  26.103  26.889  1.00  0.00     0.031 C 
ATOM     21  C   UNL A   1      38.863  27.908  29.766  1.00  0.00     0.029 A 
ATOM     22  C   UNL A   1      39.900  28.935  29.756  1.00  0.00     0.049 A 
ATOM     23  H   UNL A   1      41.825  28.788  28.971  1.00  0.00     0.167 HD
ATOM     24  C   UNL A   1      45.841  28.337  27.337  1.00  0.00     0.034 A 
ATOM     25  C   UNL A   1      39.768  30.174  30.269  1.00  0.00     0.034 A 
ATOM     26  C   UNL A   1      45.763  29.708  27.769  1.00  0.00     0.049 A 
ATOM     27  C   UNL A   1      40.909  31.143  30.143  1.00  0.00     0.074 A 
ATOM     28  C   UNL A   1      46.736  30.690  27.693  1.00  0.00     0.029 A 
ATOM     29  N   UNL A   1      44.650  30.293  28.353  1.00  0.00    -0.354 N 
ATOM     30  N   UNL A   1      42.072  30.976  29.561  1.00  0.00    -0.248 NA
ATOM     31  C   UNL A   1      40.710  32.480  30.717  1.00  0.00     0.031 C 
ATOM     32  C   UNL A   1      46.212  31.868  28.237  1.00  0.00     0.029 A 
ATOM     33  C   UNL A   1      44.911  31.621  28.645  1.00  0.00     0.049 A 
ATOM     34  H   UNL A   1      43.800  29.831  28.534  1.00  0.00     0.167 HD
ATOM     35  C   UNL A   1      42.731  32.193  29.674  1.00  0.00     0.074 A 
ATOM     36  C   UNL A   1      41.828  33.097  30.356  1.00  0.00     0.031 C 
ATOM     37  C   UNL A   1      43.981  32.526  29.268  1.00  0.00     0.034 A 
BRANCH  24  38
ATOM     38  C   UNL A   1      47.145  27.858  26.752  1.00  0.00     0.023 A 
ATOM     39  C   UNL A   1      48.142  27.346  27.608  1.00  0.00     0.012 A 
ATOM     40  C   UNL A   1      47.356  27.843  25.359  1.00  0.00     0.148 A 
ATOM     41  C   UNL A   1      49.337  26.850  27.089  1.00  0.00     0.002 A 
ATOM     42  C   UNL A   1      48.536  27.314  24.847  1.00  0.00     0.091 A 
ATOM     43  F   UNL A   1      46.408  28.356  24.562  1.00  0.00    -0.205 F 
ATOM     44  C   UNL A   1      49.529  26.824  25.710  1.00  0.00     0.022 A 
BRANCH  42  45
ATOM     45  S   UNL A   1      48.839  27.171  23.081  1.00  0.00     0.127 S 
ATOM     46  O   UNL A   1      48.153  28.356  22.568  1.00  0.00    -0.237 OA
ATOM     47  O   UNL A   1      50.299  27.233  23.006  1.00  0.00    -0.237 OA
ATOM     48  O   UNL A   1      48.271  25.891  22.685  1.00  0.00    -0.744 OA
ENDBRANCH  42  45
ENDBRANCH  24  38
BRANCH  25  49
ATOM     49  C   UNL A   1      38.469  30.586  30.869  1.00  0.00     0.023 A 
ATOM     50  C   UNL A   1      38.240  30.356  32.240  1.00  0.00     0.012 A 
ATOM     51  C   UNL A   1      37.486  31.250  30.110  1.00  0.00     0.148 A 
ATOM     52  C   UNL A   1      37.049  30.764  32.839  1.00  0.00     0.002 A 
ATOM     53  C   UNL A   1      36.327  31.704  30.727  1.00  0.00     0.091 A 
ATOM     54  F   UNL A   1      37.712  31.441  28.803  1.00  0.00    -0.205 F 
ATOM     55  C   UNL A   1      36.098  31.450  32.087  1.00  0.00     0.022 A 
BRANCH  53  56
ATOM     56  S   UNL A   1      35.128  32.723  29.858  1.00  0.00     0.127 S 
ATOM     57  O   UNL A   1      34.620  31.795  28.853  1.00  0.00    -0.237 OA
ATOM     58  O   UNL A   1      34.181  33.059  30.921  1.00  0.00    -0.237 OA
ATOM     59  O   UNL A   1      35.886  33.862  29.355  1.00  0.00    -0.744 OA
ENDBRANCH  53  56
ENDBRANCH  25  49
BRANCH  37  60
ATOM     60  C   UNL A   1      44.442  33.934  29.530  1.00  0.00     0.023 A 
ATOM     61  C   UNL A   1      45.033  34.253  30.768  1.00  0.00     0.012 A 
ATOM     62  C   UNL A   1      44.349  34.924  28.533  1.00  0.00     0.148 A 
ATOM     63  C   UNL A   1      45.495  35.543  31.022  1.00  0.00     0.002 A 
ATOM     64  C   UNL A   1      44.850  36.198  28.778  1.00  0.00     0.091 A 
ATOM     65  F   UNL A   1      43.761  34.611  27.368  1.00  0.00    -0.205 F 
ATOM     66  C   UNL A   1      45.415  36.513  30.024  1.00  0.00     0.022 A 
BRANCH  64  67
ATOM     67  S   UNL A   1      44.859  37.470  27.510  1.00  0.00     0.127 S 
ATOM     68  O   UNL A   1      45.789  36.912  26.531  1.00  0.00    -0.237 OA
ATOM     69  O   UNL A   1      43.462  37.498  27.076  1.00  0.00    -0.237 OA
ATOM     70  O   UNL A   1      45.299  38.687  28.180  1.00  0.00    -0.744 OA
ENDBRANCH  64  67
ENDBRANCH  37  60
ENDBRANCH  11  12
ENDBRANCH   4   6
ENDBRANCH   1   2
BRANCH   1  71
ATOM     71  C   UNL A   1      35.754  21.570  25.685  1.00  0.00     0.023 C 
BRANCH  71  72
ATOM     72  C   UNL A   1      35.149  22.261  26.906  1.00  0.00     0.023 C 
BRANCH  72  73
ATOM     73  C   UNL A   1      34.016  21.509  27.599  1.00  0.00     0.116 C 
BRANCH  73  74
ATOM     74  N   UNL A   1      32.810  22.307  27.755  1.00  0.00    -0.352 N 
ATOM     75  C   UNL A   1      32.048  22.939  26.807  1.00  0.00     0.253 C 
ATOM     76  H   UNL A   1      32.493  22.408  28.682  1.00  0.00     0.163 HD
ATOM     77  O   UNL A   1      31.124  23.678  27.142  1.00  0.00    -0.269 OA
BRANCH  75  78
ATOM     78  C   UNL A   1      32.306  22.724  25.364  1.00  0.00     0.065 A 
ATOM     79  C   UNL A   1      32.124  21.426  24.855  1.00  0.00     0.036 A 
ATOM     80  C   UNL A   1      32.510  23.811  24.488  1.00  0.00     0.065 A 
ATOM     81  C   UNL A   1      32.233  21.193  23.490  1.00  0.00     0.041 A 
ATOM     82  C   UNL A   1      32.572  23.551  23.108  1.00  0.00     0.029 A 
ATOM     83  Cl  UNL A   1      32.068  19.593  22.881  1.00  0.00    -0.084 Cl
ATOM     84  C   UNL A   1      32.460  22.248  22.614  1.00  0.00     0.023 A 
BRANCH  80  85
ATOM     85  N   UNL A   1      32.639  25.147  24.946  1.00  0.00    -0.249 N 
ATOM     86  C   UNL A   1      33.817  25.694  25.391  1.00  0.00     0.234 C 
ATOM     87  C   UNL A   1      31.582  26.025  25.047  1.00  0.00     0.240 C 
ATOM     88  O   UNL A   1      34.891  25.139  25.585  1.00  0.00    -0.274 OA
ATOM     89  C   UNL A   1      33.620  27.174  25.554  1.00  0.00     0.118 C 
ATOM     90  C   UNL A   1      32.105  27.335  25.596  1.00  0.00     0.059 C 
ATOM     91  O   UNL A   1      30.394  25.772  24.891  1.00  0.00    -0.273 OA
ATOM     92  C   UNL A   1      31.588  27.593  27.016  1.00  0.00     0.017 C 
ATOM     93  C   UNL A   1      31.589  28.554  24.838  1.00  0.00     0.017 C 
ATOM     94  C   UNL A   1      31.731  29.101  27.212  1.00  0.00     0.001 C 
ATOM     95  C   UNL A   1      31.767  29.714  25.812  1.00  0.00     0.001 C 
ENDBRANCH  80  85
ENDBRANCH  75  78
ENDBRANCH  73  74
ENDBRANCH  72  73
ENDBRANCH  71  72
ENDBRANCH   1  71
TORSDOF 15
ENDMDL
MODEL 3
REMARK VINA RESULT:     -12.8      1.516      2.212
REMARK SMILES O=C(NCCCCNC(=O)c1cc(Cl)ccc1N1C(=O)CC2(CCCC2)C1=O)c1ccc(-c2c3nc(c(-c4cccc(S(=O)(=O)[O-])c4F)c4ccc([nH]4)c(-c4cccc(S(=O)(=O)[O-])c4F)c4nc(c(-c5cccc(S(=O)(=O)[O-])c5F)c5ccc2[nH]5)C=C4)C=C3)cc1
REMARK SMILES IDX 4 1 3 2 1 3 2 4 29 6 30 7 91 8 31 9 90 10 32 11 33 12 34 13
REMARK SMILES IDX 84 14 35 15 89 16 83 17 85 18 36 19 88 20 82 21 81 22 37 24
REMARK SMILES IDX 69 25 49 26 68 27 50 28 53 29 67 30 86 31 51 32 52 33 66 35
REMARK SMILES IDX 87 36 54 37 38 38 39 39 47 40 40 41 42 42 48 43 41 44 43 45
REMARK SMILES IDX 44 46 45 47 46 48 70 49 71 50 79 51 72 52 74 53 80 54 73 55
REMARK SMILES IDX 75 56 76 57 77 58 78 59 55 60 56 61 64 62 57 63 59 64 65 65
REMARK SMILES IDX 58 66 60 67 61 68 62 69 63 70 5 71 6 72 7 73 8 74 9 75 10 77
REMARK SMILES IDX 11 78 12 79 17 80 13 81 16 82 14 83 15 84 18 85 19 86 27 87
REMARK SMILES IDX 20 88 21 89 22 90 28 91 23 92 26 93 24 94 25 95
REMARK H PARENT 3 5 85 23 53 34 8 76
REMARK Flexibility Score: inf
ROOT
ATOM      1  C   UNL A   1      32.644  29.907  26.984  1.00  0.00     0.116 C 
ENDROOT
BRANCH   1   2
ATOM      2  N   UNL A   1      32.622  31.358  27.097  1.00  0.00    -0.352 N 
ATOM      3  O   UNL A   1      33.338  33.414  27.676  1.00  0.00    -0.269 OA
ATOM      4  C   UNL A   1      33.588  32.216  27.573  1.00  0.00     0.251 C 
ATOM      5  H   UNL A   1      31.794  31.790  26.786  1.00  0.00     0.163 HD
BRANCH   4   6
ATOM      6  C   UNL A   1      34.904  31.688  28.003  1.00  0.00     0.039 A 
ATOM      7  C   UNL A   1      35.073  30.335  28.300  1.00  0.00     0.014 A 
ATOM      8  C   UNL A   1      35.978  32.572  28.144  1.00  0.00     0.014 A 
ATOM      9  C   UNL A   1      36.245  29.905  28.914  1.00  0.00     0.010 A 
ATOM     10  C   UNL A   1      37.189  32.116  28.677  1.00  0.00     0.010 A 
ATOM     11  C   UNL A   1      37.314  30.792  29.123  1.00  0.00    -0.014 A 
BRANCH  11  12
ATOM     12  C   UNL A   1      38.545  30.303  29.799  1.00  0.00     0.031 A 
ATOM     13  C   UNL A   1      38.884  30.722  31.207  1.00  0.00     0.074 A 
ATOM     14  C   UNL A   1      39.350  29.441  29.146  1.00  0.00     0.049 A 
ATOM     15  N   UNL A   1      39.871  30.320  31.968  1.00  0.00    -0.248 NA
ATOM     16  C   UNL A   1      38.014  31.725  31.843  1.00  0.00     0.031 C 
ATOM     17  C   UNL A   1      39.160  28.998  27.763  1.00  0.00     0.029 A 
ATOM     18  N   UNL A   1      40.476  28.775  29.557  1.00  0.00    -0.354 N 
ATOM     19  C   UNL A   1      39.772  31.050  33.147  1.00  0.00     0.074 A 
ATOM     20  C   UNL A   1      38.630  31.927  33.002  1.00  0.00     0.031 C 
ATOM     21  C   UNL A   1      40.108  28.102  27.454  1.00  0.00     0.029 A 
ATOM     22  C   UNL A   1      40.996  27.934  28.600  1.00  0.00     0.049 A 
ATOM     23  H   UNL A   1      40.875  28.886  30.450  1.00  0.00     0.167 HD
ATOM     24  C   UNL A   1      40.544  30.982  34.258  1.00  0.00     0.034 A 
ATOM     25  C   UNL A   1      42.063  27.112  28.640  1.00  0.00     0.034 A 
ATOM     26  C   UNL A   1      41.642  30.065  34.428  1.00  0.00     0.049 A 
ATOM     27  C   UNL A   1      42.859  27.008  29.908  1.00  0.00     0.074 A 
ATOM     28  C   UNL A   1      42.435  29.872  35.545  1.00  0.00     0.029 A 
ATOM     29  N   UNL A   1      42.099  29.188  33.457  1.00  0.00    -0.354 N 
ATOM     30  N   UNL A   1      42.659  27.605  31.058  1.00  0.00    -0.248 NA
ATOM     31  C   UNL A   1      44.010  26.095  29.896  1.00  0.00     0.031 C 
ATOM     32  C   UNL A   1      43.376  28.879  35.248  1.00  0.00     0.029 A 
ATOM     33  C   UNL A   1      43.163  28.451  33.947  1.00  0.00     0.049 A 
ATOM     34  H   UNL A   1      41.722  29.102  32.552  1.00  0.00     0.167 HD
ATOM     35  C   UNL A   1      43.640  27.119  31.914  1.00  0.00     0.074 A 
ATOM     36  C   UNL A   1      44.418  26.159  31.157  1.00  0.00     0.031 C 
ATOM     37  C   UNL A   1      43.889  27.455  33.203  1.00  0.00     0.034 A 
BRANCH  24  38
ATOM     38  C   UNL A   1      40.203  31.891  35.411  1.00  0.00     0.023 A 
ATOM     39  C   UNL A   1      40.914  33.098  35.575  1.00  0.00     0.012 A 
ATOM     40  C   UNL A   1      39.139  31.591  36.284  1.00  0.00     0.148 A 
ATOM     41  C   UNL A   1      40.585  33.981  36.603  1.00  0.00     0.002 A 
ATOM     42  C   UNL A   1      38.794  32.494  37.285  1.00  0.00     0.091 A 
ATOM     43  F   UNL A   1      38.491  30.429  36.129  1.00  0.00    -0.205 F 
ATOM     44  C   UNL A   1      39.520  33.684  37.450  1.00  0.00     0.022 A 
BRANCH  42  45
ATOM     45  S   UNL A   1      37.391  32.230  38.375  1.00  0.00     0.127 S 
ATOM     46  O   UNL A   1      37.849  32.870  39.607  1.00  0.00    -0.237 OA
ATOM     47  O   UNL A   1      36.316  32.942  37.682  1.00  0.00    -0.237 OA
ATOM     48  O   UNL A   1      37.208  30.787  38.442  1.00  0.00    -0.744 OA
ENDBRANCH  42  45
ENDBRANCH  24  38
BRANCH  25  49
ATOM     49  C   UNL A   1      42.378  26.261  27.459  1.00  0.00     0.023 A 
ATOM     50  C   UNL A   1      43.136  26.802  26.402  1.00  0.00     0.012 A 
ATOM     51  C   UNL A   1      41.983  24.911  27.400  1.00  0.00     0.148 A 
ATOM     52  C   UNL A   1      43.479  26.020  25.300  1.00  0.00     0.002 A 
ATOM     53  C   UNL A   1      42.377  24.122  26.326  1.00  0.00     0.091 A 
ATOM     54  F   UNL A   1      41.244  24.418  28.404  1.00  0.00    -0.205 F 
ATOM     55  C   UNL A   1      43.113  24.676  25.268  1.00  0.00     0.022 A 
BRANCH  53  56
ATOM     56  S   UNL A   1      42.070  22.351  26.286  1.00  0.00     0.127 S 
ATOM     57  O   UNL A   1      40.617  22.303  26.158  1.00  0.00    -0.237 OA
ATOM     58  O   UNL A   1      42.809  21.936  25.094  1.00  0.00    -0.237 OA
ATOM     59  O   UNL A   1      42.621  21.840  27.535  1.00  0.00    -0.744 OA
ENDBRANCH  53  56
ENDBRANCH  25  49
BRANCH  37  60
ATOM     60  C   UNL A   1      45.035  26.764  33.891  1.00  0.00     0.023 A 
ATOM     61  C   UNL A   1      46.337  27.288  33.766  1.00  0.00     0.012 A 
ATOM     62  C   UNL A   1      44.818  25.637  34.706  1.00  0.00     0.148 A 
ATOM     63  C   UNL A   1      47.410  26.682  34.419  1.00  0.00     0.002 A 
ATOM     64  C   UNL A   1      45.887  25.063  35.387  1.00  0.00     0.091 A 
ATOM     65  F   UNL A   1      43.576  25.136  34.794  1.00  0.00    -0.205 F 
ATOM     66  C   UNL A   1      47.184  25.578  35.238  1.00  0.00     0.022 A 
BRANCH  64  67
ATOM     67  S   UNL A   1      45.655  23.694  36.527  1.00  0.00     0.127 S 
ATOM     68  O   UNL A   1      44.773  24.285  37.531  1.00  0.00    -0.237 OA
ATOM     69  O   UNL A   1      45.023  22.680  35.683  1.00  0.00    -0.237 OA
ATOM     70  O   UNL A   1      46.991  23.339  36.988  1.00  0.00    -0.744 OA
ENDBRANCH  64  67
ENDBRANCH  37  60
ENDBRANCH  11  12
ENDBRANCH   4   6
ENDBRANCH   1   2
BRANCH   1  71
ATOM     71  C   UNL A   1      32.369  29.401  25.573  1.00  0.00     0.023 C 
BRANCH  71  72
ATOM     72  C   UNL A   1      33.585  28.903  24.796  1.00  0.00     0.023 C 
BRANCH  72  73
ATOM     73  C   UNL A   1      33.629  29.284  23.319  1.00  0.00     0.116 C 
BRANCH  73  74
ATOM     74  N   UNL A   1      33.872  28.150  22.441  1.00  0.00    -0.352 N 
ATOM     75  C   UNL A   1      33.229  26.941  22.372  1.00  0.00     0.253 C 
ATOM     76  H   UNL A   1      34.609  28.270  21.799  1.00  0.00     0.163 HD
ATOM     77  O   UNL A   1      33.658  26.049  21.643  1.00  0.00    -0.269 OA
BRANCH  75  78
ATOM     78  C   UNL A   1      31.995  26.697  23.154  1.00  0.00     0.065 A 
ATOM     79  C   UNL A   1      30.845  27.426  22.803  1.00  0.00     0.036 A 
ATOM     80  C   UNL A   1      31.907  25.623  24.066  1.00  0.00     0.065 A 
ATOM     81  C   UNL A   1      29.631  27.149  23.420  1.00  0.00     0.041 A 
ATOM     82  C   UNL A   1      30.657  25.338  24.641  1.00  0.00     0.029 A 
ATOM     83  Cl  UNL A   1      28.242  28.083  23.028  1.00  0.00    -0.084 Cl
ATOM     84  C   UNL A   1      29.532  26.112  24.340  1.00  0.00     0.023 A 
BRANCH  80  85
ATOM     85  N   UNL A   1      33.025  24.819  24.407  1.00  0.00    -0.249 N 
ATOM     86  C   UNL A   1      33.943  25.152  25.373  1.00  0.00     0.234 C 
ATOM     87  C   UNL A   1      33.343  23.641  23.768  1.00  0.00     0.240 C 
ATOM     88  O   UNL A   1      34.042  26.198  26.002  1.00  0.00    -0.274 OA
ATOM     89  C   UNL A   1      34.824  23.962  25.620  1.00  0.00     0.118 C 
ATOM     90  C   UNL A   1      34.607  23.089  24.389  1.00  0.00     0.059 C 
ATOM     91  O   UNL A   1      32.816  23.181  22.762  1.00  0.00    -0.273 OA
ATOM     92  C   UNL A   1      35.787  23.160  23.414  1.00  0.00     0.017 C 
ATOM     93  C   UNL A   1      34.527  21.596  24.693  1.00  0.00     0.017 C 
ATOM     94  C   UNL A   1      36.786  22.131  23.939  1.00  0.00     0.001 C 
ATOM     95  C   UNL A   1      35.982  21.148  24.790  1.00  0.00     0.001 C 
ENDBRANCH  80  85
ENDBRANCH  75  78
ENDBRANCH  73  74
ENDBRANCH  72  73
ENDBRANCH  71  72
ENDBRANCH   1  71
TORSDOF 15
ENDMDL
