MODEL 1
REMARK VINA RESULT:     -10.4      0.000      0.000
REMARK SMILES [NH3+]CC(=O)N1C[C@H](O)C[C@H]1C(=O)NCCCCNC(=O)c1ccc(-c2c3nc(c(-c4cccc(S(=O)(=O)[O-])c4F)c4ccc([nH]4)c(-c4cccc(S(=O)(=O)[O-])c4F)c4nc(c(-c5cccc(S(=O)(=O)[O-])c5F)c5ccc2[nH]5)C=C4)C=C3)cc1
REMARK SMILES IDX 15 1 14 2 13 3 11 4 12 5 10 7 5 8 6 9 7 10 9 11 3 12 4 13
REMARK SMILES IDX 2 14 1 15 8 19 16 21 17 22 18 23 19 24 20 26 21 27 22 28
REMARK SMILES IDX 83 29 23 30 82 31 24 32 25 33 26 34 76 35 27 36 81 37 75 38
REMARK SMILES IDX 77 39 28 40 80 41 74 42 73 43 29 45 61 46 41 47 60 48 42 49
REMARK SMILES IDX 45 50 59 51 78 52 43 53 44 54 58 56 79 57 46 58 30 59 31 60
REMARK SMILES IDX 39 61 32 62 34 63 40 64 33 65 35 66 36 67 37 68 38 69 62 70
REMARK SMILES IDX 63 71 71 72 64 73 66 74 72 75 65 76 67 77 68 78 69 79 70 80
REMARK SMILES IDX 47 81 48 82 56 83 49 84 51 85 57 86 50 87 52 88 53 89 54 90
REMARK SMILES IDX 55 91
REMARK H PARENT 13 6 1 16 1 17 1 18 8 20 18 25 77 44 45 55
REMARK Flexibility Score: inf
ROOT
ATOM      1  C   UNL A   1      33.378  27.792  23.159  1.00  0.00     0.023 C 
ENDROOT
BRANCH   1   2
ATOM      2  C   UNL A   1      33.664  26.424  23.764  1.00  0.00     0.116 C 
BRANCH   2   3
ATOM      3  N   UNL A   1      33.559  25.351  22.802  1.00  0.00    -0.354 N 
ATOM      4  C   UNL A   1      34.119  24.110  22.794  1.00  0.00     0.242 C 
ATOM      5  O   UNL A   1      33.659  23.294  21.987  1.00  0.00    -0.273 OA
ATOM      6  H   UNL A   1      32.990  25.552  22.024  1.00  0.00     0.163 HD
BRANCH   4   7
ATOM      7  C   UNL A   1      35.104  23.635  23.880  1.00  0.00     0.177 C 
ATOM      8  N   UNL A   1      34.655  22.679  24.900  1.00  0.00    -0.323 N 
ATOM      9  C   UNL A   1      35.582  21.564  25.039  1.00  0.00     0.152 C 
ATOM     10  C   UNL A   1      36.836  22.000  24.282  1.00  0.00     0.136 C 
ATOM     11  C   UNL A   1      36.328  22.975  23.227  1.00  0.00     0.069 C 
BRANCH   8  12
ATOM     12  C   UNL A   1      33.660  23.054  25.782  1.00  0.00     0.278 C 
ATOM     13  O   UNL A   1      33.906  23.783  26.744  1.00  0.00    -0.268 OA
BRANCH  12  14
ATOM     14  C   UNL A   1      32.242  22.497  25.586  1.00  0.00     0.360 C 
BRANCH  14  15
ATOM     15  N   UNL A   1      32.216  21.041  25.396  1.00  0.00    -0.350 N 
ATOM     16  H   UNL A   1      32.118  20.830  24.403  1.00  0.00     0.344 HD
ATOM     17  H   UNL A   1      31.427  20.645  25.907  1.00  0.00     0.344 HD
ATOM     18  H   UNL A   1      33.085  20.637  25.745  1.00  0.00     0.344 HD
ENDBRANCH  14  15
ENDBRANCH  12  14
ENDBRANCH   8  12
BRANCH  10  19
ATOM     19  O   UNL A   1      37.747  22.654  25.163  1.00  0.00    -0.391 OA
ATOM     20  H   UNL A   1      38.310  21.993  25.595  1.00  0.00     0.211 HD
ENDBRANCH  10  19
ENDBRANCH   4   7
ENDBRANCH   2   3
ENDBRANCH   1   2
BRANCH   1  21
ATOM     21  C   UNL A   1      32.565  28.734  24.050  1.00  0.00     0.023 C 
BRANCH  21  22
ATOM     22  C   UNL A   1      33.269  29.232  25.308  1.00  0.00     0.116 C 
BRANCH  22  23
ATOM     23  N   UNL A   1      32.642  30.409  25.896  1.00  0.00    -0.352 N 
ATOM     24  C   UNL A   1      33.107  31.200  26.920  1.00  0.00     0.251 C 
ATOM     25  H   UNL A   1      31.775  30.672  25.510  1.00  0.00     0.163 HD
ATOM     26  O   UNL A   1      32.413  32.108  27.367  1.00  0.00    -0.269 OA
BRANCH  24  27
ATOM     27  C   UNL A   1      34.439  30.922  27.497  1.00  0.00     0.039 A 
ATOM     28  C   UNL A   1      35.358  31.966  27.627  1.00  0.00     0.014 A 
ATOM     29  C   UNL A   1      34.753  29.639  27.955  1.00  0.00     0.014 A 
ATOM     30  C   UNL A   1      36.570  31.742  28.285  1.00  0.00     0.010 A 
ATOM     31  C   UNL A   1      35.931  29.435  28.663  1.00  0.00     0.010 A 
ATOM     32  C   UNL A   1      36.850  30.483  28.838  1.00  0.00    -0.014 A 
BRANCH  32  33
ATOM     33  C   UNL A   1      38.094  30.215  29.602  1.00  0.00     0.031 A 
ATOM     34  C   UNL A   1      39.103  29.242  29.055  1.00  0.00     0.074 A 
ATOM     35  C   UNL A   1      38.253  30.734  30.836  1.00  0.00     0.049 A 
ATOM     36  N   UNL A   1      40.156  28.731  29.633  1.00  0.00    -0.248 NA
ATOM     37  C   UNL A   1      38.870  28.751  27.686  1.00  0.00     0.031 C 
ATOM     38  C   UNL A   1      37.313  31.638  31.502  1.00  0.00     0.029 A 
ATOM     39  N   UNL A   1      39.242  30.539  31.768  1.00  0.00    -0.354 N 
ATOM     40  C   UNL A   1      40.680  27.818  28.726  1.00  0.00     0.074 A 
ATOM     41  C   UNL A   1      39.819  27.833  27.564  1.00  0.00     0.031 C 
ATOM     42  C   UNL A   1      37.765  31.910  32.738  1.00  0.00     0.029 A 
ATOM     43  C   UNL A   1      39.005  31.176  32.965  1.00  0.00     0.049 A 
ATOM     44  H   UNL A   1      40.045  29.996  31.596  1.00  0.00     0.167 HD
ATOM     45  C   UNL A   1      41.793  27.055  28.840  1.00  0.00     0.034 A 
ATOM     46  C   UNL A   1      39.702  31.156  34.120  1.00  0.00     0.034 A 
ATOM     47  C   UNL A   1      42.683  27.098  29.967  1.00  0.00     0.049 A 
ATOM     48  C   UNL A   1      40.972  30.351  34.194  1.00  0.00     0.074 A 
ATOM     49  C   UNL A   1      43.881  26.430  30.140  1.00  0.00     0.029 A 
ATOM     50  N   UNL A   1      42.477  27.857  31.107  1.00  0.00    -0.354 N 
ATOM     51  N   UNL A   1      41.527  29.600  33.272  1.00  0.00    -0.248 NA
ATOM     52  C   UNL A   1      41.734  30.417  35.450  1.00  0.00     0.031 C 
ATOM     53  C   UNL A   1      44.400  26.786  31.388  1.00  0.00     0.029 A 
ATOM     54  C   UNL A   1      43.529  27.684  31.986  1.00  0.00     0.049 A 
ATOM     55  H   UNL A   1      41.695  28.435  31.267  1.00  0.00     0.167 HD
ATOM     56  C   UNL A   1      42.720  29.142  33.819  1.00  0.00     0.074 A 
ATOM     57  C   UNL A   1      42.814  29.705  35.150  1.00  0.00     0.031 C 
ATOM     58  C   UNL A   1      43.647  28.320  33.273  1.00  0.00     0.034 A 
BRANCH  45  59
ATOM     59  C   UNL A   1      42.144  26.156  27.686  1.00  0.00     0.023 A 
ATOM     60  C   UNL A   1      42.937  26.659  26.634  1.00  0.00     0.012 A 
ATOM     61  C   UNL A   1      41.742  24.806  27.666  1.00  0.00     0.148 A 
ATOM     62  C   UNL A   1      43.296  25.842  25.563  1.00  0.00     0.002 A 
ATOM     63  C   UNL A   1      42.140  23.988  26.615  1.00  0.00     0.091 A 
ATOM     64  F   UNL A   1      40.969  24.353  28.662  1.00  0.00    -0.205 F 
ATOM     65  C   UNL A   1      42.906  24.506  25.558  1.00  0.00     0.022 A 
BRANCH  63  66
ATOM     66  S   UNL A   1      41.752  22.234  26.560  1.00  0.00     0.127 S 
ATOM     67  O   UNL A   1      42.494  21.804  25.376  1.00  0.00    -0.237 OA
ATOM     68  O   UNL A   1      42.300  21.754  27.829  1.00  0.00    -0.237 OA
ATOM     69  O   UNL A   1      40.302  22.151  26.460  1.00  0.00    -0.744 OA
ENDBRANCH  63  66
ENDBRANCH  45  59
BRANCH  46  70
ATOM     70  C   UNL A   1      39.255  31.988  35.273  1.00  0.00     0.023 A 
ATOM     71  C   UNL A   1      38.372  31.430  36.217  1.00  0.00     0.012 A 
ATOM     72  C   UNL A   1      39.720  33.304  35.461  1.00  0.00     0.148 A 
ATOM     73  C   UNL A   1      37.936  32.176  37.313  1.00  0.00     0.002 A 
ATOM     74  C   UNL A   1      39.321  34.024  36.582  1.00  0.00     0.091 A 
ATOM     75  F   UNL A   1      40.549  33.823  34.545  1.00  0.00    -0.205 F 
ATOM     76  C   UNL A   1      38.417  33.468  37.501  1.00  0.00     0.022 A 
BRANCH  74  77
ATOM     77  S   UNL A   1      39.991  35.646  36.970  1.00  0.00     0.127 S 
ATOM     78  O   UNL A   1      39.312  35.957  38.225  1.00  0.00    -0.237 OA
ATOM     79  O   UNL A   1      41.421  35.364  37.096  1.00  0.00    -0.237 OA
ATOM     80  O   UNL A   1      39.647  36.489  35.832  1.00  0.00    -0.744 OA
ENDBRANCH  74  77
ENDBRANCH  46  70
BRANCH  58  81
ATOM     81  C   UNL A   1      44.884  28.016  34.072  1.00  0.00     0.023 A 
ATOM     82  C   UNL A   1      46.013  28.849  33.958  1.00  0.00     0.012 A 
ATOM     83  C   UNL A   1      44.878  26.979  35.027  1.00  0.00     0.148 A 
ATOM     84  C   UNL A   1      47.125  28.648  34.776  1.00  0.00     0.002 A 
ATOM     85  C   UNL A   1      45.971  26.812  35.867  1.00  0.00     0.091 A 
ATOM     86  F   UNL A   1      43.798  26.188  35.104  1.00  0.00    -0.205 F 
ATOM     87  C   UNL A   1      47.098  27.640  35.738  1.00  0.00     0.022 A 
BRANCH  85  88
ATOM     88  S   UNL A   1      45.988  25.604  37.198  1.00  0.00     0.127 S 
ATOM     89  O   UNL A   1      47.179  26.003  37.946  1.00  0.00    -0.237 OA
ATOM     90  O   UNL A   1      44.721  25.875  37.879  1.00  0.00    -0.237 OA
ATOM     91  O   UNL A   1      46.061  24.300  36.555  1.00  0.00    -0.744 OA
ENDBRANCH  85  88
ENDBRANCH  58  81
ENDBRANCH  32  33
ENDBRANCH  24  27
ENDBRANCH  22  23
ENDBRANCH  21  22
ENDBRANCH   1  21
TORSDOF 18
ENDMDL
MODEL 2
REMARK VINA RESULT:     -10.3      2.477      3.397
REMARK SMILES [NH3+]CC(=O)N1C[C@H](O)C[C@H]1C(=O)NCCCCNC(=O)c1ccc(-c2c3nc(c(-c4cccc(S(=O)(=O)[O-])c4F)c4ccc([nH]4)c(-c4cccc(S(=O)(=O)[O-])c4F)c4nc(c(-c5cccc(S(=O)(=O)[O-])c5F)c5ccc2[nH]5)C=C4)C=C3)cc1
REMARK SMILES IDX 15 1 14 2 13 3 11 4 12 5 10 7 5 8 6 9 7 10 9 11 3 12 4 13
REMARK SMILES IDX 2 14 1 15 8 19 16 21 17 22 18 23 19 24 20 26 21 27 22 28
REMARK SMILES IDX 83 29 23 30 82 31 24 32 25 33 26 34 76 35 27 36 81 37 75 38
REMARK SMILES IDX 77 39 28 40 80 41 74 42 73 43 29 45 61 46 41 47 60 48 42 49
REMARK SMILES IDX 45 50 59 51 78 52 43 53 44 54 58 56 79 57 46 58 30 59 31 60
REMARK SMILES IDX 39 61 32 62 34 63 40 64 33 65 35 66 36 67 37 68 38 69 62 70
REMARK SMILES IDX 63 71 71 72 64 73 66 74 72 75 65 76 67 77 68 78 69 79 70 80
REMARK SMILES IDX 47 81 48 82 56 83 49 84 51 85 57 86 50 87 52 88 53 89 54 90
REMARK SMILES IDX 55 91
REMARK H PARENT 13 6 1 16 1 17 1 18 8 20 18 25 77 44 45 55
REMARK Flexibility Score: inf
ROOT
ATOM      1  C   UNL A   1      31.796  30.386  26.684  1.00  0.00     0.023 C 
ENDROOT
BRANCH   1   2
ATOM      2  C   UNL A   1      31.509  29.766  25.321  1.00  0.00     0.116 C 
BRANCH   2   3
ATOM      3  N   UNL A   1      32.685  29.673  24.488  1.00  0.00    -0.354 N 
ATOM      4  C   UNL A   1      33.151  28.647  23.724  1.00  0.00     0.242 C 
ATOM      5  O   UNL A   1      34.037  28.917  22.905  1.00  0.00    -0.273 OA
ATOM      6  H   UNL A   1      33.242  30.485  24.470  1.00  0.00     0.163 HD
BRANCH   4   7
ATOM      7  C   UNL A   1      32.468  27.266  23.681  1.00  0.00     0.177 C 
ATOM      8  N   UNL A   1      31.481  26.977  22.634  1.00  0.00    -0.323 N 
ATOM      9  C   UNL A   1      31.753  25.708  21.972  1.00  0.00     0.152 C 
ATOM     10  C   UNL A   1      32.790  25.019  22.857  1.00  0.00     0.136 C 
ATOM     11  C   UNL A   1      33.526  26.160  23.546  1.00  0.00     0.069 C 
BRANCH   8  12
ATOM     12  C   UNL A   1      30.306  27.704  22.597  1.00  0.00     0.278 C 
ATOM     13  O   UNL A   1      30.198  28.699  21.879  1.00  0.00    -0.268 OA
BRANCH  12  14
ATOM     14  C   UNL A   1      29.146  27.292  23.515  1.00  0.00     0.360 C 
BRANCH  14  15
ATOM     15  N   UNL A   1      29.269  25.917  24.016  1.00  0.00    -0.350 N 
ATOM     16  H   UNL A   1      29.113  25.908  25.024  1.00  0.00     0.344 HD
ATOM     17  H   UNL A   1      30.204  25.563  23.814  1.00  0.00     0.344 HD
ATOM     18  H   UNL A   1      28.575  25.326  23.559  1.00  0.00     0.344 HD
ENDBRANCH  14  15
ENDBRANCH  12  14
ENDBRANCH   8  12
BRANCH  10  19
ATOM     19  O   UNL A   1      32.148  24.189  23.822  1.00  0.00    -0.391 OA
ATOM     20  H   UNL A   1      32.580  24.300  24.683  1.00  0.00     0.211 HD
ENDBRANCH  10  19
ENDBRANCH   4   7
ENDBRANCH   2   3
ENDBRANCH   1   2
BRANCH   1  21
ATOM     21  C   UNL A   1      31.446  31.871  26.804  1.00  0.00     0.023 C 
BRANCH  21  22
ATOM     22  C   UNL A   1      32.629  32.834  26.802  1.00  0.00     0.116 C 
BRANCH  22  23
ATOM     23  N   UNL A   1      32.374  34.066  27.539  1.00  0.00    -0.352 N 
ATOM     24  C   UNL A   1      33.071  34.578  28.608  1.00  0.00     0.251 C 
ATOM     25  H   UNL A   1      31.606  34.600  27.232  1.00  0.00     0.163 HD
ATOM     26  O   UNL A   1      32.672  35.587  29.182  1.00  0.00    -0.269 OA
BRANCH  24  27
ATOM     27  C   UNL A   1      34.286  33.880  29.077  1.00  0.00     0.039 A 
ATOM     28  C   UNL A   1      35.541  34.380  28.721  1.00  0.00     0.014 A 
ATOM     29  C   UNL A   1      34.178  32.763  29.911  1.00  0.00     0.014 A 
ATOM     30  C   UNL A   1      36.693  33.804  29.261  1.00  0.00     0.010 A 
ATOM     31  C   UNL A   1      35.322  32.232  30.494  1.00  0.00     0.010 A 
ATOM     32  C   UNL A   1      36.589  32.747  30.179  1.00  0.00    -0.014 A 
BRANCH  32  33
ATOM     33  C   UNL A   1      37.781  32.146  30.830  1.00  0.00     0.031 A 
ATOM     34  C   UNL A   1      38.564  31.087  30.103  1.00  0.00     0.074 A 
ATOM     35  C   UNL A   1      38.075  32.449  32.109  1.00  0.00     0.049 A 
ATOM     36  N   UNL A   1      39.516  30.311  30.549  1.00  0.00    -0.248 NA
ATOM     37  C   UNL A   1      38.199  30.843  28.697  1.00  0.00     0.031 C 
ATOM     38  C   UNL A   1      37.351  33.412  32.941  1.00  0.00     0.029 A 
ATOM     39  N   UNL A   1      39.037  31.944  32.950  1.00  0.00    -0.354 N 
ATOM     40  C   UNL A   1      39.824  29.451  29.502  1.00  0.00     0.074 A 
ATOM     41  C   UNL A   1      38.947  29.790  28.403  1.00  0.00     0.031 C 
ATOM     42  C   UNL A   1      37.884  33.419  34.174  1.00  0.00     0.029 A 
ATOM     43  C   UNL A   1      38.965  32.441  34.232  1.00  0.00     0.049 A 
ATOM     44  H   UNL A   1      39.713  31.289  32.662  1.00  0.00     0.167 HD
ATOM     45  C   UNL A   1      40.771  28.484  29.451  1.00  0.00     0.034 A 
ATOM     46  C   UNL A   1      39.680  32.130  35.332  1.00  0.00     0.034 A 
ATOM     47  C   UNL A   1      41.686  28.201  30.521  1.00  0.00     0.049 A 
ATOM     48  C   UNL A   1      40.772  31.098  35.228  1.00  0.00     0.074 A 
ATOM     49  C   UNL A   1      42.737  27.302  30.537  1.00  0.00     0.029 A 
ATOM     50  N   UNL A   1      41.667  28.820  31.760  1.00  0.00    -0.354 N 
ATOM     51  N   UNL A   1      41.141  30.392  34.185  1.00  0.00    -0.248 NA
ATOM     52  C   UNL A   1      41.570  30.843  36.436  1.00  0.00     0.031 C 
ATOM     53  C   UNL A   1      43.353  27.377  31.789  1.00  0.00     0.029 A 
ATOM     54  C   UNL A   1      42.692  28.331  32.548  1.00  0.00     0.049 A 
ATOM     55  H   UNL A   1      41.018  29.507  32.039  1.00  0.00     0.167 HD
ATOM     56  C   UNL A   1      42.239  29.646  34.599  1.00  0.00     0.074 A 
ATOM     57  C   UNL A   1      42.481  29.990  35.985  1.00  0.00     0.031 C 
ATOM     58  C   UNL A   1      42.971  28.748  33.898  1.00  0.00     0.034 A 
BRANCH  45  59
ATOM     59  C   UNL A   1      40.905  27.705  28.171  1.00  0.00     0.023 A 
ATOM     60  C   UNL A   1      41.562  28.291  27.070  1.00  0.00     0.012 A 
ATOM     61  C   UNL A   1      40.435  26.381  28.072  1.00  0.00     0.148 A 
ATOM     62  C   UNL A   1      41.720  27.584  25.879  1.00  0.00     0.002 A 
ATOM     63  C   UNL A   1      40.634  25.668  26.896  1.00  0.00     0.091 A 
ATOM     64  F   UNL A   1      39.792  25.849  29.121  1.00  0.00    -0.205 F 
ATOM     65  C   UNL A   1      41.266  26.271  25.796  1.00  0.00     0.022 A 
BRANCH  63  66
ATOM     66  S   UNL A   1      40.152  23.946  26.719  1.00  0.00     0.127 S 
ATOM     67  O   UNL A   1      38.853  24.068  26.061  1.00  0.00    -0.237 OA
ATOM     68  O   UNL A   1      41.216  23.410  25.869  1.00  0.00    -0.237 OA
ATOM     69  O   UNL A   1      40.126  23.400  28.069  1.00  0.00    -0.744 OA
ENDBRANCH  63  66
ENDBRANCH  45  59
BRANCH  46  70
ATOM     70  C   UNL A   1      39.439  32.862  36.607  1.00  0.00     0.023 A 
ATOM     71  C   UNL A   1      40.103  34.083  36.831  1.00  0.00     0.012 A 
ATOM     72  C   UNL A   1      38.539  32.382  37.579  1.00  0.00     0.148 A 
ATOM     73  C   UNL A   1      39.900  34.801  38.011  1.00  0.00     0.002 A 
ATOM     74  C   UNL A   1      38.302  33.127  38.729  1.00  0.00     0.091 A 
ATOM     75  F   UNL A   1      37.926  31.211  37.355  1.00  0.00    -0.205 F 
ATOM     76  C   UNL A   1      38.993  34.328  38.954  1.00  0.00     0.022 A 
BRANCH  74  77
ATOM     77  S   UNL A   1      37.056  32.659  39.937  1.00  0.00     0.127 S 
ATOM     78  O   UNL A   1      35.833  32.715  39.143  1.00  0.00    -0.237 OA
ATOM     79  O   UNL A   1      37.487  31.311  40.313  1.00  0.00    -0.237 OA
ATOM     80  O   UNL A   1      37.169  33.640  41.009  1.00  0.00    -0.744 OA
ENDBRANCH  74  77
ENDBRANCH  46  70
BRANCH  58  81
ATOM     81  C   UNL A   1      44.150  28.108  34.579  1.00  0.00     0.023 A 
ATOM     82  C   UNL A   1      45.391  28.772  34.599  1.00  0.00     0.012 A 
ATOM     83  C   UNL A   1      43.989  26.911  35.305  1.00  0.00     0.148 A 
ATOM     84  C   UNL A   1      46.461  28.247  35.322  1.00  0.00     0.002 A 
ATOM     85  C   UNL A   1      45.046  26.416  36.058  1.00  0.00     0.091 A 
ATOM     86  F   UNL A   1      42.802  26.288  35.256  1.00  0.00    -0.205 F 
ATOM     87  C   UNL A   1      46.285  27.078  36.062  1.00  0.00     0.022 A 
BRANCH  85  88
ATOM     88  S   UNL A   1      44.883  24.973  37.116  1.00  0.00     0.127 S 
ATOM     89  O   UNL A   1      46.195  24.927  37.760  1.00  0.00    -0.237 OA
ATOM     90  O   UNL A   1      43.783  25.359  38.000  1.00  0.00    -0.237 OA
ATOM     91  O   UNL A   1      44.583  23.857  36.230  1.00  0.00    -0.744 OA
ENDBRANCH  85  88
ENDBRANCH  58  81
ENDBRANCH  32  33
ENDBRANCH  24  27
ENDBRANCH  22  23
ENDBRANCH  21  22
ENDBRANCH   1  21
TORSDOF 18
ENDMDL
MODEL 3
REMARK VINA RESULT:     -10.3      5.223     10.103
REMARK SMILES [NH3+]CC(=O)N1C[C@H](O)C[C@H]1C(=O)NCCCCNC(=O)c1ccc(-c2c3nc(c(-c4cccc(S(=O)(=O)[O-])c4F)c4ccc([nH]4)c(-c4cccc(S(=O)(=O)[O-])c4F)c4nc(c(-c5cccc(S(=O)(=O)[O-])c5F)c5ccc2[nH]5)C=C4)C=C3)cc1
REMARK SMILES IDX 15 1 14 2 13 3 11 4 12 5 10 7 5 8 6 9 7 10 9 11 3 12 4 13
REMARK SMILES IDX 2 14 1 15 8 19 16 21 17 22 18 23 19 24 20 26 21 27 22 28
REMARK SMILES IDX 83 29 23 30 82 31 24 32 25 33 26 34 76 35 27 36 81 37 75 38
REMARK SMILES IDX 77 39 28 40 80 41 74 42 73 43 29 45 61 46 41 47 60 48 42 49
REMARK SMILES IDX 45 50 59 51 78 52 43 53 44 54 58 56 79 57 46 58 30 59 31 60
REMARK SMILES IDX 39 61 32 62 34 63 40 64 33 65 35 66 36 67 37 68 38 69 62 70
REMARK SMILES IDX 63 71 71 72 64 73 66 74 72 75 65 76 67 77 68 78 69 79 70 80
REMARK SMILES IDX 47 81 48 82 56 83 49 84 51 85 57 86 50 87 52 88 53 89 54 90
REMARK SMILES IDX 55 91
REMARK H PARENT 13 6 1 16 1 17 1 18 8 20 18 25 77 44 45 55
REMARK Flexibility Score: inf
ROOT
ATOM      1  C   UNL A   1      33.833  23.410  25.141  1.00  0.00     0.023 C 
ENDROOT
BRANCH   1   2
ATOM      2  C   UNL A   1      33.434  24.879  25.068  1.00  0.00     0.116 C 
BRANCH   2   3
ATOM      3  N   UNL A   1      32.263  25.182  25.857  1.00  0.00    -0.354 N 
ATOM      4  C   UNL A   1      31.766  26.377  26.282  1.00  0.00     0.242 C 
ATOM      5  O   UNL A   1      30.610  26.378  26.719  1.00  0.00    -0.273 OA
ATOM      6  H   UNL A   1      31.739  24.396  26.133  1.00  0.00     0.163 HD
BRANCH   4   7
ATOM      7  C   UNL A   1      32.485  27.715  26.024  1.00  0.00     0.177 C 
ATOM      8  N   UNL A   1      32.093  28.539  24.874  1.00  0.00    -0.323 N 
ATOM      9  C   UNL A   1      31.865  29.926  25.257  1.00  0.00     0.152 C 
ATOM     10  C   UNL A   1      32.442  30.043  26.667  1.00  0.00     0.136 C 
ATOM     11  C   UNL A   1      32.334  28.637  27.243  1.00  0.00     0.069 C 
BRANCH   8  12
ATOM     12  C   UNL A   1      32.277  28.044  23.597  1.00  0.00     0.278 C 
ATOM     13  O   UNL A   1      33.394  28.031  23.077  1.00  0.00    -0.268 OA
BRANCH  12  14
ATOM     14  C   UNL A   1      31.056  27.563  22.801  1.00  0.00     0.360 C 
BRANCH  14  15
ATOM     15  N   UNL A   1      31.414  26.759  21.626  1.00  0.00    -0.350 N 
ATOM     16  H   UNL A   1      31.085  27.226  20.781  1.00  0.00     0.344 HD
ATOM     17  H   UNL A   1      30.978  25.840  21.696  1.00  0.00     0.344 HD
ATOM     18  H   UNL A   1      32.427  26.652  21.583  1.00  0.00     0.344 HD
ENDBRANCH  14  15
ENDBRANCH  12  14
ENDBRANCH   8  12
BRANCH  10  19
ATOM     19  O   UNL A   1      33.806  30.454  26.614  1.00  0.00    -0.391 OA
ATOM     20  H   UNL A   1      33.856  31.374  26.311  1.00  0.00     0.211 HD
ENDBRANCH  10  19
ENDBRANCH   4   7
ENDBRANCH   2   3
ENDBRANCH   1   2
BRANCH   1  21
ATOM     21  C   UNL A   1      35.336  23.143  25.021  1.00  0.00     0.023 C 
BRANCH  21  22
ATOM     22  C   UNL A   1      35.967  22.374  26.178  1.00  0.00     0.116 C 
BRANCH  22  23
ATOM     23  N   UNL A   1      36.890  21.331  25.744  1.00  0.00    -0.352 N 
ATOM     24  C   UNL A   1      38.264  21.345  25.774  1.00  0.00     0.251 C 
ATOM     25  H   UNL A   1      36.476  20.513  25.387  1.00  0.00     0.163 HD
ATOM     26  O   UNL A   1      38.904  20.420  25.283  1.00  0.00    -0.269 OA
BRANCH  24  27
ATOM     27  C   UNL A   1      38.961  22.503  26.372  1.00  0.00     0.039 A 
ATOM     28  C   UNL A   1      40.052  22.281  27.216  1.00  0.00     0.014 A 
ATOM     29  C   UNL A   1      38.563  23.805  26.054  1.00  0.00     0.014 A 
ATOM     30  C   UNL A   1      40.795  23.368  27.685  1.00  0.00     0.010 A 
ATOM     31  C   UNL A   1      39.339  24.879  26.472  1.00  0.00     0.010 A 
ATOM     32  C   UNL A   1      40.463  24.672  27.288  1.00  0.00    -0.014 A 
BRANCH  32  33
ATOM     33  C   UNL A   1      41.261  25.852  27.707  1.00  0.00     0.031 A 
ATOM     34  C   UNL A   1      40.605  26.939  28.515  1.00  0.00     0.074 A 
ATOM     35  C   UNL A   1      42.520  26.011  27.253  1.00  0.00     0.049 A 
ATOM     36  N   UNL A   1      41.058  28.123  28.830  1.00  0.00    -0.248 NA
ATOM     37  C   UNL A   1      39.241  26.668  29.001  1.00  0.00     0.031 C 
ATOM     38  C   UNL A   1      43.243  25.058  26.409  1.00  0.00     0.029 A 
ATOM     39  N   UNL A   1      43.400  27.055  27.402  1.00  0.00    -0.354 N 
ATOM     40  C   UNL A   1      40.019  28.760  29.498  1.00  0.00     0.074 A 
ATOM     41  C   UNL A   1      38.906  27.836  29.530  1.00  0.00     0.031 C 
ATOM     42  C   UNL A   1      44.449  25.566  26.105  1.00  0.00     0.029 A 
ATOM     43  C   UNL A   1      44.574  26.891  26.703  1.00  0.00     0.049 A 
ATOM     44  H   UNL A   1      43.208  27.846  27.957  1.00  0.00     0.167 HD
ATOM     45  C   UNL A   1      40.003  29.992  30.058  1.00  0.00     0.034 A 
ATOM     46  C   UNL A   1      45.624  27.722  26.550  1.00  0.00     0.034 A 
ATOM     47  C   UNL A   1      41.135  30.876  30.085  1.00  0.00     0.049 A 
ATOM     48  C   UNL A   1      45.606  29.060  27.240  1.00  0.00     0.074 A 
ATOM     49  C   UNL A   1      41.247  32.109  30.702  1.00  0.00     0.029 A 
ATOM     50  N   UNL A   1      42.353  30.617  29.478  1.00  0.00    -0.354 N 
ATOM     51  N   UNL A   1      44.665  29.589  27.986  1.00  0.00    -0.248 NA
ATOM     52  C   UNL A   1      46.803  29.902  27.101  1.00  0.00     0.031 C 
ATOM     53  C   UNL A   1      42.536  32.597  30.465  1.00  0.00     0.029 A 
ATOM     54  C   UNL A   1      43.228  31.662  29.712  1.00  0.00     0.049 A 
ATOM     55  H   UNL A   1      42.564  29.809  28.956  1.00  0.00     0.167 HD
ATOM     56  C   UNL A   1      45.173  30.801  28.440  1.00  0.00     0.074 A 
ATOM     57  C   UNL A   1      46.508  30.927  27.893  1.00  0.00     0.031 C 
ATOM     58  C   UNL A   1      44.583  31.731  29.229  1.00  0.00     0.034 A 
BRANCH  45  59
ATOM     59  C   UNL A   1      38.737  30.431  30.744  1.00  0.00     0.023 A 
ATOM     60  C   UNL A   1      38.557  30.144  32.112  1.00  0.00     0.012 A 
ATOM     61  C   UNL A   1      37.756  31.171  30.057  1.00  0.00     0.148 A 
ATOM     62  C   UNL A   1      37.405  30.558  32.778  1.00  0.00     0.002 A 
ATOM     63  C   UNL A   1      36.629  31.616  30.739  1.00  0.00     0.091 A 
ATOM     64  F   UNL A   1      37.933  31.414  28.750  1.00  0.00    -0.205 F 
ATOM     65  C   UNL A   1      36.447  31.301  32.095  1.00  0.00     0.022 A 
BRANCH  63  66
ATOM     66  S   UNL A   1      35.377  32.646  29.963  1.00  0.00     0.127 S 
ATOM     67  O   UNL A   1      36.173  33.783  29.503  1.00  0.00    -0.237 OA
ATOM     68  O   UNL A   1      34.880  31.779  28.894  1.00  0.00    -0.237 OA
ATOM     69  O   UNL A   1      34.403  32.939  31.004  1.00  0.00    -0.744 OA
ENDBRANCH  63  66
ENDBRANCH  45  59
BRANCH  46  70
ATOM     70  C   UNL A   1      46.816  27.279  25.773  1.00  0.00     0.023 A 
ATOM     71  C   UNL A   1      47.727  26.384  26.368  1.00  0.00     0.012 A 
ATOM     72  C   UNL A   1      47.038  27.705  24.449  1.00  0.00     0.148 A 
ATOM     73  C   UNL A   1      48.852  25.943  25.670  1.00  0.00     0.002 A 
ATOM     74  C   UNL A   1      48.134  27.222  23.742  1.00  0.00     0.091 A 
ATOM     75  F   UNL A   1      46.169  28.567  23.904  1.00  0.00    -0.205 F 
ATOM     76  C   UNL A   1      49.050  26.353  24.356  1.00  0.00     0.022 A 
BRANCH  74  77
ATOM     77  S   UNL A   1      48.398  27.596  22.004  1.00  0.00     0.127 S 
ATOM     78  O   UNL A   1      49.558  28.480  22.061  1.00  0.00    -0.237 OA
ATOM     79  O   UNL A   1      48.659  26.270  21.442  1.00  0.00    -0.237 OA
ATOM     80  O   UNL A   1      47.154  28.202  21.547  1.00  0.00    -0.744 OA
ENDBRANCH  74  77
ENDBRANCH  46  70
BRANCH  58  81
ATOM     81  C   UNL A   1      45.382  32.946  29.612  1.00  0.00     0.023 A 
ATOM     82  C   UNL A   1      46.201  32.912  30.756  1.00  0.00     0.012 A 
ATOM     83  C   UNL A   1      45.414  34.072  28.765  1.00  0.00     0.148 A 
ATOM     84  C   UNL A   1      47.033  33.989  31.061  1.00  0.00     0.002 A 
ATOM     85  C   UNL A   1      46.277  35.122  29.052  1.00  0.00     0.091 A 
ATOM     86  F   UNL A   1      44.612  34.088  27.691  1.00  0.00    -0.205 F 
ATOM     87  C   UNL A   1      47.082  35.086  30.202  1.00  0.00     0.022 A 
BRANCH  85  88
ATOM     88  S   UNL A   1      46.478  36.531  27.954  1.00  0.00     0.127 S 
ATOM     89  O   UNL A   1      46.954  35.888  26.730  1.00  0.00    -0.237 OA
ATOM     90  O   UNL A   1      45.116  37.060  27.875  1.00  0.00    -0.237 OA
ATOM     91  O   UNL A   1      47.433  37.415  28.607  1.00  0.00    -0.744 OA
ENDBRANCH  85  88
ENDBRANCH  58  81
ENDBRANCH  32  33
ENDBRANCH  24  27
ENDBRANCH  22  23
ENDBRANCH  21  22
ENDBRANCH   1  21
TORSDOF 18
ENDMDL
