MODEL 1
REMARK VINA RESULT:     -12.3      0.000      0.000
REMARK SMILES C[C@H]1CC[C@H](CNC(=O)NCc2ccc(C(=O)NCCCCNC(=O)c3ccc(-c4c5nc(c(-c6cccc(S(=O)(=O)[O-])c6F)c6ccc([nH]6)c(-c6cccc(S(=O)(=O)[O-])c6F)c6nc(c(-c7cccc(S(=O)(=O)[O-])c7F)c7ccc4[nH]7)C=C6)C=C5)cc3)o2)CC1
REMARK SMILES IDX 20 1 19 2 18 3 16 4 17 5 15 7 12 8 13 9 89 10 14 11 11 12
REMARK SMILES IDX 10 13 7 14 8 15 9 17 6 19 5 20 1 21 2 22 91 23 3 24 90 25
REMARK SMILES IDX 4 26 21 27 22 28 23 29 24 30 25 32 26 33 27 34 88 35 28 36
REMARK SMILES IDX 87 37 29 38 30 39 31 40 81 41 32 42 86 43 80 44 82 45 33 46
REMARK SMILES IDX 85 47 79 48 78 49 34 51 66 52 46 53 65 54 47 55 50 56 64 57
REMARK SMILES IDX 83 58 48 59 49 60 63 62 84 63 51 64 35 65 36 66 44 67 37 68
REMARK SMILES IDX 39 69 45 70 38 71 40 72 41 73 42 74 43 75 67 76 68 77 76 78
REMARK SMILES IDX 69 79 71 80 77 81 70 82 72 83 73 84 74 85 75 86 52 87 53 88
REMARK SMILES IDX 61 89 54 90 56 91 62 92 55 93 57 94 58 95 59 96 60 97
REMARK H PARENT 18 6 7 16 10 18 23 31 82 50 50 61
REMARK Flexibility Score: inf
ROOT
ATOM      1  C   UNL A   1      31.978  30.360  26.837  1.00  0.00     0.023 C 
ENDROOT
BRANCH   1   2
ATOM      2  C   UNL A   1      33.265  29.928  26.132  1.00  0.00     0.116 C 
BRANCH   2   3
ATOM      3  N   UNL A   1      33.070  29.790  24.704  1.00  0.00    -0.349 N 
ATOM      4  C   UNL A   1      32.427  28.816  23.975  1.00  0.00     0.286 C 
ATOM      5  O   UNL A   1      32.292  29.049  22.769  1.00  0.00    -0.266 OA
ATOM      6  H   UNL A   1      33.461  30.515  24.165  1.00  0.00     0.163 HD
BRANCH   4   7
ATOM      7  C   UNL A   1      31.934  27.600  24.598  1.00  0.00     0.191 A 
ATOM      8  C   UNL A   1      32.198  25.521  25.340  1.00  0.00     0.124 A 
ATOM      9  C   UNL A   1      30.897  25.873  25.624  1.00  0.00     0.048 A 
ATOM     10  O   UNL A   1      32.823  26.557  24.710  1.00  0.00    -0.454 OA
ATOM     11  C   UNL A   1      30.736  27.208  25.174  1.00  0.00     0.056 A 
BRANCH   8  12
ATOM     12  C   UNL A   1      32.974  24.272  25.577  1.00  0.00     0.193 C 
BRANCH  12  13
ATOM     13  N   UNL A   1      33.871  23.983  24.484  1.00  0.00    -0.331 N 
ATOM     14  N   UNL A   1      32.938  22.138  23.349  1.00  0.00    -0.338 N 
ATOM     15  C   UNL A   1      33.804  23.156  23.439  1.00  0.00     0.315 C 
ATOM     16  H   UNL A   1      32.833  21.793  22.433  1.00  0.00     0.165 HD
ATOM     17  O   UNL A   1      34.574  23.340  22.493  1.00  0.00    -0.249 OA
ATOM     18  H   UNL A   1      34.705  24.505  24.517  1.00  0.00     0.165 HD
BRANCH  14  19
ATOM     19  C   UNL A   1      32.122  21.443  24.325  1.00  0.00     0.121 C 
BRANCH  19  20
ATOM     20  C   UNL A   1      32.410  19.932  24.319  1.00  0.00     0.008 C 
ATOM     21  C   UNL A   1      34.343  16.127  23.279  1.00  0.00     0.007 C 
ATOM     22  C   UNL A   1      34.004  17.615  23.332  1.00  0.00    -0.014 C 
ATOM     23  C   UNL A   1      34.187  18.169  24.749  1.00  0.00     0.003 C 
ATOM     24  C   UNL A   1      32.572  17.862  22.843  1.00  0.00     0.003 C 
ATOM     25  C   UNL A   1      33.836  19.655  24.818  1.00  0.00     0.006 C 
ATOM     26  C   UNL A   1      32.203  19.342  22.913  1.00  0.00     0.006 C 
ENDBRANCH  19  20
ENDBRANCH  14  19
ENDBRANCH  12  13
ENDBRANCH   8  12
ENDBRANCH   4   7
ENDBRANCH   2   3
ENDBRANCH   1   2
BRANCH   1  27
ATOM     27  C   UNL A   1      31.739  31.875  26.843  1.00  0.00     0.023 C 
BRANCH  27  28
ATOM     28  C   UNL A   1      32.896  32.721  27.375  1.00  0.00     0.116 C 
BRANCH  28  29
ATOM     29  N   UNL A   1      32.513  34.086  27.710  1.00  0.00    -0.352 N 
ATOM     30  C   UNL A   1      33.054  34.920  28.660  1.00  0.00     0.251 C 
ATOM     31  H   UNL A   1      31.767  34.461  27.187  1.00  0.00     0.163 HD
ATOM     32  O   UNL A   1      32.542  36.014  28.880  1.00  0.00    -0.269 OA
BRANCH  30  33
ATOM     33  C   UNL A   1      34.229  34.474  29.439  1.00  0.00     0.039 A 
ATOM     34  C   UNL A   1      34.026  33.908  30.700  1.00  0.00     0.014 A 
ATOM     35  C   UNL A   1      35.519  34.584  28.913  1.00  0.00     0.014 A 
ATOM     36  C   UNL A   1      35.114  33.386  31.405  1.00  0.00     0.010 A 
ATOM     37  C   UNL A   1      36.589  34.003  29.587  1.00  0.00     0.010 A 
ATOM     38  C   UNL A   1      36.399  33.396  30.838  1.00  0.00    -0.014 A 
BRANCH  38  39
ATOM     39  C   UNL A   1      37.550  32.753  31.522  1.00  0.00     0.031 A 
ATOM     40  C   UNL A   1      38.251  31.581  30.890  1.00  0.00     0.074 A 
ATOM     41  C   UNL A   1      37.901  33.161  32.759  1.00  0.00     0.049 A 
ATOM     42  N   UNL A   1      39.228  30.853  31.365  1.00  0.00    -0.248 NA
ATOM     43  C   UNL A   1      37.775  31.153  29.564  1.00  0.00     0.031 C 
ATOM     44  C   UNL A   1      37.242  34.228  33.516  1.00  0.00     0.029 A 
ATOM     45  N   UNL A   1      38.877  32.706  33.611  1.00  0.00    -0.354 N 
ATOM     46  C   UNL A   1      39.457  29.859  30.420  1.00  0.00     0.074 A 
ATOM     47  C   UNL A   1      38.498  30.061  29.355  1.00  0.00     0.031 C 
ATOM     48  C   UNL A   1      37.830  34.343  34.718  1.00  0.00     0.029 A 
ATOM     49  C   UNL A   1      38.888  33.345  34.830  1.00  0.00     0.049 A 
ATOM     50  H   UNL A   1      39.509  31.990  33.372  1.00  0.00     0.167 HD
ATOM     51  C   UNL A   1      40.398  28.886  30.422  1.00  0.00     0.034 A 
ATOM     52  C   UNL A   1      39.658  33.143  35.918  1.00  0.00     0.034 A 
ATOM     53  C   UNL A   1      41.384  28.721  31.456  1.00  0.00     0.049 A 
ATOM     54  C   UNL A   1      40.733  32.091  35.868  1.00  0.00     0.074 A 
ATOM     55  C   UNL A   1      42.442  27.831  31.498  1.00  0.00     0.029 A 
ATOM     56  N   UNL A   1      41.430  29.455  32.630  1.00  0.00    -0.354 N 
ATOM     57  N   UNL A   1      41.047  31.277  34.889  1.00  0.00    -0.248 NA
ATOM     58  C   UNL A   1      41.587  31.955  37.058  1.00  0.00     0.031 C 
ATOM     59  C   UNL A   1      43.117  28.013  32.710  1.00  0.00     0.029 A 
ATOM     60  C   UNL A   1      42.495  29.034  33.409  1.00  0.00     0.049 A 
ATOM     61  H   UNL A   1      40.800  30.171  32.874  1.00  0.00     0.167 HD
ATOM     62  C   UNL A   1      42.154  30.560  35.329  1.00  0.00     0.074 A 
ATOM     63  C   UNL A   1      42.470  31.052  36.654  1.00  0.00     0.031 C 
ATOM     64  C   UNL A   1      42.836  29.573  34.700  1.00  0.00     0.034 A 
BRANCH  51  65
ATOM     65  C   UNL A   1      40.450  27.954  29.240  1.00  0.00     0.023 A 
ATOM     66  C   UNL A   1      39.528  26.891  29.154  1.00  0.00     0.012 A 
ATOM     67  C   UNL A   1      41.354  28.172  28.183  1.00  0.00     0.148 A 
ATOM     68  C   UNL A   1      39.523  26.042  28.048  1.00  0.00     0.002 A 
ATOM     69  C   UNL A   1      41.315  27.349  27.064  1.00  0.00     0.091 A 
ATOM     70  F   UNL A   1      42.235  29.176  28.292  1.00  0.00    -0.205 F 
ATOM     71  C   UNL A   1      40.409  26.277  27.000  1.00  0.00     0.022 A 
BRANCH  69  72
ATOM     72  S   UNL A   1      42.357  27.615  25.624  1.00  0.00     0.127 S 
ATOM     73  O   UNL A   1      43.691  27.612  26.223  1.00  0.00    -0.237 OA
ATOM     74  O   UNL A   1      42.054  26.442  24.804  1.00  0.00    -0.237 OA
ATOM     75  O   UNL A   1      41.934  28.885  25.051  1.00  0.00    -0.744 OA
ENDBRANCH  69  72
ENDBRANCH  51  65
BRANCH  52  76
ATOM     76  C   UNL A   1      39.485  34.000  37.126  1.00  0.00     0.023 A 
ATOM     77  C   UNL A   1      39.924  35.339  37.092  1.00  0.00     0.012 A 
ATOM     78  C   UNL A   1      38.876  33.507  38.295  1.00  0.00     0.148 A 
ATOM     79  C   UNL A   1      39.794  36.159  38.213  1.00  0.00     0.002 A 
ATOM     80  C   UNL A   1      38.698  34.347  39.389  1.00  0.00     0.091 A 
ATOM     81  F   UNL A   1      38.477  32.228  38.314  1.00  0.00    -0.205 F 
ATOM     82  C   UNL A   1      39.174  35.666  39.358  1.00  0.00     0.022 A 
BRANCH  80  83
ATOM     83  S   UNL A   1      37.790  33.834  40.853  1.00  0.00     0.127 S 
ATOM     84  O   UNL A   1      37.580  35.108  41.536  1.00  0.00    -0.237 OA
ATOM     85  O   UNL A   1      36.586  33.242  40.270  1.00  0.00    -0.237 OA
ATOM     86  O   UNL A   1      38.654  32.880  41.533  1.00  0.00    -0.744 OA
ENDBRANCH  80  83
ENDBRANCH  52  76
BRANCH  64  87
ATOM     87  C   UNL A   1      44.023  28.976  35.411  1.00  0.00     0.023 A 
ATOM     88  C   UNL A   1      45.301  29.541  35.236  1.00  0.00     0.012 A 
ATOM     89  C   UNL A   1      43.855  27.909  36.315  1.00  0.00     0.148 A 
ATOM     90  C   UNL A   1      46.401  29.032  35.924  1.00  0.00     0.002 A 
ATOM     91  C   UNL A   1      44.947  27.438  37.034  1.00  0.00     0.091 A 
ATOM     92  F   UNL A   1      42.633  27.373  36.453  1.00  0.00    -0.205 F 
ATOM     93  C   UNL A   1      46.222  27.990  36.832  1.00  0.00     0.022 A 
BRANCH  91  94
ATOM     94  S   UNL A   1      44.791  26.168  38.295  1.00  0.00     0.127 S 
ATOM     95  O   UNL A   1      43.914  25.201  37.636  1.00  0.00    -0.237 OA
ATOM     96  O   UNL A   1      46.175  25.721  38.461  1.00  0.00    -0.237 OA
ATOM     97  O   UNL A   1      44.227  26.829  39.464  1.00  0.00    -0.744 OA
ENDBRANCH  91  94
ENDBRANCH  64  87
ENDBRANCH  38  39
ENDBRANCH  30  33
ENDBRANCH  28  29
ENDBRANCH  27  28
ENDBRANCH   1  27
TORSDOF 18
ENDMDL
MODEL 2
REMARK VINA RESULT:     -12.3      1.415      7.908
REMARK SMILES C[C@H]1CC[C@H](CNC(=O)NCc2ccc(C(=O)NCCCCNC(=O)c3ccc(-c4c5nc(c(-c6cccc(S(=O)(=O)[O-])c6F)c6ccc([nH]6)c(-c6cccc(S(=O)(=O)[O-])c6F)c6nc(c(-c7cccc(S(=O)(=O)[O-])c7F)c7ccc4[nH]7)C=C6)C=C5)cc3)o2)CC1
REMARK SMILES IDX 20 1 19 2 18 3 16 4 17 5 15 7 12 8 13 9 89 10 14 11 11 12
REMARK SMILES IDX 10 13 7 14 8 15 9 17 6 19 5 20 1 21 2 22 91 23 3 24 90 25
REMARK SMILES IDX 4 26 21 27 22 28 23 29 24 30 25 32 26 33 27 34 88 35 28 36
REMARK SMILES IDX 87 37 29 38 30 39 31 40 81 41 32 42 86 43 80 44 82 45 33 46
REMARK SMILES IDX 85 47 79 48 78 49 34 51 66 52 46 53 65 54 47 55 50 56 64 57
REMARK SMILES IDX 83 58 48 59 49 60 63 62 84 63 51 64 35 65 36 66 44 67 37 68
REMARK SMILES IDX 39 69 45 70 38 71 40 72 41 73 42 74 43 75 67 76 68 77 76 78
REMARK SMILES IDX 69 79 71 80 77 81 70 82 72 83 73 84 74 85 75 86 52 87 53 88
REMARK SMILES IDX 61 89 54 90 56 91 62 92 55 93 57 94 58 95 59 96 60 97
REMARK H PARENT 18 6 7 16 10 18 23 31 82 50 50 61
REMARK Flexibility Score: inf
ROOT
ATOM      1  C   UNL A   1      31.813  30.716  25.794  1.00  0.00     0.023 C 
ENDROOT
BRANCH   1   2
ATOM      2  C   UNL A   1      32.831  29.627  26.133  1.00  0.00     0.116 C 
BRANCH   2   3
ATOM      3  N   UNL A   1      33.607  29.242  24.973  1.00  0.00    -0.349 N 
ATOM      4  C   UNL A   1      33.286  28.434  23.906  1.00  0.00     0.286 C 
ATOM      5  O   UNL A   1      34.108  28.412  22.983  1.00  0.00    -0.266 OA
ATOM      6  H   UNL A   1      34.514  29.622  24.941  1.00  0.00     0.163 HD
BRANCH   4   7
ATOM      7  C   UNL A   1      32.052  27.669  23.874  1.00  0.00     0.191 A 
ATOM      8  C   UNL A   1      30.913  25.763  23.984  1.00  0.00     0.124 A 
ATOM      9  C   UNL A   1      29.982  26.763  23.816  1.00  0.00     0.048 A 
ATOM     10  O   UNL A   1      32.164  26.305  24.009  1.00  0.00    -0.454 OA
ATOM     11  C   UNL A   1      30.706  27.982  23.771  1.00  0.00     0.056 A 
BRANCH   8  12
ATOM     12  C   UNL A   1      30.785  24.285  24.118  1.00  0.00     0.193 C 
BRANCH  12  13
ATOM     13  N   UNL A   1      30.181  23.911  25.374  1.00  0.00    -0.331 N 
ATOM     14  N   UNL A   1      31.547  22.211  26.272  1.00  0.00    -0.338 N 
ATOM     15  C   UNL A   1      30.566  23.116  26.375  1.00  0.00     0.315 C 
ATOM     16  H   UNL A   1      31.883  21.896  27.141  1.00  0.00     0.165 HD
ATOM     17  O   UNL A   1      29.997  23.225  27.464  1.00  0.00    -0.249 OA
ATOM     18  H   UNL A   1      29.303  24.330  25.523  1.00  0.00     0.165 HD
BRANCH  14  19
ATOM     19  C   UNL A   1      32.215  21.599  25.139  1.00  0.00     0.121 C 
BRANCH  19  20
ATOM     20  C   UNL A   1      33.622  22.187  24.937  1.00  0.00     0.008 C 
ATOM     21  C   UNL A   1      37.844  23.096  25.743  1.00  0.00     0.007 C 
ATOM     22  C   UNL A   1      36.427  22.543  25.880  1.00  0.00    -0.014 C 
ATOM     23  C   UNL A   1      36.085  21.612  24.713  1.00  0.00     0.003 C 
ATOM     24  C   UNL A   1      35.407  23.684  25.971  1.00  0.00     0.003 C 
ATOM     25  C   UNL A   1      34.664  21.063  24.832  1.00  0.00     0.006 C 
ATOM     26  C   UNL A   1      33.979  23.152  26.082  1.00  0.00     0.006 C 
ENDBRANCH  19  20
ENDBRANCH  14  19
ENDBRANCH  12  13
ENDBRANCH   8  12
ENDBRANCH   4   7
ENDBRANCH   2   3
ENDBRANCH   1   2
BRANCH   1  27
ATOM     27  C   UNL A   1      31.607  31.757  26.901  1.00  0.00     0.023 C 
BRANCH  27  28
ATOM     28  C   UNL A   1      32.843  32.578  27.269  1.00  0.00     0.116 C 
BRANCH  28  29
ATOM     29  N   UNL A   1      32.538  33.953  27.639  1.00  0.00    -0.352 N 
ATOM     30  C   UNL A   1      33.128  34.732  28.607  1.00  0.00     0.251 C 
ATOM     31  H   UNL A   1      31.814  34.383  27.128  1.00  0.00     0.163 HD
ATOM     32  O   UNL A   1      32.679  35.847  28.856  1.00  0.00    -0.269 OA
BRANCH  30  33
ATOM     33  C   UNL A   1      34.278  34.201  29.370  1.00  0.00     0.039 A 
ATOM     34  C   UNL A   1      34.033  33.406  30.493  1.00  0.00     0.014 A 
ATOM     35  C   UNL A   1      35.588  34.459  28.961  1.00  0.00     0.014 A 
ATOM     36  C   UNL A   1      35.104  32.810  31.164  1.00  0.00     0.010 A 
ATOM     37  C   UNL A   1      36.648  33.811  29.589  1.00  0.00     0.010 A 
ATOM     38  C   UNL A   1      36.417  32.978  30.695  1.00  0.00    -0.014 A 
BRANCH  38  39
ATOM     39  C   UNL A   1      37.560  32.270  31.329  1.00  0.00     0.031 A 
ATOM     40  C   UNL A   1      38.145  32.776  32.619  1.00  0.00     0.074 A 
ATOM     41  C   UNL A   1      38.133  31.229  30.690  1.00  0.00     0.049 A 
ATOM     42  N   UNL A   1      39.179  32.330  33.284  1.00  0.00    -0.248 NA
ATOM     43  C   UNL A   1      37.504  33.953  33.229  1.00  0.00     0.031 C 
ATOM     44  C   UNL A   1      37.714  30.699  29.390  1.00  0.00     0.029 A 
ATOM     45  N   UNL A   1      39.212  30.452  31.032  1.00  0.00    -0.354 N 
ATOM     46  C   UNL A   1      39.338  33.191  34.364  1.00  0.00     0.074 A 
ATOM     47  C   UNL A   1      38.311  34.203  34.251  1.00  0.00     0.031 C 
ATOM     48  C   UNL A   1      38.526  29.688  29.045  1.00  0.00     0.029 A 
ATOM     49  C   UNL A   1      39.538  29.512  30.081  1.00  0.00     0.049 A 
ATOM     50  H   UNL A   1      39.706  30.557  31.878  1.00  0.00     0.167 HD
ATOM     51  C   UNL A   1      40.238  33.130  35.373  1.00  0.00     0.034 A 
ATOM     52  C   UNL A   1      40.545  28.615  30.044  1.00  0.00     0.034 A 
ATOM     53  C   UNL A   1      41.224  32.092  35.511  1.00  0.00     0.049 A 
ATOM     54  C   UNL A   1      41.495  28.534  31.209  1.00  0.00     0.074 A 
ATOM     55  C   UNL A   1      42.112  31.885  36.552  1.00  0.00     0.029 A 
ATOM     56  N   UNL A   1      41.458  31.093  34.581  1.00  0.00    -0.354 N 
ATOM     57  N   UNL A   1      41.516  29.248  32.308  1.00  0.00    -0.248 NA
ATOM     58  C   UNL A   1      42.535  27.496  31.148  1.00  0.00     0.031 C 
ATOM     59  C   UNL A   1      42.898  30.771  36.240  1.00  0.00     0.029 A 
ATOM     60  C   UNL A   1      42.482  30.270  35.018  1.00  0.00     0.049 A 
ATOM     61  H   UNL A   1      40.969  30.984  33.734  1.00  0.00     0.167 HD
ATOM     62  C   UNL A   1      42.545  28.725  33.083  1.00  0.00     0.074 A 
ATOM     63  C   UNL A   1      43.108  27.618  32.338  1.00  0.00     0.031 C 
ATOM     64  C   UNL A   1      42.993  29.135  34.295  1.00  0.00     0.034 A 
BRANCH  51  65
ATOM     65  C   UNL A   1      40.163  34.181  36.449  1.00  0.00     0.023 A 
ATOM     66  C   UNL A   1      40.532  35.509  36.148  1.00  0.00     0.012 A 
ATOM     67  C   UNL A   1      39.659  33.878  37.728  1.00  0.00     0.148 A 
ATOM     68  C   UNL A   1      40.428  36.512  37.110  1.00  0.00     0.002 A 
ATOM     69  C   UNL A   1      39.516  34.891  38.669  1.00  0.00     0.091 A 
ATOM     70  F   UNL A   1      39.331  32.607  38.001  1.00  0.00    -0.205 F 
ATOM     71  C   UNL A   1      39.911  36.204  38.366  1.00  0.00     0.022 A 
BRANCH  69  72
ATOM     72  S   UNL A   1      38.786  34.617  40.287  1.00  0.00     0.127 S 
ATOM     73  O   UNL A   1      39.864  33.914  40.982  1.00  0.00    -0.237 OA
ATOM     74  O   UNL A   1      38.551  35.984  40.753  1.00  0.00    -0.237 OA
ATOM     75  O   UNL A   1      37.579  33.836  40.057  1.00  0.00    -0.744 OA
ENDBRANCH  69  72
ENDBRANCH  51  65
BRANCH  52  76
ATOM     76  C   UNL A   1      40.668  27.677  28.892  1.00  0.00     0.023 A 
ATOM     77  C   UNL A   1      39.800  26.569  28.809  1.00  0.00     0.012 A 
ATOM     78  C   UNL A   1      41.620  27.881  27.876  1.00  0.00     0.148 A 
ATOM     79  C   UNL A   1      39.905  25.662  27.754  1.00  0.00     0.002 A 
ATOM     80  C   UNL A   1      41.681  27.004  26.798  1.00  0.00     0.091 A 
ATOM     81  F   UNL A   1      42.444  28.932  27.979  1.00  0.00    -0.205 F 
ATOM     82  C   UNL A   1      40.838  25.884  26.745  1.00  0.00     0.022 A 
BRANCH  80  83
ATOM     83  S   UNL A   1      42.759  27.291  25.390  1.00  0.00     0.127 S 
ATOM     84  O   UNL A   1      44.060  27.445  26.035  1.00  0.00    -0.237 OA
ATOM     85  O   UNL A   1      42.593  26.055  24.624  1.00  0.00    -0.237 OA
ATOM     86  O   UNL A   1      42.230  28.476  24.730  1.00  0.00    -0.744 OA
ENDBRANCH  80  83
ENDBRANCH  52  76
BRANCH  64  87
ATOM     87  C   UNL A   1      44.125  28.363  34.921  1.00  0.00     0.023 A 
ATOM     88  C   UNL A   1      45.455  28.650  34.556  1.00  0.00     0.012 A 
ATOM     89  C   UNL A   1      43.874  27.411  35.928  1.00  0.00     0.148 A 
ATOM     90  C   UNL A   1      46.516  27.979  35.162  1.00  0.00     0.002 A 
ATOM     91  C   UNL A   1      44.938  26.781  36.561  1.00  0.00     0.091 A 
ATOM     92  F   UNL A   1      42.600  27.138  36.247  1.00  0.00    -0.205 F 
ATOM     93  C   UNL A   1      46.259  27.055  36.172  1.00  0.00     0.022 A 
BRANCH  91  94
ATOM     94  S   UNL A   1      44.704  25.652  37.940  1.00  0.00     0.127 S 
ATOM     95  O   UNL A   1      43.982  24.551  37.302  1.00  0.00    -0.237 OA
ATOM     96  O   UNL A   1      46.081  25.336  38.321  1.00  0.00    -0.237 OA
ATOM     97  O   UNL A   1      43.955  26.394  38.944  1.00  0.00    -0.744 OA
ENDBRANCH  91  94
ENDBRANCH  64  87
ENDBRANCH  38  39
ENDBRANCH  30  33
ENDBRANCH  28  29
ENDBRANCH  27  28
ENDBRANCH   1  27
TORSDOF 18
ENDMDL
MODEL 3
REMARK VINA RESULT:     -12.3      6.372     11.867
REMARK SMILES C[C@H]1CC[C@H](CNC(=O)NCc2ccc(C(=O)NCCCCNC(=O)c3ccc(-c4c5nc(c(-c6cccc(S(=O)(=O)[O-])c6F)c6ccc([nH]6)c(-c6cccc(S(=O)(=O)[O-])c6F)c6nc(c(-c7cccc(S(=O)(=O)[O-])c7F)c7ccc4[nH]7)C=C6)C=C5)cc3)o2)CC1
REMARK SMILES IDX 20 1 19 2 18 3 16 4 17 5 15 7 12 8 13 9 89 10 14 11 11 12
REMARK SMILES IDX 10 13 7 14 8 15 9 17 6 19 5 20 1 21 2 22 91 23 3 24 90 25
REMARK SMILES IDX 4 26 21 27 22 28 23 29 24 30 25 32 26 33 27 34 88 35 28 36
REMARK SMILES IDX 87 37 29 38 30 39 31 40 81 41 32 42 86 43 80 44 82 45 33 46
REMARK SMILES IDX 85 47 79 48 78 49 34 51 66 52 46 53 65 54 47 55 50 56 64 57
REMARK SMILES IDX 83 58 48 59 49 60 63 62 84 63 51 64 35 65 36 66 44 67 37 68
REMARK SMILES IDX 39 69 45 70 38 71 40 72 41 73 42 74 43 75 67 76 68 77 76 78
REMARK SMILES IDX 69 79 71 80 77 81 70 82 72 83 73 84 74 85 75 86 52 87 53 88
REMARK SMILES IDX 61 89 54 90 56 91 62 92 55 93 57 94 58 95 59 96 60 97
REMARK H PARENT 18 6 7 16 10 18 23 31 82 50 50 61
REMARK Flexibility Score: inf
ROOT
ATOM      1  C   UNL A   1      36.912  21.522  24.279  1.00  0.00     0.023 C 
ENDROOT
BRANCH   1   2
ATOM      2  C   UNL A   1      36.514  22.690  25.181  1.00  0.00     0.116 C 
BRANCH   2   3
ATOM      3  N   UNL A   1      35.715  22.247  26.305  1.00  0.00    -0.349 N 
ATOM      4  C   UNL A   1      34.429  21.761  26.357  1.00  0.00     0.286 C 
ATOM      5  O   UNL A   1      34.065  21.318  27.453  1.00  0.00    -0.266 OA
ATOM      6  H   UNL A   1      36.169  22.301  27.178  1.00  0.00     0.163 HD
BRANCH   4   7
ATOM      7  C   UNL A   1      33.566  21.764  25.189  1.00  0.00     0.191 A 
ATOM      8  C   UNL A   1      32.241  22.783  23.722  1.00  0.00     0.124 A 
ATOM      9  C   UNL A   1      32.315  21.464  23.330  1.00  0.00     0.048 A 
ATOM     10  O   UNL A   1      32.986  22.965  24.850  1.00  0.00    -0.454 OA
ATOM     11  C   UNL A   1      33.180  20.820  24.251  1.00  0.00     0.056 A 
BRANCH   8  12
ATOM     12  C   UNL A   1      31.517  23.957  23.161  1.00  0.00     0.193 C 
BRANCH  12  13
ATOM     13  N   UNL A   1      32.199  24.510  22.016  1.00  0.00    -0.331 N 
ATOM     14  N   UNL A   1      31.688  26.813  22.006  1.00  0.00    -0.338 N 
ATOM     15  C   UNL A   1      32.392  25.757  21.579  1.00  0.00     0.315 C 
ATOM     16  H   UNL A   1      32.111  27.677  21.796  1.00  0.00     0.165 HD
ATOM     17  O   UNL A   1      33.277  25.957  20.743  1.00  0.00    -0.249 OA
ATOM     18  H   UNL A   1      32.606  23.826  21.437  1.00  0.00     0.165 HD
BRANCH  14  19
ATOM     19  C   UNL A   1      30.430  26.943  22.716  1.00  0.00     0.121 C 
BRANCH  19  20
ATOM     20  C   UNL A   1      30.594  27.784  23.993  1.00  0.00     0.008 C 
ATOM     21  C   UNL A   1      32.446  30.494  26.914  1.00  0.00     0.007 C 
ATOM     22  C   UNL A   1      32.217  29.639  25.669  1.00  0.00    -0.014 C 
ATOM     23  C   UNL A   1      30.996  30.128  24.884  1.00  0.00     0.003 C 
ATOM     24  C   UNL A   1      32.053  28.162  26.047  1.00  0.00     0.003 C 
ATOM     25  C   UNL A   1      30.749  29.271  23.642  1.00  0.00     0.006 C 
ATOM     26  C   UNL A   1      31.797  27.293  24.819  1.00  0.00     0.006 C 
ENDBRANCH  19  20
ENDBRANCH  14  19
ENDBRANCH  12  13
ENDBRANCH   8  12
ENDBRANCH   4   7
ENDBRANCH   2   3
ENDBRANCH   1   2
BRANCH   1  27
ATOM     27  C   UNL A   1      37.538  20.334  25.021  1.00  0.00     0.023 C 
BRANCH  27  28
ATOM     28  C   UNL A   1      38.788  20.656  25.840  1.00  0.00     0.116 C 
BRANCH  28  29
ATOM     29  N   UNL A   1      39.735  19.552  25.912  1.00  0.00    -0.352 N 
ATOM     30  C   UNL A   1      41.090  19.598  26.143  1.00  0.00     0.251 C 
ATOM     31  H   UNL A   1      39.355  18.653  25.779  1.00  0.00     0.163 HD
ATOM     32  O   UNL A   1      41.761  18.572  26.073  1.00  0.00    -0.269 OA
BRANCH  30  33
ATOM     33  C   UNL A   1      41.737  20.895  26.435  1.00  0.00     0.039 A 
ATOM     34  C   UNL A   1      42.053  21.746  25.373  1.00  0.00     0.014 A 
ATOM     35  C   UNL A   1      41.998  21.283  27.752  1.00  0.00     0.014 A 
ATOM     36  C   UNL A   1      42.568  23.018  25.636  1.00  0.00     0.010 A 
ATOM     37  C   UNL A   1      42.447  22.575  28.014  1.00  0.00     0.010 A 
ATOM     38  C   UNL A   1      42.734  23.456  26.961  1.00  0.00    -0.014 A 
BRANCH  38  39
ATOM     39  C   UNL A   1      43.179  24.841  27.265  1.00  0.00     0.031 A 
ATOM     40  C   UNL A   1      42.228  25.823  27.894  1.00  0.00     0.074 A 
ATOM     41  C   UNL A   1      44.409  25.243  26.885  1.00  0.00     0.049 A 
ATOM     42  N   UNL A   1      42.415  27.087  28.172  1.00  0.00    -0.248 NA
ATOM     43  C   UNL A   1      40.881  25.330  28.228  1.00  0.00     0.031 C 
ATOM     44  C   UNL A   1      45.393  24.411  26.188  1.00  0.00     0.029 A 
ATOM     45  N   UNL A   1      45.030  26.462  27.001  1.00  0.00    -0.354 N 
ATOM     46  C   UNL A   1      41.204  27.550  28.674  1.00  0.00     0.074 A 
ATOM     47  C   UNL A   1      40.279  26.438  28.637  1.00  0.00     0.031 C 
ATOM     48  C   UNL A   1      46.490  25.143  25.937  1.00  0.00     0.029 A 
ATOM     49  C   UNL A   1      46.282  26.500  26.430  1.00  0.00     0.049 A 
ATOM     50  H   UNL A   1      44.619  27.235  27.452  1.00  0.00     0.167 HD
ATOM     51  C   UNL A   1      40.897  28.780  29.150  1.00  0.00     0.034 A 
ATOM     52  C   UNL A   1      47.159  27.517  26.309  1.00  0.00     0.034 A 
ATOM     53  C   UNL A   1      41.834  29.867  29.235  1.00  0.00     0.049 A 
ATOM     54  C   UNL A   1      46.811  28.857  26.899  1.00  0.00     0.074 A 
ATOM     55  C   UNL A   1      41.647  31.118  29.796  1.00  0.00     0.029 A 
ATOM     56  N   UNL A   1      43.128  29.839  28.741  1.00  0.00    -0.354 N 
ATOM     57  N   UNL A   1      45.722  29.223  27.530  1.00  0.00    -0.248 NA
ATOM     58  C   UNL A   1      47.828  29.914  26.797  1.00  0.00     0.031 C 
ATOM     59  C   UNL A   1      42.825  31.854  29.622  1.00  0.00     0.029 A 
ATOM     60  C   UNL A   1      43.751  31.052  28.977  1.00  0.00     0.049 A 
ATOM     61  H   UNL A   1      43.543  29.069  28.289  1.00  0.00     0.167 HD
ATOM     62  C   UNL A   1      45.936  30.537  27.931  1.00  0.00     0.074 A 
ATOM     63  C   UNL A   1      47.269  30.895  27.491  1.00  0.00     0.031 C 
ATOM     64  C   UNL A   1      45.099  31.376  28.588  1.00  0.00     0.034 A 
BRANCH  51  65
ATOM     65  C   UNL A   1      39.504  29.004  29.676  1.00  0.00     0.023 A 
ATOM     66  C   UNL A   1      39.178  28.576  30.979  1.00  0.00     0.012 A 
ATOM     67  C   UNL A   1      38.544  29.700  28.916  1.00  0.00     0.148 A 
ATOM     68  C   UNL A   1      37.910  28.813  31.509  1.00  0.00     0.002 A 
ATOM     69  C   UNL A   1      37.296  29.971  29.467  1.00  0.00     0.091 A 
ATOM     70  F   UNL A   1      38.867  30.082  27.673  1.00  0.00    -0.205 F 
ATOM     71  C   UNL A   1      36.975  29.518  30.757  1.00  0.00     0.022 A 
BRANCH  69  72
ATOM     72  S   UNL A   1      36.049  30.942  28.614  1.00  0.00     0.127 S 
ATOM     73  O   UNL A   1      36.802  32.146  28.265  1.00  0.00    -0.237 OA
ATOM     74  O   UNL A   1      35.713  30.083  27.479  1.00  0.00    -0.237 OA
ATOM     75  O   UNL A   1      34.968  31.138  29.570  1.00  0.00    -0.744 OA
ENDBRANCH  69  72
ENDBRANCH  51  65
BRANCH  52  76
ATOM     76  C   UNL A   1      48.481  27.290  25.658  1.00  0.00     0.023 A 
ATOM     77  C   UNL A   1      49.576  26.879  26.443  1.00  0.00     0.012 A 
ATOM     78  C   UNL A   1      48.656  27.462  24.272  1.00  0.00     0.148 A 
ATOM     79  C   UNL A   1      50.830  26.679  25.865  1.00  0.00     0.002 A 
ATOM     80  C   UNL A   1      49.894  27.206  23.693  1.00  0.00     0.091 A 
ATOM     81  F   UNL A   1      47.606  27.866  23.543  1.00  0.00    -0.205 F 
ATOM     82  C   UNL A   1      50.987  26.833  24.490  1.00  0.00     0.022 A 
BRANCH  80  83
ATOM     83  S   UNL A   1      50.149  27.249  21.915  1.00  0.00     0.127 S 
ATOM     84  O   UNL A   1      49.952  28.665  21.619  1.00  0.00    -0.237 OA
ATOM     85  O   UNL A   1      51.530  26.780  21.795  1.00  0.00    -0.237 OA
ATOM     86  O   UNL A   1      49.160  26.337  21.358  1.00  0.00    -0.744 OA
ENDBRANCH  80  83
ENDBRANCH  52  76
BRANCH  64  87
ATOM     87  C   UNL A   1      45.605  32.758  28.915  1.00  0.00     0.023 A 
ATOM     88  C   UNL A   1      46.326  32.976  30.105  1.00  0.00     0.012 A 
ATOM     89  C   UNL A   1      45.434  33.818  28.004  1.00  0.00     0.148 A 
ATOM     90  C   UNL A   1      46.843  34.237  30.398  1.00  0.00     0.002 A 
ATOM     91  C   UNL A   1      45.993  35.060  28.280  1.00  0.00     0.091 A 
ATOM     92  F   UNL A   1      44.728  33.594  26.886  1.00  0.00    -0.205 F 
ATOM     93  C   UNL A   1      46.688  35.274  29.482  1.00  0.00     0.022 A 
BRANCH  91  94
ATOM     94  S   UNL A   1      45.928  36.424  27.112  1.00  0.00     0.127 S 
ATOM     95  O   UNL A   1      46.629  35.861  25.959  1.00  0.00    -0.237 OA
ATOM     96  O   UNL A   1      44.488  36.603  26.922  1.00  0.00    -0.237 OA
ATOM     97  O   UNL A   1      46.594  37.543  27.765  1.00  0.00    -0.744 OA
ENDBRANCH  91  94
ENDBRANCH  64  87
ENDBRANCH  38  39
ENDBRANCH  30  33
ENDBRANCH  28  29
ENDBRANCH  27  28
ENDBRANCH   1  27
TORSDOF 18
ENDMDL
