MODEL 1
REMARK VINA RESULT:     -10.7      0.000      0.000
REMARK SMILES CN(Cc1ccc(Cl)cc1Cl)S(=O)(=O)CCCC(=O)NCCCCNC(=O)c1ccc(-c2c3nc(c(-c4cccc(S(=O)(=O)[O-])c4F)c4ccc([nH]4)c(-c4cccc(S(=O)(=O)[O-])c4F)c4nc(c(-c5cccc(S(=O)(=O)[O-])c5F)c5ccc2[nH]5)C=C4)C=C3)cc1
REMARK SMILES IDX 21 1 20 2 18 3 19 4 17 6 16 7 15 8 12 9 13 10 14 11 2 12
REMARK SMILES IDX 1 13 3 14 4 15 5 16 10 17 6 18 9 19 11 20 7 21 8 22 22 23
REMARK SMILES IDX 23 24 24 25 25 26 26 27 27 29 28 30 29 31 90 32 30 33 89 34
REMARK SMILES IDX 31 35 32 36 33 37 83 38 34 39 88 40 82 41 84 42 35 43 87 44
REMARK SMILES IDX 81 45 80 46 36 48 68 49 48 50 67 51 49 52 52 53 66 54 85 55
REMARK SMILES IDX 50 56 51 57 65 59 86 60 53 61 37 62 38 63 46 64 39 65 41 66
REMARK SMILES IDX 47 67 40 68 42 69 43 70 44 71 45 72 69 73 70 74 78 75 71 76
REMARK SMILES IDX 73 77 79 78 72 79 74 80 75 81 76 82 77 83 54 84 55 85 63 86
REMARK SMILES IDX 56 87 58 88 64 89 57 90 59 91 60 92 61 93 62 94
REMARK H PARENT 20 5 25 28 84 47 52 58
REMARK Flexibility Score: inf
ROOT
ATOM      1  C   UNL A   1      32.421  29.362  24.266  1.00  0.00     0.116 C 
ENDROOT
BRANCH   1   2
ATOM      2  N   UNL A   1      31.692  29.344  23.020  1.00  0.00    -0.356 N 
ATOM      3  C   UNL A   1      30.438  28.909  22.724  1.00  0.00     0.220 C 
ATOM      4  O   UNL A   1      30.011  29.116  21.586  1.00  0.00    -0.275 OA
ATOM      5  H   UNL A   1      32.189  29.708  22.252  1.00  0.00     0.163 HD
BRANCH   3   6
ATOM      6  C   UNL A   1      29.555  28.210  23.752  1.00  0.00     0.101 C 
BRANCH   6   7
ATOM      7  C   UNL A   1      29.703  26.693  23.824  1.00  0.00     0.027 C 
BRANCH   7   8
ATOM      8  C   UNL A   1      31.108  26.110  23.939  1.00  0.00     0.155 C 
BRANCH   8   9
ATOM      9  S   UNL A   1      31.443  24.517  23.191  1.00  0.00     0.214 S 
ATOM     10  O   UNL A   1      32.273  24.771  22.033  1.00  0.00    -0.212 OA
ATOM     11  O   UNL A   1      30.162  23.863  23.001  1.00  0.00    -0.212 OA
BRANCH   9  12
ATOM     12  N   UNL A   1      32.330  23.539  24.225  1.00  0.00    -0.201 NA
ATOM     13  C   UNL A   1      31.526  23.004  25.353  1.00  0.00     0.124 C 
BRANCH  12  14
ATOM     14  C   UNL A   1      33.388  22.576  23.841  1.00  0.00     0.138 C 
BRANCH  14  15
ATOM     15  C   UNL A   1      34.770  22.636  24.448  1.00  0.00    -0.014 A 
ATOM     16  C   UNL A   1      35.384  23.873  24.698  1.00  0.00     0.008 A 
ATOM     17  C   UNL A   1      35.445  21.480  24.899  1.00  0.00     0.047 A 
ATOM     18  C   UNL A   1      36.656  23.952  25.271  1.00  0.00     0.021 A 
ATOM     19  C   UNL A   1      36.708  21.560  25.497  1.00  0.00     0.041 A 
ATOM     20  Cl  UNL A   1      34.754  19.898  24.782  1.00  0.00    -0.084 Cl
ATOM     21  C   UNL A   1      37.317  22.796  25.662  1.00  0.00     0.042 A 
ATOM     22  Cl  UNL A   1      38.880  22.892  26.369  1.00  0.00    -0.084 Cl
ENDBRANCH  14  15
ENDBRANCH  12  14
ENDBRANCH   9  12
ENDBRANCH   8   9
ENDBRANCH   7   8
ENDBRANCH   6   7
ENDBRANCH   3   6
ENDBRANCH   1   2
BRANCH   1  23
ATOM     23  C   UNL A   1      31.660  30.027  25.411  1.00  0.00     0.023 C 
BRANCH  23  24
ATOM     24  C   UNL A   1      31.789  29.283  26.738  1.00  0.00     0.023 C 
BRANCH  24  25
ATOM     25  C   UNL A   1      33.135  29.448  27.444  1.00  0.00     0.116 C 
BRANCH  25  26
ATOM     26  N   UNL A   1      33.527  30.832  27.673  1.00  0.00    -0.352 N 
ATOM     27  C   UNL A   1      34.741  31.309  28.121  1.00  0.00     0.251 C 
ATOM     28  H   UNL A   1      32.838  31.511  27.485  1.00  0.00     0.163 HD
ATOM     29  O   UNL A   1      34.883  32.506  28.352  1.00  0.00    -0.269 OA
BRANCH  27  30
ATOM     30  C   UNL A   1      35.841  30.356  28.395  1.00  0.00     0.039 A 
ATOM     31  C   UNL A   1      36.868  30.250  27.455  1.00  0.00     0.014 A 
ATOM     32  C   UNL A   1      35.926  29.674  29.612  1.00  0.00     0.014 A 
ATOM     33  C   UNL A   1      38.045  29.584  27.796  1.00  0.00     0.010 A 
ATOM     34  C   UNL A   1      37.129  29.077  29.980  1.00  0.00     0.010 A 
ATOM     35  C   UNL A   1      38.213  29.065  29.091  1.00  0.00    -0.014 A 
BRANCH  35  36
ATOM     36  C   UNL A   1      39.554  28.628  29.558  1.00  0.00     0.031 A 
ATOM     37  C   UNL A   1      40.285  29.381  30.630  1.00  0.00     0.074 A 
ATOM     38  C   UNL A   1      40.149  27.591  28.934  1.00  0.00     0.049 A 
ATOM     39  N   UNL A   1      41.456  29.129  31.154  1.00  0.00    -0.248 NA
ATOM     40  C   UNL A   1      39.633  30.587  31.166  1.00  0.00     0.031 C 
ATOM     41  C   UNL A   1      39.584  26.851  27.800  1.00  0.00     0.029 A 
ATOM     42  N   UNL A   1      41.365  26.990  29.143  1.00  0.00    -0.354 N 
ATOM     43  C   UNL A   1      41.691  30.147  32.068  1.00  0.00     0.074 A 
ATOM     44  C   UNL A   1      40.559  31.047  31.995  1.00  0.00     0.031 C 
ATOM     45  C   UNL A   1      40.444  25.891  27.426  1.00  0.00     0.029 A 
ATOM     46  C   UNL A   1      41.629  25.957  28.273  1.00  0.00     0.049 A 
ATOM     47  H   UNL A   1      41.989  27.272  29.849  1.00  0.00     0.167 HD
ATOM     48  C   UNL A   1      42.738  30.302  32.913  1.00  0.00     0.034 A 
ATOM     49  C   UNL A   1      42.702  25.148  28.173  1.00  0.00     0.034 A 
ATOM     50  C   UNL A   1      43.846  29.388  32.997  1.00  0.00     0.049 A 
ATOM     51  C   UNL A   1      43.823  25.305  29.161  1.00  0.00     0.074 A 
ATOM     52  C   UNL A   1      44.915  29.411  33.876  1.00  0.00     0.029 A 
ATOM     53  N   UNL A   1      44.033  28.293  32.168  1.00  0.00    -0.354 N 
ATOM     54  N   UNL A   1      43.940  26.166  30.142  1.00  0.00    -0.248 NA
ATOM     55  C   UNL A   1      44.939  24.355  29.060  1.00  0.00     0.031 C 
ATOM     56  C   UNL A   1      45.757  28.337  33.566  1.00  0.00     0.029 A 
ATOM     57  C   UNL A   1      45.203  27.634  32.508  1.00  0.00     0.049 A 
ATOM     58  H   UNL A   1      43.424  28.023  31.443  1.00  0.00     0.167 HD
ATOM     59  C   UNL A   1      45.124  25.844  30.794  1.00  0.00     0.074 A 
ATOM     60  C   UNL A   1      45.676  24.692  30.110  1.00  0.00     0.031 C 
ATOM     61  C   UNL A   1      45.712  26.457  31.851  1.00  0.00     0.034 A 
BRANCH  48  62
ATOM     62  C   UNL A   1      42.699  31.471  33.861  1.00  0.00     0.023 A 
ATOM     63  C   UNL A   1      43.218  32.715  33.443  1.00  0.00     0.012 A 
ATOM     64  C   UNL A   1      42.111  31.362  35.136  1.00  0.00     0.148 A 
ATOM     65  C   UNL A   1      43.187  33.820  34.291  1.00  0.00     0.002 A 
ATOM     66  C   UNL A   1      42.045  32.480  35.960  1.00  0.00     0.091 A 
ATOM     67  F   UNL A   1      41.641  30.168  35.524  1.00  0.00    -0.205 F 
ATOM     68  C   UNL A   1      42.592  33.705  35.544  1.00  0.00     0.022 A 
BRANCH  66  69
ATOM     69  S   UNL A   1      41.237  32.455  37.564  1.00  0.00     0.127 S 
ATOM     70  O   UNL A   1      41.283  33.867  37.940  1.00  0.00    -0.237 OA
ATOM     71  O   UNL A   1      39.903  31.956  37.229  1.00  0.00    -0.237 OA
ATOM     72  O   UNL A   1      42.027  31.559  38.397  1.00  0.00    -0.744 OA
ENDBRANCH  66  69
ENDBRANCH  48  62
BRANCH  49  73
ATOM     73  C   UNL A   1      42.725  24.066  27.146  1.00  0.00     0.023 A 
ATOM     74  C   UNL A   1      43.344  24.304  25.903  1.00  0.00     0.012 A 
ATOM     75  C   UNL A   1      42.174  22.796  27.406  1.00  0.00     0.148 A 
ATOM     76  C   UNL A   1      43.385  23.308  24.926  1.00  0.00     0.002 A 
ATOM     77  C   UNL A   1      42.267  21.792  26.449  1.00  0.00     0.091 A 
ATOM     78  F   UNL A   1      41.579  22.592  28.590  1.00  0.00    -0.205 F 
ATOM     79  C   UNL A   1      42.856  22.050  25.202  1.00  0.00     0.022 A 
BRANCH  77  80
ATOM     80  S   UNL A   1      41.737  20.106  26.776  1.00  0.00     0.127 S 
ATOM     81  O   UNL A   1      42.653  19.705  27.839  1.00  0.00    -0.237 OA
ATOM     82  O   UNL A   1      40.349  20.299  27.195  1.00  0.00    -0.237 OA
ATOM     83  O   UNL A   1      41.885  19.400  25.509  1.00  0.00    -0.744 OA
ENDBRANCH  77  80
ENDBRANCH  49  73
BRANCH  61  84
ATOM     84  C   UNL A   1      47.008  25.883  32.357  1.00  0.00     0.023 A 
ATOM     85  C   UNL A   1      47.002  25.028  33.478  1.00  0.00     0.012 A 
ATOM     86  C   UNL A   1      48.217  26.127  31.678  1.00  0.00     0.148 A 
ATOM     87  C   UNL A   1      48.187  24.448  33.931  1.00  0.00     0.002 A 
ATOM     88  C   UNL A   1      49.385  25.508  32.106  1.00  0.00     0.091 A 
ATOM     89  F   UNL A   1      48.204  26.960  30.627  1.00  0.00    -0.205 F 
ATOM     90  C   UNL A   1      49.374  24.677  33.239  1.00  0.00     0.022 A 
BRANCH  88  91
ATOM     91  S   UNL A   1      50.939  25.669  31.221  1.00  0.00     0.127 S 
ATOM     92  O   UNL A   1      51.818  24.800  32.000  1.00  0.00    -0.237 OA
ATOM     93  O   UNL A   1      50.596  25.159  29.893  1.00  0.00    -0.237 OA
ATOM     94  O   UNL A   1      51.271  27.088  31.253  1.00  0.00    -0.744 OA
ENDBRANCH  88  91
ENDBRANCH  61  84
ENDBRANCH  35  36
ENDBRANCH  27  30
ENDBRANCH  25  26
ENDBRANCH  24  25
ENDBRANCH  23  24
ENDBRANCH   1  23
TORSDOF 20
ENDMDL
MODEL 2
REMARK VINA RESULT:     -10.4      1.451      7.667
REMARK SMILES CN(Cc1ccc(Cl)cc1Cl)S(=O)(=O)CCCC(=O)NCCCCNC(=O)c1ccc(-c2c3nc(c(-c4cccc(S(=O)(=O)[O-])c4F)c4ccc([nH]4)c(-c4cccc(S(=O)(=O)[O-])c4F)c4nc(c(-c5cccc(S(=O)(=O)[O-])c5F)c5ccc2[nH]5)C=C4)C=C3)cc1
REMARK SMILES IDX 21 1 20 2 18 3 19 4 17 6 16 7 15 8 12 9 13 10 14 11 2 12
REMARK SMILES IDX 1 13 3 14 4 15 5 16 10 17 6 18 9 19 11 20 7 21 8 22 22 23
REMARK SMILES IDX 23 24 24 25 25 26 26 27 27 29 28 30 29 31 90 32 30 33 89 34
REMARK SMILES IDX 31 35 32 36 33 37 83 38 34 39 88 40 82 41 84 42 35 43 87 44
REMARK SMILES IDX 81 45 80 46 36 48 68 49 48 50 67 51 49 52 52 53 66 54 85 55
REMARK SMILES IDX 50 56 51 57 65 59 86 60 53 61 37 62 38 63 46 64 39 65 41 66
REMARK SMILES IDX 47 67 40 68 42 69 43 70 44 71 45 72 69 73 70 74 78 75 71 76
REMARK SMILES IDX 73 77 79 78 72 79 74 80 75 81 76 82 77 83 54 84 55 85 63 86
REMARK SMILES IDX 56 87 58 88 64 89 57 90 59 91 60 92 61 93 62 94
REMARK H PARENT 20 5 25 28 84 47 52 58
REMARK Flexibility Score: inf
ROOT
ATOM      1  C   UNL A   1      32.754  28.209  23.224  1.00  0.00     0.116 C 
ENDROOT
BRANCH   1   2
ATOM      2  N   UNL A   1      31.881  28.927  22.326  1.00  0.00    -0.356 N 
ATOM      3  C   UNL A   1      30.528  29.065  22.314  1.00  0.00     0.220 C 
ATOM      4  O   UNL A   1      30.036  29.839  21.491  1.00  0.00    -0.275 OA
ATOM      5  H   UNL A   1      32.345  29.398  21.596  1.00  0.00     0.163 HD
BRANCH   3   6
ATOM      6  C   UNL A   1      29.626  28.321  23.293  1.00  0.00     0.101 C 
BRANCH   6   7
ATOM      7  C   UNL A   1      29.975  26.853  23.524  1.00  0.00     0.027 C 
BRANCH   7   8
ATOM      8  C   UNL A   1      29.392  26.159  24.751  1.00  0.00     0.155 C 
BRANCH   8   9
ATOM      9  S   UNL A   1      30.508  25.607  26.040  1.00  0.00     0.214 S 
ATOM     10  O   UNL A   1      29.819  24.556  26.759  1.00  0.00    -0.212 OA
ATOM     11  O   UNL A   1      30.929  26.789  26.767  1.00  0.00    -0.212 OA
BRANCH   9  12
ATOM     12  N   UNL A   1      31.895  24.928  25.387  1.00  0.00    -0.201 NA
ATOM     13  C   UNL A   1      33.138  25.617  25.817  1.00  0.00     0.124 C 
BRANCH  12  14
ATOM     14  C   UNL A   1      32.153  23.486  25.164  1.00  0.00     0.138 C 
BRANCH  14  15
ATOM     15  C   UNL A   1      33.559  22.937  25.094  1.00  0.00    -0.014 A 
ATOM     16  C   UNL A   1      34.118  22.270  26.196  1.00  0.00     0.008 A 
ATOM     17  C   UNL A   1      34.317  22.957  23.903  1.00  0.00     0.047 A 
ATOM     18  C   UNL A   1      35.412  21.743  26.148  1.00  0.00     0.021 A 
ATOM     19  C   UNL A   1      35.602  22.407  23.846  1.00  0.00     0.041 A 
ATOM     20  Cl  UNL A   1      33.705  23.624  22.428  1.00  0.00    -0.084 Cl
ATOM     21  C   UNL A   1      36.151  21.820  24.977  1.00  0.00     0.042 A 
ATOM     22  Cl  UNL A   1      37.741  21.170  24.916  1.00  0.00    -0.084 Cl
ENDBRANCH  14  15
ENDBRANCH  12  14
ENDBRANCH   9  12
ENDBRANCH   8   9
ENDBRANCH   7   8
ENDBRANCH   6   7
ENDBRANCH   3   6
ENDBRANCH   1   2
BRANCH   1  23
ATOM     23  C   UNL A   1      33.561  29.115  24.150  1.00  0.00     0.023 C 
BRANCH  23  24
ATOM     24  C   UNL A   1      32.816  29.495  25.428  1.00  0.00     0.023 C 
BRANCH  24  25
ATOM     25  C   UNL A   1      33.649  29.426  26.708  1.00  0.00     0.116 C 
BRANCH  25  26
ATOM     26  N   UNL A   1      33.802  30.701  27.394  1.00  0.00    -0.352 N 
ATOM     27  C   UNL A   1      34.863  31.131  28.165  1.00  0.00     0.251 C 
ATOM     28  H   UNL A   1      33.054  31.335  27.296  1.00  0.00     0.163 HD
ATOM     29  O   UNL A   1      34.797  32.205  28.754  1.00  0.00    -0.269 OA
BRANCH  27  30
ATOM     30  C   UNL A   1      36.041  30.250  28.334  1.00  0.00     0.039 A 
ATOM     31  C   UNL A   1      37.044  30.300  27.364  1.00  0.00     0.014 A 
ATOM     32  C   UNL A   1      36.217  29.485  29.491  1.00  0.00     0.014 A 
ATOM     33  C   UNL A   1      38.280  29.706  27.622  1.00  0.00     0.010 A 
ATOM     34  C   UNL A   1      37.474  28.960  29.781  1.00  0.00     0.010 A 
ATOM     35  C   UNL A   1      38.527  29.104  28.867  1.00  0.00    -0.014 A 
BRANCH  35  36
ATOM     36  C   UNL A   1      39.912  28.741  29.265  1.00  0.00     0.031 A 
ATOM     37  C   UNL A   1      40.608  27.558  28.660  1.00  0.00     0.074 A 
ATOM     38  C   UNL A   1      40.503  29.440  30.256  1.00  0.00     0.049 A 
ATOM     39  N   UNL A   1      41.814  27.111  28.893  1.00  0.00    -0.248 NA
ATOM     40  C   UNL A   1      39.846  26.757  27.689  1.00  0.00     0.031 C 
ATOM     41  C   UNL A   1      39.882  30.541  31.000  1.00  0.00     0.029 A 
ATOM     42  N   UNL A   1      41.747  29.322  30.824  1.00  0.00    -0.354 N 
ATOM     43  C   UNL A   1      41.954  25.971  28.113  1.00  0.00     0.074 A 
ATOM     44  C   UNL A   1      40.692  25.770  27.432  1.00  0.00     0.031 C 
ATOM     45  C   UNL A   1      40.750  31.003  31.914  1.00  0.00     0.029 A 
ATOM     46  C   UNL A   1      41.979  30.222  31.839  1.00  0.00     0.049 A 
ATOM     47  H   UNL A   1      42.410  28.656  30.534  1.00  0.00     0.167 HD
ATOM     48  C   UNL A   1      43.043  25.182  27.953  1.00  0.00     0.034 A 
ATOM     49  C   UNL A   1      43.064  30.404  32.619  1.00  0.00     0.034 A 
ATOM     50  C   UNL A   1      44.302  25.405  28.612  1.00  0.00     0.049 A 
ATOM     51  C   UNL A   1      44.279  29.553  32.380  1.00  0.00     0.074 A 
ATOM     52  C   UNL A   1      45.490  24.714  28.456  1.00  0.00     0.029 A 
ATOM     53  N   UNL A   1      44.534  26.390  29.562  1.00  0.00    -0.354 N 
ATOM     54  N   UNL A   1      44.452  28.594  31.503  1.00  0.00    -0.248 NA
ATOM     55  C   UNL A   1      45.463  29.835  33.203  1.00  0.00     0.031 C 
ATOM     56  C   UNL A   1      46.437  25.271  29.324  1.00  0.00     0.029 A 
ATOM     57  C   UNL A   1      45.844  26.321  30.006  1.00  0.00     0.049 A 
ATOM     58  H   UNL A   1      43.866  27.041  29.874  1.00  0.00     0.167 HD
ATOM     59  C   UNL A   1      45.770  28.179  31.647  1.00  0.00     0.074 A 
ATOM     60  C   UNL A   1      46.358  29.008  32.679  1.00  0.00     0.031 C 
ATOM     61  C   UNL A   1      46.430  27.189  30.996  1.00  0.00     0.034 A 
BRANCH  48  62
ATOM     62  C   UNL A   1      42.939  24.043  26.974  1.00  0.00     0.023 A 
ATOM     63  C   UNL A   1      43.530  24.172  25.700  1.00  0.00     0.012 A 
ATOM     64  C   UNL A   1      42.307  22.833  27.323  1.00  0.00     0.148 A 
ATOM     65  C   UNL A   1      43.463  23.132  24.775  1.00  0.00     0.002 A 
ATOM     66  C   UNL A   1      42.281  21.784  26.409  1.00  0.00     0.091 A 
ATOM     67  F   UNL A   1      41.733  22.735  28.530  1.00  0.00    -0.205 F 
ATOM     68  C   UNL A   1      42.847  21.936  25.133  1.00  0.00     0.022 A 
BRANCH  66  69
ATOM     69  S   UNL A   1      41.575  20.179  26.799  1.00  0.00     0.127 S 
ATOM     70  O   UNL A   1      41.656  19.500  25.506  1.00  0.00    -0.237 OA
ATOM     71  O   UNL A   1      42.501  19.673  27.813  1.00  0.00    -0.237 OA
ATOM     72  O   UNL A   1      40.227  20.441  27.285  1.00  0.00    -0.744 OA
ENDBRANCH  66  69
ENDBRANCH  48  62
BRANCH  49  73
ATOM     73  C   UNL A   1      43.072  31.490  33.641  1.00  0.00     0.023 A 
ATOM     74  C   UNL A   1      43.519  32.777  33.281  1.00  0.00     0.012 A 
ATOM     75  C   UNL A   1      42.605  31.267  34.951  1.00  0.00     0.148 A 
ATOM     76  C   UNL A   1      43.533  33.813  34.216  1.00  0.00     0.002 A 
ATOM     77  C   UNL A   1      42.569  32.318  35.861  1.00  0.00     0.091 A 
ATOM     78  F   UNL A   1      42.194  30.035  35.278  1.00  0.00    -0.205 F 
ATOM     79  C   UNL A   1      43.048  33.587  35.502  1.00  0.00     0.022 A 
BRANCH  77  80
ATOM     80  S   UNL A   1      41.833  32.149  37.492  1.00  0.00     0.127 S 
ATOM     81  O   UNL A   1      42.011  33.489  38.042  1.00  0.00    -0.237 OA
ATOM     82  O   UNL A   1      40.452  31.792  37.167  1.00  0.00    -0.237 OA
ATOM     83  O   UNL A   1      42.584  31.086  38.149  1.00  0.00    -0.744 OA
ENDBRANCH  77  80
ENDBRANCH  49  73
BRANCH  61  84
ATOM     84  C   UNL A   1      47.873  26.958  31.358  1.00  0.00     0.023 A 
ATOM     85  C   UNL A   1      48.880  27.718  30.731  1.00  0.00     0.012 A 
ATOM     86  C   UNL A   1      48.223  26.046  32.373  1.00  0.00     0.148 A 
ATOM     87  C   UNL A   1      50.218  27.553  31.088  1.00  0.00     0.002 A 
ATOM     88  C   UNL A   1      49.553  25.921  32.757  1.00  0.00     0.091 A 
ATOM     89  F   UNL A   1      47.252  25.318  32.942  1.00  0.00    -0.205 F 
ATOM     90  C   UNL A   1      50.552  26.665  32.108  1.00  0.00     0.022 A 
BRANCH  88  91
ATOM     91  S   UNL A   1      50.064  24.874  34.124  1.00  0.00     0.127 S 
ATOM     92  O   UNL A   1      49.700  23.546  33.635  1.00  0.00    -0.237 OA
ATOM     93  O   UNL A   1      51.504  25.127  34.188  1.00  0.00    -0.237 OA
ATOM     94  O   UNL A   1      49.318  25.342  35.285  1.00  0.00    -0.744 OA
ENDBRANCH  88  91
ENDBRANCH  61  84
ENDBRANCH  35  36
ENDBRANCH  27  30
ENDBRANCH  25  26
ENDBRANCH  24  25
ENDBRANCH  23  24
ENDBRANCH   1  23
TORSDOF 20
ENDMDL
MODEL 3
REMARK VINA RESULT:     -10.4      4.597      9.743
REMARK SMILES CN(Cc1ccc(Cl)cc1Cl)S(=O)(=O)CCCC(=O)NCCCCNC(=O)c1ccc(-c2c3nc(c(-c4cccc(S(=O)(=O)[O-])c4F)c4ccc([nH]4)c(-c4cccc(S(=O)(=O)[O-])c4F)c4nc(c(-c5cccc(S(=O)(=O)[O-])c5F)c5ccc2[nH]5)C=C4)C=C3)cc1
REMARK SMILES IDX 21 1 20 2 18 3 19 4 17 6 16 7 15 8 12 9 13 10 14 11 2 12
REMARK SMILES IDX 1 13 3 14 4 15 5 16 10 17 6 18 9 19 11 20 7 21 8 22 22 23
REMARK SMILES IDX 23 24 24 25 25 26 26 27 27 29 28 30 29 31 90 32 30 33 89 34
REMARK SMILES IDX 31 35 32 36 33 37 83 38 34 39 88 40 82 41 84 42 35 43 87 44
REMARK SMILES IDX 81 45 80 46 36 48 68 49 48 50 67 51 49 52 52 53 66 54 85 55
REMARK SMILES IDX 50 56 51 57 65 59 86 60 53 61 37 62 38 63 46 64 39 65 41 66
REMARK SMILES IDX 47 67 40 68 42 69 43 70 44 71 45 72 69 73 70 74 78 75 71 76
REMARK SMILES IDX 73 77 79 78 72 79 74 80 75 81 76 82 77 83 54 84 55 85 63 86
REMARK SMILES IDX 56 87 58 88 64 89 57 90 59 91 60 92 61 93 62 94
REMARK H PARENT 20 5 25 28 84 47 52 58
REMARK Flexibility Score: inf
ROOT
ATOM      1  C   UNL A   1      37.420  21.808  24.749  1.00  0.00     0.116 C 
ENDROOT
BRANCH   1   2
ATOM      2  N   UNL A   1      36.461  22.353  23.817  1.00  0.00    -0.356 N 
ATOM      3  C   UNL A   1      35.596  23.396  23.931  1.00  0.00     0.220 C 
ATOM      4  O   UNL A   1      34.959  23.727  22.929  1.00  0.00    -0.275 OA
ATOM      5  H   UNL A   1      36.427  21.889  22.949  1.00  0.00     0.163 HD
BRANCH   3   6
ATOM      6  C   UNL A   1      35.419  24.167  25.235  1.00  0.00     0.101 C 
BRANCH   6   7
ATOM      7  C   UNL A   1      34.455  23.545  26.242  1.00  0.00     0.027 C 
BRANCH   7   8
ATOM      8  C   UNL A   1      33.328  22.666  25.711  1.00  0.00     0.155 C 
BRANCH   8   9
ATOM      9  S   UNL A   1      31.645  23.029  26.209  1.00  0.00     0.214 S 
ATOM     10  O   UNL A   1      31.687  23.319  27.626  1.00  0.00    -0.212 OA
ATOM     11  O   UNL A   1      30.822  21.928  25.746  1.00  0.00    -0.212 OA
BRANCH   9  12
ATOM     12  N   UNL A   1      31.075  24.407  25.443  1.00  0.00    -0.201 NA
ATOM     13  C   UNL A   1      30.026  25.115  26.222  1.00  0.00     0.124 C 
BRANCH  12  14
ATOM     14  C   UNL A   1      31.872  25.374  24.653  1.00  0.00     0.138 C 
BRANCH  14  15
ATOM     15  C   UNL A   1      31.308  26.715  24.242  1.00  0.00    -0.014 A 
ATOM     16  C   UNL A   1      30.345  26.800  23.225  1.00  0.00     0.008 A 
ATOM     17  C   UNL A   1      31.623  27.907  24.931  1.00  0.00     0.047 A 
ATOM     18  C   UNL A   1      29.801  28.029  22.839  1.00  0.00     0.021 A 
ATOM     19  C   UNL A   1      31.059  29.133  24.563  1.00  0.00     0.041 A 
ATOM     20  Cl  UNL A   1      32.691  27.935  26.293  1.00  0.00    -0.084 Cl
ATOM     21  C   UNL A   1      30.165  29.191  23.504  1.00  0.00     0.042 A 
ATOM     22  Cl  UNL A   1      29.494  30.701  23.032  1.00  0.00    -0.084 Cl
ENDBRANCH  14  15
ENDBRANCH  12  14
ENDBRANCH   9  12
ENDBRANCH   8   9
ENDBRANCH   7   8
ENDBRANCH   6   7
ENDBRANCH   3   6
ENDBRANCH   1   2
BRANCH   1  23
ATOM     23  C   UNL A   1      37.239  20.315  25.012  1.00  0.00     0.023 C 
BRANCH  23  24
ATOM     24  C   UNL A   1      38.550  19.533  25.001  1.00  0.00     0.023 C 
BRANCH  24  25
ATOM     25  C   UNL A   1      39.379  19.640  26.281  1.00  0.00     0.116 C 
BRANCH  25  26
ATOM     26  N   UNL A   1      40.778  19.268  26.123  1.00  0.00    -0.352 N 
ATOM     27  C   UNL A   1      41.893  20.065  26.283  1.00  0.00     0.251 C 
ATOM     28  H   UNL A   1      40.949  18.331  25.871  1.00  0.00     0.163 HD
ATOM     29  O   UNL A   1      43.007  19.621  26.021  1.00  0.00    -0.269 OA
BRANCH  27  30
ATOM     30  C   UNL A   1      41.723  21.478  26.694  1.00  0.00     0.039 A 
ATOM     31  C   UNL A   1      41.888  21.793  28.045  1.00  0.00     0.014 A 
ATOM     32  C   UNL A   1      41.535  22.492  25.751  1.00  0.00     0.014 A 
ATOM     33  C   UNL A   1      42.013  23.129  28.427  1.00  0.00     0.010 A 
ATOM     34  C   UNL A   1      41.737  23.819  26.122  1.00  0.00     0.010 A 
ATOM     35  C   UNL A   1      42.020  24.144  27.456  1.00  0.00    -0.014 A 
BRANCH  35  36
ATOM     36  C   UNL A   1      42.450  25.521  27.811  1.00  0.00     0.031 A 
ATOM     37  C   UNL A   1      43.887  25.937  27.706  1.00  0.00     0.074 A 
ATOM     38  C   UNL A   1      41.535  26.370  28.323  1.00  0.00     0.049 A 
ATOM     39  N   UNL A   1      44.424  27.099  27.971  1.00  0.00    -0.248 NA
ATOM     40  C   UNL A   1      44.851  24.912  27.275  1.00  0.00     0.031 C 
ATOM     41  C   UNL A   1      40.128  26.043  28.580  1.00  0.00     0.029 A 
ATOM     42  N   UNL A   1      41.649  27.674  28.740  1.00  0.00    -0.354 N 
ATOM     43  C   UNL A   1      45.787  26.946  27.755  1.00  0.00     0.074 A 
ATOM     44  C   UNL A   1      46.001  25.564  27.379  1.00  0.00     0.031 C 
ATOM     45  C   UNL A   1      39.511  27.118  29.095  1.00  0.00     0.029 A 
ATOM     46  C   UNL A   1      40.476  28.203  29.228  1.00  0.00     0.049 A 
ATOM     47  H   UNL A   1      42.491  28.181  28.695  1.00  0.00     0.167 HD
ATOM     48  C   UNL A   1      46.767  27.877  27.830  1.00  0.00     0.034 A 
ATOM     49  C   UNL A   1      40.205  29.428  29.721  1.00  0.00     0.034 A 
ATOM     50  C   UNL A   1      46.542  29.255  28.178  1.00  0.00     0.049 A 
ATOM     51  C   UNL A   1      41.297  30.460  29.739  1.00  0.00     0.074 A 
ATOM     52  C   UNL A   1      47.453  30.296  28.204  1.00  0.00     0.029 A 
ATOM     53  N   UNL A   1      45.321  29.783  28.571  1.00  0.00    -0.354 N 
ATOM     54  N   UNL A   1      42.545  30.343  29.354  1.00  0.00    -0.248 NA
ATOM     55  C   UNL A   1      40.939  31.802  30.216  1.00  0.00     0.031 C 
ATOM     56  C   UNL A   1      46.786  31.451  28.628  1.00  0.00     0.029 A 
ATOM     57  C   UNL A   1      45.454  31.133  28.847  1.00  0.00     0.049 A 
ATOM     58  H   UNL A   1      44.483  29.272  28.642  1.00  0.00     0.167 HD
ATOM     59  C   UNL A   1      43.112  31.602  29.512  1.00  0.00     0.074 A 
ATOM     60  C   UNL A   1      42.064  32.472  30.005  1.00  0.00     0.031 C 
ATOM     61  C   UNL A   1      44.389  31.998  29.287  1.00  0.00     0.034 A 
BRANCH  48  62
ATOM     62  C   UNL A   1      48.164  27.449  27.465  1.00  0.00     0.023 A 
ATOM     63  C   UNL A   1      48.964  26.810  28.435  1.00  0.00     0.012 A 
ATOM     64  C   UNL A   1      48.669  27.629  26.163  1.00  0.00     0.148 A 
ATOM     65  C   UNL A   1      50.257  26.389  28.127  1.00  0.00     0.002 A 
ATOM     66  C   UNL A   1      49.944  27.169  25.852  1.00  0.00     0.091 A 
ATOM     67  F   UNL A   1      47.903  28.257  25.260  1.00  0.00    -0.205 F 
ATOM     68  C   UNL A   1      50.742  26.560  26.834  1.00  0.00     0.022 A 
BRANCH  66  69
ATOM     69  S   UNL A   1      50.635  27.277  24.197  1.00  0.00     0.127 S 
ATOM     70  O   UNL A   1      51.819  26.429  24.316  1.00  0.00    -0.237 OA
ATOM     71  O   UNL A   1      49.561  26.715  23.377  1.00  0.00    -0.237 OA
ATOM     72  O   UNL A   1      50.898  28.691  23.964  1.00  0.00    -0.744 OA
ENDBRANCH  66  69
ENDBRANCH  48  62
BRANCH  49  73
ATOM     73  C   UNL A   1      38.820  29.764  30.159  1.00  0.00     0.023 A 
ATOM     74  C   UNL A   1      38.445  29.545  31.500  1.00  0.00     0.012 A 
ATOM     75  C   UNL A   1      37.886  30.332  29.270  1.00  0.00     0.148 A 
ATOM     76  C   UNL A   1      37.157  29.855  31.939  1.00  0.00     0.002 A 
ATOM     77  C   UNL A   1      36.623  30.690  29.728  1.00  0.00     0.091 A 
ATOM     78  F   UNL A   1      38.257  30.522  27.997  1.00  0.00    -0.205 F 
ATOM     79  C   UNL A   1      36.250  30.437  31.057  1.00  0.00     0.022 A 
BRANCH  77  80
ATOM     80  S   UNL A   1      35.444  31.569  28.696  1.00  0.00     0.127 S 
ATOM     81  O   UNL A   1      36.283  32.602  28.096  1.00  0.00    -0.237 OA
ATOM     82  O   UNL A   1      35.001  30.520  27.777  1.00  0.00    -0.237 OA
ATOM     83  O   UNL A   1      34.407  32.041  29.606  1.00  0.00    -0.744 OA
ENDBRANCH  77  80
ENDBRANCH  49  73
BRANCH  61  84
ATOM     84  C   UNL A   1      44.727  33.442  29.545  1.00  0.00     0.023 A 
ATOM     85  C   UNL A   1      45.250  33.823  30.798  1.00  0.00     0.012 A 
ATOM     86  C   UNL A   1      44.599  34.404  28.525  1.00  0.00     0.148 A 
ATOM     87  C   UNL A   1      45.614  35.147  31.039  1.00  0.00     0.002 A 
ATOM     88  C   UNL A   1      45.009  35.712  28.758  1.00  0.00     0.091 A 
ATOM     89  F   UNL A   1      44.080  34.025  27.349  1.00  0.00    -0.205 F 
ATOM     90  C   UNL A   1      45.506  36.088  30.016  1.00  0.00     0.022 A 
BRANCH  88  91
ATOM     91  S   UNL A   1      44.995  36.966  27.472  1.00  0.00     0.127 S 
ATOM     92  O   UNL A   1      43.669  36.779  26.887  1.00  0.00    -0.237 OA
ATOM     93  O   UNL A   1      45.155  38.202  28.240  1.00  0.00    -0.237 OA
ATOM     94  O   UNL A   1      46.116  36.653  26.596  1.00  0.00    -0.744 OA
ENDBRANCH  88  91
ENDBRANCH  61  84
ENDBRANCH  35  36
ENDBRANCH  27  30
ENDBRANCH  25  26
ENDBRANCH  24  25
ENDBRANCH  23  24
ENDBRANCH   1  23
TORSDOF 20
ENDMDL
