MODEL 1
REMARK VINA RESULT:     -11.3      0.000      0.000
REMARK SMILES CC[C@@H](C(=O)NCCCCNC(=O)c1ccc(-c2c3nc(c(-c4cccc(S(=O)(=O)[O-])c4F)c4ccc([nH]4)c(-c4cccc(S(=O)(=O)[O-])c4F)c4nc(c(-c5cccc(S(=O)(=O)[O-])c5F)c5ccc2[nH]5)C=C4)C=C3)cc1)c1cc(Br)ccc1F
REMARK SMILES IDX 9 1 8 2 7 3 6 4 4 5 5 6 3 8 2 9 1 10 77 11 78 12 83 13 79 14
REMARK SMILES IDX 82 15 84 16 80 17 81 18 10 19 11 20 12 21 13 23 14 24 15 25
REMARK SMILES IDX 76 26 16 27 75 28 17 29 18 30 19 31 69 32 20 33 74 34 68 35
REMARK SMILES IDX 70 36 21 37 73 38 67 39 66 40 22 42 54 43 34 44 53 45 35 46
REMARK SMILES IDX 38 47 52 48 71 49 36 50 37 51 51 53 72 54 39 55 23 56 24 57
REMARK SMILES IDX 32 58 25 59 27 60 33 61 26 62 28 63 29 64 30 65 31 66 55 67
REMARK SMILES IDX 56 68 64 69 57 70 59 71 65 72 58 73 60 74 61 75 62 76 63 77
REMARK SMILES IDX 40 78 41 79 49 80 42 81 44 82 50 83 43 84 45 85 46 86 47 87
REMARK SMILES IDX 48 88
REMARK H PARENT 6 7 11 22 70 41 38 52
REMARK Flexibility Score: inf
ROOT
ATOM      1  C   UNL A   1      31.786  31.688  26.717  1.00  0.00     0.023 C 
ENDROOT
BRANCH   1   2
ATOM      2  C   UNL A   1      31.901  30.170  26.820  1.00  0.00     0.023 C 
BRANCH   2   3
ATOM      3  C   UNL A   1      33.232  29.588  26.341  1.00  0.00     0.116 C 
BRANCH   3   4
ATOM      4  N   UNL A   1      33.373  29.780  24.913  1.00  0.00    -0.356 N 
ATOM      5  C   UNL A   1      33.069  28.952  23.875  1.00  0.00     0.227 C 
ATOM      6  O   UNL A   1      33.520  29.265  22.768  1.00  0.00    -0.274 OA
ATOM      7  H   UNL A   1      33.748  30.651  24.649  1.00  0.00     0.163 HD
BRANCH   5   8
ATOM      8  C   UNL A   1      32.171  27.712  24.068  1.00  0.00     0.111 C 
BRANCH   8   9
ATOM      9  C   UNL A   1      32.650  26.475  23.272  1.00  0.00     0.015 C 
ATOM     10  C   UNL A   1      33.244  25.338  24.088  1.00  0.00     0.005 C 
ENDBRANCH   8   9
BRANCH   8  11
ATOM     11  C   UNL A   1      30.738  28.084  23.656  1.00  0.00     0.001 A 
ATOM     12  C   UNL A   1      30.403  29.379  23.213  1.00  0.00     0.023 A 
ATOM     13  C   UNL A   1      29.703  27.154  23.798  1.00  0.00     0.127 A 
ATOM     14  C   UNL A   1      29.086  29.702  22.885  1.00  0.00     0.018 A 
ATOM     15  C   UNL A   1      28.383  27.480  23.484  1.00  0.00     0.041 A 
ATOM     16  F   UNL A   1      29.970  25.920  24.247  1.00  0.00    -0.207 F 
ATOM     17  Br  UNL A   1      28.678  31.440  22.260  1.00  0.00    -0.051 Br
ATOM     18  C   UNL A   1      28.072  28.757  23.018  1.00  0.00     0.019 A 
ENDBRANCH   8  11
ENDBRANCH   5   8
ENDBRANCH   3   4
ENDBRANCH   2   3
ENDBRANCH   1   2
BRANCH   1  19
ATOM     19  C   UNL A   1      32.913  32.467  27.378  1.00  0.00     0.116 C 
BRANCH  19  20
ATOM     20  N   UNL A   1      32.582  33.864  27.622  1.00  0.00    -0.352 N 
ATOM     21  C   UNL A   1      33.113  34.726  28.553  1.00  0.00     0.251 C 
ATOM     22  H   UNL A   1      31.883  34.244  27.042  1.00  0.00     0.163 HD
ATOM     23  O   UNL A   1      32.636  35.848  28.700  1.00  0.00    -0.269 OA
BRANCH  21  24
ATOM     24  C   UNL A   1      34.238  34.275  29.398  1.00  0.00     0.039 A 
ATOM     25  C   UNL A   1      33.980  33.429  30.480  1.00  0.00     0.014 A 
ATOM     26  C   UNL A   1      35.549  34.644  29.087  1.00  0.00     0.014 A 
ATOM     27  C   UNL A   1      35.048  32.890  31.201  1.00  0.00     0.010 A 
ATOM     28  C   UNL A   1      36.610  34.036  29.747  1.00  0.00     0.010 A 
ATOM     29  C   UNL A   1      36.372  33.157  30.815  1.00  0.00    -0.014 A 
BRANCH  29  30
ATOM     30  C   UNL A   1      37.528  32.531  31.505  1.00  0.00     0.031 A 
ATOM     31  C   UNL A   1      38.262  31.389  30.854  1.00  0.00     0.074 A 
ATOM     32  C   UNL A   1      37.848  32.914  32.757  1.00  0.00     0.049 A 
ATOM     33  N   UNL A   1      39.237  30.658  31.328  1.00  0.00    -0.248 NA
ATOM     34  C   UNL A   1      37.818  30.994  29.506  1.00  0.00     0.031 C 
ATOM     35  C   UNL A   1      37.151  33.942  33.533  1.00  0.00     0.029 A 
ATOM     36  N   UNL A   1      38.823  32.461  33.610  1.00  0.00    -0.354 N 
ATOM     37  C   UNL A   1      39.489  29.692  30.362  1.00  0.00     0.074 A 
ATOM     38  C   UNL A   1      38.541  29.904  29.291  1.00  0.00     0.031 C 
ATOM     39  C   UNL A   1      37.727  34.047  34.743  1.00  0.00     0.029 A 
ATOM     40  C   UNL A   1      38.815  33.080  34.839  1.00  0.00     0.049 A 
ATOM     41  H   UNL A   1      39.469  31.759  33.365  1.00  0.00     0.167 HD
ATOM     42  C   UNL A   1      40.450  28.737  30.346  1.00  0.00     0.034 A 
ATOM     43  C   UNL A   1      39.597  32.889  35.920  1.00  0.00     0.034 A 
ATOM     44  C   UNL A   1      41.434  28.574  31.379  1.00  0.00     0.049 A 
ATOM     45  C   UNL A   1      40.704  31.872  35.848  1.00  0.00     0.074 A 
ATOM     46  C   UNL A   1      42.512  27.707  31.413  1.00  0.00     0.029 A 
ATOM     47  N   UNL A   1      41.464  29.297  32.561  1.00  0.00    -0.354 N 
ATOM     48  N   UNL A   1      41.034  31.080  34.855  1.00  0.00    -0.248 NA
ATOM     49  C   UNL A   1      41.572  31.748  37.027  1.00  0.00     0.031 C 
ATOM     50  C   UNL A   1      43.189  27.901  32.621  1.00  0.00     0.029 A 
ATOM     51  C   UNL A   1      42.541  28.898  33.333  1.00  0.00     0.049 A 
ATOM     52  H   UNL A   1      40.815  29.992  32.815  1.00  0.00     0.167 HD
ATOM     53  C   UNL A   1      42.165  30.392  35.276  1.00  0.00     0.074 A 
ATOM     54  C   UNL A   1      42.477  30.875  36.606  1.00  0.00     0.031 C 
ATOM     55  C   UNL A   1      42.872  29.433  34.629  1.00  0.00     0.034 A 
BRANCH  42  56
ATOM     56  C   UNL A   1      40.523  27.843  29.135  1.00  0.00     0.023 A 
ATOM     57  C   UNL A   1      39.623  26.764  29.017  1.00  0.00     0.012 A 
ATOM     58  C   UNL A   1      41.444  28.091  28.099  1.00  0.00     0.148 A 
ATOM     59  C   UNL A   1      39.663  25.923  27.908  1.00  0.00     0.002 A 
ATOM     60  C   UNL A   1      41.448  27.273  26.975  1.00  0.00     0.091 A 
ATOM     61  F   UNL A   1      42.309  29.106  28.239  1.00  0.00    -0.205 F 
ATOM     62  C   UNL A   1      40.567  26.183  26.884  1.00  0.00     0.022 A 
BRANCH  60  63
ATOM     63  S   UNL A   1      42.523  27.571  25.567  1.00  0.00     0.127 S 
ATOM     64  O   UNL A   1      43.839  27.606  26.204  1.00  0.00    -0.237 OA
ATOM     65  O   UNL A   1      42.280  26.392  24.736  1.00  0.00    -0.237 OA
ATOM     66  O   UNL A   1      42.077  28.827  24.981  1.00  0.00    -0.744 OA
ENDBRANCH  60  63
ENDBRANCH  42  56
BRANCH  43  67
ATOM     67  C   UNL A   1      39.418  33.744  37.127  1.00  0.00     0.023 A 
ATOM     68  C   UNL A   1      39.891  35.071  37.103  1.00  0.00     0.012 A 
ATOM     69  C   UNL A   1      38.761  33.270  38.279  1.00  0.00     0.148 A 
ATOM     70  C   UNL A   1      39.738  35.902  38.214  1.00  0.00     0.002 A 
ATOM     71  C   UNL A   1      38.565  34.121  39.363  1.00  0.00     0.091 A 
ATOM     72  F   UNL A   1      38.330  32.001  38.288  1.00  0.00    -0.205 F 
ATOM     73  C   UNL A   1      39.067  35.431  39.338  1.00  0.00     0.022 A 
BRANCH  71  74
ATOM     74  S   UNL A   1      37.598  33.639  40.798  1.00  0.00     0.127 S 
ATOM     75  O   UNL A   1      38.456  32.628  41.410  1.00  0.00    -0.237 OA
ATOM     76  O   UNL A   1      37.506  34.899  41.539  1.00  0.00    -0.237 OA
ATOM     77  O   UNL A   1      36.327  33.162  40.271  1.00  0.00    -0.744 OA
ENDBRANCH  71  74
ENDBRANCH  43  67
BRANCH  55  78
ATOM     78  C   UNL A   1      44.075  28.859  35.328  1.00  0.00     0.023 A 
ATOM     79  C   UNL A   1      45.341  29.447  35.134  1.00  0.00     0.012 A 
ATOM     80  C   UNL A   1      43.939  27.795  36.241  1.00  0.00     0.148 A 
ATOM     81  C   UNL A   1      46.457  28.966  35.816  1.00  0.00     0.002 A 
ATOM     82  C   UNL A   1      45.047  27.352  36.952  1.00  0.00     0.091 A 
ATOM     83  F   UNL A   1      42.729  27.236  36.397  1.00  0.00    -0.205 F 
ATOM     84  C   UNL A   1      46.308  27.928  36.734  1.00  0.00     0.022 A 
BRANCH  82  85
ATOM     85  S   UNL A   1      44.927  26.085  38.221  1.00  0.00     0.127 S 
ATOM     86  O   UNL A   1      46.286  26.072  38.760  1.00  0.00    -0.237 OA
ATOM     87  O   UNL A   1      43.919  26.642  39.124  1.00  0.00    -0.237 OA
ATOM     88  O   UNL A   1      44.512  24.870  37.533  1.00  0.00    -0.744 OA
ENDBRANCH  82  85
ENDBRANCH  55  78
ENDBRANCH  29  30
ENDBRANCH  21  24
ENDBRANCH  19  20
ENDBRANCH   1  19
TORSDOF 16
ENDMDL
MODEL 2
REMARK VINA RESULT:     -11.2      3.277      8.736
REMARK SMILES CC[C@@H](C(=O)NCCCCNC(=O)c1ccc(-c2c3nc(c(-c4cccc(S(=O)(=O)[O-])c4F)c4ccc([nH]4)c(-c4cccc(S(=O)(=O)[O-])c4F)c4nc(c(-c5cccc(S(=O)(=O)[O-])c5F)c5ccc2[nH]5)C=C4)C=C3)cc1)c1cc(Br)ccc1F
REMARK SMILES IDX 9 1 8 2 7 3 6 4 4 5 5 6 3 8 2 9 1 10 77 11 78 12 83 13 79 14
REMARK SMILES IDX 82 15 84 16 80 17 81 18 10 19 11 20 12 21 13 23 14 24 15 25
REMARK SMILES IDX 76 26 16 27 75 28 17 29 18 30 19 31 69 32 20 33 74 34 68 35
REMARK SMILES IDX 70 36 21 37 73 38 67 39 66 40 22 42 54 43 34 44 53 45 35 46
REMARK SMILES IDX 38 47 52 48 71 49 36 50 37 51 51 53 72 54 39 55 23 56 24 57
REMARK SMILES IDX 32 58 25 59 27 60 33 61 26 62 28 63 29 64 30 65 31 66 55 67
REMARK SMILES IDX 56 68 64 69 57 70 59 71 65 72 58 73 60 74 61 75 62 76 63 77
REMARK SMILES IDX 40 78 41 79 49 80 42 81 44 82 50 83 43 84 45 85 46 86 47 87
REMARK SMILES IDX 48 88
REMARK H PARENT 6 7 11 22 70 41 38 52
REMARK Flexibility Score: inf
ROOT
ATOM      1  C   UNL A   1      32.079  28.656  25.185  1.00  0.00     0.023 C 
ENDROOT
BRANCH   1   2
ATOM      2  C   UNL A   1      31.846  27.736  26.380  1.00  0.00     0.023 C 
BRANCH   2   3
ATOM      3  C   UNL A   1      30.826  26.619  26.149  1.00  0.00     0.116 C 
BRANCH   3   4
ATOM      4  N   UNL A   1      31.197  25.443  26.907  1.00  0.00    -0.356 N 
ATOM      5  C   UNL A   1      31.685  24.241  26.490  1.00  0.00     0.227 C 
ATOM      6  O   UNL A   1      31.682  23.326  27.320  1.00  0.00    -0.274 OA
ATOM      7  H   UNL A   1      31.078  25.524  27.880  1.00  0.00     0.163 HD
BRANCH   5   8
ATOM      8  C   UNL A   1      32.253  24.050  25.068  1.00  0.00     0.111 C 
BRANCH   8   9
ATOM      9  C   UNL A   1      31.199  23.568  24.043  1.00  0.00     0.015 C 
ATOM     10  C   UNL A   1      30.297  24.639  23.452  1.00  0.00     0.005 C 
ENDBRANCH   8   9
BRANCH   8  11
ATOM     11  C   UNL A   1      33.416  23.047  25.142  1.00  0.00     0.001 A 
ATOM     12  C   UNL A   1      33.232  21.674  24.889  1.00  0.00     0.023 A 
ATOM     13  C   UNL A   1      34.683  23.472  25.556  1.00  0.00     0.127 A 
ATOM     14  C   UNL A   1      34.296  20.778  25.004  1.00  0.00     0.018 A 
ATOM     15  C   UNL A   1      35.745  22.575  25.685  1.00  0.00     0.041 A 
ATOM     16  F   UNL A   1      34.897  24.764  25.839  1.00  0.00    -0.207 F 
ATOM     17  Br  UNL A   1      34.021  18.946  24.622  1.00  0.00    -0.051 Br
ATOM     18  C   UNL A   1      35.554  21.223  25.402  1.00  0.00     0.019 A 
ENDBRANCH   8  11
ENDBRANCH   5   8
ENDBRANCH   3   4
ENDBRANCH   2   3
ENDBRANCH   1   2
BRANCH   1  19
ATOM     19  C   UNL A   1      33.180  29.689  25.373  1.00  0.00     0.116 C 
BRANCH  19  20
ATOM     20  N   UNL A   1      32.724  30.901  26.040  1.00  0.00    -0.352 N 
ATOM     21  C   UNL A   1      33.277  31.552  27.117  1.00  0.00     0.251 C 
ATOM     22  H   UNL A   1      31.909  31.311  25.669  1.00  0.00     0.163 HD
ATOM     23  O   UNL A   1      32.697  32.506  27.628  1.00  0.00    -0.269 OA
BRANCH  21  24
ATOM     24  C   UNL A   1      34.558  31.069  27.675  1.00  0.00     0.039 A 
ATOM     25  C   UNL A   1      35.582  31.988  27.920  1.00  0.00     0.014 A 
ATOM     26  C   UNL A   1      34.724  29.723  28.004  1.00  0.00     0.014 A 
ATOM     27  C   UNL A   1      36.743  31.565  28.571  1.00  0.00     0.010 A 
ATOM     28  C   UNL A   1      35.839  29.324  28.731  1.00  0.00     0.010 A 
ATOM     29  C   UNL A   1      36.864  30.239  29.018  1.00  0.00    -0.014 A 
BRANCH  29  30
ATOM     30  C   UNL A   1      38.047  29.779  29.789  1.00  0.00     0.031 A 
ATOM     31  C   UNL A   1      38.294  30.315  31.174  1.00  0.00     0.074 A 
ATOM     32  C   UNL A   1      38.952  28.968  29.206  1.00  0.00     0.049 A 
ATOM     33  N   UNL A   1      39.307  30.103  31.972  1.00  0.00    -0.248 NA
ATOM     34  C   UNL A   1      37.285  31.239  31.721  1.00  0.00     0.031 C 
ATOM     35  C   UNL A   1      38.876  28.458  27.836  1.00  0.00     0.029 A 
ATOM     36  N   UNL A   1      40.132  28.454  29.684  1.00  0.00    -0.354 N 
ATOM     37  C   UNL A   1      39.084  30.900  33.088  1.00  0.00     0.074 A 
ATOM     38  C   UNL A   1      37.858  31.629  32.850  1.00  0.00     0.031 C 
ATOM     39  C   UNL A   1      39.956  27.699  27.587  1.00  0.00     0.029 A 
ATOM     40  C   UNL A   1      40.812  27.686  28.768  1.00  0.00     0.049 A 
ATOM     41  H   UNL A   1      40.460  28.619  30.599  1.00  0.00     0.167 HD
ATOM     42  C   UNL A   1      39.811  30.989  34.227  1.00  0.00     0.034 A 
ATOM     43  C   UNL A   1      41.993  27.044  28.870  1.00  0.00     0.034 A 
ATOM     44  C   UNL A   1      40.989  30.211  34.488  1.00  0.00     0.049 A 
ATOM     45  C   UNL A   1      42.743  27.100  30.173  1.00  0.00     0.074 A 
ATOM     46  C   UNL A   1      41.740  30.148  35.649  1.00  0.00     0.029 A 
ATOM     47  N   UNL A   1      41.587  29.355  33.577  1.00  0.00    -0.354 N 
ATOM     48  N   UNL A   1      42.427  27.727  31.280  1.00  0.00    -0.248 NA
ATOM     49  C   UNL A   1      43.992  26.329  30.257  1.00  0.00     0.031 C 
ATOM     50  C   UNL A   1      42.799  29.260  35.435  1.00  0.00     0.029 A 
ATOM     51  C   UNL A   1      42.699  28.759  34.147  1.00  0.00     0.049 A 
ATOM     52  H   UNL A   1      41.269  29.195  32.659  1.00  0.00     0.167 HD
ATOM     53  C   UNL A   1      43.415  27.399  32.200  1.00  0.00     0.074 A 
ATOM     54  C   UNL A   1      44.330  26.500  31.527  1.00  0.00     0.031 C 
ATOM     55  C   UNL A   1      43.564  27.819  33.482  1.00  0.00     0.034 A 
BRANCH  42  56
ATOM     56  C   UNL A   1      39.304  31.911  35.306  1.00  0.00     0.023 A 
ATOM     57  C   UNL A   1      38.351  31.434  36.231  1.00  0.00     0.012 A 
ATOM     58  C   UNL A   1      39.796  33.224  35.435  1.00  0.00     0.148 A 
ATOM     59  C   UNL A   1      37.867  32.261  37.242  1.00  0.00     0.002 A 
ATOM     60  C   UNL A   1      39.340  34.028  36.475  1.00  0.00     0.091 A 
ATOM     61  F   UNL A   1      40.683  33.668  34.533  1.00  0.00    -0.205 F 
ATOM     62  C   UNL A   1      38.368  33.552  37.370  1.00  0.00     0.022 A 
BRANCH  60  63
ATOM     63  S   UNL A   1      39.981  35.680  36.770  1.00  0.00     0.127 S 
ATOM     64  O   UNL A   1      39.270  36.058  37.990  1.00  0.00    -0.237 OA
ATOM     65  O   UNL A   1      41.411  35.429  36.952  1.00  0.00    -0.237 OA
ATOM     66  O   UNL A   1      39.649  36.455  35.583  1.00  0.00    -0.744 OA
ENDBRANCH  60  63
ENDBRANCH  42  56
BRANCH  43  67
ATOM     67  C   UNL A   1      42.491  26.218  27.733  1.00  0.00     0.023 A 
ATOM     68  C   UNL A   1      43.432  26.772  26.843  1.00  0.00     0.012 A 
ATOM     69  C   UNL A   1      42.069  24.888  27.545  1.00  0.00     0.148 A 
ATOM     70  C   UNL A   1      43.923  26.027  25.771  1.00  0.00     0.002 A 
ATOM     71  C   UNL A   1      42.602  24.134  26.505  1.00  0.00     0.091 A 
ATOM     72  F   UNL A   1      41.163  24.382  28.394  1.00  0.00    -0.205 F 
ATOM     73  C   UNL A   1      43.516  24.707  25.607  1.00  0.00     0.022 A 
BRANCH  71  74
ATOM     74  S   UNL A   1      42.235  22.387  26.298  1.00  0.00     0.127 S 
ATOM     75  O   UNL A   1      43.041  22.049  25.128  1.00  0.00    -0.237 OA
ATOM     76  O   UNL A   1      42.714  21.824  27.561  1.00  0.00    -0.237 OA
ATOM     77  O   UNL A   1      40.791  22.311  26.120  1.00  0.00    -0.744 OA
ENDBRANCH  71  74
ENDBRANCH  43  67
BRANCH  55  78
ATOM     78  C   UNL A   1      44.739  27.288  34.259  1.00  0.00     0.023 A 
ATOM     79  C   UNL A   1      45.952  28.005  34.264  1.00  0.00     0.012 A 
ATOM     80  C   UNL A   1      44.616  26.128  35.049  1.00  0.00     0.148 A 
ATOM     81  C   UNL A   1      47.033  27.559  35.021  1.00  0.00     0.002 A 
ATOM     82  C   UNL A   1      45.683  25.717  35.838  1.00  0.00     0.091 A 
ATOM     83  F   UNL A   1      43.459  25.450  35.014  1.00  0.00    -0.205 F 
ATOM     84  C   UNL A   1      46.895  26.424  35.818  1.00  0.00     0.022 A 
BRANCH  82  85
ATOM     85  S   UNL A   1      45.559  24.322  36.964  1.00  0.00     0.127 S 
ATOM     86  O   UNL A   1      46.894  24.301  37.561  1.00  0.00    -0.237 OA
ATOM     87  O   UNL A   1      44.491  24.745  37.870  1.00  0.00    -0.237 OA
ATOM     88  O   UNL A   1      45.223  23.171  36.136  1.00  0.00    -0.744 OA
ENDBRANCH  82  85
ENDBRANCH  55  78
ENDBRANCH  29  30
ENDBRANCH  21  24
ENDBRANCH  19  20
ENDBRANCH   1  19
TORSDOF 16
ENDMDL
MODEL 3
REMARK VINA RESULT:     -11.2      5.824      9.054
REMARK SMILES CC[C@@H](C(=O)NCCCCNC(=O)c1ccc(-c2c3nc(c(-c4cccc(S(=O)(=O)[O-])c4F)c4ccc([nH]4)c(-c4cccc(S(=O)(=O)[O-])c4F)c4nc(c(-c5cccc(S(=O)(=O)[O-])c5F)c5ccc2[nH]5)C=C4)C=C3)cc1)c1cc(Br)ccc1F
REMARK SMILES IDX 9 1 8 2 7 3 6 4 4 5 5 6 3 8 2 9 1 10 77 11 78 12 83 13 79 14
REMARK SMILES IDX 82 15 84 16 80 17 81 18 10 19 11 20 12 21 13 23 14 24 15 25
REMARK SMILES IDX 76 26 16 27 75 28 17 29 18 30 19 31 69 32 20 33 74 34 68 35
REMARK SMILES IDX 70 36 21 37 73 38 67 39 66 40 22 42 54 43 34 44 53 45 35 46
REMARK SMILES IDX 38 47 52 48 71 49 36 50 37 51 51 53 72 54 39 55 23 56 24 57
REMARK SMILES IDX 32 58 25 59 27 60 33 61 26 62 28 63 29 64 30 65 31 66 55 67
REMARK SMILES IDX 56 68 64 69 57 70 59 71 65 72 58 73 60 74 61 75 62 76 63 77
REMARK SMILES IDX 40 78 41 79 49 80 42 81 44 82 50 83 43 84 45 85 46 86 47 87
REMARK SMILES IDX 48 88
REMARK H PARENT 6 7 11 22 70 41 38 52
REMARK Flexibility Score: inf
ROOT
ATOM      1  C   UNL A   1      35.613  22.101  25.568  1.00  0.00     0.023 C 
ENDROOT
BRANCH   1   2
ATOM      2  C   UNL A   1      34.741  21.560  26.698  1.00  0.00     0.023 C 
BRANCH   2   3
ATOM      3  C   UNL A   1      34.092  22.627  27.582  1.00  0.00     0.116 C 
BRANCH   3   4
ATOM      4  N   UNL A   1      32.651  22.493  27.544  1.00  0.00    -0.356 N 
ATOM      5  C   UNL A   1      31.691  23.375  27.150  1.00  0.00     0.227 C 
ATOM      6  O   UNL A   1      30.526  23.096  27.453  1.00  0.00    -0.274 OA
ATOM      7  H   UNL A   1      32.310  21.623  27.853  1.00  0.00     0.163 HD
BRANCH   5   8
ATOM      8  C   UNL A   1      32.040  24.633  26.327  1.00  0.00     0.111 C 
BRANCH   8   9
ATOM      9  C   UNL A   1      30.840  25.589  26.124  1.00  0.00     0.015 C 
ATOM     10  C   UNL A   1      31.174  27.059  25.939  1.00  0.00     0.005 C 
ENDBRANCH   8   9
BRANCH   8  11
ATOM     11  C   UNL A   1      32.594  24.183  24.966  1.00  0.00     0.001 A 
ATOM     12  C   UNL A   1      32.104  23.040  24.304  1.00  0.00     0.023 A 
ATOM     13  C   UNL A   1      33.673  24.861  24.388  1.00  0.00     0.127 A 
ATOM     14  C   UNL A   1      32.653  22.629  23.089  1.00  0.00     0.018 A 
ATOM     15  C   UNL A   1      34.233  24.443  23.180  1.00  0.00     0.041 A 
ATOM     16  F   UNL A   1      34.192  25.935  24.999  1.00  0.00    -0.207 F 
ATOM     17  Br  UNL A   1      31.948  21.110  22.210  1.00  0.00    -0.051 Br
ATOM     18  C   UNL A   1      33.718  23.327  22.522  1.00  0.00     0.019 A 
ENDBRANCH   8  11
ENDBRANCH   5   8
ENDBRANCH   3   4
ENDBRANCH   2   3
ENDBRANCH   1   2
BRANCH   1  19
ATOM     19  C   UNL A   1      36.810  22.926  26.016  1.00  0.00     0.116 C 
BRANCH  19  20
ATOM     20  N   UNL A   1      38.034  22.145  26.142  1.00  0.00    -0.352 N 
ATOM     21  C   UNL A   1      39.296  22.570  26.482  1.00  0.00     0.251 C 
ATOM     22  H   UNL A   1      37.945  21.182  25.957  1.00  0.00     0.163 HD
ATOM     23  O   UNL A   1      40.245  21.792  26.431  1.00  0.00    -0.269 OA
BRANCH  21  24
ATOM     24  C   UNL A   1      39.504  23.979  26.876  1.00  0.00     0.039 A 
ATOM     25  C   UNL A   1      39.275  24.356  28.202  1.00  0.00     0.014 A 
ATOM     26  C   UNL A   1      39.978  24.910  25.949  1.00  0.00     0.014 A 
ATOM     27  C   UNL A   1      39.598  25.651  28.614  1.00  0.00     0.010 A 
ATOM     28  C   UNL A   1      40.382  26.167  26.382  1.00  0.00     0.010 A 
ATOM     29  C   UNL A   1      40.191  26.555  27.716  1.00  0.00    -0.014 A 
BRANCH  29  30
ATOM     30  C   UNL A   1      40.626  27.908  28.145  1.00  0.00     0.031 A 
ATOM     31  C   UNL A   1      42.090  28.258  28.155  1.00  0.00     0.074 A 
ATOM     32  C   UNL A   1      39.719  28.782  28.625  1.00  0.00     0.049 A 
ATOM     33  N   UNL A   1      42.675  29.350  28.572  1.00  0.00    -0.248 NA
ATOM     34  C   UNL A   1      43.024  27.228  27.665  1.00  0.00     0.031 C 
ATOM     35  C   UNL A   1      38.283  28.527  28.757  1.00  0.00     0.029 A 
ATOM     36  N   UNL A   1      39.875  30.052  29.120  1.00  0.00    -0.354 N 
ATOM     37  C   UNL A   1      44.039  29.124  28.439  1.00  0.00     0.074 A 
ATOM     38  C   UNL A   1      44.199  27.776  27.940  1.00  0.00     0.031 C 
ATOM     39  C   UNL A   1      37.690  29.609  29.289  1.00  0.00     0.029 A 
ATOM     40  C   UNL A   1      38.703  30.624  29.559  1.00  0.00     0.049 A 
ATOM     41  H   UNL A   1      40.746  30.512  29.158  1.00  0.00     0.167 HD
ATOM     42  C   UNL A   1      45.068  29.973  28.674  1.00  0.00     0.034 A 
ATOM     43  C   UNL A   1      38.472  31.830  30.115  1.00  0.00     0.034 A 
ATOM     44  C   UNL A   1      44.902  31.333  29.104  1.00  0.00     0.049 A 
ATOM     45  C   UNL A   1      39.623  32.781  30.295  1.00  0.00     0.074 A 
ATOM     46  C   UNL A   1      45.869  32.308  29.271  1.00  0.00     0.029 A 
ATOM     47  N   UNL A   1      43.686  31.914  29.430  1.00  0.00    -0.354 N 
ATOM     48  N   UNL A   1      40.890  32.608  30.005  1.00  0.00    -0.248 NA
ATOM     49  C   UNL A   1      39.310  34.109  30.842  1.00  0.00     0.031 C 
ATOM     50  C   UNL A   1      45.238  33.478  29.708  1.00  0.00     0.029 A 
ATOM     51  C   UNL A   1      43.877  33.234  29.798  1.00  0.00     0.049 A 
ATOM     52  H   UNL A   1      42.816  31.456  29.404  1.00  0.00     0.167 HD
ATOM     53  C   UNL A   1      41.518  33.812  30.300  1.00  0.00     0.074 A 
ATOM     54  C   UNL A   1      40.487  34.715  30.772  1.00  0.00     0.031 C 
ATOM     55  C   UNL A   1      42.831  34.137  30.207  1.00  0.00     0.034 A 
BRANCH  42  56
ATOM     56  C   UNL A   1      46.462  29.471  28.399  1.00  0.00     0.023 A 
ATOM     57  C   UNL A   1      47.031  29.678  27.125  1.00  0.00     0.012 A 
ATOM     58  C   UNL A   1      47.223  28.840  29.401  1.00  0.00     0.148 A 
ATOM     59  C   UNL A   1      48.319  29.230  26.841  1.00  0.00     0.002 A 
ATOM     60  C   UNL A   1      48.524  28.436  29.123  1.00  0.00     0.091 A 
ATOM     61  F   UNL A   1      46.658  28.631  30.599  1.00  0.00    -0.205 F 
ATOM     62  C   UNL A   1      49.068  28.619  27.841  1.00  0.00     0.022 A 
BRANCH  60  63
ATOM     63  S   UNL A   1      49.597  27.709  30.367  1.00  0.00     0.127 S 
ATOM     64  O   UNL A   1      50.839  27.530  29.617  1.00  0.00    -0.237 OA
ATOM     65  O   UNL A   1      49.646  28.759  31.385  1.00  0.00    -0.237 OA
ATOM     66  O   UNL A   1      48.939  26.482  30.794  1.00  0.00    -0.744 OA
ENDBRANCH  60  63
ENDBRANCH  42  56
BRANCH  43  67
ATOM     67  C   UNL A   1      37.079  32.238  30.452  1.00  0.00     0.023 A 
ATOM     68  C   UNL A   1      36.603  32.033  31.763  1.00  0.00     0.012 A 
ATOM     69  C   UNL A   1      36.237  32.853  29.505  1.00  0.00     0.148 A 
ATOM     70  C   UNL A   1      35.306  32.406  32.116  1.00  0.00     0.002 A 
ATOM     71  C   UNL A   1      34.964  33.270  29.879  1.00  0.00     0.091 A 
ATOM     72  F   UNL A   1      36.703  33.028  28.261  1.00  0.00    -0.205 F 
ATOM     73  C   UNL A   1      34.491  33.033  31.179  1.00  0.00     0.022 A 
BRANCH  71  74
ATOM     74  S   UNL A   1      33.896  34.202  28.775  1.00  0.00     0.127 S 
ATOM     75  O   UNL A   1      32.809  34.592  29.670  1.00  0.00    -0.237 OA
ATOM     76  O   UNL A   1      34.773  35.296  28.356  1.00  0.00    -0.237 OA
ATOM     77  O   UNL A   1      33.540  33.279  27.706  1.00  0.00    -0.744 OA
ENDBRANCH  71  74
ENDBRANCH  43  67
BRANCH  55  78
ATOM     78  C   UNL A   1      43.234  35.536  30.590  1.00  0.00     0.023 A 
ATOM     79  C   UNL A   1      43.655  35.804  31.908  1.00  0.00     0.012 A 
ATOM     80  C   UNL A   1      43.275  36.564  29.627  1.00  0.00     0.148 A 
ATOM     81  C   UNL A   1      44.084  37.080  32.268  1.00  0.00     0.002 A 
ATOM     82  C   UNL A   1      43.749  37.821  29.982  1.00  0.00     0.091 A 
ATOM     83  F   UNL A   1      42.850  36.293  28.384  1.00  0.00    -0.205 F 
ATOM     84  C   UNL A   1      44.144  38.084  31.303  1.00  0.00     0.022 A 
BRANCH  82  85
ATOM     85  S   UNL A   1      43.947  39.143  28.782  1.00  0.00     0.127 S 
ATOM     86  O   UNL A   1      42.561  39.411  28.401  1.00  0.00    -0.237 OA
ATOM     87  O   UNL A   1      44.576  40.197  29.579  1.00  0.00    -0.237 OA
ATOM     88  O   UNL A   1      44.794  38.600  27.728  1.00  0.00    -0.744 OA
ENDBRANCH  82  85
ENDBRANCH  55  78
ENDBRANCH  29  30
ENDBRANCH  21  24
ENDBRANCH  19  20
ENDBRANCH   1  19
TORSDOF 16
ENDMDL
