MODEL 1
REMARK VINA RESULT:     -11.5      0.000      0.000
REMARK SMILES COc1ccc(F)cc1[C@@H](C(=O)NCCCCNC(=O)c1ccc(-c2c3nc(c(-c4cccc(S(=O)(=O)[O-])c4F)c4ccc([nH]4)c(-c4cccc(S(=O)(=O)[O-])c4F)c4nc(c(-c5cccc(S(=O)(=O)[O-])c5F)c5ccc2[nH]5)C=C4)C=C3)cc1)[N@@H+](C)CCn1ccnc1C
REMARK SMILES IDX 15 1 14 2 13 3 11 4 12 5 10 7 9 8 3 9 4 10 5 11 8 12 6 13
REMARK SMILES IDX 7 14 2 15 1 16 84 17 85 18 86 20 87 21 88 22 89 23 92 24
REMARK SMILES IDX 90 25 91 26 93 27 16 28 17 29 18 30 19 31 20 33 21 34 22 35
REMARK SMILES IDX 83 36 23 37 82 38 24 39 25 40 26 41 76 42 27 43 81 44 75 45
REMARK SMILES IDX 77 46 28 47 80 48 74 49 73 50 29 52 61 53 41 54 60 55 42 56
REMARK SMILES IDX 45 57 59 58 78 59 43 60 44 61 58 63 79 64 46 65 30 66 31 67
REMARK SMILES IDX 39 68 32 69 34 70 40 71 33 72 35 73 36 74 37 75 38 76 62 77
REMARK SMILES IDX 63 78 71 79 64 80 66 81 72 82 65 83 67 84 68 85 69 86 70 87
REMARK SMILES IDX 47 88 48 89 56 90 49 91 51 92 57 93 50 94 52 95 53 96 54 97
REMARK SMILES IDX 55 98
REMARK H PARENT 13 6 84 19 18 32 77 51 45 62
REMARK Flexibility Score: inf
ROOT
ATOM      1  C   UNL A   1      36.422  23.327  23.612  1.00  0.00     0.023 C 
ENDROOT
BRANCH   1   2
ATOM      2  C   UNL A   1      34.992  23.286  23.056  1.00  0.00     0.116 C 
BRANCH   2   3
ATOM      3  N   UNL A   1      34.335  24.565  23.263  1.00  0.00    -0.351 N 
ATOM      4  C   UNL A   1      33.803  24.949  24.471  1.00  0.00     0.283 C 
ATOM      5  O   UNL A   1      34.335  24.559  25.518  1.00  0.00    -0.268 OA
ATOM      6  H   UNL A   1      34.268  25.186  22.501  1.00  0.00     0.163 HD
BRANCH   4   7
ATOM      7  C   UNL A   1      32.554  25.909  24.515  1.00  0.00     0.309 C 
BRANCH   7   8
ATOM      8  C   UNL A   1      32.671  27.292  25.184  1.00  0.00     0.064 A 
ATOM      9  C   UNL A   1      31.937  28.401  24.710  1.00  0.00     0.128 A 
ATOM     10  C   UNL A   1      32.091  29.667  25.306  1.00  0.00     0.050 A 
ATOM     11  C   UNL A   1      32.976  29.857  26.366  1.00  0.00     0.043 A 
ATOM     12  C   UNL A   1      33.454  27.498  26.340  1.00  0.00     0.053 A 
ATOM     13  C   UNL A   1      33.640  28.765  26.884  1.00  0.00     0.124 A 
ATOM     14  F   UNL A   1      34.498  28.925  27.899  1.00  0.00    -0.207 F 
BRANCH   9  15
ATOM     15  O   UNL A   1      31.043  28.149  23.704  1.00  0.00    -0.496 OA
ATOM     16  C   UNL A   1      30.049  29.140  23.473  1.00  0.00     0.278 C 
ENDBRANCH   9  15
ENDBRANCH   7   8
BRANCH   7  17
ATOM     17  N   UNL A   1      31.270  25.199  24.731  1.00  0.00    -0.322 N 
ATOM     18  C   UNL A   1      30.721  24.665  23.484  1.00  0.00     0.333 C 
ATOM     19  H   UNL A   1      30.729  25.996  25.066  1.00  0.00     0.348 HD
BRANCH  17  20
ATOM     20  C   UNL A   1      30.971  24.411  25.939  1.00  0.00     0.285 C 
BRANCH  20  21
ATOM     21  C   UNL A   1      30.812  22.881  25.917  1.00  0.00     0.184 C 
BRANCH  21  22
ATOM     22  N   UNL A   1      31.933  21.939  25.880  1.00  0.00    -0.330 N 
ATOM     23  C   UNL A   1      32.102  21.152  24.750  1.00  0.00     0.107 A 
ATOM     24  C   UNL A   1      33.104  21.773  26.609  1.00  0.00     0.105 A 
ATOM     25  C   UNL A   1      33.387  20.686  24.779  1.00  0.00     0.131 A 
ATOM     26  N   UNL A   1      33.995  21.087  25.920  1.00  0.00    -0.242 NA
ATOM     27  C   UNL A   1      33.461  22.208  27.972  1.00  0.00     0.087 C 
ENDBRANCH  21  22
ENDBRANCH  20  21
ENDBRANCH  17  20
ENDBRANCH   7  17
ENDBRANCH   4   7
ENDBRANCH   2   3
ENDBRANCH   1   2
BRANCH   1  28
ATOM     28  C   UNL A   1      36.997  21.968  24.036  1.00  0.00     0.023 C 
BRANCH  28  29
ATOM     29  C   UNL A   1      37.503  21.926  25.477  1.00  0.00     0.116 C 
BRANCH  29  30
ATOM     30  N   UNL A   1      38.635  21.024  25.681  1.00  0.00    -0.352 N 
ATOM     31  C   UNL A   1      39.831  21.232  26.335  1.00  0.00     0.251 C 
ATOM     32  H   UNL A   1      38.527  20.127  25.290  1.00  0.00     0.163 HD
ATOM     33  O   UNL A   1      40.656  20.342  26.397  1.00  0.00    -0.269 OA
BRANCH  31  34
ATOM     34  C   UNL A   1      40.123  22.571  26.894  1.00  0.00     0.039 A 
ATOM     35  C   UNL A   1      41.037  22.662  27.947  1.00  0.00     0.014 A 
ATOM     36  C   UNL A   1      39.567  23.722  26.338  1.00  0.00     0.014 A 
ATOM     37  C   UNL A   1      41.464  23.918  28.378  1.00  0.00     0.010 A 
ATOM     38  C   UNL A   1      40.067  24.964  26.699  1.00  0.00     0.010 A 
ATOM     39  C   UNL A   1      41.019  25.076  27.721  1.00  0.00    -0.014 A 
BRANCH  39  40
ATOM     40  C   UNL A   1      41.534  26.418  28.091  1.00  0.00     0.031 A 
ATOM     41  C   UNL A   1      42.955  26.785  27.767  1.00  0.00     0.074 A 
ATOM     42  C   UNL A   1      40.744  27.264  28.784  1.00  0.00     0.049 A 
ATOM     43  N   UNL A   1      43.605  27.881  28.050  1.00  0.00    -0.248 NA
ATOM     44  C   UNL A   1      43.769  25.774  27.066  1.00  0.00     0.031 C 
ATOM     45  C   UNL A   1      39.380  26.975  29.234  1.00  0.00     0.029 A 
ATOM     46  N   UNL A   1      40.976  28.538  29.238  1.00  0.00    -0.354 N 
ATOM     47  C   UNL A   1      44.902  27.679  27.597  1.00  0.00     0.074 A 
ATOM     48  C   UNL A   1      44.967  26.336  27.071  1.00  0.00     0.031 C 
ATOM     49  C   UNL A   1      38.884  28.053  29.865  1.00  0.00     0.029 A 
ATOM     50  C   UNL A   1      39.899  29.101  29.884  1.00  0.00     0.049 A 
ATOM     51  H   UNL A   1      41.833  29.006  29.114  1.00  0.00     0.167 HD
ATOM     52  C   UNL A   1      45.933  28.554  27.573  1.00  0.00     0.034 A 
ATOM     53  C   UNL A   1      39.743  30.333  30.409  1.00  0.00     0.034 A 
ATOM     54  C   UNL A   1      45.831  29.912  28.019  1.00  0.00     0.049 A 
ATOM     55  C   UNL A   1      40.879  31.315  30.288  1.00  0.00     0.074 A 
ATOM     56  C   UNL A   1      46.791  30.906  27.974  1.00  0.00     0.029 A 
ATOM     57  N   UNL A   1      44.689  30.476  28.568  1.00  0.00    -0.354 N 
ATOM     58  N   UNL A   1      42.057  31.144  29.739  1.00  0.00    -0.248 NA
ATOM     59  C   UNL A   1      40.655  32.667  30.820  1.00  0.00     0.031 C 
ATOM     60  C   UNL A   1      46.226  32.075  28.491  1.00  0.00     0.029 A 
ATOM     61  C   UNL A   1      44.912  31.809  28.849  1.00  0.00     0.049 A 
ATOM     62  H   UNL A   1      43.845  29.996  28.733  1.00  0.00     0.167 HD
ATOM     63  C   UNL A   1      42.698  32.374  29.818  1.00  0.00     0.074 A 
ATOM     64  C   UNL A   1      41.773  33.285  30.460  1.00  0.00     0.031 C 
ATOM     65  C   UNL A   1      43.945  32.714  29.412  1.00  0.00     0.034 A 
BRANCH  52  66
ATOM     66  C   UNL A   1      47.227  28.103  26.950  1.00  0.00     0.023 A 
ATOM     67  C   UNL A   1      48.304  27.754  27.791  1.00  0.00     0.012 A 
ATOM     68  C   UNL A   1      47.355  27.944  25.558  1.00  0.00     0.148 A 
ATOM     69  C   UNL A   1      49.499  27.277  27.255  1.00  0.00     0.002 A 
ATOM     70  C   UNL A   1      48.534  27.426  25.033  1.00  0.00     0.091 A 
ATOM     71  F   UNL A   1      46.325  28.298  24.777  1.00  0.00    -0.205 F 
ATOM     72  C   UNL A   1      49.609  27.102  25.879  1.00  0.00     0.022 A 
BRANCH  70  73
ATOM     73  S   UNL A   1      48.756  27.089  23.283  1.00  0.00     0.127 S 
ATOM     74  O   UNL A   1      50.211  26.990  23.183  1.00  0.00    -0.237 OA
ATOM     75  O   UNL A   1      48.047  25.819  23.124  1.00  0.00    -0.237 OA
ATOM     76  O   UNL A   1      48.161  28.214  22.576  1.00  0.00    -0.744 OA
ENDBRANCH  70  73
ENDBRANCH  52  66
BRANCH  53  77
ATOM     77  C   UNL A   1      38.422  30.744  30.967  1.00  0.00     0.023 A 
ATOM     78  C   UNL A   1      38.157  30.511  32.332  1.00  0.00     0.012 A 
ATOM     79  C   UNL A   1      37.452  31.404  30.186  1.00  0.00     0.148 A 
ATOM     80  C   UNL A   1      36.946  30.904  32.903  1.00  0.00     0.002 A 
ATOM     81  C   UNL A   1      36.267  31.838  30.774  1.00  0.00     0.091 A 
ATOM     82  F   UNL A   1      37.710  31.606  28.887  1.00  0.00    -0.205 F 
ATOM     83  C   UNL A   1      36.006  31.577  32.128  1.00  0.00     0.022 A 
BRANCH  81  84
ATOM     84  S   UNL A   1      35.061  32.825  29.879  1.00  0.00     0.127 S 
ATOM     85  O   UNL A   1      34.108  33.162  30.934  1.00  0.00    -0.237 OA
ATOM     86  O   UNL A   1      35.872  33.947  29.403  1.00  0.00    -0.237 OA
ATOM     87  O   UNL A   1      34.562  31.958  28.820  1.00  0.00    -0.744 OA
ENDBRANCH  81  84
ENDBRANCH  53  77
BRANCH  65  88
ATOM     88  C   UNL A   1      44.391  34.137  29.598  1.00  0.00     0.023 A 
ATOM     89  C   UNL A   1      45.005  34.516  30.806  1.00  0.00     0.012 A 
ATOM     90  C   UNL A   1      44.352  35.042  28.519  1.00  0.00     0.148 A 
ATOM     91  C   UNL A   1      45.572  35.781  30.939  1.00  0.00     0.002 A 
ATOM     92  C   UNL A   1      44.959  36.284  28.645  1.00  0.00     0.091 A 
ATOM     93  F   UNL A   1      43.749  34.657  27.383  1.00  0.00    -0.205 F 
ATOM     94  C   UNL A   1      45.564  36.657  29.856  1.00  0.00     0.022 A 
BRANCH  92  95
ATOM     95  S   UNL A   1      45.091  37.436  27.273  1.00  0.00     0.127 S 
ATOM     96  O   UNL A   1      45.856  36.655  26.302  1.00  0.00    -0.237 OA
ATOM     97  O   UNL A   1      43.689  37.651  26.913  1.00  0.00    -0.237 OA
ATOM     98  O   UNL A   1      45.769  38.613  27.798  1.00  0.00    -0.744 OA
ENDBRANCH  92  95
ENDBRANCH  65  88
ENDBRANCH  39  40
ENDBRANCH  31  34
ENDBRANCH  29  30
ENDBRANCH  28  29
ENDBRANCH   1  28
TORSDOF 20
ENDMDL
MODEL 2
REMARK VINA RESULT:     -11.2      5.929      9.224
REMARK SMILES COc1ccc(F)cc1[C@@H](C(=O)NCCCCNC(=O)c1ccc(-c2c3nc(c(-c4cccc(S(=O)(=O)[O-])c4F)c4ccc([nH]4)c(-c4cccc(S(=O)(=O)[O-])c4F)c4nc(c(-c5cccc(S(=O)(=O)[O-])c5F)c5ccc2[nH]5)C=C4)C=C3)cc1)[N@@H+](C)CCn1ccnc1C
REMARK SMILES IDX 15 1 14 2 13 3 11 4 12 5 10 7 9 8 3 9 4 10 5 11 8 12 6 13
REMARK SMILES IDX 7 14 2 15 1 16 84 17 85 18 86 20 87 21 88 22 89 23 92 24
REMARK SMILES IDX 90 25 91 26 93 27 16 28 17 29 18 30 19 31 20 33 21 34 22 35
REMARK SMILES IDX 83 36 23 37 82 38 24 39 25 40 26 41 76 42 27 43 81 44 75 45
REMARK SMILES IDX 77 46 28 47 80 48 74 49 73 50 29 52 61 53 41 54 60 55 42 56
REMARK SMILES IDX 45 57 59 58 78 59 43 60 44 61 58 63 79 64 46 65 30 66 31 67
REMARK SMILES IDX 39 68 32 69 34 70 40 71 33 72 35 73 36 74 37 75 38 76 62 77
REMARK SMILES IDX 63 78 71 79 64 80 66 81 72 82 65 83 67 84 68 85 69 86 70 87
REMARK SMILES IDX 47 88 48 89 56 90 49 91 51 92 57 93 50 94 52 95 53 96 54 97
REMARK SMILES IDX 55 98
REMARK H PARENT 13 6 84 19 18 32 77 51 45 62
REMARK Flexibility Score: inf
ROOT
ATOM      1  C   UNL A   1      32.131  30.138  27.163  1.00  0.00     0.023 C 
ENDROOT
BRANCH   1   2
ATOM      2  C   UNL A   1      33.320  29.413  26.520  1.00  0.00     0.116 C 
BRANCH   2   3
ATOM      3  N   UNL A   1      32.867  28.215  25.833  1.00  0.00    -0.351 N 
ATOM      4  C   UNL A   1      32.881  28.084  24.465  1.00  0.00     0.283 C 
ATOM      5  O   UNL A   1      33.764  28.652  23.811  1.00  0.00    -0.268 OA
ATOM      6  H   UNL A   1      32.535  27.462  26.375  1.00  0.00     0.163 HD
BRANCH   4   7
ATOM      7  C   UNL A   1      31.804  27.184  23.746  1.00  0.00     0.309 C 
BRANCH   7   8
ATOM      8  C   UNL A   1      32.253  25.975  22.904  1.00  0.00     0.064 A 
ATOM      9  C   UNL A   1      32.596  24.745  23.508  1.00  0.00     0.128 A 
ATOM     10  C   UNL A   1      33.046  23.667  22.725  1.00  0.00     0.050 A 
ATOM     11  C   UNL A   1      33.174  23.788  21.342  1.00  0.00     0.043 A 
ATOM     12  C   UNL A   1      32.269  26.014  21.493  1.00  0.00     0.053 A 
ATOM     13  C   UNL A   1      32.769  24.959  20.736  1.00  0.00     0.124 A 
ATOM     14  F   UNL A   1      32.887  25.099  19.410  1.00  0.00    -0.207 F 
BRANCH   9  15
ATOM     15  O   UNL A   1      32.402  24.662  24.860  1.00  0.00    -0.496 OA
ATOM     16  C   UNL A   1      32.040  23.385  25.373  1.00  0.00     0.278 C 
ENDBRANCH   9  15
ENDBRANCH   7   8
BRANCH   7  17
ATOM     17  N   UNL A   1      30.657  27.952  23.206  1.00  0.00    -0.322 N 
ATOM     18  C   UNL A   1      29.374  27.335  23.544  1.00  0.00     0.333 C 
ATOM     19  H   UNL A   1      30.874  27.842  22.216  1.00  0.00     0.348 HD
BRANCH  17  20
ATOM     20  C   UNL A   1      30.641  29.421  23.102  1.00  0.00     0.285 C 
BRANCH  20  21
ATOM     21  C   UNL A   1      29.352  30.251  23.232  1.00  0.00     0.184 C 
BRANCH  21  22
ATOM     22  N   UNL A   1      28.957  31.307  22.297  1.00  0.00    -0.330 N 
ATOM     23  C   UNL A   1      28.402  30.941  21.078  1.00  0.00     0.107 A 
ATOM     24  C   UNL A   1      28.739  32.675  22.392  1.00  0.00     0.105 A 
ATOM     25  C   UNL A   1      27.764  32.045  20.586  1.00  0.00     0.131 A 
ATOM     26  N   UNL A   1      27.966  33.099  21.410  1.00  0.00    -0.242 NA
ATOM     27  C   UNL A   1      29.238  33.667  23.363  1.00  0.00     0.087 C 
ENDBRANCH  21  22
ENDBRANCH  20  21
ENDBRANCH  17  20
ENDBRANCH   7  17
ENDBRANCH   4   7
ENDBRANCH   2   3
ENDBRANCH   1   2
BRANCH   1  28
ATOM     28  C   UNL A   1      31.991  31.621  26.790  1.00  0.00     0.023 C 
BRANCH  28  29
ATOM     29  C   UNL A   1      33.092  32.515  27.358  1.00  0.00     0.116 C 
BRANCH  29  30
ATOM     30  N   UNL A   1      32.642  33.862  27.705  1.00  0.00    -0.352 N 
ATOM     31  C   UNL A   1      33.150  34.760  28.619  1.00  0.00     0.251 C 
ATOM     32  H   UNL A   1      31.852  34.176  27.208  1.00  0.00     0.163 HD
ATOM     33  O   UNL A   1      32.625  35.848  28.762  1.00  0.00    -0.269 OA
BRANCH  31  34
ATOM     34  C   UNL A   1      34.290  34.357  29.470  1.00  0.00     0.039 A 
ATOM     35  C   UNL A   1      34.018  33.708  30.677  1.00  0.00     0.014 A 
ATOM     36  C   UNL A   1      35.606  34.545  29.049  1.00  0.00     0.014 A 
ATOM     37  C   UNL A   1      35.068  33.162  31.415  1.00  0.00     0.010 A 
ATOM     38  C   UNL A   1      36.637  33.915  29.731  1.00  0.00     0.010 A 
ATOM     39  C   UNL A   1      36.381  33.219  30.920  1.00  0.00    -0.014 A 
BRANCH  39  40
ATOM     40  C   UNL A   1      37.503  32.560  31.632  1.00  0.00     0.031 A 
ATOM     41  C   UNL A   1      38.220  31.408  30.985  1.00  0.00     0.074 A 
ATOM     42  C   UNL A   1      37.815  32.951  32.885  1.00  0.00     0.049 A 
ATOM     43  N   UNL A   1      39.187  30.671  31.462  1.00  0.00    -0.248 NA
ATOM     44  C   UNL A   1      37.770  31.003  29.640  1.00  0.00     0.031 C 
ATOM     45  C   UNL A   1      37.123  33.994  33.645  1.00  0.00     0.029 A 
ATOM     46  N   UNL A   1      38.791  32.511  33.745  1.00  0.00    -0.354 N 
ATOM     47  C   UNL A   1      39.434  29.702  30.499  1.00  0.00     0.074 A 
ATOM     48  C   UNL A   1      38.481  29.906  29.433  1.00  0.00     0.031 C 
ATOM     49  C   UNL A   1      37.718  34.141  34.840  1.00  0.00     0.029 A 
ATOM     50  C   UNL A   1      38.820  33.190  34.942  1.00  0.00     0.049 A 
ATOM     51  H   UNL A   1      39.411  31.780  33.526  1.00  0.00     0.167 HD
ATOM     52  C   UNL A   1      40.403  28.759  30.479  1.00  0.00     0.034 A 
ATOM     53  C   UNL A   1      39.659  33.071  35.991  1.00  0.00     0.034 A 
ATOM     54  C   UNL A   1      41.397  28.623  31.503  1.00  0.00     0.049 A 
ATOM     55  C   UNL A   1      40.783  32.073  35.903  1.00  0.00     0.074 A 
ATOM     56  C   UNL A   1      42.468  27.750  31.549  1.00  0.00     0.029 A 
ATOM     57  N   UNL A   1      41.457  29.401  32.649  1.00  0.00    -0.354 N 
ATOM     58  N   UNL A   1      41.077  31.252  34.924  1.00  0.00    -0.248 NA
ATOM     59  C   UNL A   1      41.714  32.009  37.039  1.00  0.00     0.031 C 
ATOM     60  C   UNL A   1      43.181  28.005  32.723  1.00  0.00     0.029 A 
ATOM     61  C   UNL A   1      42.558  29.043  33.401  1.00  0.00     0.049 A 
ATOM     62  H   UNL A   1      40.811  30.103  32.890  1.00  0.00     0.167 HD
ATOM     63  C   UNL A   1      42.247  30.607  35.304  1.00  0.00     0.074 A 
ATOM     64  C   UNL A   1      42.615  31.140  36.600  1.00  0.00     0.031 C 
ATOM     65  C   UNL A   1      42.946  29.649  34.648  1.00  0.00     0.034 A 
BRANCH  52  66
ATOM     66  C   UNL A   1      40.501  27.873  29.267  1.00  0.00     0.023 A 
ATOM     67  C   UNL A   1      39.622  26.776  29.149  1.00  0.00     0.012 A 
ATOM     68  C   UNL A   1      41.390  28.164  28.215  1.00  0.00     0.148 A 
ATOM     69  C   UNL A   1      39.642  25.967  28.015  1.00  0.00     0.002 A 
ATOM     70  C   UNL A   1      41.375  27.378  27.068  1.00  0.00     0.091 A 
ATOM     71  F   UNL A   1      42.228  29.200  28.355  1.00  0.00    -0.205 F 
ATOM     72  C   UNL A   1      40.509  26.275  26.971  1.00  0.00     0.022 A 
BRANCH  70  73
ATOM     73  S   UNL A   1      42.396  27.730  25.633  1.00  0.00     0.127 S 
ATOM     74  O   UNL A   1      43.736  27.733  26.217  1.00  0.00    -0.237 OA
ATOM     75  O   UNL A   1      42.110  26.585  24.767  1.00  0.00    -0.237 OA
ATOM     76  O   UNL A   1      41.941  29.013  25.118  1.00  0.00    -0.744 OA
ENDBRANCH  70  73
ENDBRANCH  52  66
BRANCH  53  77
ATOM     77  C   UNL A   1      39.548  34.011  37.144  1.00  0.00     0.023 A 
ATOM     78  C   UNL A   1      39.954  35.350  36.973  1.00  0.00     0.012 A 
ATOM     79  C   UNL A   1      39.001  33.616  38.381  1.00  0.00     0.148 A 
ATOM     80  C   UNL A   1      39.843  36.271  38.016  1.00  0.00     0.002 A 
ATOM     81  C   UNL A   1      38.847  34.551  39.401  1.00  0.00     0.091 A 
ATOM     82  F   UNL A   1      38.633  32.337  38.535  1.00  0.00    -0.205 F 
ATOM     83  C   UNL A   1      39.279  35.875  39.225  1.00  0.00     0.022 A 
BRANCH  81  84
ATOM     84  S   UNL A   1      38.012  34.156  40.943  1.00  0.00     0.127 S 
ATOM     85  O   UNL A   1      37.742  35.485  41.486  1.00  0.00    -0.237 OA
ATOM     86  O   UNL A   1      36.830  33.431  40.477  1.00  0.00    -0.237 OA
ATOM     87  O   UNL A   1      38.956  33.339  41.694  1.00  0.00    -0.744 OA
ENDBRANCH  81  84
ENDBRANCH  53  77
BRANCH  65  88
ATOM     88  C   UNL A   1      44.207  29.128  35.279  1.00  0.00     0.023 A 
ATOM     89  C   UNL A   1      45.415  29.821  35.083  1.00  0.00     0.012 A 
ATOM     90  C   UNL A   1      44.154  28.057  36.194  1.00  0.00     0.148 A 
ATOM     91  C   UNL A   1      46.559  29.452  35.786  1.00  0.00     0.002 A 
ATOM     92  C   UNL A   1      45.288  27.725  36.924  1.00  0.00     0.091 A 
ATOM     93  F   UNL A   1      42.991  27.407  36.351  1.00  0.00    -0.205 F 
ATOM     94  C   UNL A   1      46.492  28.418  36.718  1.00  0.00     0.022 A 
BRANCH  92  95
ATOM     95  S   UNL A   1      45.269  26.480  38.219  1.00  0.00     0.127 S 
ATOM     96  O   UNL A   1      44.265  27.019  39.135  1.00  0.00    -0.237 OA
ATOM     97  O   UNL A   1      44.850  25.282  37.490  1.00  0.00    -0.237 OA
ATOM     98  O   UNL A   1      46.627  26.425  38.745  1.00  0.00    -0.744 OA
ENDBRANCH  92  95
ENDBRANCH  65  88
ENDBRANCH  39  40
ENDBRANCH  31  34
ENDBRANCH  29  30
ENDBRANCH  28  29
ENDBRANCH   1  28
TORSDOF 20
ENDMDL
MODEL 3
REMARK VINA RESULT:     -11.2      5.739      8.608
REMARK SMILES COc1ccc(F)cc1[C@@H](C(=O)NCCCCNC(=O)c1ccc(-c2c3nc(c(-c4cccc(S(=O)(=O)[O-])c4F)c4ccc([nH]4)c(-c4cccc(S(=O)(=O)[O-])c4F)c4nc(c(-c5cccc(S(=O)(=O)[O-])c5F)c5ccc2[nH]5)C=C4)C=C3)cc1)[N@@H+](C)CCn1ccnc1C
REMARK SMILES IDX 15 1 14 2 13 3 11 4 12 5 10 7 9 8 3 9 4 10 5 11 8 12 6 13
REMARK SMILES IDX 7 14 2 15 1 16 84 17 85 18 86 20 87 21 88 22 89 23 92 24
REMARK SMILES IDX 90 25 91 26 93 27 16 28 17 29 18 30 19 31 20 33 21 34 22 35
REMARK SMILES IDX 83 36 23 37 82 38 24 39 25 40 26 41 76 42 27 43 81 44 75 45
REMARK SMILES IDX 77 46 28 47 80 48 74 49 73 50 29 52 61 53 41 54 60 55 42 56
REMARK SMILES IDX 45 57 59 58 78 59 43 60 44 61 58 63 79 64 46 65 30 66 31 67
REMARK SMILES IDX 39 68 32 69 34 70 40 71 33 72 35 73 36 74 37 75 38 76 62 77
REMARK SMILES IDX 63 78 71 79 64 80 66 81 72 82 65 83 67 84 68 85 69 86 70 87
REMARK SMILES IDX 47 88 48 89 56 90 49 91 51 92 57 93 50 94 52 95 53 96 54 97
REMARK SMILES IDX 55 98
REMARK H PARENT 13 6 84 19 18 32 77 51 45 62
REMARK Flexibility Score: inf
ROOT
ATOM      1  C   UNL A   1      32.127  29.978  27.034  1.00  0.00     0.023 C 
ENDROOT
BRANCH   1   2
ATOM      2  C   UNL A   1      33.365  29.321  26.410  1.00  0.00     0.116 C 
BRANCH   2   3
ATOM      3  N   UNL A   1      33.248  27.874  26.464  1.00  0.00    -0.351 N 
ATOM      4  C   UNL A   1      32.663  27.131  25.465  1.00  0.00     0.283 C 
ATOM      5  O   UNL A   1      32.751  27.516  24.294  1.00  0.00    -0.268 OA
ATOM      6  H   UNL A   1      33.604  27.404  27.253  1.00  0.00     0.163 HD
BRANCH   4   7
ATOM      7  C   UNL A   1      31.927  25.781  25.814  1.00  0.00     0.309 C 
BRANCH   7   8
ATOM      8  C   UNL A   1      32.731  24.590  26.369  1.00  0.00     0.064 A 
ATOM      9  C   UNL A   1      32.105  23.565  27.113  1.00  0.00     0.128 A 
ATOM     10  C   UNL A   1      32.862  22.508  27.650  1.00  0.00     0.050 A 
ATOM     11  C   UNL A   1      34.244  22.453  27.471  1.00  0.00     0.043 A 
ATOM     12  C   UNL A   1      34.106  24.426  26.099  1.00  0.00     0.053 A 
ATOM     13  C   UNL A   1      34.852  23.407  26.683  1.00  0.00     0.124 A 
ATOM     14  F   UNL A   1      36.178  23.376  26.501  1.00  0.00    -0.207 F 
BRANCH   9  15
ATOM     15  O   UNL A   1      30.742  23.638  27.213  1.00  0.00    -0.496 OA
ATOM     16  C   UNL A   1      30.005  22.549  26.669  1.00  0.00     0.278 C 
ENDBRANCH   9  15
ENDBRANCH   7   8
BRANCH   7  17
ATOM     17  N   UNL A   1      30.844  25.436  24.862  1.00  0.00    -0.322 N 
ATOM     18  C   UNL A   1      29.697  26.337  24.985  1.00  0.00     0.333 C 
ATOM     19  H   UNL A   1      30.631  24.508  25.229  1.00  0.00     0.348 HD
BRANCH  17  20
ATOM     20  C   UNL A   1      31.089  24.911  23.508  1.00  0.00     0.285 C 
BRANCH  20  21
ATOM     21  C   UNL A   1      31.235  23.408  23.212  1.00  0.00     0.184 C 
BRANCH  21  22
ATOM     22  N   UNL A   1      32.512  22.690  23.217  1.00  0.00    -0.330 N 
ATOM     23  C   UNL A   1      33.608  23.282  22.604  1.00  0.00     0.107 A 
ATOM     24  C   UNL A   1      33.035  21.617  23.926  1.00  0.00     0.105 A 
ATOM     25  C   UNL A   1      34.720  22.646  23.082  1.00  0.00     0.131 A 
ATOM     26  N   UNL A   1      34.354  21.636  23.904  1.00  0.00    -0.242 NA
ATOM     27  C   UNL A   1      32.366  20.511  24.637  1.00  0.00     0.087 C 
ENDBRANCH  21  22
ENDBRANCH  20  21
ENDBRANCH  17  20
ENDBRANCH   7  17
ENDBRANCH   4   7
ENDBRANCH   2   3
ENDBRANCH   1   2
BRANCH   1  28
ATOM     28  C   UNL A   1      31.990  31.486  26.780  1.00  0.00     0.023 C 
BRANCH  28  29
ATOM     29  C   UNL A   1      33.075  32.334  27.441  1.00  0.00     0.116 C 
BRANCH  29  30
ATOM     30  N   UNL A   1      32.668  33.711  27.713  1.00  0.00    -0.352 N 
ATOM     31  C   UNL A   1      33.200  34.641  28.581  1.00  0.00     0.251 C 
ATOM     32  H   UNL A   1      31.891  34.024  27.195  1.00  0.00     0.163 HD
ATOM     33  O   UNL A   1      32.711  35.751  28.663  1.00  0.00    -0.269 OA
BRANCH  31  34
ATOM     34  C   UNL A   1      34.323  34.246  29.460  1.00  0.00     0.039 A 
ATOM     35  C   UNL A   1      34.030  33.540  30.630  1.00  0.00     0.014 A 
ATOM     36  C   UNL A   1      35.645  34.500  29.099  1.00  0.00     0.014 A 
ATOM     37  C   UNL A   1      35.072  33.005  31.386  1.00  0.00     0.010 A 
ATOM     38  C   UNL A   1      36.674  33.883  29.796  1.00  0.00     0.010 A 
ATOM     39  C   UNL A   1      36.400  33.130  30.946  1.00  0.00    -0.014 A 
BRANCH  39  40
ATOM     40  C   UNL A   1      37.519  32.486  31.676  1.00  0.00     0.031 A 
ATOM     41  C   UNL A   1      38.250  31.332  31.048  1.00  0.00     0.074 A 
ATOM     42  C   UNL A   1      37.816  32.891  32.927  1.00  0.00     0.049 A 
ATOM     43  N   UNL A   1      39.216  30.606  31.541  1.00  0.00    -0.248 NA
ATOM     44  C   UNL A   1      37.816  30.911  29.703  1.00  0.00     0.031 C 
ATOM     45  C   UNL A   1      37.110  33.938  33.670  1.00  0.00     0.029 A 
ATOM     46  N   UNL A   1      38.786  32.467  33.801  1.00  0.00    -0.354 N 
ATOM     47  C   UNL A   1      39.479  29.629  30.590  1.00  0.00     0.074 A 
ATOM     48  C   UNL A   1      38.535  29.816  29.513  1.00  0.00     0.031 C 
ATOM     49  C   UNL A   1      37.693  34.100  34.870  1.00  0.00     0.029 A 
ATOM     50  C   UNL A   1      38.800  33.158  34.991  1.00  0.00     0.049 A 
ATOM     51  H   UNL A   1      39.414  31.737  33.595  1.00  0.00     0.167 HD
ATOM     52  C   UNL A   1      40.454  28.692  30.589  1.00  0.00     0.034 A 
ATOM     53  C   UNL A   1      39.629  33.055  36.049  1.00  0.00     0.034 A 
ATOM     54  C   UNL A   1      41.439  28.573  31.624  1.00  0.00     0.049 A 
ATOM     55  C   UNL A   1      40.760  32.063  35.983  1.00  0.00     0.074 A 
ATOM     56  C   UNL A   1      42.515  27.707  31.690  1.00  0.00     0.029 A 
ATOM     57  N   UNL A   1      41.483  29.363  32.763  1.00  0.00    -0.354 N 
ATOM     58  N   UNL A   1      41.069  31.234  35.015  1.00  0.00    -0.248 NA
ATOM     59  C   UNL A   1      41.680  32.017  37.129  1.00  0.00     0.031 C 
ATOM     60  C   UNL A   1      43.215  27.979  32.868  1.00  0.00     0.029 A 
ATOM     61  C   UNL A   1      42.578  29.019  33.530  1.00  0.00     0.049 A 
ATOM     62  H   UNL A   1      40.830  30.063  32.991  1.00  0.00     0.167 HD
ATOM     63  C   UNL A   1      42.240  30.600  35.414  1.00  0.00     0.074 A 
ATOM     64  C   UNL A   1      42.591  31.149  36.707  1.00  0.00     0.031 C 
ATOM     65  C   UNL A   1      42.950  29.640  34.774  1.00  0.00     0.034 A 
BRANCH  52  66
ATOM     66  C   UNL A   1      40.570  27.795  29.387  1.00  0.00     0.023 A 
ATOM     67  C   UNL A   1      39.715  26.678  29.284  1.00  0.00     0.012 A 
ATOM     68  C   UNL A   1      41.451  28.093  28.331  1.00  0.00     0.148 A 
ATOM     69  C   UNL A   1      39.751  25.856  28.159  1.00  0.00     0.002 A 
ATOM     70  C   UNL A   1      41.451  27.294  27.193  1.00  0.00     0.091 A 
ATOM     71  F   UNL A   1      42.266  29.148  28.457  1.00  0.00    -0.205 F 
ATOM     72  C   UNL A   1      40.609  26.171  27.110  1.00  0.00     0.022 A 
BRANCH  70  73
ATOM     73  S   UNL A   1      42.462  27.651  25.752  1.00  0.00     0.127 S 
ATOM     74  O   UNL A   1      42.039  29.012  25.424  1.00  0.00    -0.237 OA
ATOM     75  O   UNL A   1      43.816  27.548  26.296  1.00  0.00    -0.237 OA
ATOM     76  O   UNL A   1      42.123  26.640  24.760  1.00  0.00    -0.744 OA
ENDBRANCH  70  73
ENDBRANCH  52  66
BRANCH  53  77
ATOM     77  C   UNL A   1      39.501  34.006  37.192  1.00  0.00     0.023 A 
ATOM     78  C   UNL A   1      39.875  35.352  37.003  1.00  0.00     0.012 A 
ATOM     79  C   UNL A   1      38.968  33.613  38.436  1.00  0.00     0.148 A 
ATOM     80  C   UNL A   1      39.746  36.282  38.036  1.00  0.00     0.002 A 
ATOM     81  C   UNL A   1      38.797  34.556  39.446  1.00  0.00     0.091 A 
ATOM     82  F   UNL A   1      38.631  32.327  38.607  1.00  0.00    -0.205 F 
ATOM     83  C   UNL A   1      39.197  35.887  39.252  1.00  0.00     0.022 A 
BRANCH  81  84
ATOM     84  S   UNL A   1      37.977  34.160  40.996  1.00  0.00     0.127 S 
ATOM     85  O   UNL A   1      38.978  33.330  41.660  1.00  0.00    -0.237 OA
ATOM     86  O   UNL A   1      37.784  35.484  41.589  1.00  0.00    -0.237 OA
ATOM     87  O   UNL A   1      36.741  33.490  40.617  1.00  0.00    -0.744 OA
ENDBRANCH  81  84
ENDBRANCH  53  77
BRANCH  65  88
ATOM     88  C   UNL A   1      44.208  29.134  35.423  1.00  0.00     0.023 A 
ATOM     89  C   UNL A   1      45.424  29.804  35.190  1.00  0.00     0.012 A 
ATOM     90  C   UNL A   1      44.149  28.106  36.384  1.00  0.00     0.148 A 
ATOM     91  C   UNL A   1      46.567  29.454  35.905  1.00  0.00     0.002 A 
ATOM     92  C   UNL A   1      45.281  27.794  37.124  1.00  0.00     0.091 A 
ATOM     93  F   UNL A   1      42.979  27.477  36.575  1.00  0.00    -0.205 F 
ATOM     94  C   UNL A   1      46.492  28.463  36.882  1.00  0.00     0.022 A 
BRANCH  92  95
ATOM     95  S   UNL A   1      45.255  26.608  38.473  1.00  0.00     0.127 S 
ATOM     96  O   UNL A   1      46.196  27.210  39.416  1.00  0.00    -0.237 OA
ATOM     97  O   UNL A   1      43.855  26.652  38.896  1.00  0.00    -0.237 OA
ATOM     98  O   UNL A   1      45.675  25.336  37.900  1.00  0.00    -0.744 OA
ENDBRANCH  92  95
ENDBRANCH  65  88
ENDBRANCH  39  40
ENDBRANCH  31  34
ENDBRANCH  29  30
ENDBRANCH  28  29
ENDBRANCH   1  28
TORSDOF 20
ENDMDL
