MODEL 1
REMARK VINA RESULT:     -11.9      0.000      0.000
REMARK SMILES CCOC(=O)C1=NN(c2ccc(F)cc2F)[C@@H](C(=O)NCCCCNC(=O)c2ccc(-c3c4nc(c(-c5cccc(S(=O)(=O)[O-])c5F)c5ccc([nH]5)c(-c5cccc(S(=O)(=O)[O-])c5F)c5nc(c(-c6cccc(S(=O)(=O)[O-])c6F)c6ccc3[nH]6)C=C5)C=C4)cc2)C1
REMARK SMILES IDX 22 1 21 2 20 3 18 4 19 5 17 7 6 8 7 9 91 10 8 11 4 12 5 13
REMARK SMILES IDX 3 14 2 15 1 16 9 17 10 18 15 19 11 20 14 21 16 22 12 23
REMARK SMILES IDX 13 24 23 25 24 26 25 27 26 28 27 30 28 31 29 32 90 33 30 34
REMARK SMILES IDX 89 35 31 36 32 37 33 38 83 39 34 40 88 41 82 42 84 43 35 44
REMARK SMILES IDX 87 45 81 46 80 47 36 49 68 50 48 51 67 52 49 53 52 54 66 55
REMARK SMILES IDX 85 56 50 57 51 58 65 60 86 61 53 62 37 63 38 64 46 65 39 66
REMARK SMILES IDX 41 67 47 68 40 69 42 70 43 71 44 72 45 73 69 74 70 75 78 76
REMARK SMILES IDX 71 77 73 78 79 79 72 80 74 81 75 82 76 83 77 84 54 85 55 86
REMARK SMILES IDX 63 87 56 88 58 89 64 90 57 91 59 92 60 93 61 94 62 95
REMARK H PARENT 20 6 25 29 84 48 52 59
REMARK Flexibility Score: inf
ROOT
ATOM      1  C   UNL A   1      30.977  30.613  25.356  1.00  0.00     0.023 C 
ENDROOT
BRANCH   1   2
ATOM      2  C   UNL A   1      32.190  29.690  25.418  1.00  0.00     0.116 C 
BRANCH   2   3
ATOM      3  N   UNL A   1      31.891  28.410  26.030  1.00  0.00    -0.354 N 
ATOM      4  C   UNL A   1      32.042  27.142  25.530  1.00  0.00     0.245 C 
ATOM      5  O   UNL A   1      31.794  26.208  26.292  1.00  0.00    -0.273 OA
ATOM      6  H   UNL A   1      31.523  28.458  26.942  1.00  0.00     0.163 HD
BRANCH   4   7
ATOM      7  C   UNL A   1      32.507  26.968  24.074  1.00  0.00     0.203 C 
ATOM      8  C   UNL A   1      32.571  25.035  22.812  1.00  0.00     0.148 C 
ATOM      9  N   UNL A   1      31.500  25.631  22.391  1.00  0.00    -0.169 NA
ATOM     10  C   UNL A   1      33.319  25.685  23.924  1.00  0.00     0.103 C 
ATOM     11  N   UNL A   1      31.392  26.765  23.142  1.00  0.00    -0.249 N 
BRANCH   8  12
ATOM     12  C   UNL A   1      33.112  23.770  22.219  1.00  0.00     0.354 C 
ATOM     13  O   UNL A   1      33.438  23.686  21.041  1.00  0.00    -0.245 OA
BRANCH  12  14
ATOM     14  O   UNL A   1      33.280  22.861  23.195  1.00  0.00    -0.461 OA
BRANCH  14  15
ATOM     15  C   UNL A   1      32.117  22.091  23.528  1.00  0.00     0.230 C 
ATOM     16  C   UNL A   1      32.487  20.645  23.799  1.00  0.00     0.049 C 
ENDBRANCH  14  15
ENDBRANCH  12  14
ENDBRANCH   8  12
BRANCH  11  17
ATOM     17  C   UNL A   1      30.372  27.682  22.907  1.00  0.00     0.096 A 
ATOM     18  C   UNL A   1      30.615  28.876  22.205  1.00  0.00     0.034 A 
ATOM     19  C   UNL A   1      29.056  27.461  23.362  1.00  0.00     0.151 A 
ATOM     20  C   UNL A   1      29.590  29.798  21.965  1.00  0.00     0.041 A 
ATOM     21  C   UNL A   1      28.036  28.385  23.150  1.00  0.00     0.080 A 
ATOM     22  F   UNL A   1      28.754  26.359  24.069  1.00  0.00    -0.205 F 
ATOM     23  C   UNL A   1      28.313  29.545  22.446  1.00  0.00     0.126 A 
ATOM     24  F   UNL A   1      27.335  30.432  22.220  1.00  0.00    -0.207 F 
ENDBRANCH  11  17
ENDBRANCH   4   7
ENDBRANCH   2   3
ENDBRANCH   1   2
BRANCH   1  25
ATOM     25  C   UNL A   1      31.056  31.874  26.222  1.00  0.00     0.023 C 
BRANCH  25  26
ATOM     26  C   UNL A   1      32.344  32.061  27.023  1.00  0.00     0.116 C 
BRANCH  26  27
ATOM     27  N   UNL A   1      32.646  33.456  27.307  1.00  0.00    -0.352 N 
ATOM     28  C   UNL A   1      33.736  33.996  27.949  1.00  0.00     0.251 C 
ATOM     29  H   UNL A   1      31.975  34.105  26.995  1.00  0.00     0.163 HD
ATOM     30  O   UNL A   1      33.770  35.201  28.183  1.00  0.00    -0.269 OA
BRANCH  28  31
ATOM     31  C   UNL A   1      34.844  33.122  28.393  1.00  0.00     0.039 A 
ATOM     32  C   UNL A   1      36.159  33.560  28.209  1.00  0.00     0.014 A 
ATOM     33  C   UNL A   1      34.591  31.894  29.010  1.00  0.00     0.014 A 
ATOM     34  C   UNL A   1      37.219  32.812  28.730  1.00  0.00     0.010 A 
ATOM     35  C   UNL A   1      35.644  31.171  29.568  1.00  0.00     0.010 A 
ATOM     36  C   UNL A   1      36.964  31.636  29.454  1.00  0.00    -0.014 A 
BRANCH  36  37
ATOM     37  C   UNL A   1      38.049  30.921  30.171  1.00  0.00     0.031 A 
ATOM     38  C   UNL A   1      38.417  31.296  31.578  1.00  0.00     0.074 A 
ATOM     39  C   UNL A   1      38.777  30.003  29.506  1.00  0.00     0.049 A 
ATOM     40  N   UNL A   1      39.395  30.843  32.318  1.00  0.00    -0.248 NA
ATOM     41  C   UNL A   1      37.591  32.323  32.232  1.00  0.00     0.031 C 
ATOM     42  C   UNL A   1      38.560  29.601  28.114  1.00  0.00     0.029 A 
ATOM     43  N   UNL A   1      39.868  29.267  29.897  1.00  0.00    -0.354 N 
ATOM     44  C   UNL A   1      39.323  31.546  33.513  1.00  0.00     0.074 A 
ATOM     45  C   UNL A   1      38.214  32.469  33.394  1.00  0.00     0.031 C 
ATOM     46  C   UNL A   1      39.491  28.697  27.767  1.00  0.00     0.029 A 
ATOM     47  C   UNL A   1      40.385  28.473  28.900  1.00  0.00     0.049 A 
ATOM     48  H   UNL A   1      40.244  29.304  30.806  1.00  0.00     0.167 HD
ATOM     49  C   UNL A   1      40.093  31.415  34.618  1.00  0.00     0.034 A 
ATOM     50  C   UNL A   1      41.460  27.664  28.892  1.00  0.00     0.034 A 
ATOM     51  C   UNL A   1      41.159  30.460  34.759  1.00  0.00     0.049 A 
ATOM     52  C   UNL A   1      42.288  27.527  30.139  1.00  0.00     0.074 A 
ATOM     53  C   UNL A   1      41.923  30.183  35.879  1.00  0.00     0.029 A 
ATOM     54  N   UNL A   1      41.614  29.628  33.749  1.00  0.00    -0.354 N 
ATOM     55  N   UNL A   1      42.106  28.085  31.311  1.00  0.00    -0.248 NA
ATOM     56  C   UNL A   1      43.456  26.637  30.070  1.00  0.00     0.031 C 
ATOM     57  C   UNL A   1      42.841  29.180  35.546  1.00  0.00     0.029 A 
ATOM     58  C   UNL A   1      42.654  28.843  34.215  1.00  0.00     0.049 A 
ATOM     59  H   UNL A   1      41.251  29.601  32.834  1.00  0.00     0.167 HD
ATOM     60  C   UNL A   1      43.122  27.599  32.124  1.00  0.00     0.074 A 
ATOM     61  C   UNL A   1      43.905  26.685  31.318  1.00  0.00     0.031 C 
ATOM     62  C   UNL A   1      43.394  27.901  33.417  1.00  0.00     0.034 A 
BRANCH  49  63
ATOM     63  C   UNL A   1      39.753  32.271  35.805  1.00  0.00     0.023 A 
ATOM     64  C   UNL A   1      40.389  33.521  35.945  1.00  0.00     0.012 A 
ATOM     65  C   UNL A   1      38.775  31.882  36.738  1.00  0.00     0.148 A 
ATOM     66  C   UNL A   1      40.068  34.365  37.005  1.00  0.00     0.002 A 
ATOM     67  C   UNL A   1      38.443  32.740  37.782  1.00  0.00     0.091 A 
ATOM     68  F   UNL A   1      38.205  30.675  36.606  1.00  0.00    -0.205 F 
ATOM     69  C   UNL A   1      39.089  33.980  37.917  1.00  0.00     0.022 A 
BRANCH  67  70
ATOM     70  S   UNL A   1      37.159  32.338  38.972  1.00  0.00     0.127 S 
ATOM     71  O   UNL A   1      37.353  30.900  39.141  1.00  0.00    -0.237 OA
ATOM     72  O   UNL A   1      37.539  33.143  40.134  1.00  0.00    -0.237 OA
ATOM     73  O   UNL A   1      35.907  32.741  38.346  1.00  0.00    -0.744 OA
ENDBRANCH  67  70
ENDBRANCH  49  63
BRANCH  50  74
ATOM     74  C   UNL A   1      41.771  26.864  27.676  1.00  0.00     0.023 A 
ATOM     75  C   UNL A   1      42.418  27.491  26.594  1.00  0.00     0.012 A 
ATOM     76  C   UNL A   1      41.487  25.489  27.601  1.00  0.00     0.148 A 
ATOM     77  C   UNL A   1      42.762  26.764  25.454  1.00  0.00     0.002 A 
ATOM     78  C   UNL A   1      41.876  24.761  26.481  1.00  0.00     0.091 A 
ATOM     79  F   UNL A   1      40.851  24.906  28.629  1.00  0.00    -0.205 F 
ATOM     80  C   UNL A   1      42.503  25.397  25.401  1.00  0.00     0.022 A 
BRANCH  78  81
ATOM     81  S   UNL A   1      41.681  22.975  26.444  1.00  0.00     0.127 S 
ATOM     82  O   UNL A   1      42.317  22.624  25.179  1.00  0.00    -0.237 OA
ATOM     83  O   UNL A   1      42.408  22.544  27.639  1.00  0.00    -0.237 OA
ATOM     84  O   UNL A   1      40.239  22.774  26.528  1.00  0.00    -0.744 OA
ENDBRANCH  78  81
ENDBRANCH  50  74
BRANCH  62  85
ATOM     85  C   UNL A   1      44.591  27.245  34.045  1.00  0.00     0.023 A 
ATOM     86  C   UNL A   1      45.839  27.891  33.974  1.00  0.00     0.012 A 
ATOM     87  C   UNL A   1      44.473  26.041  34.763  1.00  0.00     0.148 A 
ATOM     88  C   UNL A   1      46.958  27.342  34.598  1.00  0.00     0.002 A 
ATOM     89  C   UNL A   1      45.587  25.514  35.410  1.00  0.00     0.091 A 
ATOM     90  F   UNL A   1      43.282  25.424  34.797  1.00  0.00    -0.205 F 
ATOM     91  C   UNL A   1      46.830  26.161  35.326  1.00  0.00     0.022 A 
BRANCH  89  92
ATOM     92  S   UNL A   1      45.472  24.035  36.423  1.00  0.00     0.127 S 
ATOM     93  O   UNL A   1      44.430  24.405  37.380  1.00  0.00    -0.237 OA
ATOM     94  O   UNL A   1      45.073  23.011  35.456  1.00  0.00    -0.237 OA
ATOM     95  O   UNL A   1      46.806  23.843  36.976  1.00  0.00    -0.744 OA
ENDBRANCH  89  92
ENDBRANCH  62  85
ENDBRANCH  36  37
ENDBRANCH  28  31
ENDBRANCH  26  27
ENDBRANCH  25  26
ENDBRANCH   1  25
TORSDOF 18
ENDMDL
MODEL 2
REMARK VINA RESULT:     -11.8      1.754      7.752
REMARK SMILES CCOC(=O)C1=NN(c2ccc(F)cc2F)[C@@H](C(=O)NCCCCNC(=O)c2ccc(-c3c4nc(c(-c5cccc(S(=O)(=O)[O-])c5F)c5ccc([nH]5)c(-c5cccc(S(=O)(=O)[O-])c5F)c5nc(c(-c6cccc(S(=O)(=O)[O-])c6F)c6ccc3[nH]6)C=C5)C=C4)cc2)C1
REMARK SMILES IDX 22 1 21 2 20 3 18 4 19 5 17 7 6 8 7 9 91 10 8 11 4 12 5 13
REMARK SMILES IDX 3 14 2 15 1 16 9 17 10 18 15 19 11 20 14 21 16 22 12 23
REMARK SMILES IDX 13 24 23 25 24 26 25 27 26 28 27 30 28 31 29 32 90 33 30 34
REMARK SMILES IDX 89 35 31 36 32 37 33 38 83 39 34 40 88 41 82 42 84 43 35 44
REMARK SMILES IDX 87 45 81 46 80 47 36 49 68 50 48 51 67 52 49 53 52 54 66 55
REMARK SMILES IDX 85 56 50 57 51 58 65 60 86 61 53 62 37 63 38 64 46 65 39 66
REMARK SMILES IDX 41 67 47 68 40 69 42 70 43 71 44 72 45 73 69 74 70 75 78 76
REMARK SMILES IDX 71 77 73 78 79 79 72 80 74 81 75 82 76 83 77 84 54 85 55 86
REMARK SMILES IDX 63 87 56 88 58 89 64 90 57 91 59 92 60 93 61 94 62 95
REMARK H PARENT 20 6 25 29 84 48 52 59
REMARK Flexibility Score: inf
ROOT
ATOM      1  C   UNL A   1      32.258  29.585  26.098  1.00  0.00     0.023 C 
ENDROOT
BRANCH   1   2
ATOM      2  C   UNL A   1      32.485  28.428  27.065  1.00  0.00     0.116 C 
BRANCH   2   3
ATOM      3  N   UNL A   1      31.364  27.510  27.115  1.00  0.00    -0.354 N 
ATOM      4  C   UNL A   1      31.036  26.480  26.271  1.00  0.00     0.245 C 
ATOM      5  O   UNL A   1      30.069  25.786  26.586  1.00  0.00    -0.273 OA
ATOM      6  H   UNL A   1      30.744  27.646  27.868  1.00  0.00     0.163 HD
BRANCH   4   7
ATOM      7  C   UNL A   1      31.883  26.257  25.006  1.00  0.00     0.203 C 
ATOM      8  C   UNL A   1      32.023  24.363  23.691  1.00  0.00     0.148 C 
ATOM      9  N   UNL A   1      31.232  25.137  23.017  1.00  0.00    -0.169 NA
ATOM     10  C   UNL A   1      32.495  24.859  25.013  1.00  0.00     0.103 C 
ATOM     11  N   UNL A   1      31.080  26.259  23.777  1.00  0.00    -0.249 N 
BRANCH   8  12
ATOM     12  C   UNL A   1      32.516  23.037  23.199  1.00  0.00     0.354 C 
ATOM     13  O   UNL A   1      33.018  22.896  22.090  1.00  0.00    -0.245 OA
BRANCH  12  14
ATOM     14  O   UNL A   1      32.425  22.136  24.191  1.00  0.00    -0.461 OA
BRANCH  14  15
ATOM     15  C   UNL A   1      32.721  20.781  23.824  1.00  0.00     0.230 C 
ATOM     16  C   UNL A   1      32.618  19.862  25.026  1.00  0.00     0.049 C 
ENDBRANCH  14  15
ENDBRANCH  12  14
ENDBRANCH   8  12
BRANCH  11  17
ATOM     17  C   UNL A   1      30.330  27.338  23.317  1.00  0.00     0.096 A 
ATOM     18  C   UNL A   1      30.946  28.442  22.702  1.00  0.00     0.034 A 
ATOM     19  C   UNL A   1      28.927  27.376  23.448  1.00  0.00     0.151 A 
ATOM     20  C   UNL A   1      30.194  29.526  22.235  1.00  0.00     0.041 A 
ATOM     21  C   UNL A   1      28.174  28.462  23.010  1.00  0.00     0.080 A 
ATOM     22  F   UNL A   1      28.271  26.373  24.056  1.00  0.00    -0.205 F 
ATOM     23  C   UNL A   1      28.816  29.527  22.400  1.00  0.00     0.126 A 
ATOM     24  F   UNL A   1      28.100  30.568  21.958  1.00  0.00    -0.207 F 
ENDBRANCH  11  17
ENDBRANCH   4   7
ENDBRANCH   2   3
ENDBRANCH   1   2
BRANCH   1  25
ATOM     25  C   UNL A   1      31.841  30.914  26.737  1.00  0.00     0.023 C 
BRANCH  25  26
ATOM     26  C   UNL A   1      32.975  31.795  27.258  1.00  0.00     0.116 C 
BRANCH  26  27
ATOM     27  N   UNL A   1      32.579  33.180  27.463  1.00  0.00    -0.352 N 
ATOM     28  C   UNL A   1      33.105  34.118  28.321  1.00  0.00     0.251 C 
ATOM     29  H   UNL A   1      31.827  33.490  26.909  1.00  0.00     0.163 HD
ATOM     30  O   UNL A   1      32.570  35.218  28.424  1.00  0.00    -0.269 OA
BRANCH  28  31
ATOM     31  C   UNL A   1      34.287  33.787  29.147  1.00  0.00     0.039 A 
ATOM     32  C   UNL A   1      34.109  32.999  30.288  1.00  0.00     0.014 A 
ATOM     33  C   UNL A   1      35.565  34.225  28.786  1.00  0.00     0.014 A 
ATOM     34  C   UNL A   1      35.223  32.569  31.015  1.00  0.00     0.010 A 
ATOM     35  C   UNL A   1      36.677  33.760  29.485  1.00  0.00     0.010 A 
ATOM     36  C   UNL A   1      36.517  32.909  30.591  1.00  0.00    -0.014 A 
BRANCH  36  37
ATOM     37  C   UNL A   1      37.719  32.320  31.232  1.00  0.00     0.031 A 
ATOM     38  C   UNL A   1      38.428  31.152  30.610  1.00  0.00     0.074 A 
ATOM     39  C   UNL A   1      38.103  32.775  32.440  1.00  0.00     0.049 A 
ATOM     40  N   UNL A   1      39.432  30.457  31.079  1.00  0.00    -0.248 NA
ATOM     41  C   UNL A   1      37.937  30.695  29.299  1.00  0.00     0.031 C 
ATOM     42  C   UNL A   1      37.454  33.861  33.179  1.00  0.00     0.029 A 
ATOM     43  N   UNL A   1      39.110  32.362  33.277  1.00  0.00    -0.354 N 
ATOM     44  C   UNL A   1      39.676  29.464  30.140  1.00  0.00     0.074 A 
ATOM     45  C   UNL A   1      38.705  29.636  29.079  1.00  0.00     0.031 C 
ATOM     46  C   UNL A   1      38.073  34.023  34.360  1.00  0.00     0.029 A 
ATOM     47  C   UNL A   1      39.146  33.039  34.474  1.00  0.00     0.049 A 
ATOM     48  H   UNL A   1      39.746  31.648  33.042  1.00  0.00     0.167 HD
ATOM     49  C   UNL A   1      40.639  28.513  30.146  1.00  0.00     0.034 A 
ATOM     50  C   UNL A   1      39.945  32.883  35.546  1.00  0.00     0.034 A 
ATOM     51  C   UNL A   1      41.640  28.376  31.171  1.00  0.00     0.049 A 
ATOM     52  C   UNL A   1      41.016  31.828  35.519  1.00  0.00     0.074 A 
ATOM     53  C   UNL A   1      42.719  27.510  31.208  1.00  0.00     0.029 A 
ATOM     54  N   UNL A   1      41.684  29.120  32.338  1.00  0.00    -0.354 N 
ATOM     55  N   UNL A   1      41.331  31.003  34.551  1.00  0.00    -0.248 NA
ATOM     56  C   UNL A   1      41.853  31.696  36.721  1.00  0.00     0.031 C 
ATOM     57  C   UNL A   1      43.418  27.733  32.400  1.00  0.00     0.029 A 
ATOM     58  C   UNL A   1      42.765  28.729  33.108  1.00  0.00     0.049 A 
ATOM     59  H   UNL A   1      41.040  29.823  32.584  1.00  0.00     0.167 HD
ATOM     60  C   UNL A   1      42.414  30.268  35.018  1.00  0.00     0.074 A 
ATOM     61  C   UNL A   1      42.714  30.759  36.347  1.00  0.00     0.031 C 
ATOM     62  C   UNL A   1      43.084  29.260  34.407  1.00  0.00     0.034 A 
BRANCH  49  63
ATOM     63  C   UNL A   1      40.714  27.594  28.960  1.00  0.00     0.023 A 
ATOM     64  C   UNL A   1      39.790  26.535  28.864  1.00  0.00     0.012 A 
ATOM     65  C   UNL A   1      41.641  27.805  27.923  1.00  0.00     0.148 A 
ATOM     66  C   UNL A   1      39.796  25.688  27.757  1.00  0.00     0.002 A 
ATOM     67  C   UNL A   1      41.625  26.969  26.810  1.00  0.00     0.091 A 
ATOM     68  F   UNL A   1      42.533  28.798  28.050  1.00  0.00    -0.205 F 
ATOM     69  C   UNL A   1      40.705  25.911  26.727  1.00  0.00     0.022 A 
BRANCH  67  70
ATOM     70  S   UNL A   1      42.734  27.217  25.419  1.00  0.00     0.127 S 
ATOM     71  O   UNL A   1      42.171  28.417  24.803  1.00  0.00    -0.237 OA
ATOM     72  O   UNL A   1      44.027  27.420  26.075  1.00  0.00    -0.237 OA
ATOM     73  O   UNL A   1      42.647  25.997  24.628  1.00  0.00    -0.744 OA
ENDBRANCH  67  70
ENDBRANCH  49  63
BRANCH  50  74
ATOM     74  C   UNL A   1      39.805  33.800  36.709  1.00  0.00     0.023 A 
ATOM     75  C   UNL A   1      40.210  35.141  36.573  1.00  0.00     0.012 A 
ATOM     76  C   UNL A   1      39.228  33.378  37.920  1.00  0.00     0.148 A 
ATOM     77  C   UNL A   1      40.056  36.041  37.628  1.00  0.00     0.002 A 
ATOM     78  C   UNL A   1      39.034  34.292  38.952  1.00  0.00     0.091 A 
ATOM     79  F   UNL A   1      38.865  32.093  38.046  1.00  0.00    -0.205 F 
ATOM     80  C   UNL A   1      39.457  35.621  38.813  1.00  0.00     0.022 A 
BRANCH  78  81
ATOM     81  S   UNL A   1      38.140  33.814  40.435  1.00  0.00     0.127 S 
ATOM     82  O   UNL A   1      37.988  35.090  41.125  1.00  0.00    -0.237 OA
ATOM     83  O   UNL A   1      36.898  33.252  39.899  1.00  0.00    -0.237 OA
ATOM     84  O   UNL A   1      39.007  32.827  41.068  1.00  0.00    -0.744 OA
ENDBRANCH  78  81
ENDBRANCH  50  74
BRANCH  62  85
ATOM     85  C   UNL A   1      44.206  28.613  35.168  1.00  0.00     0.023 A 
ATOM     86  C   UNL A   1      45.517  29.096  34.995  1.00  0.00     0.012 A 
ATOM     87  C   UNL A   1      43.962  27.587  36.100  1.00  0.00     0.148 A 
ATOM     88  C   UNL A   1      46.572  28.560  35.730  1.00  0.00     0.002 A 
ATOM     89  C   UNL A   1      45.016  27.078  36.853  1.00  0.00     0.091 A 
ATOM     90  F   UNL A   1      42.713  27.119  36.231  1.00  0.00    -0.205 F 
ATOM     91  C   UNL A   1      46.321  27.560  36.667  1.00  0.00     0.022 A 
BRANCH  89  92
ATOM     92  S   UNL A   1      44.747  25.840  38.127  1.00  0.00     0.127 S 
ATOM     93  O   UNL A   1      44.156  24.744  37.363  1.00  0.00    -0.237 OA
ATOM     94  O   UNL A   1      46.102  25.581  38.616  1.00  0.00    -0.237 OA
ATOM     95  O   UNL A   1      43.874  26.478  39.105  1.00  0.00    -0.744 OA
ENDBRANCH  89  92
ENDBRANCH  62  85
ENDBRANCH  36  37
ENDBRANCH  28  31
ENDBRANCH  26  27
ENDBRANCH  25  26
ENDBRANCH   1  25
TORSDOF 18
ENDMDL
MODEL 3
REMARK VINA RESULT:     -11.7      2.916      4.004
REMARK SMILES CCOC(=O)C1=NN(c2ccc(F)cc2F)[C@@H](C(=O)NCCCCNC(=O)c2ccc(-c3c4nc(c(-c5cccc(S(=O)(=O)[O-])c5F)c5ccc([nH]5)c(-c5cccc(S(=O)(=O)[O-])c5F)c5nc(c(-c6cccc(S(=O)(=O)[O-])c6F)c6ccc3[nH]6)C=C5)C=C4)cc2)C1
REMARK SMILES IDX 22 1 21 2 20 3 18 4 19 5 17 7 6 8 7 9 91 10 8 11 4 12 5 13
REMARK SMILES IDX 3 14 2 15 1 16 9 17 10 18 15 19 11 20 14 21 16 22 12 23
REMARK SMILES IDX 13 24 23 25 24 26 25 27 26 28 27 30 28 31 29 32 90 33 30 34
REMARK SMILES IDX 89 35 31 36 32 37 33 38 83 39 34 40 88 41 82 42 84 43 35 44
REMARK SMILES IDX 87 45 81 46 80 47 36 49 68 50 48 51 67 52 49 53 52 54 66 55
REMARK SMILES IDX 85 56 50 57 51 58 65 60 86 61 53 62 37 63 38 64 46 65 39 66
REMARK SMILES IDX 41 67 47 68 40 69 42 70 43 71 44 72 45 73 69 74 70 75 78 76
REMARK SMILES IDX 71 77 73 78 79 79 72 80 74 81 75 82 76 83 77 84 54 85 55 86
REMARK SMILES IDX 63 87 56 88 58 89 64 90 57 91 59 92 60 93 61 94 62 95
REMARK H PARENT 20 6 25 29 84 48 52 59
REMARK Flexibility Score: inf
ROOT
ATOM      1  C   UNL A   1      33.772  26.737  24.123  1.00  0.00     0.023 C 
ENDROOT
BRANCH   1   2
ATOM      2  C   UNL A   1      34.414  25.370  23.903  1.00  0.00     0.116 C 
BRANCH   2   3
ATOM      3  N   UNL A   1      34.775  24.713  25.143  1.00  0.00    -0.354 N 
ATOM      4  C   UNL A   1      34.636  23.400  25.512  1.00  0.00     0.245 C 
ATOM      5  O   UNL A   1      35.107  23.072  26.602  1.00  0.00    -0.273 OA
ATOM      6  H   UNL A   1      35.181  25.297  25.824  1.00  0.00     0.163 HD
BRANCH   4   7
ATOM      7  C   UNL A   1      33.914  22.432  24.559  1.00  0.00     0.203 C 
ATOM      8  C   UNL A   1      33.086  20.324  25.013  1.00  0.00     0.148 C 
ATOM      9  N   UNL A   1      32.029  21.073  25.042  1.00  0.00    -0.169 NA
ATOM     10  C   UNL A   1      34.393  21.001  24.788  1.00  0.00     0.103 C 
ATOM     11  N   UNL A   1      32.473  22.344  24.822  1.00  0.00    -0.249 N 
BRANCH   8  12
ATOM     12  C   UNL A   1      33.058  18.832  25.147  1.00  0.00     0.354 C 
ATOM     13  O   UNL A   1      32.271  18.256  25.888  1.00  0.00    -0.245 OA
BRANCH  12  14
ATOM     14  O   UNL A   1      33.913  18.293  24.261  1.00  0.00    -0.461 OA
BRANCH  14  15
ATOM     15  C   UNL A   1      33.342  17.339  23.354  1.00  0.00     0.230 C 
ATOM     16  C   UNL A   1      32.389  18.017  22.389  1.00  0.00     0.049 C 
ENDBRANCH  14  15
ENDBRANCH  12  14
ENDBRANCH   8  12
BRANCH  11  17
ATOM     17  C   UNL A   1      31.578  23.406  24.728  1.00  0.00     0.096 A 
ATOM     18  C   UNL A   1      31.127  23.868  23.478  1.00  0.00     0.034 A 
ATOM     19  C   UNL A   1      31.089  24.068  25.872  1.00  0.00     0.151 A 
ATOM     20  C   UNL A   1      30.226  24.934  23.381  1.00  0.00     0.041 A 
ATOM     21  C   UNL A   1      30.212  25.146  25.783  1.00  0.00     0.080 A 
ATOM     22  F   UNL A   1      31.501  23.707  27.099  1.00  0.00    -0.205 F 
ATOM     23  C   UNL A   1      29.783  25.565  24.535  1.00  0.00     0.126 A 
ATOM     24  F   UNL A   1      28.925  26.589  24.438  1.00  0.00    -0.207 F 
ENDBRANCH  11  17
ENDBRANCH   4   7
ENDBRANCH   2   3
ENDBRANCH   1   2
BRANCH   1  25
ATOM     25  C   UNL A   1      33.387  27.064  25.570  1.00  0.00     0.023 C 
BRANCH  25  26
ATOM     26  C   UNL A   1      34.386  27.911  26.357  1.00  0.00     0.116 C 
BRANCH  26  27
ATOM     27  N   UNL A   1      33.877  29.230  26.699  1.00  0.00    -0.352 N 
ATOM     28  C   UNL A   1      34.439  30.200  27.496  1.00  0.00     0.251 C 
ATOM     29  H   UNL A   1      33.005  29.462  26.304  1.00  0.00     0.163 HD
ATOM     30  O   UNL A   1      33.809  31.223  27.749  1.00  0.00    -0.269 OA
BRANCH  28  31
ATOM     31  C   UNL A   1      35.782  29.992  28.081  1.00  0.00     0.039 A 
ATOM     32  C   UNL A   1      35.877  29.527  29.397  1.00  0.00     0.014 A 
ATOM     33  C   UNL A   1      36.939  30.226  27.332  1.00  0.00     0.014 A 
ATOM     34  C   UNL A   1      37.129  29.205  29.930  1.00  0.00     0.010 A 
ATOM     35  C   UNL A   1      38.181  29.863  27.849  1.00  0.00     0.010 A 
ATOM     36  C   UNL A   1      38.284  29.327  29.142  1.00  0.00    -0.014 A 
BRANCH  36  37
ATOM     37  C   UNL A   1      39.597  28.823  29.616  1.00  0.00     0.031 A 
ATOM     38  C   UNL A   1      40.352  29.542  30.696  1.00  0.00     0.074 A 
ATOM     39  C   UNL A   1      40.159  27.772  28.986  1.00  0.00     0.049 A 
ATOM     40  N   UNL A   1      41.549  29.296  31.164  1.00  0.00    -0.248 NA
ATOM     41  C   UNL A   1      39.685  30.695  31.322  1.00  0.00     0.031 C 
ATOM     42  C   UNL A   1      39.555  27.031  27.877  1.00  0.00     0.029 A 
ATOM     43  N   UNL A   1      41.377  27.166  29.164  1.00  0.00    -0.354 N 
ATOM     44  C   UNL A   1      41.792  30.277  32.116  1.00  0.00     0.074 A 
ATOM     45  C   UNL A   1      40.624  31.133  32.150  1.00  0.00     0.031 C 
ATOM     46  C   UNL A   1      40.406  26.076  27.470  1.00  0.00     0.029 A 
ATOM     47  C   UNL A   1      41.625  26.150  28.270  1.00  0.00     0.049 A 
ATOM     48  H   UNL A   1      42.014  27.433  29.866  1.00  0.00     0.167 HD
ATOM     49  C   UNL A   1      42.877  30.434  32.910  1.00  0.00     0.034 A 
ATOM     50  C   UNL A   1      42.711  25.372  28.104  1.00  0.00     0.034 A 
ATOM     51  C   UNL A   1      44.013  29.552  32.917  1.00  0.00     0.049 A 
ATOM     52  C   UNL A   1      43.896  25.560  29.011  1.00  0.00     0.074 A 
ATOM     53  C   UNL A   1      45.110  29.571  33.761  1.00  0.00     0.029 A 
ATOM     54  N   UNL A   1      44.201  28.496  32.041  1.00  0.00    -0.354 N 
ATOM     55  N   UNL A   1      44.040  26.393  30.012  1.00  0.00    -0.248 NA
ATOM     56  C   UNL A   1      45.057  24.689  28.778  1.00  0.00     0.031 C 
ATOM     57  C   UNL A   1      45.963  28.523  33.394  1.00  0.00     0.029 A 
ATOM     58  C   UNL A   1      45.400  27.861  32.315  1.00  0.00     0.049 A 
ATOM     59  H   UNL A   1      43.574  28.237  31.327  1.00  0.00     0.167 HD
ATOM     60  C   UNL A   1      45.298  26.134  30.541  1.00  0.00     0.074 A 
ATOM     61  C   UNL A   1      45.868  25.052  29.764  1.00  0.00     0.031 C 
ATOM     62  C   UNL A   1      45.933  26.754  31.566  1.00  0.00     0.034 A 
BRANCH  49  63
ATOM     63  C   UNL A   1      42.850  31.558  33.905  1.00  0.00     0.023 A 
ATOM     64  C   UNL A   1      43.402  32.802  33.538  1.00  0.00     0.012 A 
ATOM     65  C   UNL A   1      42.237  31.415  35.163  1.00  0.00     0.148 A 
ATOM     66  C   UNL A   1      43.356  33.884  34.415  1.00  0.00     0.002 A 
ATOM     67  C   UNL A   1      42.174  32.506  36.024  1.00  0.00     0.091 A 
ATOM     68  F   UNL A   1      41.747  30.214  35.506  1.00  0.00    -0.205 F 
ATOM     69  C   UNL A   1      42.734  33.740  35.652  1.00  0.00     0.022 A 
BRANCH  67  70
ATOM     70  S   UNL A   1      41.350  32.415  37.617  1.00  0.00     0.127 S 
ATOM     71  O   UNL A   1      42.215  31.489  38.345  1.00  0.00    -0.237 OA
ATOM     72  O   UNL A   1      41.410  33.800  38.086  1.00  0.00    -0.237 OA
ATOM     73  O   UNL A   1      40.004  31.935  37.333  1.00  0.00    -0.744 OA
ENDBRANCH  67  70
ENDBRANCH  49  63
BRANCH  50  74
ATOM     74  C   UNL A   1      42.696  24.295  27.079  1.00  0.00     0.023 A 
ATOM     75  C   UNL A   1      43.378  24.499  25.865  1.00  0.00     0.012 A 
ATOM     76  C   UNL A   1      42.065  23.059  27.310  1.00  0.00     0.148 A 
ATOM     77  C   UNL A   1      43.421  23.496  24.895  1.00  0.00     0.002 A 
ATOM     78  C   UNL A   1      42.152  22.047  26.360  1.00  0.00     0.091 A 
ATOM     79  F   UNL A   1      41.400  22.883  28.462  1.00  0.00    -0.205 F 
ATOM     80  C   UNL A   1      42.819  22.266  25.147  1.00  0.00     0.022 A 
BRANCH  78  81
ATOM     81  S   UNL A   1      41.507  20.408  26.714  1.00  0.00     0.127 S 
ATOM     82  O   UNL A   1      42.266  20.030  27.900  1.00  0.00    -0.237 OA
ATOM     83  O   UNL A   1      40.084  20.663  26.948  1.00  0.00    -0.237 OA
ATOM     84  O   UNL A   1      41.776  19.651  25.496  1.00  0.00    -0.744 OA
ENDBRANCH  78  81
ENDBRANCH  50  74
BRANCH  62  85
ATOM     85  C   UNL A   1      47.319  26.285  31.908  1.00  0.00     0.023 A 
ATOM     86  C   UNL A   1      48.416  26.839  31.220  1.00  0.00     0.012 A 
ATOM     87  C   UNL A   1      47.545  25.364  32.947  1.00  0.00     0.148 A 
ATOM     88  C   UNL A   1      49.718  26.473  31.553  1.00  0.00     0.002 A 
ATOM     89  C   UNL A   1      48.849  25.027  33.295  1.00  0.00     0.091 A 
ATOM     90  F   UNL A   1      46.488  24.826  33.572  1.00  0.00    -0.205 F 
ATOM     91  C   UNL A   1      49.936  25.577  32.598  1.00  0.00     0.022 A 
BRANCH  89  92
ATOM     92  S   UNL A   1      49.199  23.935  34.678  1.00  0.00     0.127 S 
ATOM     93  O   UNL A   1      50.657  23.835  34.622  1.00  0.00    -0.237 OA
ATOM     94  O   UNL A   1      48.684  24.689  35.822  1.00  0.00    -0.237 OA
ATOM     95  O   UNL A   1      48.465  22.708  34.395  1.00  0.00    -0.744 OA
ENDBRANCH  89  92
ENDBRANCH  62  85
ENDBRANCH  36  37
ENDBRANCH  28  31
ENDBRANCH  26  27
ENDBRANCH  25  26
ENDBRANCH   1  25
TORSDOF 18
ENDMDL
