MODEL 1
REMARK VINA RESULT:     -12.9      0.000      0.000
REMARK SMILES Cc1ccc2c(c1)C=C(C(=O)NCCCCNC(=O)c1ccc(-c3c4nc(c(-c5cccc(S(=O)(=O)[O-])c5F)c5ccc([nH]5)c(-c5cccc(S(=O)(=O)[O-])c5F)c5nc(c(-c6cccc(S(=O)(=O)[O-])c6F)c6ccc3[nH]6)C=C5)C=C4)cc1)[C@@H](C(F)(F)F)O2
REMARK SMILES IDX 15 1 14 2 13 3 12 4 10 5 11 6 9 8 1 9 2 10 3 11 7 12 4 13
REMARK SMILES IDX 6 14 5 15 8 16 88 17 83 18 84 19 85 20 86 21 87 22 16 23
REMARK SMILES IDX 17 24 18 25 19 27 20 28 21 29 82 30 22 31 81 32 23 33 24 34
REMARK SMILES IDX 25 35 75 36 26 37 80 38 74 39 76 40 27 41 79 42 73 43 72 44
REMARK SMILES IDX 28 46 60 47 40 48 59 49 41 50 44 51 58 52 77 53 42 54 43 55
REMARK SMILES IDX 57 57 78 58 45 59 29 60 30 61 38 62 31 63 33 64 39 65 32 66
REMARK SMILES IDX 34 67 35 68 36 69 37 70 61 71 62 72 70 73 63 74 65 75 71 76
REMARK SMILES IDX 64 77 66 78 67 79 68 80 69 81 46 82 47 83 55 84 48 85 50 86
REMARK SMILES IDX 56 87 49 88 51 89 52 90 53 91 54 92
REMARK H PARENT 12 7 17 26 76 45 44 56
REMARK Flexibility Score: inf
ROOT
ATOM      1  C   UNL A   1      32.745  29.566  25.597  1.00  0.00     0.023 C 
ENDROOT
BRANCH   1   2
ATOM      2  C   UNL A   1      33.955  28.740  25.146  1.00  0.00     0.023 C 
BRANCH   2   3
ATOM      3  C   UNL A   1      33.857  27.247  25.453  1.00  0.00     0.116 C 
BRANCH   3   4
ATOM      4  N   UNL A   1      33.699  26.447  24.250  1.00  0.00    -0.352 N 
ATOM      5  C   UNL A   1      32.696  26.131  23.398  1.00  0.00     0.251 C 
ATOM      6  O   UNL A   1      33.016  25.388  22.463  1.00  0.00    -0.270 OA
ATOM      7  H   UNL A   1      34.546  26.022  23.985  1.00  0.00     0.163 HD
BRANCH   5   8
ATOM      8  C   UNL A   1      31.282  26.599  23.508  1.00  0.00     0.067 C 
ATOM      9  C   UNL A   1      27.853  31.669  22.620  1.00  0.00     0.044 C 
ATOM     10  C   UNL A   1      28.119  30.222  22.912  1.00  0.00    -0.050 A 
ATOM     11  C   UNL A   1      27.073  29.352  23.243  1.00  0.00     0.007 A 
ATOM     12  C   UNL A   1      29.430  29.725  22.844  1.00  0.00     0.015 A 
ATOM     13  C   UNL A   1      27.333  28.007  23.510  1.00  0.00     0.047 A 
ATOM     14  C   UNL A   1      29.693  28.379  23.119  1.00  0.00     0.017 A 
ATOM     15  C   UNL A   1      28.640  27.531  23.460  1.00  0.00     0.128 A 
ATOM     16  C   UNL A   1      31.041  27.833  23.021  1.00  0.00     0.025 C 
ATOM     17  O   UNL A   1      28.826  26.202  23.716  1.00  0.00    -0.475 OA
ATOM     18  C   UNL A   1      30.166  25.821  24.148  1.00  0.00     0.314 C 
BRANCH  18  19
ATOM     19  C   UNL A   1      30.229  25.852  25.687  1.00  0.00     0.429 C 
ATOM     20  F   UNL A   1      30.564  27.094  26.120  1.00  0.00    -0.167 F 
ATOM     21  F   UNL A   1      29.041  25.553  26.263  1.00  0.00    -0.167 F 
ATOM     22  F   UNL A   1      31.139  24.991  26.193  1.00  0.00    -0.167 F 
ENDBRANCH  18  19
ENDBRANCH   5   8
ENDBRANCH   3   4
ENDBRANCH   2   3
ENDBRANCH   1   2
BRANCH   1  23
ATOM     23  C   UNL A   1      32.714  29.941  27.078  1.00  0.00     0.116 C 
BRANCH  23  24
ATOM     24  N   UNL A   1      32.605  31.371  27.337  1.00  0.00    -0.352 N 
ATOM     25  C   UNL A   1      33.605  32.232  27.737  1.00  0.00     0.251 C 
ATOM     26  H   UNL A   1      31.713  31.768  27.212  1.00  0.00     0.163 HD
ATOM     27  O   UNL A   1      33.355  33.408  27.984  1.00  0.00    -0.269 OA
BRANCH  25  28
ATOM     28  C   UNL A   1      34.967  31.691  27.925  1.00  0.00     0.039 A 
ATOM     29  C   UNL A   1      35.150  30.337  28.208  1.00  0.00     0.014 A 
ATOM     30  C   UNL A   1      36.050  32.574  27.945  1.00  0.00     0.014 A 
ATOM     31  C   UNL A   1      36.374  29.905  28.704  1.00  0.00     0.010 A 
ATOM     32  C   UNL A   1      37.300  32.118  28.374  1.00  0.00     0.010 A 
ATOM     33  C   UNL A   1      37.450  30.800  28.831  1.00  0.00    -0.014 A 
BRANCH  33  34
ATOM     34  C   UNL A   1      38.689  30.344  29.513  1.00  0.00     0.031 A 
ATOM     35  C   UNL A   1      38.982  30.765  30.931  1.00  0.00     0.074 A 
ATOM     36  C   UNL A   1      39.505  29.472  28.890  1.00  0.00     0.049 A 
ATOM     37  N   UNL A   1      39.949  30.370  31.720  1.00  0.00    -0.248 NA
ATOM     38  C   UNL A   1      38.080  31.754  31.547  1.00  0.00     0.031 C 
ATOM     39  C   UNL A   1      39.337  29.001  27.515  1.00  0.00     0.029 A 
ATOM     40  N   UNL A   1      40.614  28.804  29.341  1.00  0.00    -0.354 N 
ATOM     41  C   UNL A   1      39.796  31.085  32.901  1.00  0.00     0.074 A 
ATOM     42  C   UNL A   1      38.647  31.945  32.731  1.00  0.00     0.031 C 
ATOM     43  C   UNL A   1      40.271  28.074  27.253  1.00  0.00     0.029 A 
ATOM     44  C   UNL A   1      41.123  27.910  28.428  1.00  0.00     0.049 A 
ATOM     45  H   UNL A   1      41.008  28.948  30.231  1.00  0.00     0.167 HD
ATOM     46  C   UNL A   1      40.529  31.013  34.036  1.00  0.00     0.034 A 
ATOM     47  C   UNL A   1      42.149  27.042  28.528  1.00  0.00     0.034 A 
ATOM     48  C   UNL A   1      41.621  30.104  34.241  1.00  0.00     0.049 A 
ATOM     49  C   UNL A   1      42.926  26.959  29.810  1.00  0.00     0.074 A 
ATOM     50  C   UNL A   1      42.374  29.915  35.388  1.00  0.00     0.029 A 
ATOM     51  N   UNL A   1      42.111  29.229  33.288  1.00  0.00    -0.354 N 
ATOM     52  N   UNL A   1      42.705  27.578  30.944  1.00  0.00    -0.248 NA
ATOM     53  C   UNL A   1      44.086  26.057  29.830  1.00  0.00     0.031 C 
ATOM     54  C   UNL A   1      43.318  28.917  35.126  1.00  0.00     0.029 A 
ATOM     55  C   UNL A   1      43.159  28.497  33.815  1.00  0.00     0.049 A 
ATOM     56  H   UNL A   1      41.764  29.140  32.370  1.00  0.00     0.167 HD
ATOM     57  C   UNL A   1      43.696  27.141  31.814  1.00  0.00     0.074 A 
ATOM     58  C   UNL A   1      44.504  26.184  31.086  1.00  0.00     0.031 C 
ATOM     59  C   UNL A   1      43.927  27.520  33.093  1.00  0.00     0.034 A 
BRANCH  46  60
ATOM     60  C   UNL A   1      40.134  31.895  35.188  1.00  0.00     0.023 A 
ATOM     61  C   UNL A   1      40.650  33.204  35.253  1.00  0.00     0.012 A 
ATOM     62  C   UNL A   1      39.186  31.470  36.138  1.00  0.00     0.148 A 
ATOM     63  C   UNL A   1      40.233  34.079  36.254  1.00  0.00     0.002 A 
ATOM     64  C   UNL A   1      38.759  32.355  37.120  1.00  0.00     0.091 A 
ATOM     65  F   UNL A   1      38.725  30.214  36.063  1.00  0.00    -0.205 F 
ATOM     66  C   UNL A   1      39.281  33.658  37.181  1.00  0.00     0.022 A 
BRANCH  64  67
ATOM     67  S   UNL A   1      37.505  31.928  38.334  1.00  0.00     0.127 S 
ATOM     68  O   UNL A   1      38.219  32.164  39.588  1.00  0.00    -0.237 OA
ATOM     69  O   UNL A   1      36.449  32.898  38.042  1.00  0.00    -0.237 OA
ATOM     70  O   UNL A   1      37.147  30.542  38.072  1.00  0.00    -0.744 OA
ENDBRANCH  64  67
ENDBRANCH  46  60
BRANCH  47  71
ATOM     71  C   UNL A   1      42.436  26.129  27.390  1.00  0.00     0.023 A 
ATOM     72  C   UNL A   1      43.268  26.579  26.346  1.00  0.00     0.012 A 
ATOM     73  C   UNL A   1      41.974  24.801  27.382  1.00  0.00     0.148 A 
ATOM     74  C   UNL A   1      43.636  25.718  25.313  1.00  0.00     0.002 A 
ATOM     75  C   UNL A   1      42.380  23.934  26.374  1.00  0.00     0.091 A 
ATOM     76  F   UNL A   1      41.171  24.403  28.380  1.00  0.00    -0.205 F 
ATOM     77  C   UNL A   1      43.205  24.394  25.334  1.00  0.00     0.022 A 
BRANCH  75  78
ATOM     78  S   UNL A   1      41.977  22.185  26.387  1.00  0.00     0.127 S 
ATOM     79  O   UNL A   1      42.430  21.785  27.717  1.00  0.00    -0.237 OA
ATOM     80  O   UNL A   1      40.524  22.208  26.212  1.00  0.00    -0.237 OA
ATOM     81  O   UNL A   1      42.707  21.605  25.269  1.00  0.00    -0.744 OA
ENDBRANCH  75  78
ENDBRANCH  47  71
BRANCH  59  82
ATOM     82  C   UNL A   1      45.115  26.932  33.802  1.00  0.00     0.023 A 
ATOM     83  C   UNL A   1      46.329  27.645  33.790  1.00  0.00     0.012 A 
ATOM     84  C   UNL A   1      44.992  25.770  34.587  1.00  0.00     0.148 A 
ATOM     85  C   UNL A   1      47.410  27.208  34.553  1.00  0.00     0.002 A 
ATOM     86  C   UNL A   1      46.067  25.356  35.365  1.00  0.00     0.091 A 
ATOM     87  F   UNL A   1      43.822  25.116  34.580  1.00  0.00    -0.205 F 
ATOM     88  C   UNL A   1      47.275  26.072  35.347  1.00  0.00     0.022 A 
BRANCH  86  89
ATOM     89  S   UNL A   1      45.979  23.944  36.472  1.00  0.00     0.127 S 
ATOM     90  O   UNL A   1      44.778  24.247  37.248  1.00  0.00    -0.237 OA
ATOM     91  O   UNL A   1      45.838  22.829  35.536  1.00  0.00    -0.237 OA
ATOM     92  O   UNL A   1      47.220  23.950  37.237  1.00  0.00    -0.744 OA
ENDBRANCH  86  89
ENDBRANCH  59  82
ENDBRANCH  33  34
ENDBRANCH  25  28
ENDBRANCH  23  24
ENDBRANCH   1  23
TORSDOF 15
ENDMDL
MODEL 2
REMARK VINA RESULT:     -12.9      2.216      3.707
REMARK SMILES Cc1ccc2c(c1)C=C(C(=O)NCCCCNC(=O)c1ccc(-c3c4nc(c(-c5cccc(S(=O)(=O)[O-])c5F)c5ccc([nH]5)c(-c5cccc(S(=O)(=O)[O-])c5F)c5nc(c(-c6cccc(S(=O)(=O)[O-])c6F)c6ccc3[nH]6)C=C5)C=C4)cc1)[C@@H](C(F)(F)F)O2
REMARK SMILES IDX 15 1 14 2 13 3 12 4 10 5 11 6 9 8 1 9 2 10 3 11 7 12 4 13
REMARK SMILES IDX 6 14 5 15 8 16 88 17 83 18 84 19 85 20 86 21 87 22 16 23
REMARK SMILES IDX 17 24 18 25 19 27 20 28 21 29 82 30 22 31 81 32 23 33 24 34
REMARK SMILES IDX 25 35 75 36 26 37 80 38 74 39 76 40 27 41 79 42 73 43 72 44
REMARK SMILES IDX 28 46 60 47 40 48 59 49 41 50 44 51 58 52 77 53 42 54 43 55
REMARK SMILES IDX 57 57 78 58 45 59 29 60 30 61 38 62 31 63 33 64 39 65 32 66
REMARK SMILES IDX 34 67 35 68 36 69 37 70 61 71 62 72 70 73 63 74 65 75 71 76
REMARK SMILES IDX 64 77 66 78 67 79 68 80 69 81 46 82 47 83 55 84 48 85 50 86
REMARK SMILES IDX 56 87 49 88 51 89 52 90 53 91 54 92
REMARK H PARENT 12 7 17 26 76 45 44 56
REMARK Flexibility Score: inf
ROOT
ATOM      1  C   UNL A   1      31.501  28.895  25.764  1.00  0.00     0.023 C 
ENDROOT
BRANCH   1   2
ATOM      2  C   UNL A   1      31.295  27.551  26.473  1.00  0.00     0.023 C 
BRANCH   2   3
ATOM      3  C   UNL A   1      30.717  26.448  25.589  1.00  0.00     0.116 C 
BRANCH   3   4
ATOM      4  N   UNL A   1      30.337  25.273  26.354  1.00  0.00    -0.352 N 
ATOM      5  C   UNL A   1      30.814  24.020  26.545  1.00  0.00     0.251 C 
ATOM      6  O   UNL A   1      30.151  23.318  27.316  1.00  0.00    -0.270 OA
ATOM      7  H   UNL A   1      29.514  25.429  26.871  1.00  0.00     0.163 HD
BRANCH   5   8
ATOM      8  C   UNL A   1      32.041  23.452  25.911  1.00  0.00     0.067 C 
ATOM      9  C   UNL A   1      38.199  24.002  26.090  1.00  0.00     0.044 C 
ATOM     10  C   UNL A   1      36.882  23.404  25.691  1.00  0.00    -0.050 A 
ATOM     11  C   UNL A   1      36.822  22.339  24.784  1.00  0.00     0.007 A 
ATOM     12  C   UNL A   1      35.692  23.907  26.238  1.00  0.00     0.015 A 
ATOM     13  C   UNL A   1      35.590  21.789  24.424  1.00  0.00     0.047 A 
ATOM     14  C   UNL A   1      34.456  23.363  25.872  1.00  0.00     0.017 A 
ATOM     15  C   UNL A   1      34.416  22.311  24.958  1.00  0.00     0.128 A 
ATOM     16  C   UNL A   1      33.210  23.846  26.453  1.00  0.00     0.025 C 
ATOM     17  O   UNL A   1      33.245  21.718  24.577  1.00  0.00    -0.475 OA
ATOM     18  C   UNL A   1      32.046  22.536  24.718  1.00  0.00     0.314 C 
BRANCH  18  19
ATOM     19  C   UNL A   1      31.786  23.285  23.396  1.00  0.00     0.429 C 
ATOM     20  F   UNL A   1      32.325  22.604  22.354  1.00  0.00    -0.167 F 
ATOM     21  F   UNL A   1      30.467  23.419  23.125  1.00  0.00    -0.167 F 
ATOM     22  F   UNL A   1      32.318  24.528  23.384  1.00  0.00    -0.167 F 
ENDBRANCH  18  19
ENDBRANCH   5   8
ENDBRANCH   3   4
ENDBRANCH   2   3
ENDBRANCH   1   2
BRANCH   1  23
ATOM     23  C   UNL A   1      32.725  29.697  26.205  1.00  0.00     0.116 C 
BRANCH  23  24
ATOM     24  N   UNL A   1      32.425  31.032  26.705  1.00  0.00    -0.352 N 
ATOM     25  C   UNL A   1      33.270  31.885  27.384  1.00  0.00     0.251 C 
ATOM     26  H   UNL A   1      31.513  31.364  26.537  1.00  0.00     0.163 HD
ATOM     27  O   UNL A   1      32.861  32.963  27.806  1.00  0.00    -0.269 OA
BRANCH  25  28
ATOM     28  C   UNL A   1      34.655  31.443  27.649  1.00  0.00     0.039 A 
ATOM     29  C   UNL A   1      34.928  30.092  27.866  1.00  0.00     0.014 A 
ATOM     30  C   UNL A   1      35.655  32.405  27.807  1.00  0.00     0.014 A 
ATOM     31  C   UNL A   1      36.144  29.726  28.432  1.00  0.00     0.010 A 
ATOM     32  C   UNL A   1      36.903  32.023  28.307  1.00  0.00     0.010 A 
ATOM     33  C   UNL A   1      37.129  30.694  28.697  1.00  0.00    -0.014 A 
BRANCH  33  34
ATOM     34  C   UNL A   1      38.346  30.294  29.449  1.00  0.00     0.031 A 
ATOM     35  C   UNL A   1      38.515  30.682  30.896  1.00  0.00     0.074 A 
ATOM     36  C   UNL A   1      39.258  29.499  28.856  1.00  0.00     0.049 A 
ATOM     37  N   UNL A   1      39.451  30.321  31.737  1.00  0.00    -0.248 NA
ATOM     38  C   UNL A   1      37.510  31.587  31.479  1.00  0.00     0.031 C 
ATOM     39  C   UNL A   1      39.214  29.069  27.458  1.00  0.00     0.029 A 
ATOM     40  N   UNL A   1      40.377  28.888  29.361  1.00  0.00    -0.354 N 
ATOM     41  C   UNL A   1      39.173  30.982  32.927  1.00  0.00     0.074 A 
ATOM     42  C   UNL A   1      37.983  31.772  32.705  1.00  0.00     0.031 C 
ATOM     43  C   UNL A   1      40.224  28.214  27.233  1.00  0.00     0.029 A 
ATOM     44  C   UNL A   1      41.004  28.062  28.458  1.00  0.00     0.049 A 
ATOM     45  H   UNL A   1      40.700  29.025  30.281  1.00  0.00     0.167 HD
ATOM     46  C   UNL A   1      39.830  30.916  34.107  1.00  0.00     0.034 A 
ATOM     47  C   UNL A   1      42.076  27.259  28.601  1.00  0.00     0.034 A 
ATOM     48  C   UNL A   1      40.965  30.072  34.358  1.00  0.00     0.049 A 
ATOM     49  C   UNL A   1      42.770  27.180  29.930  1.00  0.00     0.074 A 
ATOM     50  C   UNL A   1      41.650  29.890  35.548  1.00  0.00     0.029 A 
ATOM     51  N   UNL A   1      41.574  29.265  33.414  1.00  0.00    -0.354 N 
ATOM     52  N   UNL A   1      42.433  27.742  31.065  1.00  0.00    -0.248 NA
ATOM     53  C   UNL A   1      43.984  26.354  30.002  1.00  0.00     0.031 C 
ATOM     54  C   UNL A   1      42.674  28.965  35.321  1.00  0.00     0.029 A 
ATOM     55  C   UNL A   1      42.631  28.584  33.989  1.00  0.00     0.049 A 
ATOM     56  H   UNL A   1      41.297  29.188  32.472  1.00  0.00     0.167 HD
ATOM     57  C   UNL A   1      43.390  27.338  31.988  1.00  0.00     0.074 A 
ATOM     58  C   UNL A   1      44.307  26.462  31.287  1.00  0.00     0.031 C 
ATOM     59  C   UNL A   1      43.510  27.684  33.291  1.00  0.00     0.034 A 
BRANCH  46  60
ATOM     60  C   UNL A   1      39.301  31.728  35.256  1.00  0.00     0.023 A 
ATOM     61  C   UNL A   1      38.418  31.120  36.170  1.00  0.00     0.012 A 
ATOM     62  C   UNL A   1      39.750  33.042  35.486  1.00  0.00     0.148 A 
ATOM     63  C   UNL A   1      37.982  31.814  37.298  1.00  0.00     0.002 A 
ATOM     64  C   UNL A   1      39.327  33.719  36.624  1.00  0.00     0.091 A 
ATOM     65  F   UNL A   1      40.575  33.601  34.590  1.00  0.00    -0.205 F 
ATOM     66  C   UNL A   1      38.444  33.108  37.530  1.00  0.00     0.022 A 
BRANCH  64  67
ATOM     67  S   UNL A   1      39.896  35.372  37.038  1.00  0.00     0.127 S 
ATOM     68  O   UNL A   1      39.195  35.617  38.297  1.00  0.00    -0.237 OA
ATOM     69  O   UNL A   1      41.340  35.177  37.173  1.00  0.00    -0.237 OA
ATOM     70  O   UNL A   1      39.498  36.224  35.927  1.00  0.00    -0.744 OA
ENDBRANCH  64  67
ENDBRANCH  46  60
BRANCH  47  71
ATOM     71  C   UNL A   1      42.499  26.408  27.457  1.00  0.00     0.023 A 
ATOM     72  C   UNL A   1      43.333  26.961  26.466  1.00  0.00     0.012 A 
ATOM     73  C   UNL A   1      42.164  25.043  27.396  1.00  0.00     0.148 A 
ATOM     74  C   UNL A   1      43.827  26.166  25.432  1.00  0.00     0.002 A 
ATOM     75  C   UNL A   1      42.695  24.247  26.388  1.00  0.00     0.091 A 
ATOM     76  F   UNL A   1      41.356  24.546  28.344  1.00  0.00    -0.205 F 
ATOM     77  C   UNL A   1      43.520  24.808  25.401  1.00  0.00     0.022 A 
BRANCH  75  78
ATOM     78  S   UNL A   1      42.455  22.468  26.341  1.00  0.00     0.127 S 
ATOM     79  O   UNL A   1      42.959  22.065  27.651  1.00  0.00    -0.237 OA
ATOM     80  O   UNL A   1      41.004  22.362  26.179  1.00  0.00    -0.237 OA
ATOM     81  O   UNL A   1      43.222  21.998  25.196  1.00  0.00    -0.744 OA
ENDBRANCH  75  78
ENDBRANCH  47  71
BRANCH  59  82
ATOM     82  C   UNL A   1      44.683  27.149  34.061  1.00  0.00     0.023 A 
ATOM     83  C   UNL A   1      45.873  27.902  34.089  1.00  0.00     0.012 A 
ATOM     84  C   UNL A   1      44.564  25.997  34.861  1.00  0.00     0.148 A 
ATOM     85  C   UNL A   1      46.933  27.515  34.907  1.00  0.00     0.002 A 
ATOM     86  C   UNL A   1      45.617  25.632  35.693  1.00  0.00     0.091 A 
ATOM     87  F   UNL A   1      43.418  25.304  34.815  1.00  0.00    -0.205 F 
ATOM     88  C   UNL A   1      46.801  26.388  35.714  1.00  0.00     0.022 A 
BRANCH  86  89
ATOM     89  S   UNL A   1      45.527  24.236  36.820  1.00  0.00     0.127 S 
ATOM     90  O   UNL A   1      44.563  24.713  37.810  1.00  0.00    -0.237 OA
ATOM     91  O   UNL A   1      45.033  23.170  35.949  1.00  0.00    -0.237 OA
ATOM     92  O   UNL A   1      46.878  24.038  37.329  1.00  0.00    -0.744 OA
ENDBRANCH  86  89
ENDBRANCH  59  82
ENDBRANCH  33  34
ENDBRANCH  25  28
ENDBRANCH  23  24
ENDBRANCH   1  23
TORSDOF 15
ENDMDL
MODEL 3
REMARK VINA RESULT:     -12.7      2.276      3.660
REMARK SMILES Cc1ccc2c(c1)C=C(C(=O)NCCCCNC(=O)c1ccc(-c3c4nc(c(-c5cccc(S(=O)(=O)[O-])c5F)c5ccc([nH]5)c(-c5cccc(S(=O)(=O)[O-])c5F)c5nc(c(-c6cccc(S(=O)(=O)[O-])c6F)c6ccc3[nH]6)C=C5)C=C4)cc1)[C@@H](C(F)(F)F)O2
REMARK SMILES IDX 15 1 14 2 13 3 12 4 10 5 11 6 9 8 1 9 2 10 3 11 7 12 4 13
REMARK SMILES IDX 6 14 5 15 8 16 88 17 83 18 84 19 85 20 86 21 87 22 16 23
REMARK SMILES IDX 17 24 18 25 19 27 20 28 21 29 82 30 22 31 81 32 23 33 24 34
REMARK SMILES IDX 25 35 75 36 26 37 80 38 74 39 76 40 27 41 79 42 73 43 72 44
REMARK SMILES IDX 28 46 60 47 40 48 59 49 41 50 44 51 58 52 77 53 42 54 43 55
REMARK SMILES IDX 57 57 78 58 45 59 29 60 30 61 38 62 31 63 33 64 39 65 32 66
REMARK SMILES IDX 34 67 35 68 36 69 37 70 61 71 62 72 70 73 63 74 65 75 71 76
REMARK SMILES IDX 64 77 66 78 67 79 68 80 69 81 46 82 47 83 55 84 48 85 50 86
REMARK SMILES IDX 56 87 49 88 51 89 52 90 53 91 54 92
REMARK H PARENT 12 7 17 26 76 45 44 56
REMARK Flexibility Score: inf
ROOT
ATOM      1  C   UNL A   1      31.579  28.564  25.661  1.00  0.00     0.023 C 
ENDROOT
BRANCH   1   2
ATOM      2  C   UNL A   1      31.257  28.260  24.194  1.00  0.00     0.023 C 
BRANCH   2   3
ATOM      3  C   UNL A   1      31.320  26.780  23.823  1.00  0.00     0.116 C 
BRANCH   3   4
ATOM      4  N   UNL A   1      32.048  26.552  22.586  1.00  0.00    -0.352 N 
ATOM      5  C   UNL A   1      32.962  25.666  22.126  1.00  0.00     0.251 C 
ATOM      6  O   UNL A   1      33.327  25.848  20.959  1.00  0.00    -0.270 OA
ATOM      7  H   UNL A   1      31.815  27.220  21.902  1.00  0.00     0.163 HD
BRANCH   5   8
ATOM      8  C   UNL A   1      33.537  24.528  22.903  1.00  0.00     0.067 C 
ATOM      9  C   UNL A   1      32.337  18.629  24.323  1.00  0.00     0.044 C 
ATOM     10  C   UNL A   1      33.143  19.893  24.261  1.00  0.00    -0.050 A 
ATOM     11  C   UNL A   1      34.394  19.979  24.885  1.00  0.00     0.007 A 
ATOM     12  C   UNL A   1      32.648  21.004  23.561  1.00  0.00     0.015 A 
ATOM     13  C   UNL A   1      35.136  21.159  24.817  1.00  0.00     0.047 A 
ATOM     14  C   UNL A   1      33.387  22.191  23.499  1.00  0.00     0.017 A 
ATOM     15  C   UNL A   1      34.625  22.261  24.138  1.00  0.00     0.128 A 
ATOM     16  C   UNL A   1      32.908  23.346  22.750  1.00  0.00     0.025 C 
ATOM     17  O   UNL A   1      35.406  23.380  24.095  1.00  0.00    -0.475 OA
ATOM     18  C   UNL A   1      34.705  24.634  23.845  1.00  0.00     0.314 C 
BRANCH  18  19
ATOM     19  C   UNL A   1      34.322  25.278  25.191  1.00  0.00     0.429 C 
ATOM     20  F   UNL A   1      35.236  24.960  26.143  1.00  0.00    -0.167 F 
ATOM     21  F   UNL A   1      34.286  26.629  25.131  1.00  0.00    -0.167 F 
ATOM     22  F   UNL A   1      33.114  24.873  25.642  1.00  0.00    -0.167 F 
ENDBRANCH  18  19
ENDBRANCH   5   8
ENDBRANCH   3   4
ENDBRANCH   2   3
ENDBRANCH   1   2
BRANCH   1  23
ATOM     23  C   UNL A   1      32.728  29.543  25.899  1.00  0.00     0.116 C 
BRANCH  23  24
ATOM     24  N   UNL A   1      32.330  30.808  26.501  1.00  0.00    -0.352 N 
ATOM     25  C   UNL A   1      33.099  31.647  27.280  1.00  0.00     0.251 C 
ATOM     26  H   UNL A   1      31.405  31.098  26.331  1.00  0.00     0.163 HD
ATOM     27  O   UNL A   1      32.611  32.657  27.780  1.00  0.00    -0.269 OA
BRANCH  25  28
ATOM     28  C   UNL A   1      34.501  31.267  27.554  1.00  0.00     0.039 A 
ATOM     29  C   UNL A   1      34.842  29.925  27.719  1.00  0.00     0.014 A 
ATOM     30  C   UNL A   1      35.445  32.273  27.773  1.00  0.00     0.014 A 
ATOM     31  C   UNL A   1      36.065  29.599  28.293  1.00  0.00     0.010 A 
ATOM     32  C   UNL A   1      36.703  31.936  28.282  1.00  0.00     0.010 A 
ATOM     33  C   UNL A   1      36.992  30.605  28.620  1.00  0.00    -0.014 A 
BRANCH  33  34
ATOM     34  C   UNL A   1      38.215  30.238  29.378  1.00  0.00     0.031 A 
ATOM     35  C   UNL A   1      38.399  30.692  30.804  1.00  0.00     0.074 A 
ATOM     36  C   UNL A   1      39.120  29.413  28.815  1.00  0.00     0.049 A 
ATOM     37  N   UNL A   1      39.342  30.369  31.652  1.00  0.00    -0.248 NA
ATOM     38  C   UNL A   1      37.401  31.627  31.353  1.00  0.00     0.031 C 
ATOM     39  C   UNL A   1      39.062  28.917  27.440  1.00  0.00     0.029 A 
ATOM     40  N   UNL A   1      40.242  28.823  29.338  1.00  0.00    -0.354 N 
ATOM     41  C   UNL A   1      39.076  31.086  32.812  1.00  0.00     0.074 A 
ATOM     42  C   UNL A   1      37.886  31.868  32.564  1.00  0.00     0.031 C 
ATOM     43  C   UNL A   1      40.067  28.050  27.245  1.00  0.00     0.029 A 
ATOM     44  C   UNL A   1      40.858  27.953  28.469  1.00  0.00     0.049 A 
ATOM     45  H   UNL A   1      40.574  29.002  30.247  1.00  0.00     0.167 HD
ATOM     46  C   UNL A   1      39.744  31.074  33.988  1.00  0.00     0.034 A 
ATOM     47  C   UNL A   1      41.930  27.155  28.641  1.00  0.00     0.034 A 
ATOM     48  C   UNL A   1      40.879  30.240  34.268  1.00  0.00     0.049 A 
ATOM     49  C   UNL A   1      42.635  27.137  29.965  1.00  0.00     0.074 A 
ATOM     50  C   UNL A   1      41.575  30.112  35.458  1.00  0.00     0.029 A 
ATOM     51  N   UNL A   1      41.478  29.387  33.357  1.00  0.00    -0.354 N 
ATOM     52  N   UNL A   1      42.311  27.752  31.076  1.00  0.00    -0.248 NA
ATOM     53  C   UNL A   1      43.848  26.311  30.065  1.00  0.00     0.031 C 
ATOM     54  C   UNL A   1      42.594  29.175  35.266  1.00  0.00     0.029 A 
ATOM     55  C   UNL A   1      42.538  28.731  33.954  1.00  0.00     0.049 A 
ATOM     56  H   UNL A   1      41.191  29.266  32.422  1.00  0.00     0.167 HD
ATOM     57  C   UNL A   1      43.275  27.390  32.007  1.00  0.00     0.074 A 
ATOM     58  C   UNL A   1      44.184  26.479  31.340  1.00  0.00     0.031 C 
ATOM     59  C   UNL A   1      43.408  27.797  33.292  1.00  0.00     0.034 A 
BRANCH  46  60
ATOM     60  C   UNL A   1      39.228  31.941  35.102  1.00  0.00     0.023 A 
ATOM     61  C   UNL A   1      38.268  31.413  35.987  1.00  0.00     0.012 A 
ATOM     62  C   UNL A   1      39.759  33.224  35.332  1.00  0.00     0.148 A 
ATOM     63  C   UNL A   1      37.837  32.155  37.086  1.00  0.00     0.002 A 
ATOM     64  C   UNL A   1      39.340  33.949  36.441  1.00  0.00     0.091 A 
ATOM     65  F   UNL A   1      40.657  33.708  34.463  1.00  0.00    -0.205 F 
ATOM     66  C   UNL A   1      38.379  33.417  37.318  1.00  0.00     0.022 A 
BRANCH  64  67
ATOM     67  S   UNL A   1      40.007  35.564  36.855  1.00  0.00     0.127 S 
ATOM     68  O   UNL A   1      41.445  35.300  36.842  1.00  0.00    -0.237 OA
ATOM     69  O   UNL A   1      39.530  36.389  35.745  1.00  0.00    -0.237 OA
ATOM     70  O   UNL A   1      39.449  35.909  38.154  1.00  0.00    -0.744 OA
ENDBRANCH  64  67
ENDBRANCH  46  60
BRANCH  47  71
ATOM     71  C   UNL A   1      42.340  26.250  27.534  1.00  0.00     0.023 A 
ATOM     72  C   UNL A   1      43.300  26.698  26.605  1.00  0.00     0.012 A 
ATOM     73  C   UNL A   1      41.863  24.929  27.453  1.00  0.00     0.148 A 
ATOM     74  C   UNL A   1      43.778  25.842  25.614  1.00  0.00     0.002 A 
ATOM     75  C   UNL A   1      42.376  24.068  26.490  1.00  0.00     0.091 A 
ATOM     76  F   UNL A   1      40.938  24.534  28.340  1.00  0.00    -0.205 F 
ATOM     77  C   UNL A   1      43.328  24.525  25.565  1.00  0.00     0.022 A 
BRANCH  75  78
ATOM     78  S   UNL A   1      41.947  22.325  26.431  1.00  0.00     0.127 S 
ATOM     79  O   UNL A   1      42.421  21.858  27.732  1.00  0.00    -0.237 OA
ATOM     80  O   UNL A   1      40.491  22.376  26.288  1.00  0.00    -0.237 OA
ATOM     81  O   UNL A   1      42.646  21.787  25.273  1.00  0.00    -0.744 OA
ENDBRANCH  75  78
ENDBRANCH  47  71
BRANCH  59  82
ATOM     82  C   UNL A   1      44.587  27.295  34.076  1.00  0.00     0.023 A 
ATOM     83  C   UNL A   1      45.769  28.061  34.083  1.00  0.00     0.012 A 
ATOM     84  C   UNL A   1      44.481  26.164  34.906  1.00  0.00     0.148 A 
ATOM     85  C   UNL A   1      46.833  27.707  34.910  1.00  0.00     0.002 A 
ATOM     86  C   UNL A   1      45.537  25.832  35.747  1.00  0.00     0.091 A 
ATOM     87  F   UNL A   1      43.342  25.457  34.879  1.00  0.00    -0.205 F 
ATOM     88  C   UNL A   1      46.713  26.601  35.747  1.00  0.00     0.022 A 
BRANCH  86  89
ATOM     89  S   UNL A   1      45.463  24.466  36.911  1.00  0.00     0.127 S 
ATOM     90  O   UNL A   1      44.369  24.881  37.789  1.00  0.00    -0.237 OA
ATOM     91  O   UNL A   1      45.151  23.335  36.038  1.00  0.00    -0.237 OA
ATOM     92  O   UNL A   1      46.771  24.406  37.550  1.00  0.00    -0.744 OA
ENDBRANCH  86  89
ENDBRANCH  59  82
ENDBRANCH  33  34
ENDBRANCH  25  28
ENDBRANCH  23  24
ENDBRANCH   1  23
TORSDOF 15
ENDMDL
