MODEL 1
REMARK VINA RESULT:     -11.4      0.000      0.000
REMARK SMILES COc1ccc(NCc2cc(C(=O)NCCCCNC(=O)c3ccc(-c4c5nc(c(-c6cccc(S(=O)(=O)[O-])c6F)c6ccc([nH]6)c(-c6cccc(S(=O)(=O)[O-])c6F)c6nc(c(-c7cccc(S(=O)(=O)[O-])c7F)c7ccc4[nH]7)C=C6)C=C5)cc3)cs2)cc1Br
REMARK SMILES IDX 16 1 15 2 14 3 12 4 13 5 11 7 9 8 10 9 86 10 85 11 8 12 7 13
REMARK SMILES IDX 6 15 3 16 4 17 88 18 5 19 87 20 89 21 2 22 1 23 17 24 18 25
REMARK SMILES IDX 19 26 20 27 21 29 22 30 23 31 84 32 24 33 83 34 25 35 26 36
REMARK SMILES IDX 27 37 77 38 28 39 82 40 76 41 78 42 29 43 81 44 75 45 74 46
REMARK SMILES IDX 30 48 62 49 42 50 61 51 43 52 46 53 60 54 79 55 44 56 45 57
REMARK SMILES IDX 59 59 80 60 47 61 31 62 32 63 40 64 33 65 35 66 41 67 34 68
REMARK SMILES IDX 36 69 37 70 38 71 39 72 63 73 64 74 72 75 65 76 67 77 73 78
REMARK SMILES IDX 66 79 68 80 69 81 70 82 71 83 48 84 49 85 57 86 50 87 52 88
REMARK SMILES IDX 58 89 51 90 53 91 54 92 55 93 56 94
REMARK H PARENT 14 6 7 14 19 28 78 47 46 58
REMARK Flexibility Score: inf
ROOT
ATOM      1  C   UNL A   1      32.070  29.943  26.436  1.00  0.00     0.023 C 
ENDROOT
BRANCH   1   2
ATOM      2  C   UNL A   1      31.634  29.469  25.050  1.00  0.00     0.116 C 
BRANCH   2   3
ATOM      3  N   UNL A   1      32.742  29.516  24.120  1.00  0.00    -0.352 N 
ATOM      4  C   UNL A   1      33.541  28.533  23.595  1.00  0.00     0.252 C 
ATOM      5  O   UNL A   1      34.384  28.878  22.770  1.00  0.00    -0.269 OA
ATOM      6  H   UNL A   1      32.964  30.422  23.806  1.00  0.00     0.163 HD
BRANCH   4   7
ATOM      7  C   UNL A   1      33.361  27.120  23.946  1.00  0.00     0.050 A 
ATOM      8  C   UNL A   1      33.387  25.065  25.097  1.00  0.00     0.024 A 
ATOM      9  C   UNL A   1      33.924  26.335  25.008  1.00  0.00     0.031 A 
ATOM     10  S   UNL A   1      32.367  24.728  23.771  1.00  0.00    -0.146 S 
ATOM     11  C   UNL A   1      32.558  26.308  23.156  1.00  0.00     0.079 A 
BRANCH   8  12
ATOM     12  C   UNL A   1      33.633  24.036  26.158  1.00  0.00     0.159 C 
BRANCH  12  13
ATOM     13  N   UNL A   1      32.775  22.877  26.030  1.00  0.00    -0.380 N 
ATOM     14  H   UNL A   1      31.830  23.006  26.276  1.00  0.00     0.160 HD
BRANCH  13  15
ATOM     15  C   UNL A   1      33.124  21.614  25.604  1.00  0.00     0.036 A 
ATOM     16  C   UNL A   1      34.042  19.141  24.547  1.00  0.00     0.133 A 
ATOM     17  C   UNL A   1      32.678  19.437  24.605  1.00  0.00     0.050 A 
ATOM     18  C   UNL A   1      34.954  20.084  25.021  1.00  0.00     0.062 A 
ATOM     19  C   UNL A   1      32.227  20.658  25.127  1.00  0.00     0.029 A 
ATOM     20  C   UNL A   1      34.489  21.295  25.554  1.00  0.00     0.045 A 
ATOM     21  Br  UNL A   1      36.838  19.888  24.890  1.00  0.00    -0.047 Br
BRANCH  16  22
ATOM     22  O   UNL A   1      34.365  17.988  23.883  1.00  0.00    -0.496 OA
ATOM     23  C   UNL A   1      33.592  16.854  24.267  1.00  0.00     0.278 C 
ENDBRANCH  16  22
ENDBRANCH  13  15
ENDBRANCH  12  13
ENDBRANCH   8  12
ENDBRANCH   4   7
ENDBRANCH   2   3
ENDBRANCH   1   2
BRANCH   1  24
ATOM     24  C   UNL A   1      31.775  31.424  26.700  1.00  0.00     0.023 C 
BRANCH  24  25
ATOM     25  C   UNL A   1      32.923  32.209  27.330  1.00  0.00     0.116 C 
BRANCH  25  26
ATOM     26  N   UNL A   1      32.616  33.620  27.520  1.00  0.00    -0.352 N 
ATOM     27  C   UNL A   1      33.180  34.505  28.407  1.00  0.00     0.251 C 
ATOM     28  H   UNL A   1      31.912  33.987  26.937  1.00  0.00     0.163 HD
ATOM     29  O   UNL A   1      32.721  35.636  28.526  1.00  0.00    -0.269 OA
BRANCH  27  30
ATOM     30  C   UNL A   1      34.318  34.065  29.239  1.00  0.00     0.039 A 
ATOM     31  C   UNL A   1      34.066  33.265  30.355  1.00  0.00     0.014 A 
ATOM     32  C   UNL A   1      35.629  34.400  28.889  1.00  0.00     0.014 A 
ATOM     33  C   UNL A   1      35.137  32.744  31.082  1.00  0.00     0.010 A 
ATOM     34  C   UNL A   1      36.694  33.817  29.568  1.00  0.00     0.010 A 
ATOM     35  C   UNL A   1      36.461  32.982  30.671  1.00  0.00    -0.014 A 
BRANCH  35  36
ATOM     36  C   UNL A   1      37.603  32.337  31.367  1.00  0.00     0.031 A 
ATOM     37  C   UNL A   1      38.337  31.188  30.730  1.00  0.00     0.074 A 
ATOM     38  C   UNL A   1      37.934  32.742  32.609  1.00  0.00     0.049 A 
ATOM     39  N   UNL A   1      39.344  30.496  31.196  1.00  0.00    -0.248 NA
ATOM     40  C   UNL A   1      37.864  30.739  29.410  1.00  0.00     0.031 C 
ATOM     41  C   UNL A   1      37.244  33.786  33.370  1.00  0.00     0.029 A 
ATOM     42  N   UNL A   1      38.920  32.310  33.461  1.00  0.00    -0.354 N 
ATOM     43  C   UNL A   1      39.605  29.516  30.247  1.00  0.00     0.074 A 
ATOM     44  C   UNL A   1      38.627  29.678  29.194  1.00  0.00     0.031 C 
ATOM     45  C   UNL A   1      37.836  33.923  34.569  1.00  0.00     0.029 A 
ATOM     46  C   UNL A   1      38.923  32.955  34.676  1.00  0.00     0.049 A 
ATOM     47  H   UNL A   1      39.566  31.605  33.225  1.00  0.00     0.167 HD
ATOM     48  C   UNL A   1      40.589  28.585  30.236  1.00  0.00     0.034 A 
ATOM     49  C   UNL A   1      39.707  32.784  35.758  1.00  0.00     0.034 A 
ATOM     50  C   UNL A   1      41.578  28.446  31.271  1.00  0.00     0.049 A 
ATOM     51  C   UNL A   1      40.810  31.763  35.706  1.00  0.00     0.074 A 
ATOM     52  C   UNL A   1      42.667  27.593  31.309  1.00  0.00     0.029 A 
ATOM     53  N   UNL A   1      41.593  29.165  32.455  1.00  0.00    -0.354 N 
ATOM     54  N   UNL A   1      41.145  30.959  34.727  1.00  0.00    -0.248 NA
ATOM     55  C   UNL A   1      41.666  31.650  36.895  1.00  0.00     0.031 C 
ATOM     56  C   UNL A   1      43.319  27.770  32.534  1.00  0.00     0.029 A 
ATOM     57  C   UNL A   1      42.661  28.763  33.240  1.00  0.00     0.049 A 
ATOM     58  H   UNL A   1      40.940  29.860  32.702  1.00  0.00     0.167 HD
ATOM     59  C   UNL A   1      42.270  30.271  35.168  1.00  0.00     0.074 A 
ATOM     60  C   UNL A   1      42.574  30.773  36.492  1.00  0.00     0.031 C 
ATOM     61  C   UNL A   1      42.978  29.299  34.539  1.00  0.00     0.034 A 
BRANCH  48  62
ATOM     62  C   UNL A   1      40.670  27.665  29.044  1.00  0.00     0.023 A 
ATOM     63  C   UNL A   1      39.761  26.594  28.925  1.00  0.00     0.012 A 
ATOM     64  C   UNL A   1      41.601  27.899  28.012  1.00  0.00     0.148 A 
ATOM     65  C   UNL A   1      39.800  25.748  27.817  1.00  0.00     0.002 A 
ATOM     66  C   UNL A   1      41.601  27.080  26.889  1.00  0.00     0.091 A 
ATOM     67  F   UNL A   1      42.470  28.909  28.152  1.00  0.00    -0.205 F 
ATOM     68  C   UNL A   1      40.711  25.997  26.796  1.00  0.00     0.022 A 
BRANCH  66  69
ATOM     69  S   UNL A   1      42.679  27.365  25.480  1.00  0.00     0.127 S 
ATOM     70  O   UNL A   1      42.040  28.517  24.848  1.00  0.00    -0.237 OA
ATOM     71  O   UNL A   1      43.958  27.656  26.129  1.00  0.00    -0.237 OA
ATOM     72  O   UNL A   1      42.658  26.135  24.701  1.00  0.00    -0.744 OA
ENDBRANCH  66  69
ENDBRANCH  48  62
BRANCH  49  73
ATOM     73  C   UNL A   1      39.510  33.637  36.966  1.00  0.00     0.023 A 
ATOM     74  C   UNL A   1      39.977  34.966  36.962  1.00  0.00     0.012 A 
ATOM     75  C   UNL A   1      38.854  33.142  38.108  1.00  0.00     0.148 A 
ATOM     76  C   UNL A   1      39.827  35.775  38.089  1.00  0.00     0.002 A 
ATOM     77  C   UNL A   1      38.654  33.973  39.205  1.00  0.00     0.091 A 
ATOM     78  F   UNL A   1      38.425  31.873  38.095  1.00  0.00    -0.205 F 
ATOM     79  C   UNL A   1      39.158  35.282  39.206  1.00  0.00     0.022 A 
BRANCH  77  80
ATOM     80  S   UNL A   1      37.688  33.467  40.632  1.00  0.00     0.127 S 
ATOM     81  O   UNL A   1      38.526  32.416  41.203  1.00  0.00    -0.237 OA
ATOM     82  O   UNL A   1      37.632  34.705  41.410  1.00  0.00    -0.237 OA
ATOM     83  O   UNL A   1      36.402  33.032  40.102  1.00  0.00    -0.744 OA
ENDBRANCH  77  80
ENDBRANCH  49  73
BRANCH  61  84
ATOM     84  C   UNL A   1      44.177  28.737  35.258  1.00  0.00     0.023 A 
ATOM     85  C   UNL A   1      45.462  29.260  35.005  1.00  0.00     0.012 A 
ATOM     86  C   UNL A   1      44.022  27.728  36.230  1.00  0.00     0.148 A 
ATOM     87  C   UNL A   1      46.576  28.758  35.675  1.00  0.00     0.002 A 
ATOM     88  C   UNL A   1      45.130  27.271  36.933  1.00  0.00     0.091 A 
ATOM     89  F   UNL A   1      42.796  27.231  36.446  1.00  0.00    -0.205 F 
ATOM     90  C   UNL A   1      46.409  27.772  36.646  1.00  0.00     0.022 A 
BRANCH  88  91
ATOM     91  S   UNL A   1      44.999  26.076  38.268  1.00  0.00     0.127 S 
ATOM     92  O   UNL A   1      43.987  26.694  39.123  1.00  0.00    -0.237 OA
ATOM     93  O   UNL A   1      44.553  24.874  37.564  1.00  0.00    -0.237 OA
ATOM     94  O   UNL A   1      46.330  25.976  38.850  1.00  0.00    -0.744 OA
ENDBRANCH  88  91
ENDBRANCH  61  84
ENDBRANCH  35  36
ENDBRANCH  27  30
ENDBRANCH  25  26
ENDBRANCH  24  25
ENDBRANCH   1  24
TORSDOF 18
ENDMDL
MODEL 2
REMARK VINA RESULT:     -11.3      5.817     10.295
REMARK SMILES COc1ccc(NCc2cc(C(=O)NCCCCNC(=O)c3ccc(-c4c5nc(c(-c6cccc(S(=O)(=O)[O-])c6F)c6ccc([nH]6)c(-c6cccc(S(=O)(=O)[O-])c6F)c6nc(c(-c7cccc(S(=O)(=O)[O-])c7F)c7ccc4[nH]7)C=C6)C=C5)cc3)cs2)cc1Br
REMARK SMILES IDX 16 1 15 2 14 3 12 4 13 5 11 7 9 8 10 9 86 10 85 11 8 12 7 13
REMARK SMILES IDX 6 15 3 16 4 17 88 18 5 19 87 20 89 21 2 22 1 23 17 24 18 25
REMARK SMILES IDX 19 26 20 27 21 29 22 30 23 31 84 32 24 33 83 34 25 35 26 36
REMARK SMILES IDX 27 37 77 38 28 39 82 40 76 41 78 42 29 43 81 44 75 45 74 46
REMARK SMILES IDX 30 48 62 49 42 50 61 51 43 52 46 53 60 54 79 55 44 56 45 57
REMARK SMILES IDX 59 59 80 60 47 61 31 62 32 63 40 64 33 65 35 66 41 67 34 68
REMARK SMILES IDX 36 69 37 70 38 71 39 72 63 73 64 74 72 75 65 76 67 77 73 78
REMARK SMILES IDX 66 79 68 80 69 81 70 82 71 83 48 84 49 85 57 86 50 87 52 88
REMARK SMILES IDX 58 89 51 90 53 91 54 92 55 93 56 94
REMARK H PARENT 14 6 7 14 19 28 78 47 46 58
REMARK Flexibility Score: inf
ROOT
ATOM      1  C   UNL A   1      37.295  21.501  24.783  1.00  0.00     0.023 C 
ENDROOT
BRANCH   1   2
ATOM      2  C   UNL A   1      35.911  21.423  25.426  1.00  0.00     0.116 C 
BRANCH   2   3
ATOM      3  N   UNL A   1      35.215  20.227  25.001  1.00  0.00    -0.352 N 
ATOM      4  C   UNL A   1      33.912  20.003  24.641  1.00  0.00     0.252 C 
ATOM      5  O   UNL A   1      33.620  18.869  24.267  1.00  0.00    -0.269 OA
ATOM      6  H   UNL A   1      35.784  19.424  24.965  1.00  0.00     0.163 HD
BRANCH   4   7
ATOM      7  C   UNL A   1      32.915  21.081  24.634  1.00  0.00     0.050 A 
ATOM      8  C   UNL A   1      31.438  22.785  25.312  1.00  0.00     0.024 A 
ATOM      9  C   UNL A   1      32.177  21.686  25.706  1.00  0.00     0.031 A 
ATOM     10  S   UNL A   1      31.447  22.963  23.615  1.00  0.00    -0.146 S 
ATOM     11  C   UNL A   1      32.522  21.652  23.432  1.00  0.00     0.079 A 
BRANCH   8  12
ATOM     12  C   UNL A   1      30.668  23.733  26.180  1.00  0.00     0.159 C 
BRANCH  12  13
ATOM     13  N   UNL A   1      30.086  24.832  25.439  1.00  0.00    -0.380 N 
ATOM     14  H   UNL A   1      29.327  24.608  24.854  1.00  0.00     0.160 HD
BRANCH  13  15
ATOM     15  C   UNL A   1      30.469  26.156  25.457  1.00  0.00     0.036 A 
ATOM     16  C   UNL A   1      31.400  28.832  25.239  1.00  0.00     0.133 A 
ATOM     17  C   UNL A   1      31.564  28.107  26.422  1.00  0.00     0.050 A 
ATOM     18  C   UNL A   1      30.765  28.219  24.159  1.00  0.00     0.062 A 
ATOM     19  C   UNL A   1      31.104  26.786  26.528  1.00  0.00     0.029 A 
ATOM     20  C   UNL A   1      30.298  26.903  24.282  1.00  0.00     0.045 A 
ATOM     21  Br  UNL A   1      30.585  29.021  22.448  1.00  0.00    -0.047 Br
BRANCH  16  22
ATOM     22  O   UNL A   1      32.019  30.052  25.208  1.00  0.00    -0.496 OA
ATOM     23  C   UNL A   1      32.720  30.386  26.403  1.00  0.00     0.278 C 
ENDBRANCH  16  22
ENDBRANCH  13  15
ENDBRANCH  12  13
ENDBRANCH   8  12
ENDBRANCH   4   7
ENDBRANCH   2   3
ENDBRANCH   1   2
BRANCH   1  24
ATOM     24  C   UNL A   1      38.154  20.253  25.020  1.00  0.00     0.023 C 
BRANCH  24  25
ATOM     25  C   UNL A   1      39.340  20.455  25.960  1.00  0.00     0.116 C 
BRANCH  25  26
ATOM     26  N   UNL A   1      40.317  19.378  25.889  1.00  0.00    -0.352 N 
ATOM     27  C   UNL A   1      41.686  19.457  25.981  1.00  0.00     0.251 C 
ATOM     28  H   UNL A   1      39.949  18.473  25.756  1.00  0.00     0.163 HD
ATOM     29  O   UNL A   1      42.377  18.466  25.777  1.00  0.00    -0.269 OA
BRANCH  27  30
ATOM     30  C   UNL A   1      42.312  20.759  26.291  1.00  0.00     0.039 A 
ATOM     31  C   UNL A   1      42.645  21.613  25.239  1.00  0.00     0.014 A 
ATOM     32  C   UNL A   1      42.522  21.151  27.616  1.00  0.00     0.014 A 
ATOM     33  C   UNL A   1      43.128  22.892  25.520  1.00  0.00     0.010 A 
ATOM     34  C   UNL A   1      42.929  22.452  27.893  1.00  0.00     0.010 A 
ATOM     35  C   UNL A   1      43.235  23.338  26.849  1.00  0.00    -0.014 A 
BRANCH  35  36
ATOM     36  C   UNL A   1      43.634  24.735  27.156  1.00  0.00     0.031 A 
ATOM     37  C   UNL A   1      45.074  25.160  27.055  1.00  0.00     0.074 A 
ATOM     38  C   UNL A   1      42.705  25.606  27.597  1.00  0.00     0.049 A 
ATOM     39  N   UNL A   1      45.605  26.330  27.298  1.00  0.00    -0.248 NA
ATOM     40  C   UNL A   1      46.050  24.132  26.653  1.00  0.00     0.031 C 
ATOM     41  C   UNL A   1      41.292  25.292  27.822  1.00  0.00     0.029 A 
ATOM     42  N   UNL A   1      42.811  26.926  27.957  1.00  0.00    -0.354 N 
ATOM     43  C   UNL A   1      46.973  26.174  27.110  1.00  0.00     0.074 A 
ATOM     44  C   UNL A   1      47.196  24.786  26.769  1.00  0.00     0.031 C 
ATOM     45  C   UNL A   1      40.661  26.391  28.268  1.00  0.00     0.029 A 
ATOM     46  C   UNL A   1      41.629  27.477  28.394  1.00  0.00     0.049 A 
ATOM     47  H   UNL A   1      43.654  27.432  27.908  1.00  0.00     0.167 HD
ATOM     48  C   UNL A   1      47.952  27.107  27.185  1.00  0.00     0.034 A 
ATOM     49  C   UNL A   1      41.353  28.714  28.851  1.00  0.00     0.034 A 
ATOM     50  C   UNL A   1      47.723  28.492  27.496  1.00  0.00     0.049 A 
ATOM     51  C   UNL A   1      42.455  29.737  28.895  1.00  0.00     0.074 A 
ATOM     52  C   UNL A   1      48.636  29.532  27.509  1.00  0.00     0.029 A 
ATOM     53  N   UNL A   1      46.500  29.031  27.864  1.00  0.00    -0.354 N 
ATOM     54  N   UNL A   1      43.712  29.612  28.551  1.00  0.00    -0.248 NA
ATOM     55  C   UNL A   1      42.090  31.085  29.356  1.00  0.00     0.031 C 
ATOM     56  C   UNL A   1      47.972  30.692  27.922  1.00  0.00     0.029 A 
ATOM     57  C   UNL A   1      46.637  30.384  28.124  1.00  0.00     0.049 A 
ATOM     58  H   UNL A   1      45.658  28.524  27.930  1.00  0.00     0.167 HD
ATOM     59  C   UNL A   1      44.281  30.869  28.720  1.00  0.00     0.074 A 
ATOM     60  C   UNL A   1      43.223  31.748  29.173  1.00  0.00     0.031 C 
ATOM     61  C   UNL A   1      45.567  31.258  28.533  1.00  0.00     0.034 A 
BRANCH  48  62
ATOM     62  C   UNL A   1      49.363  26.668  26.884  1.00  0.00     0.023 A 
ATOM     63  C   UNL A   1      50.038  25.819  27.785  1.00  0.00     0.012 A 
ATOM     64  C   UNL A   1      49.996  27.042  25.681  1.00  0.00     0.148 A 
ATOM     65  C   UNL A   1      51.333  25.378  27.512  1.00  0.00     0.002 A 
ATOM     66  C   UNL A   1      51.267  26.559  25.395  1.00  0.00     0.091 A 
ATOM     67  F   UNL A   1      49.347  27.865  24.846  1.00  0.00    -0.205 F 
ATOM     68  C   UNL A   1      51.942  25.739  26.315  1.00  0.00     0.022 A 
BRANCH  66  69
ATOM     69  S   UNL A   1      52.108  26.897  23.844  1.00  0.00     0.127 S 
ATOM     70  O   UNL A   1      52.548  28.277  24.042  1.00  0.00    -0.237 OA
ATOM     71  O   UNL A   1      53.183  25.905  23.857  1.00  0.00    -0.237 OA
ATOM     72  O   UNL A   1      51.114  26.704  22.797  1.00  0.00    -0.744 OA
ENDBRANCH  66  69
ENDBRANCH  48  62
BRANCH  49  73
ATOM     73  C   UNL A   1      39.962  29.069  29.256  1.00  0.00     0.023 A 
ATOM     74  C   UNL A   1      39.011  29.388  28.267  1.00  0.00     0.012 A 
ATOM     75  C   UNL A   1      39.577  29.078  30.609  1.00  0.00     0.148 A 
ATOM     76  C   UNL A   1      37.710  29.747  28.622  1.00  0.00     0.002 A 
ATOM     77  C   UNL A   1      38.263  29.378  30.952  1.00  0.00     0.091 A 
ATOM     78  F   UNL A   1      40.499  28.780  31.534  1.00  0.00    -0.205 F 
ATOM     79  C   UNL A   1      37.334  29.734  29.962  1.00  0.00     0.022 A 
BRANCH  77  80
ATOM     80  S   UNL A   1      37.656  29.256  32.638  1.00  0.00     0.127 S 
ATOM     81  O   UNL A   1      38.550  30.169  33.345  1.00  0.00    -0.237 OA
ATOM     82  O   UNL A   1      36.278  29.725  32.495  1.00  0.00    -0.237 OA
ATOM     83  O   UNL A   1      37.777  27.849  32.997  1.00  0.00    -0.744 OA
ENDBRANCH  77  80
ENDBRANCH  49  73
BRANCH  61  84
ATOM     84  C   UNL A   1      45.899  32.707  28.782  1.00  0.00     0.023 A 
ATOM     85  C   UNL A   1      46.502  33.094  29.996  1.00  0.00     0.012 A 
ATOM     86  C   UNL A   1      45.665  33.676  27.786  1.00  0.00     0.148 A 
ATOM     87  C   UNL A   1      46.827  34.429  30.231  1.00  0.00     0.002 A 
ATOM     88  C   UNL A   1      46.042  34.996  28.006  1.00  0.00     0.091 A 
ATOM     89  F   UNL A   1      45.077  33.292  26.645  1.00  0.00    -0.205 F 
ATOM     90  C   UNL A   1      46.608  35.377  29.234  1.00  0.00     0.022 A 
BRANCH  88  91
ATOM     91  S   UNL A   1      45.890  36.265  26.745  1.00  0.00     0.127 S 
ATOM     92  O   UNL A   1      46.570  37.395  27.375  1.00  0.00    -0.237 OA
ATOM     93  O   UNL A   1      46.610  35.670  25.619  1.00  0.00    -0.237 OA
ATOM     94  O   UNL A   1      44.461  36.443  26.523  1.00  0.00    -0.744 OA
ENDBRANCH  88  91
ENDBRANCH  61  84
ENDBRANCH  35  36
ENDBRANCH  27  30
ENDBRANCH  25  26
ENDBRANCH  24  25
ENDBRANCH   1  24
TORSDOF 18
ENDMDL
MODEL 3
REMARK VINA RESULT:     -11.2      1.676      2.035
REMARK SMILES COc1ccc(NCc2cc(C(=O)NCCCCNC(=O)c3ccc(-c4c5nc(c(-c6cccc(S(=O)(=O)[O-])c6F)c6ccc([nH]6)c(-c6cccc(S(=O)(=O)[O-])c6F)c6nc(c(-c7cccc(S(=O)(=O)[O-])c7F)c7ccc4[nH]7)C=C6)C=C5)cc3)cs2)cc1Br
REMARK SMILES IDX 16 1 15 2 14 3 12 4 13 5 11 7 9 8 10 9 86 10 85 11 8 12 7 13
REMARK SMILES IDX 6 15 3 16 4 17 88 18 5 19 87 20 89 21 2 22 1 23 17 24 18 25
REMARK SMILES IDX 19 26 20 27 21 29 22 30 23 31 84 32 24 33 83 34 25 35 26 36
REMARK SMILES IDX 27 37 77 38 28 39 82 40 76 41 78 42 29 43 81 44 75 45 74 46
REMARK SMILES IDX 30 48 62 49 42 50 61 51 43 52 46 53 60 54 79 55 44 56 45 57
REMARK SMILES IDX 59 59 80 60 47 61 31 62 32 63 40 64 33 65 35 66 41 67 34 68
REMARK SMILES IDX 36 69 37 70 38 71 39 72 63 73 64 74 72 75 65 76 67 77 73 78
REMARK SMILES IDX 66 79 68 80 69 81 70 82 71 83 48 84 49 85 57 86 50 87 52 88
REMARK SMILES IDX 58 89 51 90 53 91 54 92 55 93 56 94
REMARK H PARENT 14 6 7 14 19 28 78 47 46 58
REMARK Flexibility Score: inf
ROOT
ATOM      1  C   UNL A   1      31.240  31.118  25.726  1.00  0.00     0.023 C 
ENDROOT
BRANCH   1   2
ATOM      2  C   UNL A   1      31.288  29.825  24.912  1.00  0.00     0.116 C 
BRANCH   2   3
ATOM      3  N   UNL A   1      30.422  29.914  23.756  1.00  0.00    -0.352 N 
ATOM      4  C   UNL A   1      30.045  28.988  22.818  1.00  0.00     0.252 C 
ATOM      5  O   UNL A   1      29.238  29.351  21.966  1.00  0.00    -0.269 OA
ATOM      6  H   UNL A   1      30.031  30.807  23.617  1.00  0.00     0.163 HD
BRANCH   4   7
ATOM      7  C   UNL A   1      30.528  27.603  22.862  1.00  0.00     0.050 A 
ATOM      8  C   UNL A   1      31.866  25.678  22.647  1.00  0.00     0.024 A 
ATOM      9  C   UNL A   1      31.660  26.981  22.237  1.00  0.00     0.031 A 
ATOM     10  S   UNL A   1      30.575  25.118  23.611  1.00  0.00    -0.146 S 
ATOM     11  C   UNL A   1      29.815  26.644  23.570  1.00  0.00     0.079 A 
BRANCH   8  12
ATOM     12  C   UNL A   1      33.021  24.782  22.313  1.00  0.00     0.159 C 
BRANCH  12  13
ATOM     13  N   UNL A   1      32.616  23.420  22.032  1.00  0.00    -0.380 N 
ATOM     14  H   UNL A   1      32.174  23.268  21.165  1.00  0.00     0.160 HD
BRANCH  13  15
ATOM     15  C   UNL A   1      32.778  22.312  22.834  1.00  0.00     0.036 A 
ATOM     16  C   UNL A   1      33.401  20.042  24.425  1.00  0.00     0.133 A 
ATOM     17  C   UNL A   1      32.371  19.998  23.483  1.00  0.00     0.050 A 
ATOM     18  C   UNL A   1      34.124  21.225  24.577  1.00  0.00     0.062 A 
ATOM     19  C   UNL A   1      32.065  21.121  22.698  1.00  0.00     0.029 A 
ATOM     20  C   UNL A   1      33.799  22.344  23.796  1.00  0.00     0.045 A 
ATOM     21  Br  UNL A   1      35.633  21.402  25.715  1.00  0.00    -0.047 Br
BRANCH  16  22
ATOM     22  O   UNL A   1      33.702  18.847  25.022  1.00  0.00    -0.496 OA
ATOM     23  C   UNL A   1      33.950  17.781  24.108  1.00  0.00     0.278 C 
ENDBRANCH  16  22
ENDBRANCH  13  15
ENDBRANCH  12  13
ENDBRANCH   8  12
ENDBRANCH   4   7
ENDBRANCH   2   3
ENDBRANCH   1   2
BRANCH   1  24
ATOM     24  C   UNL A   1      32.020  31.044  27.043  1.00  0.00     0.023 C 
BRANCH  24  25
ATOM     25  C   UNL A   1      33.197  32.011  27.152  1.00  0.00     0.116 C 
BRANCH  25  26
ATOM     26  N   UNL A   1      32.789  33.379  27.442  1.00  0.00    -0.352 N 
ATOM     27  C   UNL A   1      33.261  34.222  28.419  1.00  0.00     0.251 C 
ATOM     28  H   UNL A   1      32.083  33.748  26.862  1.00  0.00     0.163 HD
ATOM     29  O   UNL A   1      32.723  35.308  28.609  1.00  0.00    -0.269 OA
BRANCH  27  30
ATOM     30  C   UNL A   1      34.396  33.789  29.259  1.00  0.00     0.039 A 
ATOM     31  C   UNL A   1      34.153  32.915  30.319  1.00  0.00     0.014 A 
ATOM     32  C   UNL A   1      35.698  34.205  28.967  1.00  0.00     0.014 A 
ATOM     33  C   UNL A   1      35.228  32.403  31.047  1.00  0.00     0.010 A 
ATOM     34  C   UNL A   1      36.771  33.634  29.644  1.00  0.00     0.010 A 
ATOM     35  C   UNL A   1      36.549  32.727  30.690  1.00  0.00    -0.014 A 
BRANCH  35  36
ATOM     36  C   UNL A   1      37.702  32.097  31.382  1.00  0.00     0.031 A 
ATOM     37  C   UNL A   1      38.454  30.963  30.740  1.00  0.00     0.074 A 
ATOM     38  C   UNL A   1      38.027  32.500  32.626  1.00  0.00     0.049 A 
ATOM     39  N   UNL A   1      39.472  30.285  31.202  1.00  0.00    -0.248 NA
ATOM     40  C   UNL A   1      37.987  30.513  29.417  1.00  0.00     0.031 C 
ATOM     41  C   UNL A   1      37.321  33.530  33.393  1.00  0.00     0.029 A 
ATOM     42  N   UNL A   1      39.021  32.080  33.475  1.00  0.00    -0.354 N 
ATOM     43  C   UNL A   1      39.748  29.314  30.247  1.00  0.00     0.074 A 
ATOM     44  C   UNL A   1      38.767  29.465  29.196  1.00  0.00     0.031 C 
ATOM     45  C   UNL A   1      37.911  33.671  34.591  1.00  0.00     0.029 A 
ATOM     46  C   UNL A   1      39.014  32.720  34.693  1.00  0.00     0.049 A 
ATOM     47  H   UNL A   1      39.677  31.387  33.236  1.00  0.00     0.167 HD
ATOM     48  C   UNL A   1      40.747  28.399  30.232  1.00  0.00     0.034 A 
ATOM     49  C   UNL A   1      39.801  32.557  35.774  1.00  0.00     0.034 A 
ATOM     50  C   UNL A   1      41.739  28.270  31.265  1.00  0.00     0.049 A 
ATOM     51  C   UNL A   1      40.920  31.553  35.717  1.00  0.00     0.074 A 
ATOM     52  C   UNL A   1      42.842  27.434  31.298  1.00  0.00     0.029 A 
ATOM     53  N   UNL A   1      41.743  28.984  32.453  1.00  0.00    -0.354 N 
ATOM     54  N   UNL A   1      41.268  30.760  34.734  1.00  0.00    -0.248 NA
ATOM     55  C   UNL A   1      41.779  31.449  36.905  1.00  0.00     0.031 C 
ATOM     56  C   UNL A   1      43.491  27.616  32.524  1.00  0.00     0.029 A 
ATOM     57  C   UNL A   1      42.818  28.596  33.235  1.00  0.00     0.049 A 
ATOM     58  H   UNL A   1      41.079  29.667  32.703  1.00  0.00     0.167 HD
ATOM     59  C   UNL A   1      42.404  30.087  35.170  1.00  0.00     0.074 A 
ATOM     60  C   UNL A   1      42.700  30.587  36.497  1.00  0.00     0.031 C 
ATOM     61  C   UNL A   1      43.127  29.130  34.537  1.00  0.00     0.034 A 
BRANCH  48  62
ATOM     62  C   UNL A   1      40.842  27.486  29.035  1.00  0.00     0.023 A 
ATOM     63  C   UNL A   1      39.980  26.374  28.933  1.00  0.00     0.012 A 
ATOM     64  C   UNL A   1      41.738  27.763  27.983  1.00  0.00     0.148 A 
ATOM     65  C   UNL A   1      40.032  25.534  27.822  1.00  0.00     0.002 A 
ATOM     66  C   UNL A   1      41.749  26.948  26.858  1.00  0.00     0.091 A 
ATOM     67  F   UNL A   1      42.563  28.812  28.106  1.00  0.00    -0.205 F 
ATOM     68  C   UNL A   1      40.907  25.826  26.781  1.00  0.00     0.022 A 
BRANCH  66  69
ATOM     69  S   UNL A   1      42.781  27.284  25.426  1.00  0.00     0.127 S 
ATOM     70  O   UNL A   1      42.642  26.044  24.665  1.00  0.00    -0.237 OA
ATOM     71  O   UNL A   1      42.111  28.442  24.832  1.00  0.00    -0.237 OA
ATOM     72  O   UNL A   1      44.115  27.552  25.944  1.00  0.00    -0.744 OA
ENDBRANCH  66  69
ENDBRANCH  48  62
BRANCH  49  73
ATOM     73  C   UNL A   1      39.592  33.400  36.986  1.00  0.00     0.023 A 
ATOM     74  C   UNL A   1      38.542  33.092  37.874  1.00  0.00     0.012 A 
ATOM     75  C   UNL A   1      40.433  34.492  37.269  1.00  0.00     0.148 A 
ATOM     76  C   UNL A   1      38.310  33.881  39.002  1.00  0.00     0.002 A 
ATOM     77  C   UNL A   1      40.234  35.237  38.426  1.00  0.00     0.091 A 
ATOM     78  F   UNL A   1      41.419  34.773  36.408  1.00  0.00    -0.205 F 
ATOM     79  C   UNL A   1      39.161  34.947  39.282  1.00  0.00     0.022 A 
BRANCH  77  80
ATOM     80  S   UNL A   1      41.358  36.542  38.936  1.00  0.00     0.127 S 
ATOM     81  O   UNL A   1      42.393  35.787  39.636  1.00  0.00    -0.237 OA
ATOM     82  O   UNL A   1      41.766  37.106  37.649  1.00  0.00    -0.237 OA
ATOM     83  O   UNL A   1      40.565  37.443  39.761  1.00  0.00    -0.744 OA
ENDBRANCH  77  80
ENDBRANCH  49  73
BRANCH  61  84
ATOM     84  C   UNL A   1      44.335  28.584  35.253  1.00  0.00     0.023 A 
ATOM     85  C   UNL A   1      45.614  29.115  34.986  1.00  0.00     0.012 A 
ATOM     86  C   UNL A   1      44.195  27.582  36.234  1.00  0.00     0.148 A 
ATOM     87  C   UNL A   1      46.737  28.627  35.652  1.00  0.00     0.002 A 
ATOM     88  C   UNL A   1      45.311  27.140  36.934  1.00  0.00     0.091 A 
ATOM     89  F   UNL A   1      42.974  27.079  36.464  1.00  0.00    -0.205 F 
ATOM     90  C   UNL A   1      46.585  27.649  36.633  1.00  0.00     0.022 A 
BRANCH  88  91
ATOM     91  S   UNL A   1      45.199  25.957  38.280  1.00  0.00     0.127 S 
ATOM     92  O   UNL A   1      46.601  25.816  38.671  1.00  0.00    -0.237 OA
ATOM     93  O   UNL A   1      44.364  26.669  39.248  1.00  0.00    -0.237 OA
ATOM     94  O   UNL A   1      44.586  24.762  37.716  1.00  0.00    -0.744 OA
ENDBRANCH  88  91
ENDBRANCH  61  84
ENDBRANCH  35  36
ENDBRANCH  27  30
ENDBRANCH  25  26
ENDBRANCH  24  25
ENDBRANCH   1  24
TORSDOF 18
ENDMDL
