MODEL 1
REMARK VINA RESULT:     -12.3      0.000      0.000
REMARK SMILES C[NH+]1CCC(NC(=O)N[C@@H]2C=C[C@H](C(=O)NCCCCNC(=O)c3ccc(-c4c5nc(c(-c6cccc(S(=O)(=O)[O-])c6F)c6ccc([nH]6)c(-c6cccc(S(=O)(=O)[O-])c6F)c6nc(c(-c7cccc(S(=O)(=O)[O-])c7F)c7ccc4[nH]7)C=C6)C=C5)cc3)C2)CC1
REMARK SMILES IDX 19 1 18 2 17 3 16 4 14 5 15 6 13 8 10 9 11 10 87 11 12 12
REMARK SMILES IDX 9 13 6 14 7 15 8 17 5 19 1 20 2 21 3 22 89 23 4 25 88 26
REMARK SMILES IDX 20 27 21 28 22 29 23 31 24 32 25 33 86 34 26 35 85 36 27 37
REMARK SMILES IDX 28 38 29 39 79 40 30 41 84 42 78 43 80 44 31 45 83 46 77 47
REMARK SMILES IDX 76 48 32 50 64 51 44 52 63 53 45 54 48 55 62 56 81 57 46 58
REMARK SMILES IDX 47 59 61 61 82 62 49 63 33 64 34 65 42 66 35 67 37 68 43 69
REMARK SMILES IDX 36 70 38 71 39 72 40 73 41 74 65 75 66 76 74 77 67 78 69 79
REMARK SMILES IDX 75 80 68 81 70 82 71 83 72 84 73 85 50 86 51 87 59 88 52 89
REMARK SMILES IDX 54 90 60 91 53 92 55 93 56 94 57 95 58 96
REMARK H PARENT 16 7 6 16 9 18 2 24 21 30 80 49 48 60
REMARK Flexibility Score: inf
ROOT
ATOM      1  C   UNL A   1      35.291  21.615  24.678  1.00  0.00     0.023 C 
ENDROOT
BRANCH   1   2
ATOM      2  C   UNL A   1      34.785  20.191  24.929  1.00  0.00     0.023 C 
BRANCH   2   3
ATOM      3  C   UNL A   1      33.391  20.124  25.548  1.00  0.00     0.116 C 
BRANCH   3   4
ATOM      4  N   UNL A   1      33.333  20.861  26.796  1.00  0.00    -0.356 N 
ATOM      5  C   UNL A   1      32.638  22.001  27.081  1.00  0.00     0.227 C 
ATOM      6  O   UNL A   1      32.757  22.505  28.197  1.00  0.00    -0.274 OA
ATOM      7  H   UNL A   1      33.865  20.489  27.536  1.00  0.00     0.163 HD
BRANCH   5   8
ATOM      8  C   UNL A   1      31.696  22.554  26.022  1.00  0.00     0.103 C 
ATOM      9  C   UNL A   1      30.794  24.843  25.958  1.00  0.00     0.107 C 
ATOM     10  C   UNL A   1      29.854  23.886  26.613  1.00  0.00    -0.006 C 
ATOM     11  C   UNL A   1      32.035  24.004  25.649  1.00  0.00     0.047 C 
ATOM     12  C   UNL A   1      30.327  22.638  26.625  1.00  0.00    -0.016 C 
BRANCH   9  13
ATOM     13  N   UNL A   1      31.027  25.950  26.853  1.00  0.00    -0.332 N 
ATOM     14  N   UNL A   1      32.091  27.604  25.525  1.00  0.00    -0.335 N 
ATOM     15  C   UNL A   1      31.605  27.155  26.699  1.00  0.00     0.315 C 
ATOM     16  H   UNL A   1      32.486  28.504  25.573  1.00  0.00     0.165 HD
ATOM     17  O   UNL A   1      31.694  27.898  27.679  1.00  0.00    -0.249 OA
ATOM     18  H   UNL A   1      30.694  25.792  27.766  1.00  0.00     0.165 HD
BRANCH  14  19
ATOM     19  C   UNL A   1      32.139  27.009  24.206  1.00  0.00     0.095 C 
ATOM     20  C   UNL A   1      32.535  25.644  20.257  1.00  0.00     0.332 C 
ATOM     21  N   UNL A   1      32.561  26.587  21.380  1.00  0.00    -0.337 N 
ATOM     22  C   UNL A   1      33.559  26.140  22.366  1.00  0.00     0.264 C 
ATOM     23  C   UNL A   1      31.208  26.734  21.944  1.00  0.00     0.264 C 
ATOM     24  H   UNL A   1      32.844  27.515  21.064  1.00  0.00     0.347 HD
ATOM     25  C   UNL A   1      33.551  26.994  23.633  1.00  0.00     0.086 C 
ATOM     26  C   UNL A   1      31.191  27.630  23.191  1.00  0.00     0.086 C 
ENDBRANCH  14  19
ENDBRANCH   9  13
ENDBRANCH   5   8
ENDBRANCH   3   4
ENDBRANCH   2   3
ENDBRANCH   1   2
BRANCH   1  27
ATOM     27  C   UNL A   1      36.503  22.024  25.509  1.00  0.00     0.116 C 
BRANCH  27  28
ATOM     28  N   UNL A   1      37.489  20.962  25.623  1.00  0.00    -0.352 N 
ATOM     29  C   UNL A   1      38.817  21.049  25.961  1.00  0.00     0.251 C 
ATOM     30  H   UNL A   1      37.158  20.055  25.430  1.00  0.00     0.163 HD
ATOM     31  O   UNL A   1      39.534  20.060  25.867  1.00  0.00    -0.269 OA
BRANCH  29  32
ATOM     32  C   UNL A   1      39.379  22.342  26.412  1.00  0.00     0.039 A 
ATOM     33  C   UNL A   1      40.428  22.328  27.333  1.00  0.00     0.014 A 
ATOM     34  C   UNL A   1      38.881  23.556  25.932  1.00  0.00     0.014 A 
ATOM     35  C   UNL A   1      41.006  23.533  27.737  1.00  0.00     0.010 A 
ATOM     36  C   UNL A   1      39.513  24.749  26.273  1.00  0.00     0.010 A 
ATOM     37  C   UNL A   1      40.574  24.752  27.190  1.00  0.00    -0.014 A 
BRANCH  37  38
ATOM     38  C   UNL A   1      41.232  26.029  27.568  1.00  0.00     0.031 A 
ATOM     39  C   UNL A   1      42.662  26.301  27.182  1.00  0.00     0.074 A 
ATOM     40  C   UNL A   1      40.556  26.926  28.313  1.00  0.00     0.049 A 
ATOM     41  N   UNL A   1      43.387  27.366  27.410  1.00  0.00    -0.248 NA
ATOM     42  C   UNL A   1      43.381  25.229  26.473  1.00  0.00     0.031 C 
ATOM     43  C   UNL A   1      39.199  26.741  28.833  1.00  0.00     0.029 A 
ATOM     44  N   UNL A   1      40.922  28.165  28.778  1.00  0.00    -0.354 N 
ATOM     45  C   UNL A   1      44.651  27.082  26.904  1.00  0.00     0.074 A 
ATOM     46  C   UNL A   1      44.604  25.730  26.393  1.00  0.00     0.031 C 
ATOM     47  C   UNL A   1      38.844  27.830  29.533  1.00  0.00     0.029 A 
ATOM     48  C   UNL A   1      39.954  28.777  29.537  1.00  0.00     0.049 A 
ATOM     49  H   UNL A   1      41.797  28.575  28.585  1.00  0.00     0.167 HD
ATOM     50  C   UNL A   1      45.742  27.882  26.845  1.00  0.00     0.034 A 
ATOM     51  C   UNL A   1      39.958  29.967  30.170  1.00  0.00     0.034 A 
ATOM     52  C   UNL A   1      45.774  29.237  27.327  1.00  0.00     0.049 A 
ATOM     53  C   UNL A   1      41.162  30.859  30.041  1.00  0.00     0.074 A 
ATOM     54  C   UNL A   1      46.798  30.161  27.227  1.00  0.00     0.029 A 
ATOM     55  N   UNL A   1      44.744  29.856  28.018  1.00  0.00    -0.354 N 
ATOM     56  N   UNL A   1      42.287  30.641  29.405  1.00  0.00    -0.248 NA
ATOM     57  C   UNL A   1      41.080  32.179  30.681  1.00  0.00     0.031 C 
ATOM     58  C   UNL A   1      46.402  31.327  27.890  1.00  0.00     0.029 A 
ATOM     59  C   UNL A   1      45.112  31.146  28.364  1.00  0.00     0.049 A 
ATOM     60  H   UNL A   1      43.877  29.441  28.232  1.00  0.00     0.167 HD
ATOM     61  C   UNL A   1      43.032  31.805  29.536  1.00  0.00     0.074 A 
ATOM     62  C   UNL A   1      42.220  32.736  30.293  1.00  0.00     0.031 C 
ATOM     63  C   UNL A   1      44.281  32.078  29.083  1.00  0.00     0.034 A 
BRANCH  50  64
ATOM     64  C   UNL A   1      46.986  27.322  26.201  1.00  0.00     0.023 A 
ATOM     65  C   UNL A   1      47.221  27.536  24.826  1.00  0.00     0.012 A 
ATOM     66  C   UNL A   1      47.947  26.632  26.965  1.00  0.00     0.148 A 
ATOM     67  C   UNL A   1      48.369  27.035  24.214  1.00  0.00     0.002 A 
ATOM     68  C   UNL A   1      49.113  26.180  26.359  1.00  0.00     0.091 A 
ATOM     69  F   UNL A   1      47.698  26.420  28.265  1.00  0.00    -0.205 F 
ATOM     70  C   UNL A   1      49.319  26.368  24.981  1.00  0.00     0.022 A 
BRANCH  68  71
ATOM     71  S   UNL A   1      50.437  25.385  27.276  1.00  0.00     0.127 S 
ATOM     72  O   UNL A   1      50.786  26.420  28.248  1.00  0.00    -0.237 OA
ATOM     73  O   UNL A   1      49.758  24.220  27.846  1.00  0.00    -0.237 OA
ATOM     74  O   UNL A   1      51.469  25.069  26.300  1.00  0.00    -0.744 OA
ENDBRANCH  68  71
ENDBRANCH  50  64
BRANCH  51  75
ATOM     75  C   UNL A   1      38.755  30.404  30.933  1.00  0.00     0.023 A 
ATOM     76  C   UNL A   1      38.679  30.157  32.317  1.00  0.00     0.012 A 
ATOM     77  C   UNL A   1      37.703  31.092  30.298  1.00  0.00     0.148 A 
ATOM     78  C   UNL A   1      37.560  30.556  33.049  1.00  0.00     0.002 A 
ATOM     79  C   UNL A   1      36.619  31.538  31.044  1.00  0.00     0.091 A 
ATOM     80  F   UNL A   1      37.793  31.309  28.979  1.00  0.00    -0.205 F 
ATOM     81  C   UNL A   1      36.536  31.255  32.415  1.00  0.00     0.022 A 
BRANCH  79  82
ATOM     82  S   UNL A   1      35.325  32.565  30.339  1.00  0.00     0.127 S 
ATOM     83  O   UNL A   1      34.383  32.663  31.452  1.00  0.00    -0.237 OA
ATOM     84  O   UNL A   1      36.053  33.798  30.036  1.00  0.00    -0.237 OA
ATOM     85  O   UNL A   1      34.846  31.848  29.167  1.00  0.00    -0.744 OA
ENDBRANCH  79  82
ENDBRANCH  51  75
BRANCH  63  86
ATOM     86  C   UNL A   1      44.836  33.453  29.353  1.00  0.00     0.023 A 
ATOM     87  C   UNL A   1      45.523  33.716  30.556  1.00  0.00     0.012 A 
ATOM     88  C   UNL A   1      44.718  34.474  28.390  1.00  0.00     0.148 A 
ATOM     89  C   UNL A   1      46.040  34.985  30.815  1.00  0.00     0.002 A 
ATOM     90  C   UNL A   1      45.284  35.720  28.631  1.00  0.00     0.091 A 
ATOM     91  F   UNL A   1      44.046  34.212  27.259  1.00  0.00    -0.205 F 
ATOM     92  C   UNL A   1      45.931  35.982  29.848  1.00  0.00     0.022 A 
BRANCH  90  93
ATOM     93  S   UNL A   1      45.278  37.030  27.403  1.00  0.00     0.127 S 
ATOM     94  O   UNL A   1      43.865  37.088  27.036  1.00  0.00    -0.237 OA
ATOM     95  O   UNL A   1      45.757  38.179  28.173  1.00  0.00    -0.237 OA
ATOM     96  O   UNL A   1      46.183  36.595  26.347  1.00  0.00    -0.744 OA
ENDBRANCH  90  93
ENDBRANCH  63  86
ENDBRANCH  37  38
ENDBRANCH  29  32
ENDBRANCH  27  28
ENDBRANCH   1  27
TORSDOF 16
ENDMDL
MODEL 2
REMARK VINA RESULT:     -12.2      2.403      8.004
REMARK SMILES C[NH+]1CCC(NC(=O)N[C@@H]2C=C[C@H](C(=O)NCCCCNC(=O)c3ccc(-c4c5nc(c(-c6cccc(S(=O)(=O)[O-])c6F)c6ccc([nH]6)c(-c6cccc(S(=O)(=O)[O-])c6F)c6nc(c(-c7cccc(S(=O)(=O)[O-])c7F)c7ccc4[nH]7)C=C6)C=C5)cc3)C2)CC1
REMARK SMILES IDX 19 1 18 2 17 3 16 4 14 5 15 6 13 8 10 9 11 10 87 11 12 12
REMARK SMILES IDX 9 13 6 14 7 15 8 17 5 19 1 20 2 21 3 22 89 23 4 25 88 26
REMARK SMILES IDX 20 27 21 28 22 29 23 31 24 32 25 33 86 34 26 35 85 36 27 37
REMARK SMILES IDX 28 38 29 39 79 40 30 41 84 42 78 43 80 44 31 45 83 46 77 47
REMARK SMILES IDX 76 48 32 50 64 51 44 52 63 53 45 54 48 55 62 56 81 57 46 58
REMARK SMILES IDX 47 59 61 61 82 62 49 63 33 64 34 65 42 66 35 67 37 68 43 69
REMARK SMILES IDX 36 70 38 71 39 72 40 73 41 74 65 75 66 76 74 77 67 78 69 79
REMARK SMILES IDX 75 80 68 81 70 82 71 83 72 84 73 85 50 86 51 87 59 88 52 89
REMARK SMILES IDX 54 90 60 91 53 92 55 93 56 94 57 95 58 96
REMARK H PARENT 16 7 6 16 9 18 2 24 21 30 80 49 48 60
REMARK Flexibility Score: inf
ROOT
ATOM      1  C   UNL A   1      38.177  19.822  25.182  1.00  0.00     0.023 C 
ENDROOT
BRANCH   1   2
ATOM      2  C   UNL A   1      37.434  20.943  24.448  1.00  0.00     0.023 C 
BRANCH   2   3
ATOM      3  C   UNL A   1      37.122  22.158  25.319  1.00  0.00     0.116 C 
BRANCH   3   4
ATOM      4  N   UNL A   1      36.282  21.797  26.445  1.00  0.00    -0.356 N 
ATOM      5  C   UNL A   1      34.926  21.900  26.564  1.00  0.00     0.227 C 
ATOM      6  O   UNL A   1      34.398  21.582  27.629  1.00  0.00    -0.274 OA
ATOM      7  H   UNL A   1      36.753  21.429  27.228  1.00  0.00     0.163 HD
BRANCH   5   8
ATOM      8  C   UNL A   1      34.127  22.338  25.346  1.00  0.00     0.103 C 
ATOM      9  C   UNL A   1      31.683  22.613  25.256  1.00  0.00     0.107 C 
ATOM     10  C   UNL A   1      32.117  21.272  24.765  1.00  0.00    -0.006 C 
ATOM     11  C   UNL A   1      32.978  23.284  25.720  1.00  0.00     0.047 C 
ATOM     12  C   UNL A   1      33.444  21.128  24.785  1.00  0.00    -0.016 C 
BRANCH   9  13
ATOM     13  N   UNL A   1      30.697  22.431  26.293  1.00  0.00    -0.332 N 
ATOM     14  N   UNL A   1      29.756  24.583  26.634  1.00  0.00    -0.335 N 
ATOM     15  C   UNL A   1      29.858  23.270  26.925  1.00  0.00     0.315 C 
ATOM     16  H   UNL A   1      29.099  25.065  27.186  1.00  0.00     0.165 HD
ATOM     17  O   UNL A   1      29.134  22.823  27.818  1.00  0.00    -0.249 OA
ATOM     18  H   UNL A   1      30.622  21.499  26.602  1.00  0.00     0.165 HD
BRANCH  14  19
ATOM     19  C   UNL A   1      30.432  25.413  25.660  1.00  0.00     0.095 C 
ATOM     20  C   UNL A   1      32.205  28.183  23.053  1.00  0.00     0.332 C 
ATOM     21  N   UNL A   1      31.276  27.668  24.064  1.00  0.00    -0.337 N 
ATOM     22  C   UNL A   1      32.035  27.264  25.260  1.00  0.00     0.264 C 
ATOM     23  C   UNL A   1      30.465  26.578  23.493  1.00  0.00     0.264 C 
ATOM     24  H   UNL A   1      30.621  28.394  24.354  1.00  0.00     0.347 HD
ATOM     25  C   UNL A   1      31.155  26.588  26.310  1.00  0.00     0.086 C 
ATOM     26  C   UNL A   1      29.545  25.929  24.536  1.00  0.00     0.086 C 
ENDBRANCH  14  19
ENDBRANCH   9  13
ENDBRANCH   5   8
ENDBRANCH   3   4
ENDBRANCH   2   3
ENDBRANCH   1   2
BRANCH   1  27
ATOM     27  C   UNL A   1      39.378  20.276  26.004  1.00  0.00     0.116 C 
BRANCH  27  28
ATOM     28  N   UNL A   1      40.407  19.255  26.104  1.00  0.00    -0.352 N 
ATOM     29  C   UNL A   1      41.762  19.406  26.273  1.00  0.00     0.251 C 
ATOM     30  H   UNL A   1      40.089  18.325  26.042  1.00  0.00     0.163 HD
ATOM     31  O   UNL A   1      42.497  18.429  26.191  1.00  0.00    -0.269 OA
BRANCH  29  32
ATOM     32  C   UNL A   1      42.326  20.751  26.525  1.00  0.00     0.039 A 
ATOM     33  C   UNL A   1      42.616  21.568  25.431  1.00  0.00     0.014 A 
ATOM     34  C   UNL A   1      42.565  21.205  27.825  1.00  0.00     0.014 A 
ATOM     35  C   UNL A   1      43.104  22.858  25.644  1.00  0.00     0.010 A 
ATOM     36  C   UNL A   1      42.972  22.520  28.037  1.00  0.00     0.010 A 
ATOM     37  C   UNL A   1      43.260  23.356  26.948  1.00  0.00    -0.014 A 
BRANCH  37  38
ATOM     38  C   UNL A   1      43.716  24.751  27.177  1.00  0.00     0.031 A 
ATOM     39  C   UNL A   1      42.765  25.795  27.700  1.00  0.00     0.074 A 
ATOM     40  C   UNL A   1      44.981  25.095  26.861  1.00  0.00     0.049 A 
ATOM     41  N   UNL A   1      42.995  27.053  27.977  1.00  0.00    -0.248 NA
ATOM     42  C   UNL A   1      41.367  25.384  27.911  1.00  0.00     0.031 C 
ATOM     43  C   UNL A   1      45.972  24.201  26.257  1.00  0.00     0.029 A 
ATOM     44  N   UNL A   1      45.644  26.290  26.984  1.00  0.00    -0.354 N 
ATOM     45  C   UNL A   1      41.772  27.589  28.363  1.00  0.00     0.074 A 
ATOM     46  C   UNL A   1      40.794  26.530  28.247  1.00  0.00     0.031 C 
ATOM     47  C   UNL A   1      47.119  24.875  26.075  1.00  0.00     0.029 A 
ATOM     48  C   UNL A   1      46.937  26.253  26.520  1.00  0.00     0.049 A 
ATOM     49  H   UNL A   1      45.231  27.098  27.368  1.00  0.00     0.167 HD
ATOM     50  C   UNL A   1      41.491  28.839  28.802  1.00  0.00     0.034 A 
ATOM     51  C   UNL A   1      47.874  27.220  26.457  1.00  0.00     0.034 A 
ATOM     52  C   UNL A   1      42.473  29.881  28.946  1.00  0.00     0.049 A 
ATOM     53  C   UNL A   1      47.553  28.585  27.002  1.00  0.00     0.074 A 
ATOM     54  C   UNL A   1      42.310  31.150  29.472  1.00  0.00     0.029 A 
ATOM     55  N   UNL A   1      43.796  29.782  28.545  1.00  0.00    -0.354 N 
ATOM     56  N   UNL A   1      46.436  29.022  27.529  1.00  0.00    -0.248 NA
ATOM     57  C   UNL A   1      48.637  29.577  26.983  1.00  0.00     0.031 C 
ATOM     58  C   UNL A   1      43.525  31.832  29.354  1.00  0.00     0.029 A 
ATOM     59  C   UNL A   1      44.459  30.972  28.797  1.00  0.00     0.049 A 
ATOM     60  H   UNL A   1      44.206  28.984  28.140  1.00  0.00     0.167 HD
ATOM     61  C   UNL A   1      46.690  30.325  27.936  1.00  0.00     0.074 A 
ATOM     62  C   UNL A   1      48.076  30.598  27.618  1.00  0.00     0.031 C 
ATOM     63  C   UNL A   1      45.849  31.221  28.512  1.00  0.00     0.034 A 
BRANCH  50  64
ATOM     64  C   UNL A   1      40.066  29.140  29.195  1.00  0.00     0.023 A 
ATOM     65  C   UNL A   1      39.100  29.386  28.197  1.00  0.00     0.012 A 
ATOM     66  C   UNL A   1      39.671  29.128  30.547  1.00  0.00     0.148 A 
ATOM     67  C   UNL A   1      37.776  29.657  28.539  1.00  0.00     0.002 A 
ATOM     68  C   UNL A   1      38.340  29.348  30.878  1.00  0.00     0.091 A 
ATOM     69  F   UNL A   1      40.606  28.913  31.484  1.00  0.00    -0.205 F 
ATOM     70  C   UNL A   1      37.394  29.627  29.877  1.00  0.00     0.022 A 
BRANCH  68  71
ATOM     71  S   UNL A   1      37.730  29.246  32.565  1.00  0.00     0.127 S 
ATOM     72  O   UNL A   1      36.377  29.781  32.421  1.00  0.00    -0.237 OA
ATOM     73  O   UNL A   1      37.792  27.808  32.827  1.00  0.00    -0.237 OA
ATOM     74  O   UNL A   1      38.639  30.050  33.369  1.00  0.00    -0.744 OA
ENDBRANCH  68  71
ENDBRANCH  50  64
BRANCH  51  75
ATOM     75  C   UNL A   1      49.223  26.910  25.906  1.00  0.00     0.023 A 
ATOM     76  C   UNL A   1      50.159  26.218  26.698  1.00  0.00     0.012 A 
ATOM     77  C   UNL A   1      49.568  27.271  24.589  1.00  0.00     0.148 A 
ATOM     78  C   UNL A   1      51.429  25.921  26.200  1.00  0.00     0.002 A 
ATOM     79  C   UNL A   1      50.813  26.919  24.080  1.00  0.00     0.091 A 
ATOM     80  F   UNL A   1      48.665  27.936  23.856  1.00  0.00    -0.205 F 
ATOM     81  C   UNL A   1      51.751  26.262  24.889  1.00  0.00     0.022 A 
BRANCH  79  82
ATOM     82  S   UNL A   1      51.261  27.193  22.363  1.00  0.00     0.127 S 
ATOM     83  O   UNL A   1      51.301  28.652  22.294  1.00  0.00    -0.237 OA
ATOM     84  O   UNL A   1      52.566  26.535  22.285  1.00  0.00    -0.237 OA
ATOM     85  O   UNL A   1      50.218  26.552  21.575  1.00  0.00    -0.744 OA
ENDBRANCH  79  82
ENDBRANCH  51  75
BRANCH  63  86
ATOM     86  C   UNL A   1      46.413  32.570  28.877  1.00  0.00     0.023 A 
ATOM     87  C   UNL A   1      47.052  32.758  30.120  1.00  0.00     0.012 A 
ATOM     88  C   UNL A   1      46.351  33.642  27.965  1.00  0.00     0.148 A 
ATOM     89  C   UNL A   1      47.575  34.003  30.467  1.00  0.00     0.002 A 
ATOM     90  C   UNL A   1      46.925  34.864  28.295  1.00  0.00     0.091 A 
ATOM     91  F   UNL A   1      45.724  33.451  26.795  1.00  0.00    -0.205 F 
ATOM     92  C   UNL A   1      47.523  35.051  29.551  1.00  0.00     0.022 A 
BRANCH  90  93
ATOM     93  S   UNL A   1      46.992  36.236  27.139  1.00  0.00     0.127 S 
ATOM     94  O   UNL A   1      47.794  37.209  27.878  1.00  0.00    -0.237 OA
ATOM     95  O   UNL A   1      47.666  35.639  25.986  1.00  0.00    -0.237 OA
ATOM     96  O   UNL A   1      45.608  36.622  26.893  1.00  0.00    -0.744 OA
ENDBRANCH  90  93
ENDBRANCH  63  86
ENDBRANCH  37  38
ENDBRANCH  29  32
ENDBRANCH  27  28
ENDBRANCH   1  27
TORSDOF 16
ENDMDL
MODEL 3
REMARK VINA RESULT:     -12.2      2.281      7.948
REMARK SMILES C[NH+]1CCC(NC(=O)N[C@@H]2C=C[C@H](C(=O)NCCCCNC(=O)c3ccc(-c4c5nc(c(-c6cccc(S(=O)(=O)[O-])c6F)c6ccc([nH]6)c(-c6cccc(S(=O)(=O)[O-])c6F)c6nc(c(-c7cccc(S(=O)(=O)[O-])c7F)c7ccc4[nH]7)C=C6)C=C5)cc3)C2)CC1
REMARK SMILES IDX 19 1 18 2 17 3 16 4 14 5 15 6 13 8 10 9 11 10 87 11 12 12
REMARK SMILES IDX 9 13 6 14 7 15 8 17 5 19 1 20 2 21 3 22 89 23 4 25 88 26
REMARK SMILES IDX 20 27 21 28 22 29 23 31 24 32 25 33 86 34 26 35 85 36 27 37
REMARK SMILES IDX 28 38 29 39 79 40 30 41 84 42 78 43 80 44 31 45 83 46 77 47
REMARK SMILES IDX 76 48 32 50 64 51 44 52 63 53 45 54 48 55 62 56 81 57 46 58
REMARK SMILES IDX 47 59 61 61 82 62 49 63 33 64 34 65 42 66 35 67 37 68 43 69
REMARK SMILES IDX 36 70 38 71 39 72 40 73 41 74 65 75 66 76 74 77 67 78 69 79
REMARK SMILES IDX 75 80 68 81 70 82 71 83 72 84 73 85 50 86 51 87 59 88 52 89
REMARK SMILES IDX 54 90 60 91 53 92 55 93 56 94 57 95 58 96
REMARK H PARENT 16 7 6 16 9 18 2 24 21 30 80 49 48 60
REMARK Flexibility Score: inf
ROOT
ATOM      1  C   UNL A   1      38.505  19.647  24.870  1.00  0.00     0.023 C 
ENDROOT
BRANCH   1   2
ATOM      2  C   UNL A   1      37.689  20.915  24.598  1.00  0.00     0.023 C 
BRANCH   2   3
ATOM      3  C   UNL A   1      36.474  21.081  25.508  1.00  0.00     0.116 C 
BRANCH   3   4
ATOM      4  N   UNL A   1      35.415  20.158  25.146  1.00  0.00    -0.356 N 
ATOM      5  C   UNL A   1      34.178  20.436  24.641  1.00  0.00     0.227 C 
ATOM      6  O   UNL A   1      33.396  19.507  24.442  1.00  0.00    -0.274 OA
ATOM      7  H   UNL A   1      35.616  19.204  25.284  1.00  0.00     0.163 HD
BRANCH   5   8
ATOM      8  C   UNL A   1      33.853  21.879  24.284  1.00  0.00     0.103 C 
ATOM      9  C   UNL A   1      32.001  23.205  25.216  1.00  0.00     0.107 C 
ATOM     10  C   UNL A   1      31.638  22.567  23.916  1.00  0.00    -0.006 C 
ATOM     11  C   UNL A   1      33.412  22.690  25.510  1.00  0.00     0.047 C 
ATOM     12  C   UNL A   1      32.649  21.870  23.393  1.00  0.00    -0.016 C 
BRANCH   9  13
ATOM     13  N   UNL A   1      31.013  22.842  26.202  1.00  0.00    -0.332 N 
ATOM     14  N   UNL A   1      29.689  24.790  26.497  1.00  0.00    -0.335 N 
ATOM     15  C   UNL A   1      30.008  23.513  26.792  1.00  0.00     0.315 C 
ATOM     16  H   UNL A   1      28.931  25.143  27.015  1.00  0.00     0.165 HD
ATOM     17  O   UNL A   1      29.332  22.937  27.647  1.00  0.00    -0.249 OA
ATOM     18  H   UNL A   1      31.090  21.909  26.507  1.00  0.00     0.165 HD
BRANCH  14  19
ATOM     19  C   UNL A   1      30.255  25.735  25.558  1.00  0.00     0.095 C 
ATOM     20  C   UNL A   1      31.718  28.810  23.104  1.00  0.00     0.332 C 
ATOM     21  N   UNL A   1      30.897  28.165  24.134  1.00  0.00    -0.337 N 
ATOM     22  C   UNL A   1      31.770  27.669  25.211  1.00  0.00     0.264 C 
ATOM     23  C   UNL A   1      30.064  27.112  23.527  1.00  0.00     0.264 C 
ATOM     24  H   UNL A   1      30.254  28.837  24.554  1.00  0.00     0.347 HD
ATOM     25  C   UNL A   1      31.005  26.862  26.259  1.00  0.00     0.086 C 
ATOM     26  C   UNL A   1      29.258  26.331  24.575  1.00  0.00     0.086 C 
ENDBRANCH  14  19
ENDBRANCH   9  13
ENDBRANCH   5   8
ENDBRANCH   3   4
ENDBRANCH   2   3
ENDBRANCH   1   2
BRANCH   1  27
ATOM     27  C   UNL A   1      39.252  19.634  26.199  1.00  0.00     0.116 C 
BRANCH  27  28
ATOM     28  N   UNL A   1      40.497  18.887  26.135  1.00  0.00    -0.352 N 
ATOM     29  C   UNL A   1      41.788  19.355  26.148  1.00  0.00     0.251 C 
ATOM     30  H   UNL A   1      40.401  17.909  26.074  1.00  0.00     0.163 HD
ATOM     31  O   UNL A   1      42.716  18.583  25.941  1.00  0.00    -0.269 OA
BRANCH  29  32
ATOM     32  C   UNL A   1      42.046  20.793  26.385  1.00  0.00     0.039 A 
ATOM     33  C   UNL A   1      42.465  21.195  27.655  1.00  0.00     0.014 A 
ATOM     34  C   UNL A   1      41.883  21.737  25.367  1.00  0.00     0.014 A 
ATOM     35  C   UNL A   1      42.761  22.538  27.890  1.00  0.00     0.010 A 
ATOM     36  C   UNL A   1      42.258  23.061  25.581  1.00  0.00     0.010 A 
ATOM     37  C   UNL A   1      42.688  23.479  26.849  1.00  0.00    -0.014 A 
BRANCH  37  38
ATOM     38  C   UNL A   1      43.066  24.897  27.080  1.00  0.00     0.031 A 
ATOM     39  C   UNL A   1      42.115  25.845  27.762  1.00  0.00     0.074 A 
ATOM     40  C   UNL A   1      44.251  25.348  26.623  1.00  0.00     0.049 A 
ATOM     41  N   UNL A   1      42.286  27.106  28.064  1.00  0.00    -0.248 NA
ATOM     42  C   UNL A   1      40.790  25.318  28.129  1.00  0.00     0.031 C 
ATOM     43  C   UNL A   1      45.220  24.556  25.862  1.00  0.00     0.029 A 
ATOM     44  N   UNL A   1      44.835  26.587  26.715  1.00  0.00    -0.354 N 
ATOM     45  C   UNL A   1      41.087  27.532  28.623  1.00  0.00     0.074 A 
ATOM     46  C   UNL A   1      40.183  26.404  28.584  1.00  0.00     0.031 C 
ATOM     47  C   UNL A   1      46.281  25.323  25.568  1.00  0.00     0.029 A 
ATOM     48  C   UNL A   1      46.058  26.667  26.092  1.00  0.00     0.049 A 
ATOM     49  H   UNL A   1      44.417  27.346  27.183  1.00  0.00     0.167 HD
ATOM     50  C   UNL A   1      40.775  28.740  29.147  1.00  0.00     0.034 A 
ATOM     51  C   UNL A   1      46.906  27.705  25.955  1.00  0.00     0.034 A 
ATOM     52  C   UNL A   1      41.688  29.850  29.213  1.00  0.00     0.049 A 
ATOM     53  C   UNL A   1      46.559  29.022  26.594  1.00  0.00     0.074 A 
ATOM     54  C   UNL A   1      41.501  31.083  29.810  1.00  0.00     0.029 A 
ATOM     55  N   UNL A   1      42.953  29.869  28.646  1.00  0.00    -0.354 N 
ATOM     56  N   UNL A   1      45.489  29.352  27.276  1.00  0.00    -0.248 NA
ATOM     57  C   UNL A   1      47.556  30.095  26.484  1.00  0.00     0.031 C 
ATOM     58  C   UNL A   1      42.638  31.862  29.571  1.00  0.00     0.029 A 
ATOM     59  C   UNL A   1      43.553  31.097  28.865  1.00  0.00     0.049 A 
ATOM     60  H   UNL A   1      43.364  29.119  28.158  1.00  0.00     0.167 HD
ATOM     61  C   UNL A   1      45.697  30.656  27.705  1.00  0.00     0.074 A 
ATOM     62  C   UNL A   1      47.008  31.047  27.228  1.00  0.00     0.031 C 
ATOM     63  C   UNL A   1      44.874  31.463  28.419  1.00  0.00     0.034 A 
BRANCH  50  64
ATOM     64  C   UNL A   1      39.393  28.916  29.728  1.00  0.00     0.023 A 
ATOM     65  C   UNL A   1      39.138  28.528  31.060  1.00  0.00     0.012 A 
ATOM     66  C   UNL A   1      38.363  29.512  28.975  1.00  0.00     0.148 A 
ATOM     67  C   UNL A   1      37.871  28.691  31.618  1.00  0.00     0.002 A 
ATOM     68  C   UNL A   1      37.117  29.718  29.554  1.00  0.00     0.091 A 
ATOM     69  F   UNL A   1      38.617  29.856  27.704  1.00  0.00    -0.205 F 
ATOM     70  C   UNL A   1      36.865  29.295  30.870  1.00  0.00     0.022 A 
BRANCH  68  71
ATOM     71  S   UNL A   1      35.780  30.564  28.704  1.00  0.00     0.127 S 
ATOM     72  O   UNL A   1      35.168  31.320  29.796  1.00  0.00    -0.237 OA
ATOM     73  O   UNL A   1      36.506  31.382  27.730  1.00  0.00    -0.237 OA
ATOM     74  O   UNL A   1      34.950  29.520  28.121  1.00  0.00    -0.744 OA
ENDBRANCH  68  71
ENDBRANCH  50  64
BRANCH  51  75
ATOM     75  C   UNL A   1      48.192  27.520  25.226  1.00  0.00     0.023 A 
ATOM     76  C   UNL A   1      49.351  27.150  25.936  1.00  0.00     0.012 A 
ATOM     77  C   UNL A   1      48.263  27.680  23.828  1.00  0.00     0.148 A 
ATOM     78  C   UNL A   1      50.565  26.975  25.272  1.00  0.00     0.002 A 
ATOM     79  C   UNL A   1      49.462  27.446  23.166  1.00  0.00     0.091 A 
ATOM     80  F   UNL A   1      47.151  28.041  23.175  1.00  0.00    -0.205 F 
ATOM     81  C   UNL A   1      50.618  27.112  23.887  1.00  0.00     0.022 A 
BRANCH  79  82
ATOM     82  S   UNL A   1      49.591  27.463  21.375  1.00  0.00     0.127 S 
ATOM     83  O   UNL A   1      48.292  26.923  20.978  1.00  0.00    -0.237 OA
ATOM     84  O   UNL A   1      49.776  28.889  21.102  1.00  0.00    -0.237 OA
ATOM     85  O   UNL A   1      50.744  26.636  21.054  1.00  0.00    -0.744 OA
ENDBRANCH  79  82
ENDBRANCH  51  75
BRANCH  63  86
ATOM     86  C   UNL A   1      45.379  32.839  28.770  1.00  0.00     0.023 A 
ATOM     87  C   UNL A   1      46.060  33.055  29.986  1.00  0.00     0.012 A 
ATOM     88  C   UNL A   1      45.221  33.911  27.869  1.00  0.00     0.148 A 
ATOM     89  C   UNL A   1      46.531  34.325  30.319  1.00  0.00     0.002 A 
ATOM     90  C   UNL A   1      45.742  35.160  28.183  1.00  0.00     0.091 A 
ATOM     91  F   UNL A   1      44.555  33.692  26.726  1.00  0.00    -0.205 F 
ATOM     92  C   UNL A   1      46.383  35.373  29.414  1.00  0.00     0.022 A 
BRANCH  90  93
ATOM     93  S   UNL A   1      45.684  36.540  27.036  1.00  0.00     0.127 S 
ATOM     94  O   UNL A   1      46.374  35.988  25.871  1.00  0.00    -0.237 OA
ATOM     95  O   UNL A   1      44.245  36.736  26.857  1.00  0.00    -0.237 OA
ATOM     96  O   UNL A   1      46.363  37.644  27.701  1.00  0.00    -0.744 OA
ENDBRANCH  90  93
ENDBRANCH  63  86
ENDBRANCH  37  38
ENDBRANCH  29  32
ENDBRANCH  27  28
ENDBRANCH   1  27
TORSDOF 16
ENDMDL
