MODEL 1
REMARK VINA RESULT:     -11.8      0.000      0.000
REMARK SMILES Cc1sc(-c2ccco2)nc1C(=O)N[C@@H](C(=O)NCCCCNC(=O)c1ccc(-c2c3nc(c(-c4cccc(S(=O)(=O)[O-])c4F)c4ccc([nH]4)c(-c4cccc(S(=O)(=O)[O-])c4F)c4nc(c(-c5cccc(S(=O)(=O)[O-])c5F)c5ccc2[nH]5)C=C4)C=C3)cc1)C(C)C
REMARK SMILES IDX 20 1 19 2 18 3 16 4 17 5 15 7 14 8 12 9 13 10 11 12 1 13
REMARK SMILES IDX 2 14 3 15 4 16 10 17 5 18 6 19 9 20 7 21 8 22 89 23 90 24
REMARK SMILES IDX 91 25 21 26 22 27 23 28 24 29 25 31 26 32 27 33 88 34 28 35
REMARK SMILES IDX 87 36 29 37 30 38 31 39 81 40 32 41 86 42 80 43 82 44 33 45
REMARK SMILES IDX 85 46 79 47 78 48 34 50 66 51 46 52 65 53 47 54 50 55 64 56
REMARK SMILES IDX 83 57 48 58 49 59 63 61 84 62 51 63 35 64 36 65 44 66 37 67
REMARK SMILES IDX 39 68 45 69 38 70 40 71 41 72 42 73 43 74 67 75 68 76 76 77
REMARK SMILES IDX 69 78 71 79 77 80 70 81 72 82 73 83 74 84 75 85 52 86 53 87
REMARK SMILES IDX 61 88 54 89 56 90 62 91 55 92 57 93 58 94 59 95 60 96
REMARK H PARENT 18 6 14 11 23 30 82 49 50 60
REMARK Flexibility Score: inf
ROOT
ATOM      1  C   UNL A   1      36.986  21.524  24.453  1.00  0.00     0.023 C 
ENDROOT
BRANCH   1   2
ATOM      2  C   UNL A   1      36.494  22.456  25.554  1.00  0.00     0.116 C 
BRANCH   2   3
ATOM      3  N   UNL A   1      35.624  21.766  26.486  1.00  0.00    -0.354 N 
ATOM      4  C   UNL A   1      34.268  21.824  26.652  1.00  0.00     0.242 C 
ATOM      5  O   UNL A   1      33.785  21.155  27.566  1.00  0.00    -0.273 OA
ATOM      6  H   UNL A   1      36.087  21.152  27.100  1.00  0.00     0.163 HD
BRANCH   4   7
ATOM      7  C   UNL A   1      33.379  22.568  25.618  1.00  0.00     0.174 C 
BRANCH   7   8
ATOM      8  N   UNL A   1      32.118  22.983  26.199  1.00  0.00    -0.339 N 
ATOM      9  C   UNL A   1      31.354  24.119  26.121  1.00  0.00     0.271 C 
ATOM     10  O   UNL A   1      30.315  24.042  26.791  1.00  0.00    -0.267 OA
ATOM     11  H   UNL A   1      31.719  22.294  26.778  1.00  0.00     0.164 HD
BRANCH   9  12
ATOM     12  C   UNL A   1      31.653  25.374  25.360  1.00  0.00     0.142 A 
ATOM     13  C   UNL A   1      34.236  26.156  25.495  1.00  0.00     0.059 C 
ATOM     14  C   UNL A   1      32.803  26.133  25.082  1.00  0.00     0.035 A 
ATOM     15  S   UNL A   1      32.415  27.385  23.943  1.00  0.00    -0.115 S 
ATOM     16  C   UNL A   1      30.767  27.077  24.154  1.00  0.00     0.160 A 
ATOM     17  N   UNL A   1      30.487  26.019  24.867  1.00  0.00    -0.227 NA
BRANCH  16  18
ATOM     18  C   UNL A   1      29.793  27.984  23.634  1.00  0.00     0.162 A 
ATOM     19  C   UNL A   1      28.494  27.711  23.241  1.00  0.00     0.053 A 
ATOM     20  O   UNL A   1      30.005  29.338  23.543  1.00  0.00    -0.462 OA
ATOM     21  C   UNL A   1      27.885  28.951  22.927  1.00  0.00     0.043 A 
ATOM     22  C   UNL A   1      28.854  29.905  23.108  1.00  0.00     0.196 A 
ENDBRANCH  16  18
ENDBRANCH   9  12
ENDBRANCH   7   8
BRANCH   7  23
ATOM     23  C   UNL A   1      33.199  21.790  24.290  1.00  0.00     0.015 C 
ATOM     24  C   UNL A   1      32.247  20.595  24.437  1.00  0.00     0.010 C 
ATOM     25  C   UNL A   1      32.628  22.722  23.207  1.00  0.00     0.010 C 
ENDBRANCH   7  23
ENDBRANCH   4   7
ENDBRANCH   2   3
ENDBRANCH   1   2
BRANCH   1  26
ATOM     26  C   UNL A   1      37.702  20.284  24.989  1.00  0.00     0.023 C 
BRANCH  26  27
ATOM     27  C   UNL A   1      38.886  20.577  25.907  1.00  0.00     0.116 C 
BRANCH  27  28
ATOM     28  N   UNL A   1      39.856  19.492  25.951  1.00  0.00    -0.352 N 
ATOM     29  C   UNL A   1      41.218  19.576  26.121  1.00  0.00     0.251 C 
ATOM     30  H   UNL A   1      39.491  18.584  25.846  1.00  0.00     0.163 HD
ATOM     31  O   UNL A   1      41.920  18.575  26.003  1.00  0.00    -0.269 OA
BRANCH  29  32
ATOM     32  C   UNL A   1      41.830  20.889  26.412  1.00  0.00     0.039 A 
ATOM     33  C   UNL A   1      42.165  21.730  25.350  1.00  0.00     0.014 A 
ATOM     34  C   UNL A   1      42.024  21.304  27.733  1.00  0.00     0.014 A 
ATOM     35  C   UNL A   1      42.637  23.018  25.614  1.00  0.00     0.010 A 
ATOM     36  C   UNL A   1      42.417  22.613  27.993  1.00  0.00     0.010 A 
ATOM     37  C   UNL A   1      42.733  23.483  26.938  1.00  0.00    -0.014 A 
BRANCH  37  38
ATOM     38  C   UNL A   1      43.145  24.879  27.235  1.00  0.00     0.031 A 
ATOM     39  C   UNL A   1      42.178  25.834  27.882  1.00  0.00     0.074 A 
ATOM     40  C   UNL A   1      44.361  25.313  26.847  1.00  0.00     0.049 A 
ATOM     41  N   UNL A   1      42.339  27.099  28.173  1.00  0.00    -0.248 NA
ATOM     42  C   UNL A   1      40.845  25.308  28.222  1.00  0.00     0.031 C 
ATOM     43  C   UNL A   1      45.359  24.510  26.137  1.00  0.00     0.029 A 
ATOM     44  N   UNL A   1      44.955  26.545  26.971  1.00  0.00    -0.354 N 
ATOM     45  C   UNL A   1      41.125  27.527  28.695  1.00  0.00     0.074 A 
ATOM     46  C   UNL A   1      40.223  26.398  28.647  1.00  0.00     0.031 C 
ATOM     47  C   UNL A   1      46.442  25.266  25.895  1.00  0.00     0.029 A 
ATOM     48  C   UNL A   1      46.205  26.615  26.401  1.00  0.00     0.049 A 
ATOM     49  H   UNL A   1      44.526  27.306  27.425  1.00  0.00     0.167 HD
ATOM     50  C   UNL A   1      40.797  28.741  29.199  1.00  0.00     0.034 A 
ATOM     51  C   UNL A   1      47.060  27.649  26.287  1.00  0.00     0.034 A 
ATOM     52  C   UNL A   1      41.707  29.851  29.280  1.00  0.00     0.049 A 
ATOM     53  C   UNL A   1      46.685  28.979  26.884  1.00  0.00     0.074 A 
ATOM     54  C   UNL A   1      41.498  31.094  29.852  1.00  0.00     0.029 A 
ATOM     55  N   UNL A   1      42.995  29.861  28.766  1.00  0.00    -0.354 N 
ATOM     56  N   UNL A   1      45.589  29.318  27.519  1.00  0.00    -0.248 NA
ATOM     57  C   UNL A   1      47.678  30.058  26.784  1.00  0.00     0.031 C 
ATOM     58  C   UNL A   1      42.647  31.866  29.655  1.00  0.00     0.029 A 
ATOM     59  C   UNL A   1      43.587  31.091  28.994  1.00  0.00     0.049 A 
ATOM     60  H   UNL A   1      43.423  29.104  28.305  1.00  0.00     0.167 HD
ATOM     61  C   UNL A   1      45.775  30.634  27.926  1.00  0.00     0.074 A 
ATOM     62  C   UNL A   1      47.099  31.024  27.484  1.00  0.00     0.031 C 
ATOM     63  C   UNL A   1      44.924  31.451  28.594  1.00  0.00     0.034 A 
BRANCH  50  64
ATOM     64  C   UNL A   1      39.405  28.918  29.747  1.00  0.00     0.023 A 
ATOM     65  C   UNL A   1      39.103  28.461  31.047  1.00  0.00     0.012 A 
ATOM     66  C   UNL A   1      38.412  29.585  29.004  1.00  0.00     0.148 A 
ATOM     67  C   UNL A   1      37.827  28.629  31.583  1.00  0.00     0.002 A 
ATOM     68  C   UNL A   1      37.157  29.792  29.563  1.00  0.00     0.091 A 
ATOM     69  F   UNL A   1      38.710  29.996  27.762  1.00  0.00    -0.205 F 
ATOM     70  C   UNL A   1      36.859  29.304  30.846  1.00  0.00     0.022 A 
BRANCH  68  71
ATOM     71  S   UNL A   1      35.865  30.721  28.730  1.00  0.00     0.127 S 
ATOM     72  O   UNL A   1      35.191  29.670  27.969  1.00  0.00    -0.237 OA
ATOM     73  O   UNL A   1      35.092  31.250  29.854  1.00  0.00    -0.237 OA
ATOM     74  O   UNL A   1      36.546  31.730  27.931  1.00  0.00    -0.744 OA
ENDBRANCH  68  71
ENDBRANCH  50  64
BRANCH  51  75
ATOM     75  C   UNL A   1      48.383  27.455  25.628  1.00  0.00     0.023 A 
ATOM     76  C   UNL A   1      49.509  27.135  26.411  1.00  0.00     0.012 A 
ATOM     77  C   UNL A   1      48.527  27.567  24.232  1.00  0.00     0.148 A 
ATOM     78  C   UNL A   1      50.762  26.964  25.821  1.00  0.00     0.002 A 
ATOM     79  C   UNL A   1      49.766  27.338  23.644  1.00  0.00     0.091 A 
ATOM     80  F   UNL A   1      47.445  27.882  23.506  1.00  0.00    -0.205 F 
ATOM     81  C   UNL A   1      50.888  27.056  24.436  1.00  0.00     0.022 A 
BRANCH  79  82
ATOM     82  S   UNL A   1      49.994  27.306  21.862  1.00  0.00     0.127 S 
ATOM     83  O   UNL A   1      48.954  26.370  21.445  1.00  0.00    -0.237 OA
ATOM     84  O   UNL A   1      49.749  28.702  21.502  1.00  0.00    -0.237 OA
ATOM     85  O   UNL A   1      51.366  26.863  21.650  1.00  0.00    -0.744 OA
ENDBRANCH  79  82
ENDBRANCH  51  75
BRANCH  63  86
ATOM     86  C   UNL A   1      45.404  32.839  28.932  1.00  0.00     0.023 A 
ATOM     87  C   UNL A   1      46.135  33.065  30.115  1.00  0.00     0.012 A 
ATOM     88  C   UNL A   1      45.191  33.906  28.036  1.00  0.00     0.148 A 
ATOM     89  C   UNL A   1      46.613  34.338  30.420  1.00  0.00     0.002 A 
ATOM     90  C   UNL A   1      45.717  35.160  28.321  1.00  0.00     0.091 A 
ATOM     91  F   UNL A   1      44.479  33.675  26.924  1.00  0.00    -0.205 F 
ATOM     92  C   UNL A   1      46.415  35.382  29.519  1.00  0.00     0.022 A 
BRANCH  90  93
ATOM     93  S   UNL A   1      45.597  36.538  27.175  1.00  0.00     0.127 S 
ATOM     94  O   UNL A   1      46.367  37.570  27.868  1.00  0.00    -0.237 OA
ATOM     95  O   UNL A   1      46.241  35.999  25.975  1.00  0.00    -0.237 OA
ATOM     96  O   UNL A   1      44.175  36.815  27.025  1.00  0.00    -0.744 OA
ENDBRANCH  90  93
ENDBRANCH  63  86
ENDBRANCH  37  38
ENDBRANCH  29  32
ENDBRANCH  27  28
ENDBRANCH  26  27
ENDBRANCH   1  26
TORSDOF 18
ENDMDL
MODEL 2
REMARK VINA RESULT:     -11.7      6.351     11.679
REMARK SMILES Cc1sc(-c2ccco2)nc1C(=O)N[C@@H](C(=O)NCCCCNC(=O)c1ccc(-c2c3nc(c(-c4cccc(S(=O)(=O)[O-])c4F)c4ccc([nH]4)c(-c4cccc(S(=O)(=O)[O-])c4F)c4nc(c(-c5cccc(S(=O)(=O)[O-])c5F)c5ccc2[nH]5)C=C4)C=C3)cc1)C(C)C
REMARK SMILES IDX 20 1 19 2 18 3 16 4 17 5 15 7 14 8 12 9 13 10 11 12 1 13
REMARK SMILES IDX 2 14 3 15 4 16 10 17 5 18 6 19 9 20 7 21 8 22 89 23 90 24
REMARK SMILES IDX 91 25 21 26 22 27 23 28 24 29 25 31 26 32 27 33 88 34 28 35
REMARK SMILES IDX 87 36 29 37 30 38 31 39 81 40 32 41 86 42 80 43 82 44 33 45
REMARK SMILES IDX 85 46 79 47 78 48 34 50 66 51 46 52 65 53 47 54 50 55 64 56
REMARK SMILES IDX 83 57 48 58 49 59 63 61 84 62 51 63 35 64 36 65 44 66 37 67
REMARK SMILES IDX 39 68 45 69 38 70 40 71 41 72 42 73 43 74 67 75 68 76 76 77
REMARK SMILES IDX 69 78 71 79 77 80 70 81 72 82 73 83 74 84 75 85 52 86 53 87
REMARK SMILES IDX 61 88 54 89 56 90 62 91 55 92 57 93 58 94 59 95 60 96
REMARK H PARENT 18 6 14 11 23 30 82 49 50 60
REMARK Flexibility Score: inf
ROOT
ATOM      1  C   UNL A   1      31.917  30.103  26.761  1.00  0.00     0.023 C 
ENDROOT
BRANCH   1   2
ATOM      2  C   UNL A   1      33.136  29.429  26.140  1.00  0.00     0.116 C 
BRANCH   2   3
ATOM      3  N   UNL A   1      33.217  29.688  24.715  1.00  0.00    -0.354 N 
ATOM      4  C   UNL A   1      32.919  28.892  23.645  1.00  0.00     0.242 C 
ATOM      5  O   UNL A   1      33.130  29.357  22.523  1.00  0.00    -0.273 OA
ATOM      6  H   UNL A   1      33.541  30.588  24.481  1.00  0.00     0.163 HD
BRANCH   4   7
ATOM      7  C   UNL A   1      32.190  27.536  23.850  1.00  0.00     0.174 C 
BRANCH   7   8
ATOM      8  N   UNL A   1      32.484  26.604  22.779  1.00  0.00    -0.339 N 
ATOM      9  C   UNL A   1      32.907  25.301  22.732  1.00  0.00     0.271 C 
ATOM     10  O   UNL A   1      33.024  24.879  21.574  1.00  0.00    -0.267 OA
ATOM     11  H   UNL A   1      32.348  26.994  21.885  1.00  0.00     0.164 HD
BRANCH   9  12
ATOM     12  C   UNL A   1      33.235  24.402  23.885  1.00  0.00     0.142 A 
ATOM     13  C   UNL A   1      34.321  25.679  26.004  1.00  0.00     0.059 C 
ATOM     14  C   UNL A   1      33.744  24.575  25.183  1.00  0.00     0.035 A 
ATOM     15  S   UNL A   1      33.669  23.069  26.046  1.00  0.00    -0.115 S 
ATOM     16  C   UNL A   1      33.319  22.254  24.608  1.00  0.00     0.160 A 
ATOM     17  N   UNL A   1      33.088  23.023  23.576  1.00  0.00    -0.227 NA
BRANCH  16  18
ATOM     18  C   UNL A   1      33.361  20.827  24.560  1.00  0.00     0.162 A 
ATOM     19  C   UNL A   1      32.314  19.947  24.344  1.00  0.00     0.053 A 
ATOM     20  O   UNL A   1      34.530  20.110  24.633  1.00  0.00    -0.462 OA
ATOM     21  C   UNL A   1      32.873  18.649  24.254  1.00  0.00     0.043 A 
ATOM     22  C   UNL A   1      34.221  18.803  24.458  1.00  0.00     0.196 A 
ENDBRANCH  16  18
ENDBRANCH   9  12
ENDBRANCH   7   8
BRANCH   7  23
ATOM     23  C   UNL A   1      30.670  27.690  24.109  1.00  0.00     0.015 C 
ATOM     24  C   UNL A   1      30.012  28.693  23.150  1.00  0.00     0.010 C 
ATOM     25  C   UNL A   1      29.966  26.333  23.934  1.00  0.00     0.010 C 
ENDBRANCH   7  23
ENDBRANCH   4   7
ENDBRANCH   2   3
ENDBRANCH   1   2
BRANCH   1  26
ATOM     26  C   UNL A   1      31.890  31.616  26.546  1.00  0.00     0.023 C 
BRANCH  26  27
ATOM     27  C   UNL A   1      32.972  32.387  27.297  1.00  0.00     0.116 C 
BRANCH  27  28
ATOM     28  N   UNL A   1      32.604  33.770  27.569  1.00  0.00    -0.352 N 
ATOM     29  C   UNL A   1      33.112  34.612  28.528  1.00  0.00     0.251 C 
ATOM     30  H   UNL A   1      31.902  34.148  26.991  1.00  0.00     0.163 HD
ATOM     31  O   UNL A   1      32.602  35.714  28.719  1.00  0.00    -0.269 OA
BRANCH  29  32
ATOM     32  C   UNL A   1      34.254  34.165  29.351  1.00  0.00     0.039 A 
ATOM     33  C   UNL A   1      34.008  33.400  30.493  1.00  0.00     0.014 A 
ATOM     34  C   UNL A   1      35.565  34.459  28.965  1.00  0.00     0.014 A 
ATOM     35  C   UNL A   1      35.083  32.875  31.214  1.00  0.00     0.010 A 
ATOM     36  C   UNL A   1      36.630  33.868  29.637  1.00  0.00     0.010 A 
ATOM     37  C   UNL A   1      36.403  33.074  30.771  1.00  0.00    -0.014 A 
BRANCH  37  38
ATOM     38  C   UNL A   1      37.552  32.447  31.472  1.00  0.00     0.031 A 
ATOM     39  C   UNL A   1      38.300  31.307  30.834  1.00  0.00     0.074 A 
ATOM     40  C   UNL A   1      37.872  32.846  32.720  1.00  0.00     0.049 A 
ATOM     41  N   UNL A   1      39.294  30.603  31.312  1.00  0.00    -0.248 NA
ATOM     42  C   UNL A   1      37.856  30.882  29.496  1.00  0.00     0.031 C 
ATOM     43  C   UNL A   1      37.173  33.884  33.482  1.00  0.00     0.029 A 
ATOM     44  N   UNL A   1      38.851  32.409  33.578  1.00  0.00    -0.354 N 
ATOM     45  C   UNL A   1      39.570  29.636  30.353  1.00  0.00     0.074 A 
ATOM     46  C   UNL A   1      38.615  29.817  29.283  1.00  0.00     0.031 C 
ATOM     47  C   UNL A   1      37.748  34.008  34.688  1.00  0.00     0.029 A 
ATOM     48  C   UNL A   1      38.834  33.039  34.801  1.00  0.00     0.049 A 
ATOM     49  H   UNL A   1      39.503  31.711  33.339  1.00  0.00     0.167 HD
ATOM     50  C   UNL A   1      40.550  28.701  30.348  1.00  0.00     0.034 A 
ATOM     51  C   UNL A   1      39.598  32.850  35.895  1.00  0.00     0.034 A 
ATOM     52  C   UNL A   1      41.522  28.547  31.396  1.00  0.00     0.049 A 
ATOM     53  C   UNL A   1      40.700  31.827  35.850  1.00  0.00     0.074 A 
ATOM     54  C   UNL A   1      42.606  27.688  31.444  1.00  0.00     0.029 A 
ATOM     55  N   UNL A   1      41.524  29.258  32.586  1.00  0.00    -0.354 N 
ATOM     56  N   UNL A   1      41.047  31.030  34.869  1.00  0.00    -0.248 NA
ATOM     57  C   UNL A   1      41.542  31.702  37.050  1.00  0.00     0.031 C 
ATOM     58  C   UNL A   1      43.245  27.857  32.676  1.00  0.00     0.029 A 
ATOM     59  C   UNL A   1      42.581  28.849  33.381  1.00  0.00     0.049 A 
ATOM     60  H   UNL A   1      40.869  29.952  32.830  1.00  0.00     0.167 HD
ATOM     61  C   UNL A   1      42.167  30.337  35.316  1.00  0.00     0.074 A 
ATOM     62  C   UNL A   1      42.452  30.826  36.650  1.00  0.00     0.031 C 
ATOM     63  C   UNL A   1      42.886  29.377  34.686  1.00  0.00     0.034 A 
BRANCH  50  64
ATOM     64  C   UNL A   1      40.649  27.798  29.145  1.00  0.00     0.023 A 
ATOM     65  C   UNL A   1      39.800  26.675  29.043  1.00  0.00     0.012 A 
ATOM     66  C   UNL A   1      41.537  28.089  28.091  1.00  0.00     0.148 A 
ATOM     67  C   UNL A   1      39.861  25.836  27.932  1.00  0.00     0.002 A 
ATOM     68  C   UNL A   1      41.557  27.274  26.965  1.00  0.00     0.091 A 
ATOM     69  F   UNL A   1      42.350  29.148  28.213  1.00  0.00    -0.205 F 
ATOM     70  C   UNL A   1      40.730  26.141  26.890  1.00  0.00     0.022 A 
BRANCH  68  71
ATOM     71  S   UNL A   1      42.581  27.627  25.532  1.00  0.00     0.127 S 
ATOM     72  O   UNL A   1      42.321  26.460  24.690  1.00  0.00    -0.237 OA
ATOM     73  O   UNL A   1      42.001  28.876  25.039  1.00  0.00    -0.237 OA
ATOM     74  O   UNL A   1      43.944  27.744  26.031  1.00  0.00    -0.744 OA
ENDBRANCH  68  71
ENDBRANCH  50  64
BRANCH  51  75
ATOM     75  C   UNL A   1      39.384  33.690  37.108  1.00  0.00     0.023 A 
ATOM     76  C   UNL A   1      39.857  35.017  37.127  1.00  0.00     0.012 A 
ATOM     77  C   UNL A   1      38.700  33.189  38.232  1.00  0.00     0.148 A 
ATOM     78  C   UNL A   1      39.684  35.817  38.256  1.00  0.00     0.002 A 
ATOM     79  C   UNL A   1      38.479  34.011  39.331  1.00  0.00     0.091 A 
ATOM     80  F   UNL A   1      38.266  31.921  38.197  1.00  0.00    -0.205 F 
ATOM     81  C   UNL A   1      38.987  35.318  39.354  1.00  0.00     0.022 A 
BRANCH  79  82
ATOM     82  S   UNL A   1      37.480  33.497  40.733  1.00  0.00     0.127 S 
ATOM     83  O   UNL A   1      38.311  32.452  41.324  1.00  0.00    -0.237 OA
ATOM     84  O   UNL A   1      37.395  34.733  41.510  1.00  0.00    -0.237 OA
ATOM     85  O   UNL A   1      36.212  33.053  40.170  1.00  0.00    -0.744 OA
ENDBRANCH  79  82
ENDBRANCH  51  75
BRANCH  63  86
ATOM     86  C   UNL A   1      44.083  28.811  35.407  1.00  0.00     0.023 A 
ATOM     87  C   UNL A   1      45.355  29.388  35.223  1.00  0.00     0.012 A 
ATOM     88  C   UNL A   1      43.930  27.751  36.323  1.00  0.00     0.148 A 
ATOM     89  C   UNL A   1      46.463  28.894  35.911  1.00  0.00     0.002 A 
ATOM     90  C   UNL A   1      45.028  27.300  37.044  1.00  0.00     0.091 A 
ATOM     91  F   UNL A   1      42.715  27.204  36.471  1.00  0.00    -0.205 F 
ATOM     92  C   UNL A   1      46.298  27.860  36.829  1.00  0.00     0.022 A 
BRANCH  90  93
ATOM     93  S   UNL A   1      44.892  26.041  38.318  1.00  0.00     0.127 S 
ATOM     94  O   UNL A   1      43.906  26.634  39.220  1.00  0.00    -0.237 OA
ATOM     95  O   UNL A   1      44.409  24.885  37.561  1.00  0.00    -0.237 OA
ATOM     96  O   UNL A   1      46.230  25.885  38.873  1.00  0.00    -0.744 OA
ENDBRANCH  90  93
ENDBRANCH  63  86
ENDBRANCH  37  38
ENDBRANCH  29  32
ENDBRANCH  27  28
ENDBRANCH  26  27
ENDBRANCH   1  26
TORSDOF 18
ENDMDL
MODEL 3
REMARK VINA RESULT:     -11.6      3.230      8.331
REMARK SMILES Cc1sc(-c2ccco2)nc1C(=O)N[C@@H](C(=O)NCCCCNC(=O)c1ccc(-c2c3nc(c(-c4cccc(S(=O)(=O)[O-])c4F)c4ccc([nH]4)c(-c4cccc(S(=O)(=O)[O-])c4F)c4nc(c(-c5cccc(S(=O)(=O)[O-])c5F)c5ccc2[nH]5)C=C4)C=C3)cc1)C(C)C
REMARK SMILES IDX 20 1 19 2 18 3 16 4 17 5 15 7 14 8 12 9 13 10 11 12 1 13
REMARK SMILES IDX 2 14 3 15 4 16 10 17 5 18 6 19 9 20 7 21 8 22 89 23 90 24
REMARK SMILES IDX 91 25 21 26 22 27 23 28 24 29 25 31 26 32 27 33 88 34 28 35
REMARK SMILES IDX 87 36 29 37 30 38 31 39 81 40 32 41 86 42 80 43 82 44 33 45
REMARK SMILES IDX 85 46 79 47 78 48 34 50 66 51 46 52 65 53 47 54 50 55 64 56
REMARK SMILES IDX 83 57 48 58 49 59 63 61 84 62 51 63 35 64 36 65 44 66 37 67
REMARK SMILES IDX 39 68 45 69 38 70 40 71 41 72 42 73 43 74 67 75 68 76 76 77
REMARK SMILES IDX 69 78 71 79 77 80 70 81 72 82 73 83 74 84 75 85 52 86 53 87
REMARK SMILES IDX 61 88 54 89 56 90 62 91 55 92 57 93 58 94 59 95 60 96
REMARK H PARENT 18 6 14 11 23 30 82 49 50 60
REMARK Flexibility Score: inf
ROOT
ATOM      1  C   UNL A   1      36.179  21.126  24.521  1.00  0.00     0.023 C 
ENDROOT
BRANCH   1   2
ATOM      2  C   UNL A   1      35.339  20.962  25.783  1.00  0.00     0.116 C 
BRANCH   2   3
ATOM      3  N   UNL A   1      34.161  20.153  25.534  1.00  0.00    -0.354 N 
ATOM      4  C   UNL A   1      32.847  20.507  25.402  1.00  0.00     0.242 C 
ATOM      5  O   UNL A   1      32.034  19.596  25.239  1.00  0.00    -0.273 OA
ATOM      6  H   UNL A   1      34.337  19.189  25.446  1.00  0.00     0.163 HD
BRANCH   4   7
ATOM      7  C   UNL A   1      32.441  22.002  25.292  1.00  0.00     0.174 C 
BRANCH   7   8
ATOM      8  N   UNL A   1      31.360  22.331  26.200  1.00  0.00    -0.339 N 
ATOM      9  C   UNL A   1      30.649  23.472  26.472  1.00  0.00     0.271 C 
ATOM     10  O   UNL A   1      29.784  23.298  27.340  1.00  0.00    -0.267 OA
ATOM     11  H   UNL A   1      31.071  21.562  26.743  1.00  0.00     0.164 HD
BRANCH   9  12
ATOM     12  C   UNL A   1      30.827  24.828  25.863  1.00  0.00     0.142 A 
ATOM     13  C   UNL A   1      29.814  25.059  23.368  1.00  0.00     0.059 C 
ATOM     14  C   UNL A   1      30.447  25.450  24.661  1.00  0.00     0.035 A 
ATOM     15  S   UNL A   1      30.838  27.142  24.729  1.00  0.00    -0.115 S 
ATOM     16  C   UNL A   1      31.755  26.881  26.124  1.00  0.00     0.160 A 
ATOM     17  N   UNL A   1      31.659  25.683  26.636  1.00  0.00    -0.227 NA
BRANCH  16  18
ATOM     18  C   UNL A   1      32.616  27.907  26.622  1.00  0.00     0.162 A 
ATOM     19  C   UNL A   1      33.995  27.990  26.524  1.00  0.00     0.053 A 
ATOM     20  O   UNL A   1      32.148  29.055  27.212  1.00  0.00    -0.462 OA
ATOM     21  C   UNL A   1      34.375  29.249  27.048  1.00  0.00     0.043 A 
ATOM     22  C   UNL A   1      33.215  29.848  27.471  1.00  0.00     0.196 A 
ENDBRANCH  16  18
ENDBRANCH   9  12
ENDBRANCH   7   8
BRANCH   7  23
ATOM     23  C   UNL A   1      32.158  22.457  23.837  1.00  0.00     0.015 C 
ATOM     24  C   UNL A   1      33.235  23.413  23.304  1.00  0.00     0.010 C 
ATOM     25  C   UNL A   1      32.104  21.234  22.905  1.00  0.00     0.010 C 
ENDBRANCH   7  23
ENDBRANCH   4   7
ENDBRANCH   2   3
ENDBRANCH   1   2
BRANCH   1  26
ATOM     26  C   UNL A   1      36.678  22.556  24.312  1.00  0.00     0.023 C 
BRANCH  26  27
ATOM     27  C   UNL A   1      37.400  23.162  25.512  1.00  0.00     0.116 C 
BRANCH  27  28
ATOM     28  N   UNL A   1      38.452  22.303  26.039  1.00  0.00    -0.352 N 
ATOM     29  C   UNL A   1      39.598  22.672  26.702  1.00  0.00     0.251 C 
ATOM     30  H   UNL A   1      38.326  21.337  25.901  1.00  0.00     0.163 HD
ATOM     31  O   UNL A   1      40.456  21.834  26.969  1.00  0.00    -0.269 OA
BRANCH  29  32
ATOM     32  C   UNL A   1      39.801  24.090  27.061  1.00  0.00     0.039 A 
ATOM     33  C   UNL A   1      39.554  24.499  28.373  1.00  0.00     0.014 A 
ATOM     34  C   UNL A   1      40.282  25.000  26.115  1.00  0.00     0.014 A 
ATOM     35  C   UNL A   1      39.851  25.810  28.752  1.00  0.00     0.010 A 
ATOM     36  C   UNL A   1      40.652  26.279  26.515  1.00  0.00     0.010 A 
ATOM     37  C   UNL A   1      40.437  26.701  27.836  1.00  0.00    -0.014 A 
BRANCH  37  38
ATOM     38  C   UNL A   1      40.844  28.069  28.247  1.00  0.00     0.031 A 
ATOM     39  C   UNL A   1      42.299  28.454  28.267  1.00  0.00     0.074 A 
ATOM     40  C   UNL A   1      39.913  28.941  28.683  1.00  0.00     0.049 A 
ATOM     41  N   UNL A   1      42.849  29.580  28.641  1.00  0.00    -0.248 NA
ATOM     42  C   UNL A   1      43.267  27.430  27.837  1.00  0.00     0.031 C 
ATOM     43  C   UNL A   1      38.478  28.663  28.791  1.00  0.00     0.029 A 
ATOM     44  N   UNL A   1      40.035  30.229  29.141  1.00  0.00    -0.354 N 
ATOM     45  C   UNL A   1      44.221  29.391  28.525  1.00  0.00     0.074 A 
ATOM     46  C   UNL A   1      44.423  28.029  28.083  1.00  0.00     0.031 C 
ATOM     47  C   UNL A   1      37.854  29.748  29.276  1.00  0.00     0.029 A 
ATOM     48  C   UNL A   1      38.844  30.787  29.545  1.00  0.00     0.049 A 
ATOM     49  H   UNL A   1      40.894  30.709  29.176  1.00  0.00     0.167 HD
ATOM     50  C   UNL A   1      45.222  30.278  28.737  1.00  0.00     0.034 A 
ATOM     51  C   UNL A   1      38.578  31.993  30.083  1.00  0.00     0.034 A 
ATOM     52  C   UNL A   1      45.016  31.643  29.141  1.00  0.00     0.049 A 
ATOM     53  C   UNL A   1      39.704  32.972  30.278  1.00  0.00     0.074 A 
ATOM     54  C   UNL A   1      45.958  32.644  29.298  1.00  0.00     0.029 A 
ATOM     55  N   UNL A   1      43.787  32.198  29.463  1.00  0.00    -0.354 N 
ATOM     56  N   UNL A   1      40.980  32.827  30.010  1.00  0.00    -0.248 NA
ATOM     57  C   UNL A   1      39.351  34.295  30.814  1.00  0.00     0.031 C 
ATOM     58  C   UNL A   1      45.303  33.795  29.746  1.00  0.00     0.029 A 
ATOM     59  C   UNL A   1      43.947  33.522  29.832  1.00  0.00     0.049 A 
ATOM     60  H   UNL A   1      42.927  31.719  29.436  1.00  0.00     0.167 HD
ATOM     61  C   UNL A   1      41.574  34.047  30.308  1.00  0.00     0.074 A 
ATOM     62  C   UNL A   1      40.515  34.928  30.757  1.00  0.00     0.031 C 
ATOM     63  C   UNL A   1      42.880  34.404  30.229  1.00  0.00     0.034 A 
BRANCH  50  64
ATOM     64  C   UNL A   1      46.634  29.813  28.490  1.00  0.00     0.023 A 
ATOM     65  C   UNL A   1      47.239  30.054  27.239  1.00  0.00     0.012 A 
ATOM     66  C   UNL A   1      47.381  29.189  29.508  1.00  0.00     0.148 A 
ATOM     67  C   UNL A   1      48.550  29.649  26.992  1.00  0.00     0.002 A 
ATOM     68  C   UNL A   1      48.703  28.831  29.270  1.00  0.00     0.091 A 
ATOM     69  F   UNL A   1      46.784  28.949  30.684  1.00  0.00    -0.205 F 
ATOM     70  C   UNL A   1      49.284  29.048  28.010  1.00  0.00     0.022 A 
BRANCH  68  71
ATOM     71  S   UNL A   1      49.760  28.126  30.540  1.00  0.00     0.127 S 
ATOM     72  O   UNL A   1      49.536  29.047  31.654  1.00  0.00    -0.237 OA
ATOM     73  O   UNL A   1      49.176  26.797  30.722  1.00  0.00    -0.237 OA
ATOM     74  O   UNL A   1      51.107  28.129  29.989  1.00  0.00    -0.744 OA
ENDBRANCH  68  71
ENDBRANCH  50  64
BRANCH  51  75
ATOM     75  C   UNL A   1      37.175  32.366  30.424  1.00  0.00     0.023 A 
ATOM     76  C   UNL A   1      36.687  32.118  31.723  1.00  0.00     0.012 A 
ATOM     77  C   UNL A   1      36.332  32.980  29.479  1.00  0.00     0.148 A 
ATOM     78  C   UNL A   1      35.373  32.443  32.062  1.00  0.00     0.002 A 
ATOM     79  C   UNL A   1      35.043  33.354  29.841  1.00  0.00     0.091 A 
ATOM     80  F   UNL A   1      36.813  33.198  28.247  1.00  0.00    -0.205 F 
ATOM     81  C   UNL A   1      34.555  33.069  31.125  1.00  0.00     0.022 A 
BRANCH  79  82
ATOM     82  S   UNL A   1      33.965  34.282  28.743  1.00  0.00     0.127 S 
ATOM     83  O   UNL A   1      33.661  33.290  27.716  1.00  0.00    -0.237 OA
ATOM     84  O   UNL A   1      32.850  34.616  29.629  1.00  0.00    -0.237 OA
ATOM     85  O   UNL A   1      34.747  35.429  28.303  1.00  0.00    -0.744 OA
ENDBRANCH  79  82
ENDBRANCH  51  75
BRANCH  63  86
ATOM     86  C   UNL A   1      43.242  35.820  30.594  1.00  0.00     0.023 A 
ATOM     87  C   UNL A   1      43.628  36.133  31.912  1.00  0.00     0.012 A 
ATOM     88  C   UNL A   1      43.269  36.828  29.608  1.00  0.00     0.148 A 
ATOM     89  C   UNL A   1      43.998  37.434  32.253  1.00  0.00     0.002 A 
ATOM     90  C   UNL A   1      43.690  38.109  29.943  1.00  0.00     0.091 A 
ATOM     91  F   UNL A   1      42.882  36.515  28.363  1.00  0.00    -0.205 F 
ATOM     92  C   UNL A   1      44.041  38.417  31.268  1.00  0.00     0.022 A 
BRANCH  90  93
ATOM     93  S   UNL A   1      43.872  39.413  28.722  1.00  0.00     0.127 S 
ATOM     94  O   UNL A   1      44.833  38.820  27.792  1.00  0.00    -0.237 OA
ATOM     95  O   UNL A   1      42.511  39.537  28.196  1.00  0.00    -0.237 OA
ATOM     96  O   UNL A   1      44.349  40.582  29.449  1.00  0.00    -0.744 OA
ENDBRANCH  90  93
ENDBRANCH  63  86
ENDBRANCH  37  38
ENDBRANCH  29  32
ENDBRANCH  27  28
ENDBRANCH  26  27
ENDBRANCH   1  26
TORSDOF 18
ENDMDL
