MODEL 1
REMARK VINA RESULT:     -11.7      0.000      0.000
REMARK SMILES Cc1cscc1C(=O)N[C@H](C(=O)NCCCCNC(=O)c1ccc(-c2c3nc(c(-c4cccc(S(=O)(=O)[O-])c4F)c4ccc([nH]4)c(-c4cccc(S(=O)(=O)[O-])c4F)c4nc(c(-c5cccc(S(=O)(=O)[O-])c5F)c5ccc2[nH]5)C=C4)C=C3)cc1)c1ccccc1
REMARK SMILES IDX 16 1 15 2 14 3 13 4 11 5 12 6 10 8 9 9 7 10 8 11 6 13 1 14
REMARK SMILES IDX 2 15 3 16 4 17 5 18 84 19 85 20 89 21 86 22 88 23 87 24
REMARK SMILES IDX 17 25 18 26 19 27 20 29 21 30 22 31 83 32 23 33 82 34 24 35
REMARK SMILES IDX 25 36 26 37 76 38 27 39 81 40 75 41 77 42 28 43 80 44 74 45
REMARK SMILES IDX 73 46 29 48 61 49 41 50 60 51 42 52 45 53 59 54 78 55 43 56
REMARK SMILES IDX 44 57 58 59 79 60 46 61 30 62 31 63 39 64 32 65 34 66 40 67
REMARK SMILES IDX 33 68 35 69 36 70 37 71 38 72 62 73 63 74 71 75 64 76 66 77
REMARK SMILES IDX 72 78 65 79 67 80 68 81 69 82 70 83 47 84 48 85 56 86 49 87
REMARK SMILES IDX 51 88 57 89 50 90 52 91 53 92 54 93 55 94
REMARK H PARENT 13 7 9 12 18 28 77 47 45 58
REMARK Flexibility Score: inf
ROOT
ATOM      1  C   UNL A   1      32.036  28.772  24.953  1.00  0.00     0.023 C 
ENDROOT
BRANCH   1   2
ATOM      2  C   UNL A   1      31.892  28.800  23.423  1.00  0.00     0.023 C 
BRANCH   2   3
ATOM      3  C   UNL A   1      33.100  28.278  22.644  1.00  0.00     0.116 C 
BRANCH   3   4
ATOM      4  N   UNL A   1      32.774  27.025  22.002  1.00  0.00    -0.354 N 
ATOM      5  C   UNL A   1      33.255  25.772  22.252  1.00  0.00     0.247 C 
ATOM      6  O   UNL A   1      33.268  25.032  21.274  1.00  0.00    -0.272 OA
ATOM      7  H   UNL A   1      32.107  27.083  21.281  1.00  0.00     0.163 HD
BRANCH   5   8
ATOM      8  C   UNL A   1      33.492  25.310  23.697  1.00  0.00     0.202 C 
BRANCH   8   9
ATOM      9  N   UNL A   1      32.246  24.808  24.255  1.00  0.00    -0.336 N 
ATOM     10  C   UNL A   1      31.779  23.707  24.899  1.00  0.00     0.253 C 
ATOM     11  O   UNL A   1      30.626  23.906  25.317  1.00  0.00    -0.269 OA
ATOM     12  H   UNL A   1      31.524  25.464  24.128  1.00  0.00     0.165 HD
BRANCH  10  13
ATOM     13  C   UNL A   1      32.389  22.368  25.095  1.00  0.00     0.053 A 
ATOM     14  C   UNL A   1      33.632  21.962  27.487  1.00  0.00     0.046 C 
ATOM     15  C   UNL A   1      33.133  21.617  26.119  1.00  0.00    -0.028 A 
ATOM     16  C   UNL A   1      33.398  20.318  25.695  1.00  0.00     0.069 A 
ATOM     17  S   UNL A   1      32.770  19.935  24.176  1.00  0.00    -0.151 S 
ATOM     18  C   UNL A   1      32.155  21.503  24.019  1.00  0.00     0.079 A 
ENDBRANCH  10  13
ENDBRANCH   8   9
BRANCH   8  19
ATOM     19  C   UNL A   1      34.705  24.474  24.082  1.00  0.00    -0.016 A 
ATOM     20  C   UNL A   1      35.297  24.626  25.348  1.00  0.00     0.006 A 
ATOM     21  C   UNL A   1      35.191  23.432  23.267  1.00  0.00     0.006 A 
ATOM     22  C   UNL A   1      36.338  23.783  25.761  1.00  0.00     0.000 A 
ATOM     23  C   UNL A   1      36.261  22.625  23.657  1.00  0.00     0.000 A 
ATOM     24  C   UNL A   1      36.829  22.795  24.911  1.00  0.00     0.000 A 
ENDBRANCH   8  19
ENDBRANCH   5   8
ENDBRANCH   3   4
ENDBRANCH   2   3
ENDBRANCH   1   2
BRANCH   1  25
ATOM     25  C   UNL A   1      33.196  29.575  25.535  1.00  0.00     0.116 C 
BRANCH  25  26
ATOM     26  N   UNL A   1      32.782  30.839  26.120  1.00  0.00    -0.352 N 
ATOM     27  C   UNL A   1      33.378  31.566  27.117  1.00  0.00     0.251 C 
ATOM     28  H   UNL A   1      31.957  31.228  25.748  1.00  0.00     0.163 HD
ATOM     29  O   UNL A   1      32.849  32.597  27.523  1.00  0.00    -0.269 OA
BRANCH  27  30
ATOM     30  C   UNL A   1      34.627  31.075  27.730  1.00  0.00     0.039 A 
ATOM     31  C   UNL A   1      35.672  31.984  27.914  1.00  0.00     0.014 A 
ATOM     32  C   UNL A   1      34.755  29.748  28.149  1.00  0.00     0.014 A 
ATOM     33  C   UNL A   1      36.830  31.575  28.572  1.00  0.00     0.010 A 
ATOM     34  C   UNL A   1      35.886  29.360  28.861  1.00  0.00     0.010 A 
ATOM     35  C   UNL A   1      36.935  30.269  29.077  1.00  0.00    -0.014 A 
BRANCH  35  36
ATOM     36  C   UNL A   1      38.132  29.847  29.842  1.00  0.00     0.031 A 
ATOM     37  C   UNL A   1      38.370  30.377  31.228  1.00  0.00     0.074 A 
ATOM     38  C   UNL A   1      39.040  29.040  29.258  1.00  0.00     0.049 A 
ATOM     39  N   UNL A   1      39.366  30.140  32.040  1.00  0.00    -0.248 NA
ATOM     40  C   UNL A   1      37.369  31.316  31.763  1.00  0.00     0.031 C 
ATOM     41  C   UNL A   1      38.958  28.529  27.887  1.00  0.00     0.029 A 
ATOM     42  N   UNL A   1      40.221  28.528  29.732  1.00  0.00    -0.354 N 
ATOM     43  C   UNL A   1      39.134  30.926  33.163  1.00  0.00     0.074 A 
ATOM     44  C   UNL A   1      37.918  31.669  32.917  1.00  0.00     0.031 C 
ATOM     45  C   UNL A   1      40.040  27.776  27.633  1.00  0.00     0.029 A 
ATOM     46  C   UNL A   1      40.903  27.769  28.809  1.00  0.00     0.049 A 
ATOM     47  H   UNL A   1      40.549  28.688  30.646  1.00  0.00     0.167 HD
ATOM     48  C   UNL A   1      39.853  30.997  34.308  1.00  0.00     0.034 A 
ATOM     49  C   UNL A   1      42.093  27.142  28.902  1.00  0.00     0.034 A 
ATOM     50  C   UNL A   1      41.035  30.220  34.562  1.00  0.00     0.049 A 
ATOM     51  C   UNL A   1      42.844  27.198  30.203  1.00  0.00     0.074 A 
ATOM     52  C   UNL A   1      41.781  30.145  35.725  1.00  0.00     0.029 A 
ATOM     53  N   UNL A   1      41.650  29.389  33.638  1.00  0.00    -0.354 N 
ATOM     54  N   UNL A   1      42.518  27.807  31.318  1.00  0.00    -0.248 NA
ATOM     55  C   UNL A   1      44.107  26.449  30.276  1.00  0.00     0.031 C 
ATOM     56  C   UNL A   1      42.861  29.286  35.495  1.00  0.00     0.029 A 
ATOM     57  C   UNL A   1      42.773  28.805  34.198  1.00  0.00     0.049 A 
ATOM     58  H   UNL A   1      41.333  29.238  32.718  1.00  0.00     0.167 HD
ATOM     59  C   UNL A   1      43.514  27.487  32.233  1.00  0.00     0.074 A 
ATOM     60  C   UNL A   1      44.444  26.612  31.548  1.00  0.00     0.031 C 
ATOM     61  C   UNL A   1      43.656  27.893  33.519  1.00  0.00     0.034 A 
BRANCH  48  62
ATOM     62  C   UNL A   1      39.351  31.911  35.394  1.00  0.00     0.023 A 
ATOM     63  C   UNL A   1      38.424  31.425  36.340  1.00  0.00     0.012 A 
ATOM     64  C   UNL A   1      39.835  33.228  35.517  1.00  0.00     0.148 A 
ATOM     65  C   UNL A   1      37.960  32.245  37.368  1.00  0.00     0.002 A 
ATOM     66  C   UNL A   1      39.402  34.025  36.570  1.00  0.00     0.091 A 
ATOM     67  F   UNL A   1      40.699  33.680  34.597  1.00  0.00    -0.205 F 
ATOM     68  C   UNL A   1      38.457  33.539  37.489  1.00  0.00     0.022 A 
BRANCH  66  69
ATOM     69  S   UNL A   1      40.042  35.678  36.862  1.00  0.00     0.127 S 
ATOM     70  O   UNL A   1      39.384  36.030  38.119  1.00  0.00    -0.237 OA
ATOM     71  O   UNL A   1      41.481  35.435  36.974  1.00  0.00    -0.237 OA
ATOM     72  O   UNL A   1      39.648  36.471  35.705  1.00  0.00    -0.744 OA
ENDBRANCH  66  69
ENDBRANCH  48  62
BRANCH  49  73
ATOM     73  C   UNL A   1      42.610  26.352  27.748  1.00  0.00     0.023 A 
ATOM     74  C   UNL A   1      43.555  26.932  26.879  1.00  0.00     0.012 A 
ATOM     75  C   UNL A   1      42.198  25.024  27.525  1.00  0.00     0.148 A 
ATOM     76  C   UNL A   1      44.053  26.218  25.789  1.00  0.00     0.002 A 
ATOM     77  C   UNL A   1      42.741  24.298  26.470  1.00  0.00     0.091 A 
ATOM     78  F   UNL A   1      41.290  24.492  28.356  1.00  0.00    -0.205 F 
ATOM     79  C   UNL A   1      43.654  24.898  25.590  1.00  0.00     0.022 A 
BRANCH  77  80
ATOM     80  S   UNL A   1      42.387  22.555  26.220  1.00  0.00     0.127 S 
ATOM     81  O   UNL A   1      40.931  22.558  26.108  1.00  0.00    -0.237 OA
ATOM     82  O   UNL A   1      43.101  22.276  24.973  1.00  0.00    -0.237 OA
ATOM     83  O   UNL A   1      42.933  21.873  27.386  1.00  0.00    -0.744 OA
ENDBRANCH  77  80
ENDBRANCH  49  73
BRANCH  61  84
ATOM     84  C   UNL A   1      44.841  27.372  34.289  1.00  0.00     0.023 A 
ATOM     85  C   UNL A   1      46.055  28.086  34.274  1.00  0.00     0.012 A 
ATOM     86  C   UNL A   1      44.723  26.221  35.092  1.00  0.00     0.148 A 
ATOM     87  C   UNL A   1      47.145  27.644  35.022  1.00  0.00     0.002 A 
ATOM     88  C   UNL A   1      45.799  25.814  35.873  1.00  0.00     0.091 A 
ATOM     89  F   UNL A   1      43.565  25.545  35.077  1.00  0.00    -0.205 F 
ATOM     90  C   UNL A   1      47.013  26.517  35.830  1.00  0.00     0.022 A 
BRANCH  88  91
ATOM     91  S   UNL A   1      45.687  24.435  37.018  1.00  0.00     0.127 S 
ATOM     92  O   UNL A   1      44.561  24.836  37.859  1.00  0.00    -0.237 OA
ATOM     93  O   UNL A   1      45.409  23.310  36.124  1.00  0.00    -0.237 OA
ATOM     94  O   UNL A   1      46.978  24.366  37.691  1.00  0.00    -0.744 OA
ENDBRANCH  88  91
ENDBRANCH  61  84
ENDBRANCH  35  36
ENDBRANCH  27  30
ENDBRANCH  25  26
ENDBRANCH   1  25
TORSDOF 17
ENDMDL
MODEL 2
REMARK VINA RESULT:     -11.7      1.671      2.300
REMARK SMILES Cc1cscc1C(=O)N[C@H](C(=O)NCCCCNC(=O)c1ccc(-c2c3nc(c(-c4cccc(S(=O)(=O)[O-])c4F)c4ccc([nH]4)c(-c4cccc(S(=O)(=O)[O-])c4F)c4nc(c(-c5cccc(S(=O)(=O)[O-])c5F)c5ccc2[nH]5)C=C4)C=C3)cc1)c1ccccc1
REMARK SMILES IDX 16 1 15 2 14 3 13 4 11 5 12 6 10 8 9 9 7 10 8 11 6 13 1 14
REMARK SMILES IDX 2 15 3 16 4 17 5 18 84 19 85 20 89 21 86 22 88 23 87 24
REMARK SMILES IDX 17 25 18 26 19 27 20 29 21 30 22 31 83 32 23 33 82 34 24 35
REMARK SMILES IDX 25 36 26 37 76 38 27 39 81 40 75 41 77 42 28 43 80 44 74 45
REMARK SMILES IDX 73 46 29 48 61 49 41 50 60 51 42 52 45 53 59 54 78 55 43 56
REMARK SMILES IDX 44 57 58 59 79 60 46 61 30 62 31 63 39 64 32 65 34 66 40 67
REMARK SMILES IDX 33 68 35 69 36 70 37 71 38 72 62 73 63 74 71 75 64 76 66 77
REMARK SMILES IDX 72 78 65 79 67 80 68 81 69 82 70 83 47 84 48 85 56 86 49 87
REMARK SMILES IDX 51 88 57 89 50 90 52 91 53 92 54 93 55 94
REMARK H PARENT 13 7 9 12 18 28 77 47 45 58
REMARK Flexibility Score: inf
ROOT
ATOM      1  C   UNL A   1      31.718  30.244  25.785  1.00  0.00     0.023 C 
ENDROOT
BRANCH   1   2
ATOM      2  C   UNL A   1      32.355  29.265  24.786  1.00  0.00     0.023 C 
BRANCH   2   3
ATOM      3  C   UNL A   1      31.503  28.937  23.560  1.00  0.00     0.116 C 
BRANCH   3   4
ATOM      4  N   UNL A   1      32.347  28.513  22.467  1.00  0.00    -0.354 N 
ATOM      5  C   UNL A   1      32.966  27.313  22.265  1.00  0.00     0.247 C 
ATOM      6  O   UNL A   1      34.010  27.385  21.624  1.00  0.00    -0.272 OA
ATOM      7  H   UNL A   1      32.497  29.186  21.765  1.00  0.00     0.163 HD
BRANCH   5   8
ATOM      8  C   UNL A   1      32.240  26.003  22.601  1.00  0.00     0.202 C 
BRANCH   8   9
ATOM      9  N   UNL A   1      32.706  24.949  21.713  1.00  0.00    -0.336 N 
ATOM     10  C   UNL A   1      33.257  23.710  21.789  1.00  0.00     0.253 C 
ATOM     11  O   UNL A   1      33.283  23.177  20.667  1.00  0.00    -0.269 OA
ATOM     12  H   UNL A   1      32.586  25.214  20.773  1.00  0.00     0.165 HD
BRANCH  10  13
ATOM     13  C   UNL A   1      33.856  22.986  22.939  1.00  0.00     0.053 A 
ATOM     14  C   UNL A   1      32.219  21.225  24.224  1.00  0.00     0.046 C 
ATOM     15  C   UNL A   1      33.484  21.973  23.938  1.00  0.00    -0.028 A 
ATOM     16  C   UNL A   1      34.561  21.662  24.764  1.00  0.00     0.069 A 
ATOM     17  S   UNL A   1      35.992  22.472  24.382  1.00  0.00    -0.151 S 
ATOM     18  C   UNL A   1      35.210  23.290  23.124  1.00  0.00     0.079 A 
ENDBRANCH  10  13
ENDBRANCH   8   9
BRANCH   8  19
ATOM     19  C   UNL A   1      32.048  25.539  24.038  1.00  0.00    -0.016 A 
ATOM     20  C   UNL A   1      30.881  24.849  24.410  1.00  0.00     0.006 A 
ATOM     21  C   UNL A   1      33.067  25.644  25.006  1.00  0.00     0.006 A 
ATOM     22  C   UNL A   1      30.742  24.312  25.697  1.00  0.00     0.000 A 
ATOM     23  C   UNL A   1      32.909  25.154  26.303  1.00  0.00     0.000 A 
ATOM     24  C   UNL A   1      31.747  24.479  26.646  1.00  0.00     0.000 A 
ENDBRANCH   8  19
ENDBRANCH   5   8
ENDBRANCH   3   4
ENDBRANCH   2   3
ENDBRANCH   1   2
BRANCH   1  25
ATOM     25  C   UNL A   1      32.587  30.659  26.969  1.00  0.00     0.116 C 
BRANCH  25  26
ATOM     26  N   UNL A   1      32.686  32.100  27.130  1.00  0.00    -0.352 N 
ATOM     27  C   UNL A   1      33.698  32.839  27.683  1.00  0.00     0.251 C 
ATOM     28  H   UNL A   1      31.918  32.618  26.795  1.00  0.00     0.163 HD
ATOM     29  O   UNL A   1      33.582  34.058  27.783  1.00  0.00    -0.269 OA
BRANCH  27  30
ATOM     30  C   UNL A   1      34.899  32.158  28.202  1.00  0.00     0.039 A 
ATOM     31  C   UNL A   1      36.100  32.871  28.231  1.00  0.00     0.014 A 
ATOM     32  C   UNL A   1      34.836  30.849  28.687  1.00  0.00     0.014 A 
ATOM     33  C   UNL A   1      37.232  32.288  28.798  1.00  0.00     0.010 A 
ATOM     34  C   UNL A   1      35.950  30.294  29.310  1.00  0.00     0.010 A 
ATOM     35  C   UNL A   1      37.158  31.007  29.368  1.00  0.00    -0.014 A 
BRANCH  35  36
ATOM     36  C   UNL A   1      38.337  30.408  30.039  1.00  0.00     0.031 A 
ATOM     37  C   UNL A   1      38.724  30.848  31.424  1.00  0.00     0.074 A 
ATOM     38  C   UNL A   1      39.099  29.520  29.371  1.00  0.00     0.049 A 
ATOM     39  N   UNL A   1      39.729  30.457  32.161  1.00  0.00    -0.248 NA
ATOM     40  C   UNL A   1      37.884  31.881  32.054  1.00  0.00     0.031 C 
ATOM     41  C   UNL A   1      38.869  29.080  27.992  1.00  0.00     0.029 A 
ATOM     42  N   UNL A   1      40.232  28.846  29.750  1.00  0.00    -0.354 N 
ATOM     43  C   UNL A   1      39.667  31.218  33.321  1.00  0.00     0.074 A 
ATOM     44  C   UNL A   1      38.542  32.116  33.180  1.00  0.00     0.031 C 
ATOM     45  C   UNL A   1      39.830  28.209  27.643  1.00  0.00     0.029 A 
ATOM     46  C   UNL A   1      40.756  28.047  28.759  1.00  0.00     0.049 A 
ATOM     47  H   UNL A   1      40.633  28.927  30.645  1.00  0.00     0.167 HD
ATOM     48  C   UNL A   1      40.458  31.153  34.419  1.00  0.00     0.034 A 
ATOM     49  C   UNL A   1      41.860  27.274  28.753  1.00  0.00     0.034 A 
ATOM     50  C   UNL A   1      41.545  30.225  34.570  1.00  0.00     0.049 A 
ATOM     51  C   UNL A   1      42.690  27.183  30.004  1.00  0.00     0.074 A 
ATOM     52  C   UNL A   1      42.345  30.011  35.678  1.00  0.00     0.029 A 
ATOM     53  N   UNL A   1      41.993  29.363  33.580  1.00  0.00    -0.354 N 
ATOM     54  N   UNL A   1      42.511  27.782  31.157  1.00  0.00    -0.248 NA
ATOM     55  C   UNL A   1      43.850  26.281  29.969  1.00  0.00     0.031 C 
ATOM     56  C   UNL A   1      43.291  29.035  35.350  1.00  0.00     0.029 A 
ATOM     57  C   UNL A   1      43.065  28.622  34.046  1.00  0.00     0.049 A 
ATOM     58  H   UNL A   1      41.604  29.290  32.679  1.00  0.00     0.167 HD
ATOM     59  C   UNL A   1      43.513  27.304  31.995  1.00  0.00     0.074 A 
ATOM     60  C   UNL A   1      44.281  26.349  31.222  1.00  0.00     0.031 C 
ATOM     61  C   UNL A   1      43.783  27.636  33.281  1.00  0.00     0.034 A 
BRANCH  48  62
ATOM     62  C   UNL A   1      40.142  32.077  35.565  1.00  0.00     0.023 A 
ATOM     63  C   UNL A   1      40.855  33.287  35.701  1.00  0.00     0.012 A 
ATOM     64  C   UNL A   1      39.105  31.781  36.472  1.00  0.00     0.148 A 
ATOM     65  C   UNL A   1      40.567  34.169  36.741  1.00  0.00     0.002 A 
ATOM     66  C   UNL A   1      38.794  32.687  37.479  1.00  0.00     0.091 A 
ATOM     67  F   UNL A   1      38.453  30.618  36.340  1.00  0.00    -0.205 F 
ATOM     68  C   UNL A   1      39.530  33.874  37.623  1.00  0.00     0.022 A 
BRANCH  66  69
ATOM     69  S   UNL A   1      37.425  32.439  38.616  1.00  0.00     0.127 S 
ATOM     70  O   UNL A   1      37.795  33.324  39.719  1.00  0.00    -0.237 OA
ATOM     71  O   UNL A   1      36.282  32.897  37.825  1.00  0.00    -0.237 OA
ATOM     72  O   UNL A   1      37.415  31.017  38.929  1.00  0.00    -0.744 OA
ENDBRANCH  66  69
ENDBRANCH  48  62
BRANCH  49  73
ATOM     73  C   UNL A   1      42.202  26.473  27.543  1.00  0.00     0.023 A 
ATOM     74  C   UNL A   1      42.878  27.091  26.472  1.00  0.00     0.012 A 
ATOM     75  C   UNL A   1      41.892  25.103  27.459  1.00  0.00     0.148 A 
ATOM     76  C   UNL A   1      43.207  26.368  25.326  1.00  0.00     0.002 A 
ATOM     77  C   UNL A   1      42.273  24.374  26.337  1.00  0.00     0.091 A 
ATOM     78  F   UNL A   1      41.239  24.534  28.482  1.00  0.00    -0.205 F 
ATOM     79  C   UNL A   1      42.914  25.008  25.262  1.00  0.00     0.022 A 
BRANCH  77  80
ATOM     80  S   UNL A   1      42.057  22.594  26.228  1.00  0.00     0.127 S 
ATOM     81  O   UNL A   1      40.602  22.471  26.203  1.00  0.00    -0.237 OA
ATOM     82  O   UNL A   1      42.724  22.285  24.962  1.00  0.00    -0.237 OA
ATOM     83  O   UNL A   1      42.722  22.046  27.402  1.00  0.00    -0.744 OA
ENDBRANCH  77  80
ENDBRANCH  49  73
BRANCH  61  84
ATOM     84  C   UNL A   1      44.937  26.941  33.954  1.00  0.00     0.023 A 
ATOM     85  C   UNL A   1      46.235  27.477  33.848  1.00  0.00     0.012 A 
ATOM     86  C   UNL A   1      44.719  25.805  34.758  1.00  0.00     0.148 A 
ATOM     87  C   UNL A   1      47.306  26.873  34.507  1.00  0.00     0.002 A 
ATOM     88  C   UNL A   1      45.782  25.239  35.452  1.00  0.00     0.091 A 
ATOM     89  F   UNL A   1      43.479  25.300  34.831  1.00  0.00    -0.205 F 
ATOM     90  C   UNL A   1      47.077  25.764  35.318  1.00  0.00     0.022 A 
BRANCH  88  91
ATOM     91  S   UNL A   1      45.563  23.871  36.595  1.00  0.00     0.127 S 
ATOM     92  O   UNL A   1      46.923  23.682  37.097  1.00  0.00    -0.237 OA
ATOM     93  O   UNL A   1      44.625  24.428  37.571  1.00  0.00    -0.237 OA
ATOM     94  O   UNL A   1      45.029  22.769  35.805  1.00  0.00    -0.744 OA
ENDBRANCH  88  91
ENDBRANCH  61  84
ENDBRANCH  35  36
ENDBRANCH  27  30
ENDBRANCH  25  26
ENDBRANCH   1  25
TORSDOF 17
ENDMDL
MODEL 3
REMARK VINA RESULT:     -11.6      4.863     10.022
REMARK SMILES Cc1cscc1C(=O)N[C@H](C(=O)NCCCCNC(=O)c1ccc(-c2c3nc(c(-c4cccc(S(=O)(=O)[O-])c4F)c4ccc([nH]4)c(-c4cccc(S(=O)(=O)[O-])c4F)c4nc(c(-c5cccc(S(=O)(=O)[O-])c5F)c5ccc2[nH]5)C=C4)C=C3)cc1)c1ccccc1
REMARK SMILES IDX 16 1 15 2 14 3 13 4 11 5 12 6 10 8 9 9 7 10 8 11 6 13 1 14
REMARK SMILES IDX 2 15 3 16 4 17 5 18 84 19 85 20 89 21 86 22 88 23 87 24
REMARK SMILES IDX 17 25 18 26 19 27 20 29 21 30 22 31 83 32 23 33 82 34 24 35
REMARK SMILES IDX 25 36 26 37 76 38 27 39 81 40 75 41 77 42 28 43 80 44 74 45
REMARK SMILES IDX 73 46 29 48 61 49 41 50 60 51 42 52 45 53 59 54 78 55 43 56
REMARK SMILES IDX 44 57 58 59 79 60 46 61 30 62 31 63 39 64 32 65 34 66 40 67
REMARK SMILES IDX 33 68 35 69 36 70 37 71 38 72 62 73 63 74 71 75 64 76 66 77
REMARK SMILES IDX 72 78 65 79 67 80 68 81 69 82 70 83 47 84 48 85 56 86 49 87
REMARK SMILES IDX 51 88 57 89 50 90 52 91 53 92 54 93 55 94
REMARK H PARENT 13 7 9 12 18 28 77 47 45 58
REMARK Flexibility Score: inf
ROOT
ATOM      1  C   UNL A   1      35.132  22.267  24.572  1.00  0.00     0.023 C 
ENDROOT
BRANCH   1   2
ATOM      2  C   UNL A   1      33.735  21.674  24.813  1.00  0.00     0.023 C 
BRANCH   2   3
ATOM      3  C   UNL A   1      32.567  22.552  24.361  1.00  0.00     0.116 C 
BRANCH   3   4
ATOM      4  N   UNL A   1      31.689  22.823  25.476  1.00  0.00    -0.354 N 
ATOM      5  C   UNL A   1      31.500  23.985  26.168  1.00  0.00     0.247 C 
ATOM      6  O   UNL A   1      31.173  23.827  27.340  1.00  0.00    -0.272 OA
ATOM      7  H   UNL A   1      31.148  22.060  25.781  1.00  0.00     0.163 HD
BRANCH   5   8
ATOM      8  C   UNL A   1      31.454  25.328  25.425  1.00  0.00     0.202 C 
BRANCH   8   9
ATOM      9  N   UNL A   1      30.108  25.559  24.924  1.00  0.00    -0.336 N 
ATOM     10  C   UNL A   1      29.468  26.350  24.025  1.00  0.00     0.253 C 
ATOM     11  O   UNL A   1      28.293  25.976  23.877  1.00  0.00    -0.269 OA
ATOM     12  H   UNL A   1      29.468  24.961  25.372  1.00  0.00     0.165 HD
BRANCH  10  13
ATOM     13  C   UNL A   1      29.930  27.560  23.300  1.00  0.00     0.053 A 
ATOM     14  C   UNL A   1      32.498  27.495  22.384  1.00  0.00     0.046 C 
ATOM     15  C   UNL A   1      31.131  28.062  22.613  1.00  0.00    -0.028 A 
ATOM     16  C   UNL A   1      30.909  29.324  22.068  1.00  0.00     0.069 A 
ATOM     17  S   UNL A   1      29.342  29.913  22.287  1.00  0.00    -0.151 S 
ATOM     18  C   UNL A   1      28.922  28.519  23.147  1.00  0.00     0.079 A 
ENDBRANCH  10  13
ENDBRANCH   8   9
BRANCH   8  19
ATOM     19  C   UNL A   1      32.110  26.580  25.991  1.00  0.00    -0.016 A 
ATOM     20  C   UNL A   1      31.397  27.419  26.864  1.00  0.00     0.006 A 
ATOM     21  C   UNL A   1      33.474  26.871  25.791  1.00  0.00     0.006 A 
ATOM     22  C   UNL A   1      32.024  28.508  27.486  1.00  0.00     0.000 A 
ATOM     23  C   UNL A   1      34.086  27.984  26.370  1.00  0.00     0.000 A 
ATOM     24  C   UNL A   1      33.360  28.799  27.227  1.00  0.00     0.000 A 
ENDBRANCH   8  19
ENDBRANCH   5   8
ENDBRANCH   3   4
ENDBRANCH   2   3
ENDBRANCH   1   2
BRANCH   1  25
ATOM     25  C   UNL A   1      36.083  22.259  25.766  1.00  0.00     0.116 C 
BRANCH  25  26
ATOM     26  N   UNL A   1      37.112  21.238  25.672  1.00  0.00    -0.352 N 
ATOM     27  C   UNL A   1      38.453  21.336  25.937  1.00  0.00     0.251 C 
ATOM     28  H   UNL A   1      36.803  20.350  25.377  1.00  0.00     0.163 HD
ATOM     29  O   UNL A   1      39.187  20.369  25.749  1.00  0.00    -0.269 OA
BRANCH  27  30
ATOM     30  C   UNL A   1      39.013  22.620  26.399  1.00  0.00     0.039 A 
ATOM     31  C   UNL A   1      40.122  22.589  27.248  1.00  0.00     0.014 A 
ATOM     32  C   UNL A   1      38.475  23.838  25.974  1.00  0.00     0.014 A 
ATOM     33  C   UNL A   1      40.730  23.783  27.629  1.00  0.00     0.010 A 
ATOM     34  C   UNL A   1      39.122  25.026  26.305  1.00  0.00     0.010 A 
ATOM     35  C   UNL A   1      40.253  25.009  27.137  1.00  0.00    -0.014 A 
BRANCH  35  36
ATOM     36  C   UNL A   1      40.938  26.279  27.478  1.00  0.00     0.031 A 
ATOM     37  C   UNL A   1      42.362  26.507  27.055  1.00  0.00     0.074 A 
ATOM     38  C   UNL A   1      40.297  27.195  28.230  1.00  0.00     0.049 A 
ATOM     39  N   UNL A   1      43.130  27.540  27.278  1.00  0.00    -0.248 NA
ATOM     40  C   UNL A   1      43.016  25.422  26.304  1.00  0.00     0.031 C 
ATOM     41  C   UNL A   1      38.942  27.047  28.769  1.00  0.00     0.029 A 
ATOM     42  N   UNL A   1      40.705  28.421  28.692  1.00  0.00    -0.354 N 
ATOM     43  C   UNL A   1      44.366  27.218  26.730  1.00  0.00     0.074 A 
ATOM     44  C   UNL A   1      44.254  25.881  26.190  1.00  0.00     0.031 C 
ATOM     45  C   UNL A   1      38.632  28.140  29.485  1.00  0.00     0.029 A 
ATOM     46  C   UNL A   1      39.769  29.053  29.479  1.00  0.00     0.049 A 
ATOM     47  H   UNL A   1      41.583  28.810  28.481  1.00  0.00     0.167 HD
ATOM     48  C   UNL A   1      45.483  27.979  26.657  1.00  0.00     0.034 A 
ATOM     49  C   UNL A   1      39.826  30.235  30.123  1.00  0.00     0.034 A 
ATOM     50  C   UNL A   1      45.571  29.325  27.156  1.00  0.00     0.049 A 
ATOM     51  C   UNL A   1      41.062  31.082  29.982  1.00  0.00     0.074 A 
ATOM     52  C   UNL A   1      46.623  30.216  27.045  1.00  0.00     0.029 A 
ATOM     53  N   UNL A   1      44.572  29.971  27.868  1.00  0.00    -0.354 N 
ATOM     54  N   UNL A   1      42.159  30.832  29.309  1.00  0.00    -0.248 NA
ATOM     55  C   UNL A   1      41.053  32.389  30.653  1.00  0.00     0.031 C 
ATOM     56  C   UNL A   1      46.269  31.393  27.711  1.00  0.00     0.029 A 
ATOM     57  C   UNL A   1      44.985  31.245  28.214  1.00  0.00     0.049 A 
ATOM     58  H   UNL A   1      43.698  29.579  28.094  1.00  0.00     0.167 HD
ATOM     59  C   UNL A   1      42.957  31.962  29.447  1.00  0.00     0.074 A 
ATOM     60  C   UNL A   1      42.206  32.906  30.249  1.00  0.00     0.031 C 
ATOM     61  C   UNL A   1      44.203  32.192  28.966  1.00  0.00     0.034 A 
BRANCH  48  62
ATOM     62  C   UNL A   1      46.686  27.393  25.966  1.00  0.00     0.023 A 
ATOM     63  C   UNL A   1      46.803  27.495  24.564  1.00  0.00     0.012 A 
ATOM     64  C   UNL A   1      47.727  26.794  26.704  1.00  0.00     0.148 A 
ATOM     65  C   UNL A   1      47.917  26.979  23.904  1.00  0.00     0.002 A 
ATOM     66  C   UNL A   1      48.855  26.323  26.043  1.00  0.00     0.091 A 
ATOM     67  F   UNL A   1      47.589  26.687  28.033  1.00  0.00    -0.205 F 
ATOM     68  C   UNL A   1      48.947  26.404  24.643  1.00  0.00     0.022 A 
BRANCH  66  69
ATOM     69  S   UNL A   1      50.271  25.638  26.910  1.00  0.00     0.127 S 
ATOM     70  O   UNL A   1      51.190  25.367  25.805  1.00  0.00    -0.237 OA
ATOM     71  O   UNL A   1      50.669  26.750  27.775  1.00  0.00    -0.237 OA
ATOM     72  O   UNL A   1      49.779  24.464  27.618  1.00  0.00    -0.744 OA
ENDBRANCH  66  69
ENDBRANCH  48  62
BRANCH  49  73
ATOM     73  C   UNL A   1      38.650  30.716  30.903  1.00  0.00     0.023 A 
ATOM     74  C   UNL A   1      38.625  30.536  32.301  1.00  0.00     0.012 A 
ATOM     75  C   UNL A   1      37.575  31.375  30.278  1.00  0.00     0.148 A 
ATOM     76  C   UNL A   1      37.537  30.971  33.055  1.00  0.00     0.002 A 
ATOM     77  C   UNL A   1      36.518  31.857  31.043  1.00  0.00     0.091 A 
ATOM     78  F   UNL A   1      37.610  31.527  28.947  1.00  0.00    -0.205 F 
ATOM     79  C   UNL A   1      36.488  31.640  32.429  1.00  0.00     0.022 A 
BRANCH  77  80
ATOM     80  S   UNL A   1      35.194  32.845  30.339  1.00  0.00     0.127 S 
ATOM     81  O   UNL A   1      35.919  34.019  29.860  1.00  0.00    -0.237 OA
ATOM     82  O   UNL A   1      34.684  31.963  29.288  1.00  0.00    -0.237 OA
ATOM     83  O   UNL A   1      34.257  33.078  31.429  1.00  0.00    -0.744 OA
ENDBRANCH  77  80
ENDBRANCH  49  73
BRANCH  61  84
ATOM     84  C   UNL A   1      44.830  33.529  29.262  1.00  0.00     0.023 A 
ATOM     85  C   UNL A   1      45.602  33.699  30.428  1.00  0.00     0.012 A 
ATOM     86  C   UNL A   1      44.721  34.591  28.343  1.00  0.00     0.148 A 
ATOM     87  C   UNL A   1      46.230  34.916  30.691  1.00  0.00     0.002 A 
ATOM     88  C   UNL A   1      45.390  35.785  28.587  1.00  0.00     0.091 A 
ATOM     89  F   UNL A   1      43.966  34.416  27.248  1.00  0.00    -0.205 F 
ATOM     90  C   UNL A   1      46.134  35.952  29.766  1.00  0.00     0.022 A 
BRANCH  88  91
ATOM     91  S   UNL A   1      45.405  37.137  27.405  1.00  0.00     0.127 S 
ATOM     92  O   UNL A   1      46.168  36.558  26.300  1.00  0.00    -0.237 OA
ATOM     93  O   UNL A   1      43.980  37.325  27.129  1.00  0.00    -0.237 OA
ATOM     94  O   UNL A   1      46.041  38.257  28.085  1.00  0.00    -0.744 OA
ENDBRANCH  88  91
ENDBRANCH  61  84
ENDBRANCH  35  36
ENDBRANCH  27  30
ENDBRANCH  25  26
ENDBRANCH   1  25
TORSDOF 17
ENDMDL
