MODEL 1
REMARK VINA RESULT:     -10.8      0.000      0.000
REMARK SMILES CC[C@@H](C)[C@H](NC(=O)[C@H](C)N1C(=O)N2CCC3=c4cc(OC)ccc4=N[C@H]3[C@@]2(C)C1=O)C(=O)NCCCCNC(=O)c1ccc(-c2c3nc(c(-c4cccc(S(=O)(=O)[O-])c4F)c4ccc([nH]4)c(-c4cccc(S(=O)(=O)[O-])c4F)c4nc(c(-c5cccc(S(=O)(=O)[O-])c5F)c5ccc2[nH]5)C=C4)C=C3)cc1
REMARK SMILES IDX 36 1 35 2 34 3 32 4 33 5 5 7 3 8 4 9 2 10 1 11 6 12 7 13
REMARK SMILES IDX 8 15 9 16 10 17 11 18 12 19 30 20 14 21 13 22 28 23 31 24
REMARK SMILES IDX 15 25 27 26 29 27 16 28 17 29 26 30 18 31 25 32 19 33 24 34
REMARK SMILES IDX 20 35 23 36 21 37 22 38 37 39 38 40 39 41 40 42 41 44 42 45
REMARK SMILES IDX 43 46 104 47 44 48 103 49 45 50 46 51 47 52 97 53 48 54
REMARK SMILES IDX 102 55 96 56 98 57 49 58 101 59 95 60 94 61 50 63 82 64
REMARK SMILES IDX 62 65 81 66 63 67 66 68 80 69 99 70 64 71 65 72 79 74 100 75
REMARK SMILES IDX 67 76 51 77 52 78 60 79 53 80 55 81 61 82 54 83 56 84 57 85
REMARK SMILES IDX 58 86 59 87 83 88 84 89 92 90 85 91 87 92 93 93 86 94 88 95
REMARK SMILES IDX 89 96 90 97 91 98 68 99 69 100 77 101 70 102 72 103 78 104
REMARK SMILES IDX 71 105 73 106 74 107 75 108 76 109
REMARK H PARENT 34 6 6 14 39 43 98 62 66 73
REMARK Flexibility Score: inf
ROOT
ATOM      1  C   UNL A   1      38.773  22.496  26.232  1.00  0.00     0.023 C 
ENDROOT
BRANCH   1   2
ATOM      2  C   UNL A   1      37.603  23.348  25.715  1.00  0.00     0.116 C 
BRANCH   2   3
ATOM      3  N   UNL A   1      36.396  23.342  26.507  1.00  0.00    -0.354 N 
ATOM      4  C   UNL A   1      35.252  22.621  26.514  1.00  0.00     0.242 C 
ATOM      5  O   UNL A   1      34.640  22.503  27.584  1.00  0.00    -0.273 OA
ATOM      6  H   UNL A   1      36.408  24.029  27.211  1.00  0.00     0.163 HD
BRANCH   4   7
ATOM      7  C   UNL A   1      34.694  21.910  25.296  1.00  0.00     0.174 C 
BRANCH   7   8
ATOM      8  C   UNL A   1      34.607  20.391  25.580  1.00  0.00     0.018 C 
ATOM      9  C   UNL A   1      35.717  19.618  24.841  1.00  0.00     0.010 C 
BRANCH   8  10
ATOM     10  C   UNL A   1      33.193  19.793  25.380  1.00  0.00     0.002 C 
ATOM     11  C   UNL A   1      32.960  18.978  24.123  1.00  0.00     0.004 C 
ENDBRANCH   8  10
ENDBRANCH   7   8
BRANCH   7  12
ATOM     12  N   UNL A   1      35.402  22.245  24.081  1.00  0.00    -0.342 N 
ATOM     13  C   UNL A   1      35.065  23.096  23.090  1.00  0.00     0.243 C 
ATOM     14  H   UNL A   1      36.262  21.781  23.957  1.00  0.00     0.164 HD
ATOM     15  O   UNL A   1      35.925  23.188  22.201  1.00  0.00    -0.273 OA
BRANCH  13  16
ATOM     16  C   UNL A   1      33.632  23.624  22.905  1.00  0.00     0.181 C 
ATOM     17  C   UNL A   1      32.807  22.381  22.327  1.00  0.00     0.042 C 
BRANCH  16  18
ATOM     18  N   UNL A   1      33.087  25.039  22.732  1.00  0.00    -0.250 N 
ATOM     19  C   UNL A   1      31.905  25.799  22.294  1.00  0.00     0.328 C 
ATOM     20  C   UNL A   1      33.839  25.899  23.443  1.00  0.00     0.259 C 
ATOM     21  N   UNL A   1      32.211  27.276  22.511  1.00  0.00    -0.307 N 
ATOM     22  O   UNL A   1      30.774  25.412  22.035  1.00  0.00    -0.248 OA
ATOM     23  C   UNL A   1      33.086  27.119  23.566  1.00  0.00     0.147 C 
ATOM     24  O   UNL A   1      34.925  25.747  24.004  1.00  0.00    -0.271 OA
ATOM     25  C   UNL A   1      31.376  28.650  22.961  1.00  0.00     0.127 C 
ATOM     26  C   UNL A   1      31.939  26.808  24.626  1.00  0.00     0.168 C 
ATOM     27  C   UNL A   1      34.153  28.212  23.336  1.00  0.00     0.048 C 
ATOM     28  C   UNL A   1      31.630  29.001  24.799  1.00  0.00     0.055 C 
ATOM     29  C   UNL A   1      31.885  27.620  25.802  1.00  0.00    -0.032 C 
ATOM     30  N   UNL A   1      30.764  25.831  24.578  1.00  0.00    -0.274 NA
ATOM     31  C   UNL A   1      31.273  26.685  26.638  1.00  0.00     0.005 A 
ATOM     32  C   UNL A   1      30.206  26.147  25.733  1.00  0.00     0.066 A 
ATOM     33  C   UNL A   1      31.959  25.231  26.915  1.00  0.00     0.056 A 
ATOM     34  C   UNL A   1      29.148  25.328  26.324  1.00  0.00     0.032 A 
ATOM     35  C   UNL A   1      31.198  24.092  26.657  1.00  0.00     0.119 A 
ATOM     36  C   UNL A   1      29.733  24.188  26.727  1.00  0.00     0.048 A 
BRANCH  35  37
ATOM     37  O   UNL A   1      31.640  23.244  25.648  1.00  0.00    -0.497 OA
ATOM     38  C   UNL A   1      30.891  22.168  25.082  1.00  0.00     0.278 C 
ENDBRANCH  35  37
ENDBRANCH  16  18
ENDBRANCH  13  16
ENDBRANCH   7  12
ENDBRANCH   4   7
ENDBRANCH   2   3
ENDBRANCH   1   2
BRANCH   1  39
ATOM     39  C   UNL A   1      38.633  20.975  26.241  1.00  0.00     0.023 C 
BRANCH  39  40
ATOM     40  C   UNL A   1      39.527  20.232  25.258  1.00  0.00     0.116 C 
BRANCH  40  41
ATOM     41  N   UNL A   1      40.408  19.296  25.941  1.00  0.00    -0.352 N 
ATOM     42  C   UNL A   1      41.675  19.488  26.439  1.00  0.00     0.251 C 
ATOM     43  H   UNL A   1      40.043  18.390  26.064  1.00  0.00     0.163 HD
ATOM     44  O   UNL A   1      42.387  18.513  26.666  1.00  0.00    -0.269 OA
BRANCH  42  45
ATOM     45  C   UNL A   1      42.180  20.857  26.691  1.00  0.00     0.039 A 
ATOM     46  C   UNL A   1      42.341  21.325  27.995  1.00  0.00     0.014 A 
ATOM     47  C   UNL A   1      42.547  21.672  25.616  1.00  0.00     0.014 A 
ATOM     48  C   UNL A   1      42.683  22.651  28.222  1.00  0.00     0.010 A 
ATOM     49  C   UNL A   1      43.020  22.969  25.852  1.00  0.00     0.010 A 
ATOM     50  C   UNL A   1      43.059  23.484  27.158  1.00  0.00    -0.014 A 
BRANCH  50  51
ATOM     51  C   UNL A   1      43.538  24.861  27.452  1.00  0.00     0.031 A 
ATOM     52  C   UNL A   1      44.972  25.254  27.220  1.00  0.00     0.074 A 
ATOM     53  C   UNL A   1      42.654  25.776  27.900  1.00  0.00     0.049 A 
ATOM     54  N   UNL A   1      45.545  26.413  27.422  1.00  0.00    -0.248 NA
ATOM     55  C   UNL A   1      45.885  24.224  26.697  1.00  0.00     0.031 C 
ATOM     56  C   UNL A   1      41.239  25.513  28.181  1.00  0.00     0.029 A 
ATOM     57  N   UNL A   1      42.799  27.111  28.181  1.00  0.00    -0.354 N 
ATOM     58  C   UNL A   1      46.886  26.240  27.105  1.00  0.00     0.074 A 
ATOM     59  C   UNL A   1      47.047  24.865  26.689  1.00  0.00     0.031 C 
ATOM     60  C   UNL A   1      40.636  26.656  28.535  1.00  0.00     0.029 A 
ATOM     61  C   UNL A   1      41.632  27.717  28.588  1.00  0.00     0.049 A 
ATOM     62  H   UNL A   1      43.655  27.589  28.101  1.00  0.00     0.167 HD
ATOM     63  C   UNL A   1      47.887  27.150  27.145  1.00  0.00     0.034 A 
ATOM     64  C   UNL A   1      41.385  28.980  28.983  1.00  0.00     0.034 A 
ATOM     65  C   UNL A   1      47.714  28.529  27.513  1.00  0.00     0.049 A 
ATOM     66  C   UNL A   1      42.512  29.967  29.012  1.00  0.00     0.074 A 
ATOM     67  C   UNL A   1      48.665  29.533  27.538  1.00  0.00     0.029 A 
ATOM     68  N   UNL A   1      46.517  29.098  27.918  1.00  0.00    -0.354 N 
ATOM     69  N   UNL A   1      43.760  29.793  28.655  1.00  0.00    -0.248 NA
ATOM     70  C   UNL A   1      42.201  31.322  29.488  1.00  0.00     0.031 C 
ATOM     71  C   UNL A   1      48.047  30.708  27.975  1.00  0.00     0.029 A 
ATOM     72  C   UNL A   1      46.706  30.440  28.198  1.00  0.00     0.049 A 
ATOM     73  H   UNL A   1      45.660  28.619  27.995  1.00  0.00     0.167 HD
ATOM     74  C   UNL A   1      44.383  31.018  28.847  1.00  0.00     0.074 A 
ATOM     75  C   UNL A   1      43.371  31.931  29.339  1.00  0.00     0.031 C 
ATOM     76  C   UNL A   1      45.681  31.347  28.645  1.00  0.00     0.034 A 
BRANCH  63  77
ATOM     77  C   UNL A   1      49.269  26.704  26.750  1.00  0.00     0.023 A 
ATOM     78  C   UNL A   1      49.946  25.757  27.541  1.00  0.00     0.012 A 
ATOM     79  C   UNL A   1      49.846  27.140  25.540  1.00  0.00     0.148 A 
ATOM     80  C   UNL A   1      51.184  25.255  27.140  1.00  0.00     0.002 A 
ATOM     81  C   UNL A   1      51.065  26.613  25.131  1.00  0.00     0.091 A 
ATOM     82  F   UNL A   1      49.185  28.050  24.810  1.00  0.00    -0.205 F 
ATOM     83  C   UNL A   1      51.737  25.675  25.931  1.00  0.00     0.022 A 
BRANCH  81  84
ATOM     84  S   UNL A   1      51.840  27.046  23.569  1.00  0.00     0.127 S 
ATOM     85  O   UNL A   1      53.021  26.182  23.579  1.00  0.00    -0.237 OA
ATOM     86  O   UNL A   1      50.812  26.663  22.602  1.00  0.00    -0.237 OA
ATOM     87  O   UNL A   1      52.120  28.473  23.638  1.00  0.00    -0.744 OA
ENDBRANCH  81  84
ENDBRANCH  63  77
BRANCH  64  88
ATOM     88  C   UNL A   1      39.997  29.366  29.351  1.00  0.00     0.023 A 
ATOM     89  C   UNL A   1      39.062  29.638  28.334  1.00  0.00     0.012 A 
ATOM     90  C   UNL A   1      39.576  29.362  30.696  1.00  0.00     0.148 A 
ATOM     91  C   UNL A   1      37.728  29.900  28.653  1.00  0.00     0.002 A 
ATOM     92  C   UNL A   1      38.239  29.581  31.001  1.00  0.00     0.091 A 
ATOM     93  F   UNL A   1      40.488  29.095  31.641  1.00  0.00    -0.205 F 
ATOM     94  C   UNL A   1      37.316  29.859  29.982  1.00  0.00     0.022 A 
BRANCH  92  95
ATOM     95  S   UNL A   1      37.592  29.446  32.671  1.00  0.00     0.127 S 
ATOM     96  O   UNL A   1      38.490  30.331  33.410  1.00  0.00    -0.237 OA
ATOM     97  O   UNL A   1      36.229  29.950  32.503  1.00  0.00    -0.237 OA
ATOM     98  O   UNL A   1      37.680  28.035  33.019  1.00  0.00    -0.744 OA
ENDBRANCH  92  95
ENDBRANCH  64  88
BRANCH  76  99
ATOM     99  C   UNL A   1      46.099  32.762  28.925  1.00  0.00     0.023 A 
ATOM    100  C   UNL A   1      46.593  33.104  30.198  1.00  0.00     0.012 A 
ATOM    101  C   UNL A   1      46.121  33.714  27.887  1.00  0.00     0.148 A 
ATOM    102  C   UNL A   1      47.100  34.379  30.437  1.00  0.00     0.002 A 
ATOM    103  C   UNL A   1      46.660  34.972  28.123  1.00  0.00     0.091 A 
ATOM    104  F   UNL A   1      45.636  33.362  26.689  1.00  0.00    -0.205 F 
ATOM    105  C   UNL A   1      47.146  35.308  29.398  1.00  0.00     0.022 A 
BRANCH 103 106
ATOM    106  S   UNL A   1      46.827  36.209  26.832  1.00  0.00     0.127 S 
ATOM    107  O   UNL A   1      45.458  36.295  26.325  1.00  0.00    -0.237 OA
ATOM    108  O   UNL A   1      47.275  37.380  27.584  1.00  0.00    -0.237 OA
ATOM    109  O   UNL A   1      47.803  35.681  25.888  1.00  0.00    -0.744 OA
ENDBRANCH 103 106
ENDBRANCH  76  99
ENDBRANCH  50  51
ENDBRANCH  42  45
ENDBRANCH  40  41
ENDBRANCH  39  40
ENDBRANCH   1  39
TORSDOF 20
ENDMDL
MODEL 2
REMARK VINA RESULT:     -10.4      1.937      7.281
REMARK SMILES CC[C@@H](C)[C@H](NC(=O)[C@H](C)N1C(=O)N2CCC3=c4cc(OC)ccc4=N[C@H]3[C@@]2(C)C1=O)C(=O)NCCCCNC(=O)c1ccc(-c2c3nc(c(-c4cccc(S(=O)(=O)[O-])c4F)c4ccc([nH]4)c(-c4cccc(S(=O)(=O)[O-])c4F)c4nc(c(-c5cccc(S(=O)(=O)[O-])c5F)c5ccc2[nH]5)C=C4)C=C3)cc1
REMARK SMILES IDX 36 1 35 2 34 3 32 4 33 5 5 7 3 8 4 9 2 10 1 11 6 12 7 13
REMARK SMILES IDX 8 15 9 16 10 17 11 18 12 19 30 20 14 21 13 22 28 23 31 24
REMARK SMILES IDX 15 25 27 26 29 27 16 28 17 29 26 30 18 31 25 32 19 33 24 34
REMARK SMILES IDX 20 35 23 36 21 37 22 38 37 39 38 40 39 41 40 42 41 44 42 45
REMARK SMILES IDX 43 46 104 47 44 48 103 49 45 50 46 51 47 52 97 53 48 54
REMARK SMILES IDX 102 55 96 56 98 57 49 58 101 59 95 60 94 61 50 63 82 64
REMARK SMILES IDX 62 65 81 66 63 67 66 68 80 69 99 70 64 71 65 72 79 74 100 75
REMARK SMILES IDX 67 76 51 77 52 78 60 79 53 80 55 81 61 82 54 83 56 84 57 85
REMARK SMILES IDX 58 86 59 87 83 88 84 89 92 90 85 91 87 92 93 93 86 94 88 95
REMARK SMILES IDX 89 96 90 97 91 98 68 99 69 100 77 101 70 102 72 103 78 104
REMARK SMILES IDX 71 105 73 106 74 107 75 108 76 109
REMARK H PARENT 34 6 6 14 39 43 98 62 66 73
REMARK Flexibility Score: inf
ROOT
ATOM      1  C   UNL A   1      38.831  22.362  26.345  1.00  0.00     0.023 C 
ENDROOT
BRANCH   1   2
ATOM      2  C   UNL A   1      37.696  23.164  25.689  1.00  0.00     0.116 C 
BRANCH   2   3
ATOM      3  N   UNL A   1      36.480  23.311  26.452  1.00  0.00    -0.354 N 
ATOM      4  C   UNL A   1      35.276  22.697  26.474  1.00  0.00     0.242 C 
ATOM      5  O   UNL A   1      34.637  22.696  27.536  1.00  0.00    -0.273 OA
ATOM      6  H   UNL A   1      36.543  24.034  27.117  1.00  0.00     0.163 HD
BRANCH   4   7
ATOM      7  C   UNL A   1      34.676  21.970  25.286  1.00  0.00     0.174 C 
BRANCH   7   8
ATOM      8  C   UNL A   1      34.568  20.459  25.606  1.00  0.00     0.018 C 
ATOM      9  C   UNL A   1      35.705  19.662  24.937  1.00  0.00     0.010 C 
BRANCH   8  10
ATOM     10  C   UNL A   1      33.161  19.863  25.359  1.00  0.00     0.002 C 
ATOM     11  C   UNL A   1      33.017  18.890  24.206  1.00  0.00     0.004 C 
ENDBRANCH   8  10
ENDBRANCH   7   8
BRANCH   7  12
ATOM     12  N   UNL A   1      35.362  22.265  24.047  1.00  0.00    -0.342 N 
ATOM     13  C   UNL A   1      35.008  23.085  23.037  1.00  0.00     0.243 C 
ATOM     14  H   UNL A   1      36.219  21.796  23.922  1.00  0.00     0.164 HD
ATOM     15  O   UNL A   1      35.850  23.147  22.129  1.00  0.00    -0.273 OA
BRANCH  13  16
ATOM     16  C   UNL A   1      33.572  23.610  22.862  1.00  0.00     0.181 C 
ATOM     17  C   UNL A   1      32.739  22.357  22.319  1.00  0.00     0.042 C 
BRANCH  16  18
ATOM     18  N   UNL A   1      33.025  25.021  22.671  1.00  0.00    -0.250 N 
ATOM     19  C   UNL A   1      31.838  25.774  22.234  1.00  0.00     0.328 C 
ATOM     20  C   UNL A   1      33.786  25.894  23.356  1.00  0.00     0.259 C 
ATOM     21  N   UNL A   1      32.147  27.254  22.420  1.00  0.00    -0.307 N 
ATOM     22  O   UNL A   1      30.703  25.383  21.997  1.00  0.00    -0.248 OA
ATOM     23  C   UNL A   1      33.035  27.117  23.467  1.00  0.00     0.147 C 
ATOM     24  O   UNL A   1      34.879  25.752  23.906  1.00  0.00    -0.271 OA
ATOM     25  C   UNL A   1      31.317  28.637  22.856  1.00  0.00     0.127 C 
ATOM     26  C   UNL A   1      31.901  26.825  24.547  1.00  0.00     0.168 C 
ATOM     27  C   UNL A   1      34.099  28.205  23.203  1.00  0.00     0.048 C 
ATOM     28  C   UNL A   1      31.594  29.021  24.685  1.00  0.00     0.055 C 
ATOM     29  C   UNL A   1      31.862  27.658  25.708  1.00  0.00    -0.032 C 
ATOM     30  N   UNL A   1      30.726  25.848  24.532  1.00  0.00    -0.274 NA
ATOM     31  C   UNL A   1      31.261  26.738  26.569  1.00  0.00     0.005 A 
ATOM     32  C   UNL A   1      30.183  26.185  25.687  1.00  0.00     0.066 A 
ATOM     33  C   UNL A   1      31.951  25.289  26.864  1.00  0.00     0.056 A 
ATOM     34  C   UNL A   1      29.132  25.376  26.306  1.00  0.00     0.032 A 
ATOM     35  C   UNL A   1      31.187  24.146  26.635  1.00  0.00     0.119 A 
ATOM     36  C   UNL A   1      29.722  24.244  26.723  1.00  0.00     0.048 A 
BRANCH  35  37
ATOM     37  O   UNL A   1      31.616  23.280  25.636  1.00  0.00    -0.497 OA
ATOM     38  C   UNL A   1      30.857  22.197  25.096  1.00  0.00     0.278 C 
ENDBRANCH  35  37
ENDBRANCH  16  18
ENDBRANCH  13  16
ENDBRANCH   7  12
ENDBRANCH   4   7
ENDBRANCH   2   3
ENDBRANCH   1   2
BRANCH   1  39
ATOM     39  C   UNL A   1      38.748  20.837  26.359  1.00  0.00     0.023 C 
BRANCH  39  40
ATOM     40  C   UNL A   1      39.579  20.128  25.299  1.00  0.00     0.116 C 
BRANCH  40  41
ATOM     41  N   UNL A   1      40.606  19.289  25.898  1.00  0.00    -0.352 N 
ATOM     42  C   UNL A   1      41.837  19.635  26.402  1.00  0.00     0.251 C 
ATOM     43  H   UNL A   1      40.387  18.331  25.949  1.00  0.00     0.163 HD
ATOM     44  O   UNL A   1      42.694  18.768  26.545  1.00  0.00    -0.269 OA
BRANCH  42  45
ATOM     45  C   UNL A   1      42.129  21.042  26.762  1.00  0.00     0.039 A 
ATOM     46  C   UNL A   1      42.363  21.993  25.769  1.00  0.00     0.014 A 
ATOM     47  C   UNL A   1      42.121  21.434  28.103  1.00  0.00     0.014 A 
ATOM     48  C   UNL A   1      42.769  23.275  26.115  1.00  0.00     0.010 A 
ATOM     49  C   UNL A   1      42.402  22.762  28.445  1.00  0.00     0.010 A 
ATOM     50  C   UNL A   1      42.764  23.689  27.455  1.00  0.00    -0.014 A 
BRANCH  50  51
ATOM     51  C   UNL A   1      43.086  25.105  27.775  1.00  0.00     0.031 A 
ATOM     52  C   UNL A   1      42.035  26.044  28.304  1.00  0.00     0.074 A 
ATOM     53  C   UNL A   1      44.356  25.535  27.620  1.00  0.00     0.049 A 
ATOM     54  N   UNL A   1      42.157  27.304  28.634  1.00  0.00    -0.248 NA
ATOM     55  C   UNL A   1      40.675  25.511  28.485  1.00  0.00     0.031 C 
ATOM     56  C   UNL A   1      45.462  24.725  27.100  1.00  0.00     0.029 A 
ATOM     57  N   UNL A   1      44.941  26.745  27.898  1.00  0.00    -0.354 N 
ATOM     58  C   UNL A   1      40.888  27.727  29.009  1.00  0.00     0.074 A 
ATOM     59  C   UNL A   1      40.006  26.590  28.874  1.00  0.00     0.031 C 
ATOM     60  C   UNL A   1      46.596  25.436  27.152  1.00  0.00     0.029 A 
ATOM     61  C   UNL A   1      46.290  26.778  27.629  1.00  0.00     0.049 A 
ATOM     62  H   UNL A   1      44.443  27.515  28.255  1.00  0.00     0.167 HD
ATOM     63  C   UNL A   1      40.499  28.950  29.440  1.00  0.00     0.034 A 
ATOM     64  C   UNL A   1      47.185  27.778  27.731  1.00  0.00     0.034 A 
ATOM     65  C   UNL A   1      41.388  30.066  29.620  1.00  0.00     0.049 A 
ATOM     66  C   UNL A   1      46.727  29.119  28.216  1.00  0.00     0.074 A 
ATOM     67  C   UNL A   1      41.088  31.330  30.095  1.00  0.00     0.029 A 
ATOM     68  N   UNL A   1      42.744  30.055  29.334  1.00  0.00    -0.354 N 
ATOM     69  N   UNL A   1      45.533  29.478  28.617  1.00  0.00    -0.248 NA
ATOM     70  C   UNL A   1      47.733  30.188  28.271  1.00  0.00     0.031 C 
ATOM     71  C   UNL A   1      42.261  32.090  30.081  1.00  0.00     0.029 A 
ATOM     72  C   UNL A   1      43.294  31.291  29.621  1.00  0.00     0.049 A 
ATOM     73  H   UNL A   1      43.241  29.282  28.980  1.00  0.00     0.167 HD
ATOM     74  C   UNL A   1      45.644  30.811  28.987  1.00  0.00     0.074 A 
ATOM     75  C   UNL A   1      47.026  31.192  28.777  1.00  0.00     0.031 C 
ATOM     76  C   UNL A   1      44.680  31.644  29.448  1.00  0.00     0.034 A 
BRANCH  63  77
ATOM     77  C   UNL A   1      39.049  29.154  29.786  1.00  0.00     0.023 A 
ATOM     78  C   UNL A   1      38.600  28.871  31.090  1.00  0.00     0.012 A 
ATOM     79  C   UNL A   1      38.162  29.727  28.854  1.00  0.00     0.148 A 
ATOM     80  C   UNL A   1      37.284  29.147  31.460  1.00  0.00     0.002 A 
ATOM     81  C   UNL A   1      36.861  30.029  29.238  1.00  0.00     0.091 A 
ATOM     82  F   UNL A   1      38.612  29.978  27.616  1.00  0.00    -0.205 F 
ATOM     83  C   UNL A   1      36.419  29.735  30.539  1.00  0.00     0.022 A 
BRANCH  81  84
ATOM     84  S   UNL A   1      35.682  30.834  28.147  1.00  0.00     0.127 S 
ATOM     85  O   UNL A   1      34.578  31.114  29.065  1.00  0.00    -0.237 OA
ATOM     86  O   UNL A   1      36.427  32.014  27.710  1.00  0.00    -0.237 OA
ATOM     87  O   UNL A   1      35.381  29.872  27.096  1.00  0.00    -0.744 OA
ENDBRANCH  81  84
ENDBRANCH  63  77
BRANCH  64  88
ATOM     88  C   UNL A   1      48.608  27.514  27.385  1.00  0.00     0.023 A 
ATOM     89  C   UNL A   1      49.453  26.922  28.343  1.00  0.00     0.012 A 
ATOM     90  C   UNL A   1      49.094  27.751  26.085  1.00  0.00     0.148 A 
ATOM     91  C   UNL A   1      50.762  26.569  28.008  1.00  0.00     0.002 A 
ATOM     92  C   UNL A   1      50.383  27.360  25.748  1.00  0.00     0.091 A 
ATOM     93  F   UNL A   1      48.265  28.313  25.194  1.00  0.00    -0.205 F 
ATOM     94  C   UNL A   1      51.221  26.777  26.710  1.00  0.00     0.022 A 
BRANCH  92  95
ATOM     95  S   UNL A   1      51.030  27.489  24.077  1.00  0.00     0.127 S 
ATOM     96  O   UNL A   1      51.152  28.936  23.917  1.00  0.00    -0.237 OA
ATOM     97  O   UNL A   1      52.299  26.772  24.193  1.00  0.00    -0.237 OA
ATOM     98  O   UNL A   1      50.044  26.848  23.218  1.00  0.00    -0.744 OA
ENDBRANCH  92  95
ENDBRANCH  64  88
BRANCH  76  99
ATOM     99  C   UNL A   1      45.072  33.052  29.789  1.00  0.00     0.023 A 
ATOM    100  C   UNL A   1      44.943  34.066  28.821  1.00  0.00     0.012 A 
ATOM    101  C   UNL A   1      45.444  33.386  31.106  1.00  0.00     0.148 A 
ATOM    102  C   UNL A   1      45.184  35.396  29.157  1.00  0.00     0.002 A 
ATOM    103  C   UNL A   1      45.649  34.718  31.443  1.00  0.00     0.091 A 
ATOM    104  F   UNL A   1      45.567  32.399  32.004  1.00  0.00    -0.205 F 
ATOM    105  C   UNL A   1      45.524  35.724  30.470  1.00  0.00     0.022 A 
BRANCH 103 106
ATOM    106  S   UNL A   1      46.018  35.244  33.120  1.00  0.00     0.127 S 
ATOM    107  O   UNL A   1      47.305  34.591  33.359  1.00  0.00    -0.237 OA
ATOM    108  O   UNL A   1      46.088  36.698  32.978  1.00  0.00    -0.237 OA
ATOM    109  O   UNL A   1      44.919  34.765  33.947  1.00  0.00    -0.744 OA
ENDBRANCH 103 106
ENDBRANCH  76  99
ENDBRANCH  50  51
ENDBRANCH  42  45
ENDBRANCH  40  41
ENDBRANCH  39  40
ENDBRANCH   1  39
TORSDOF 20
ENDMDL
MODEL 3
REMARK VINA RESULT:      -9.9      9.833     17.613
REMARK SMILES CC[C@@H](C)[C@H](NC(=O)[C@H](C)N1C(=O)N2CCC3=c4cc(OC)ccc4=N[C@H]3[C@@]2(C)C1=O)C(=O)NCCCCNC(=O)c1ccc(-c2c3nc(c(-c4cccc(S(=O)(=O)[O-])c4F)c4ccc([nH]4)c(-c4cccc(S(=O)(=O)[O-])c4F)c4nc(c(-c5cccc(S(=O)(=O)[O-])c5F)c5ccc2[nH]5)C=C4)C=C3)cc1
REMARK SMILES IDX 36 1 35 2 34 3 32 4 33 5 5 7 3 8 4 9 2 10 1 11 6 12 7 13
REMARK SMILES IDX 8 15 9 16 10 17 11 18 12 19 30 20 14 21 13 22 28 23 31 24
REMARK SMILES IDX 15 25 27 26 29 27 16 28 17 29 26 30 18 31 25 32 19 33 24 34
REMARK SMILES IDX 20 35 23 36 21 37 22 38 37 39 38 40 39 41 40 42 41 44 42 45
REMARK SMILES IDX 43 46 104 47 44 48 103 49 45 50 46 51 47 52 97 53 48 54
REMARK SMILES IDX 102 55 96 56 98 57 49 58 101 59 95 60 94 61 50 63 82 64
REMARK SMILES IDX 62 65 81 66 63 67 66 68 80 69 99 70 64 71 65 72 79 74 100 75
REMARK SMILES IDX 67 76 51 77 52 78 60 79 53 80 55 81 61 82 54 83 56 84 57 85
REMARK SMILES IDX 58 86 59 87 83 88 84 89 92 90 85 91 87 92 93 93 86 94 88 95
REMARK SMILES IDX 89 96 90 97 91 98 68 99 69 100 77 101 70 102 72 103 78 104
REMARK SMILES IDX 71 105 73 106 74 107 75 108 76 109
REMARK H PARENT 34 6 6 14 39 43 98 62 66 73
REMARK Flexibility Score: inf
ROOT
ATOM      1  C   UNL A   1      49.577  37.668  26.772  1.00  0.00     0.023 C 
ENDROOT
BRANCH   1   2
ATOM      2  C   UNL A   1      48.977  39.036  27.131  1.00  0.00     0.116 C 
BRANCH   2   3
ATOM      3  N   UNL A   1      48.467  39.188  28.473  1.00  0.00    -0.354 N 
ATOM      4  C   UNL A   1      47.649  40.065  29.099  1.00  0.00     0.242 C 
ATOM      5  O   UNL A   1      47.009  39.669  30.084  1.00  0.00    -0.273 OA
ATOM      6  H   UNL A   1      48.794  38.485  29.079  1.00  0.00     0.163 HD
BRANCH   4   7
ATOM      7  C   UNL A   1      47.433  41.494  28.642  1.00  0.00     0.174 C 
BRANCH   7   8
ATOM      8  C   UNL A   1      48.368  42.437  29.438  1.00  0.00     0.018 C 
ATOM      9  C   UNL A   1      47.625  43.708  29.895  1.00  0.00     0.010 C 
BRANCH   8  10
ATOM     10  C   UNL A   1      49.718  42.724  28.736  1.00  0.00     0.002 C 
ATOM     11  C   UNL A   1      49.719  43.777  27.646  1.00  0.00     0.004 C 
ENDBRANCH   8  10
ENDBRANCH   7   8
BRANCH   7  12
ATOM     12  N   UNL A   1      46.041  41.884  28.665  1.00  0.00    -0.342 N 
ATOM     13  C   UNL A   1      45.061  41.644  27.771  1.00  0.00     0.243 C 
ATOM     14  H   UNL A   1      45.766  42.404  29.455  1.00  0.00     0.164 HD
ATOM     15  O   UNL A   1      43.954  42.083  28.117  1.00  0.00    -0.273 OA
BRANCH  13  16
ATOM     16  C   UNL A   1      45.349  41.188  26.330  1.00  0.00     0.181 C 
ATOM     17  C   UNL A   1      44.997  39.628  26.313  1.00  0.00     0.042 C 
BRANCH  16  18
ATOM     18  N   UNL A   1      46.246  41.772  25.242  1.00  0.00    -0.250 N 
ATOM     19  C   UNL A   1      46.852  41.477  23.933  1.00  0.00     0.328 C 
ATOM     20  C   UNL A   1      46.332  43.105  25.400  1.00  0.00     0.259 C 
ATOM     21  N   UNL A   1      47.623  42.719  23.502  1.00  0.00    -0.307 N 
ATOM     22  O   UNL A   1      46.636  40.558  23.156  1.00  0.00    -0.248 OA
ATOM     23  C   UNL A   1      46.847  43.645  24.169  1.00  0.00     0.147 C 
ATOM     24  O   UNL A   1      45.981  43.831  26.330  1.00  0.00    -0.271 OA
ATOM     25  C   UNL A   1      47.960  43.521  22.076  1.00  0.00     0.127 C 
ATOM     26  C   UNL A   1      45.643  43.563  23.130  1.00  0.00     0.168 C 
ATOM     27  C   UNL A   1      47.860  44.707  24.651  1.00  0.00     0.048 C 
ATOM     28  C   UNL A   1      46.777  44.975  21.842  1.00  0.00     0.055 C 
ATOM     29  C   UNL A   1      45.204  44.782  22.525  1.00  0.00    -0.032 C 
ATOM     30  N   UNL A   1      44.900  42.362  22.546  1.00  0.00    -0.274 NA
ATOM     31  C   UNL A   1      43.887  44.394  22.274  1.00  0.00     0.005 A 
ATOM     32  C   UNL A   1      44.096  43.015  21.727  1.00  0.00     0.066 A 
ATOM     33  C   UNL A   1      42.908  43.911  23.486  1.00  0.00     0.056 A 
ATOM     34  C   UNL A   1      42.967  42.354  21.071  1.00  0.00     0.032 A 
ATOM     35  C   UNL A   1      42.299  42.662  23.373  1.00  0.00     0.119 A 
ATOM     36  C   UNL A   1      42.062  42.109  22.032  1.00  0.00     0.048 A 
BRANCH  35  37
ATOM     37  O   UNL A   1      42.650  41.694  24.307  1.00  0.00    -0.497 OA
ATOM     38  C   UNL A   1      41.800  41.191  25.339  1.00  0.00     0.278 C 
ENDBRANCH  35  37
ENDBRANCH  16  18
ENDBRANCH  13  16
ENDBRANCH   7  12
ENDBRANCH   4   7
ENDBRANCH   2   3
ENDBRANCH   1   2
BRANCH   1  39
ATOM     39  C   UNL A   1      48.647  36.554  26.295  1.00  0.00     0.023 C 
BRANCH  39  40
ATOM     40  C   UNL A   1      47.248  37.000  25.891  1.00  0.00     0.116 C 
BRANCH  40  41
ATOM     41  N   UNL A   1      46.536  35.947  25.182  1.00  0.00    -0.352 N 
ATOM     42  C   UNL A   1      45.738  34.943  25.675  1.00  0.00     0.251 C 
ATOM     43  H   UNL A   1      46.644  35.954  24.204  1.00  0.00     0.163 HD
ATOM     44  O   UNL A   1      45.509  33.958  24.977  1.00  0.00    -0.269 OA
BRANCH  42  45
ATOM     45  C   UNL A   1      45.166  35.043  27.038  1.00  0.00     0.039 A 
ATOM     46  C   UNL A   1      44.090  35.893  27.294  1.00  0.00     0.014 A 
ATOM     47  C   UNL A   1      45.673  34.244  28.066  1.00  0.00     0.014 A 
ATOM     48  C   UNL A   1      43.649  36.084  28.596  1.00  0.00     0.010 A 
ATOM     49  C   UNL A   1      45.136  34.341  29.356  1.00  0.00     0.010 A 
ATOM     50  C   UNL A   1      44.142  35.289  29.641  1.00  0.00    -0.014 A 
BRANCH  50  51
ATOM     51  C   UNL A   1      43.555  35.438  31.000  1.00  0.00     0.031 A 
ATOM     52  C   UNL A   1      42.286  34.727  31.384  1.00  0.00     0.074 A 
ATOM     53  C   UNL A   1      44.204  36.196  31.910  1.00  0.00     0.049 A 
ATOM     54  N   UNL A   1      41.650  34.750  32.528  1.00  0.00    -0.248 NA
ATOM     55  C   UNL A   1      41.640  33.886  30.363  1.00  0.00     0.031 C 
ATOM     56  C   UNL A   1      45.435  36.949  31.654  1.00  0.00     0.029 A 
ATOM     57  N   UNL A   1      43.936  36.448  33.231  1.00  0.00    -0.354 N 
ATOM     58  C   UNL A   1      40.510  33.976  32.350  1.00  0.00     0.074 A 
ATOM     59  C   UNL A   1      40.540  33.488  30.989  1.00  0.00     0.031 C 
ATOM     60  C   UNL A   1      45.847  37.526  32.790  1.00  0.00     0.029 A 
ATOM     61  C   UNL A   1      44.870  37.257  33.836  1.00  0.00     0.049 A 
ATOM     62  H   UNL A   1      43.151  36.085  33.701  1.00  0.00     0.167 HD
ATOM     63  C   UNL A   1      39.537  33.689  33.245  1.00  0.00     0.034 A 
ATOM     64  C   UNL A   1      44.932  37.752  35.087  1.00  0.00     0.034 A 
ATOM     65  C   UNL A   1      39.536  34.135  34.612  1.00  0.00     0.049 A 
ATOM     66  C   UNL A   1      43.843  37.412  36.058  1.00  0.00     0.074 A 
ATOM     67  C   UNL A   1      38.612  33.855  35.603  1.00  0.00     0.029 A 
ATOM     68  N   UNL A   1      40.500  34.953  35.180  1.00  0.00    -0.354 N 
ATOM     69  N   UNL A   1      42.804  36.633  35.881  1.00  0.00    -0.248 NA
ATOM     70  C   UNL A   1      43.933  38.008  37.398  1.00  0.00     0.031 C 
ATOM     71  C   UNL A   1      39.008  34.517  36.768  1.00  0.00     0.029 A 
ATOM     72  C   UNL A   1      40.191  35.189  36.508  1.00  0.00     0.049 A 
ATOM     73  H   UNL A   1      41.286  35.312  34.709  1.00  0.00     0.167 HD
ATOM     74  C   UNL A   1      42.123  36.631  37.091  1.00  0.00     0.074 A 
ATOM     75  C   UNL A   1      42.875  37.475  37.998  1.00  0.00     0.031 C 
ATOM     76  C   UNL A   1      40.971  35.996  37.411  1.00  0.00     0.034 A 
BRANCH  63  77
ATOM     77  C   UNL A   1      38.394  32.819  32.797  1.00  0.00     0.023 A 
ATOM     78  C   UNL A   1      38.464  31.426  32.990  1.00  0.00     0.012 A 
ATOM     79  C   UNL A   1      37.211  33.392  32.290  1.00  0.00     0.148 A 
ATOM     80  C   UNL A   1      37.376  30.612  32.676  1.00  0.00     0.002 A 
ATOM     81  C   UNL A   1      36.119  32.579  32.007  1.00  0.00     0.091 A 
ATOM     82  F   UNL A   1      37.173  34.719  32.106  1.00  0.00    -0.205 F 
ATOM     83  C   UNL A   1      36.202  31.190  32.195  1.00  0.00     0.022 A 
BRANCH  81  84
ATOM     84  S   UNL A   1      34.544  33.225  31.434  1.00  0.00     0.127 S 
ATOM     85  O   UNL A   1      33.659  32.862  32.541  1.00  0.00    -0.237 OA
ATOM     86  O   UNL A   1      34.824  34.656  31.320  1.00  0.00    -0.237 OA
ATOM     87  O   UNL A   1      34.264  32.550  30.175  1.00  0.00    -0.744 OA
ENDBRANCH  81  84
ENDBRANCH  63  77
BRANCH  64  88
ATOM     88  C   UNL A   1      46.092  38.597  35.476  1.00  0.00     0.023 A 
ATOM     89  C   UNL A   1      47.275  37.981  35.926  1.00  0.00     0.012 A 
ATOM     90  C   UNL A   1      46.061  39.995  35.302  1.00  0.00     0.148 A 
ATOM     91  C   UNL A   1      48.411  38.747  36.197  1.00  0.00     0.002 A 
ATOM     92  C   UNL A   1      47.207  40.744  35.534  1.00  0.00     0.091 A 
ATOM     93  F   UNL A   1      44.922  40.551  34.869  1.00  0.00    -0.205 F 
ATOM     94  C   UNL A   1      48.380  40.123  35.989  1.00  0.00     0.022 A 
BRANCH  92  95
ATOM     95  S   UNL A   1      47.298  42.506  35.195  1.00  0.00     0.127 S 
ATOM     96  O   UNL A   1      46.990  42.549  33.767  1.00  0.00    -0.237 OA
ATOM     97  O   UNL A   1      46.249  43.030  36.068  1.00  0.00    -0.237 OA
ATOM     98  O   UNL A   1      48.649  42.911  35.555  1.00  0.00    -0.744 OA
ENDBRANCH  92  95
ENDBRANCH  64  88
BRANCH  76  99
ATOM     99  C   UNL A   1      40.447  36.153  38.809  1.00  0.00     0.023 A 
ATOM    100  C   UNL A   1      39.561  37.206  39.107  1.00  0.00     0.012 A 
ATOM    101  C   UNL A   1      40.733  35.182  39.789  1.00  0.00     0.148 A 
ATOM    102  C   UNL A   1      38.970  37.293  40.365  1.00  0.00     0.002 A 
ATOM    103  C   UNL A   1      40.113  35.255  41.029  1.00  0.00     0.091 A 
ATOM    104  F   UNL A   1      41.587  34.196  39.478  1.00  0.00    -0.205 F 
ATOM    105  C   UNL A   1      39.234  36.313  41.321  1.00  0.00     0.022 A 
BRANCH 103 106
ATOM    106  S   UNL A   1      40.335  34.003  42.296  1.00  0.00     0.127 S 
ATOM    107  O   UNL A   1      41.779  34.064  42.524  1.00  0.00    -0.237 OA
ATOM    108  O   UNL A   1      39.520  34.526  43.392  1.00  0.00    -0.237 OA
ATOM    109  O   UNL A   1      39.854  32.754  41.722  1.00  0.00    -0.744 OA
ENDBRANCH 103 106
ENDBRANCH  76  99
ENDBRANCH  50  51
ENDBRANCH  42  45
ENDBRANCH  40  41
ENDBRANCH  39  40
ENDBRANCH   1  39
TORSDOF 20
ENDMDL
