MODEL 1
REMARK VINA RESULT:     -11.7      0.000      0.000
REMARK SMILES CC[C@@](C)(NC(=O)Nc1c(C)cccc1Cl)C(=O)NCCCCNC(=O)c1ccc(-c2c3nc(c(-c4cccc(S(=O)(=O)[O-])c4F)c4ccc([nH]4)c(-c4cccc(S(=O)(=O)[O-])c4F)c4nc(c(-c5cccc(S(=O)(=O)[O-])c5F)c5ccc2[nH]5)C=C4)C=C3)cc1
REMARK SMILES IDX 22 1 21 2 20 3 19 4 17 5 18 6 3 8 4 9 2 10 1 11 5 12 6 13
REMARK SMILES IDX 7 15 8 16 9 18 10 19 15 20 11 21 12 22 14 23 16 24 13 25
REMARK SMILES IDX 23 26 24 27 25 28 26 30 27 31 28 32 89 33 29 34 88 35 30 36
REMARK SMILES IDX 31 37 32 38 82 39 33 40 87 41 81 42 83 43 34 44 86 45 80 46
REMARK SMILES IDX 79 47 35 49 67 50 47 51 66 52 48 53 51 54 65 55 84 56 49 57
REMARK SMILES IDX 50 58 64 60 85 61 52 62 36 63 37 64 45 65 38 66 40 67 46 68
REMARK SMILES IDX 39 69 41 70 42 71 43 72 44 73 68 74 69 75 77 76 70 77 72 78
REMARK SMILES IDX 78 79 71 80 73 81 74 82 75 83 76 84 53 85 54 86 62 87 55 88
REMARK SMILES IDX 57 89 63 90 56 91 58 92 59 93 60 94 61 95
REMARK H PARENT 19 7 5 14 8 17 24 29 83 48 51 59
REMARK Flexibility Score: inf
ROOT
ATOM      1  C   UNL A   1      38.076  19.552  24.989  1.00  0.00     0.023 C 
ENDROOT
BRANCH   1   2
ATOM      2  C   UNL A   1      36.842  20.465  24.883  1.00  0.00     0.023 C 
BRANCH   2   3
ATOM      3  C   UNL A   1      36.890  21.945  25.335  1.00  0.00     0.116 C 
BRANCH   3   4
ATOM      4  N   UNL A   1      36.054  22.294  26.475  1.00  0.00    -0.354 N 
ATOM      5  C   UNL A   1      34.666  22.293  26.639  1.00  0.00     0.245 C 
ATOM      6  O   UNL A   1      34.123  21.576  27.480  1.00  0.00    -0.272 OA
ATOM      7  H   UNL A   1      36.555  22.583  27.271  1.00  0.00     0.163 HD
BRANCH   5   8
ATOM      8  C   UNL A   1      33.832  23.154  25.674  1.00  0.00     0.117 C 
ATOM      9  C   UNL A   1      34.709  24.442  25.618  1.00  0.00     0.045 C 
BRANCH   8  10
ATOM     10  C   UNL A   1      33.533  22.770  24.198  1.00  0.00     0.035 C 
ATOM     11  C   UNL A   1      34.461  23.235  23.100  1.00  0.00     0.007 C 
ENDBRANCH   8  10
BRANCH   8  12
ATOM     12  N   UNL A   1      32.533  23.354  26.311  1.00  0.00    -0.324 N 
ATOM     13  C   UNL A   1      31.637  24.361  26.251  1.00  0.00     0.320 C 
ATOM     14  H   UNL A   1      32.258  22.612  26.898  1.00  0.00     0.166 HD
ATOM     15  O   UNL A   1      30.737  24.303  27.099  1.00  0.00    -0.248 OA
ATOM     16  N   UNL A   1      31.472  25.249  25.218  1.00  0.00    -0.306 N 
ATOM     17  H   UNL A   1      30.592  25.158  24.787  1.00  0.00     0.171 HD
BRANCH  16  18
ATOM     18  C   UNL A   1      32.279  26.286  24.608  1.00  0.00     0.064 A 
ATOM     19  C   UNL A   1      32.602  26.417  23.220  1.00  0.00    -0.026 A 
ATOM     20  C   UNL A   1      32.388  27.494  25.347  1.00  0.00     0.064 A 
ATOM     21  C   UNL A   1      31.965  25.732  22.023  1.00  0.00     0.046 C 
ATOM     22  C   UNL A   1      33.383  27.511  22.777  1.00  0.00     0.005 A 
ATOM     23  C   UNL A   1      32.974  28.655  24.820  1.00  0.00     0.023 A 
ATOM     24  Cl  UNL A   1      31.631  27.665  26.901  1.00  0.00    -0.082 Cl
ATOM     25  C   UNL A   1      33.544  28.637  23.560  1.00  0.00     0.002 A 
ENDBRANCH  16  18
ENDBRANCH   8  12
ENDBRANCH   5   8
ENDBRANCH   3   4
ENDBRANCH   2   3
ENDBRANCH   1   2
BRANCH   1  26
ATOM     26  C   UNL A   1      39.272  20.016  25.808  1.00  0.00     0.116 C 
BRANCH  26  27
ATOM     27  N   UNL A   1      40.383  19.095  25.806  1.00  0.00    -0.352 N 
ATOM     28  C   UNL A   1      41.711  19.298  26.087  1.00  0.00     0.251 C 
ATOM     29  H   UNL A   1      40.150  18.170  25.564  1.00  0.00     0.163 HD
ATOM     30  O   UNL A   1      42.478  18.339  26.012  1.00  0.00    -0.269 OA
BRANCH  28  31
ATOM     31  C   UNL A   1      42.249  20.638  26.432  1.00  0.00     0.039 A 
ATOM     32  C   UNL A   1      42.630  21.472  25.375  1.00  0.00     0.014 A 
ATOM     33  C   UNL A   1      42.447  21.067  27.748  1.00  0.00     0.014 A 
ATOM     34  C   UNL A   1      43.157  22.741  25.629  1.00  0.00     0.010 A 
ATOM     35  C   UNL A   1      42.923  22.360  28.001  1.00  0.00     0.010 A 
ATOM     36  C   UNL A   1      43.285  23.213  26.945  1.00  0.00    -0.014 A 
BRANCH  36  37
ATOM     37  C   UNL A   1      43.766  24.599  27.212  1.00  0.00     0.031 A 
ATOM     38  C   UNL A   1      42.828  25.665  27.717  1.00  0.00     0.074 A 
ATOM     39  C   UNL A   1      45.050  24.919  26.948  1.00  0.00     0.049 A 
ATOM     40  N   UNL A   1      43.071  26.925  27.974  1.00  0.00    -0.248 NA
ATOM     41  C   UNL A   1      41.430  25.268  27.948  1.00  0.00     0.031 C 
ATOM     42  C   UNL A   1      46.051  24.003  26.397  1.00  0.00     0.029 A 
ATOM     43  N   UNL A   1      45.729  26.107  27.084  1.00  0.00    -0.354 N 
ATOM     44  C   UNL A   1      41.858  27.480  28.366  1.00  0.00     0.074 A 
ATOM     45  C   UNL A   1      40.872  26.422  28.285  1.00  0.00     0.031 C 
ATOM     46  C   UNL A   1      47.211  24.661  26.240  1.00  0.00     0.029 A 
ATOM     47  C   UNL A   1      47.032  26.051  26.645  1.00  0.00     0.049 A 
ATOM     48  H   UNL A   1      45.321  26.921  27.459  1.00  0.00     0.167 HD
ATOM     49  C   UNL A   1      41.591  28.743  28.778  1.00  0.00     0.034 A 
ATOM     50  C   UNL A   1      47.975  27.011  26.560  1.00  0.00     0.034 A 
ATOM     51  C   UNL A   1      42.575  29.789  28.883  1.00  0.00     0.049 A 
ATOM     52  C   UNL A   1      47.657  28.402  27.038  1.00  0.00     0.074 A 
ATOM     53  C   UNL A   1      42.412  31.078  29.361  1.00  0.00     0.029 A 
ATOM     54  N   UNL A   1      43.901  29.673  28.495  1.00  0.00    -0.354 N 
ATOM     55  N   UNL A   1      46.540  28.864  27.543  1.00  0.00    -0.248 NA
ATOM     56  C   UNL A   1      48.741  29.393  26.971  1.00  0.00     0.031 C 
ATOM     57  C   UNL A   1      43.631  31.752  29.231  1.00  0.00     0.029 A 
ATOM     58  C   UNL A   1      44.564  30.871  28.710  1.00  0.00     0.049 A 
ATOM     59  H   UNL A   1      44.311  28.860  28.123  1.00  0.00     0.167 HD
ATOM     60  C   UNL A   1      46.796  30.188  27.887  1.00  0.00     0.074 A 
ATOM     61  C   UNL A   1      48.181  30.445  27.552  1.00  0.00     0.031 C 
ATOM     62  C   UNL A   1      45.956  31.108  28.420  1.00  0.00     0.034 A 
BRANCH  49  63
ATOM     63  C   UNL A   1      40.174  29.063  29.190  1.00  0.00     0.023 A 
ATOM     64  C   UNL A   1      39.207  29.342  28.202  1.00  0.00     0.012 A 
ATOM     65  C   UNL A   1      39.783  29.023  30.543  1.00  0.00     0.148 A 
ATOM     66  C   UNL A   1      37.886  29.615  28.555  1.00  0.00     0.002 A 
ATOM     67  C   UNL A   1      38.455  29.250  30.885  1.00  0.00     0.091 A 
ATOM     68  F   UNL A   1      40.717  28.769  31.472  1.00  0.00    -0.205 F 
ATOM     69  C   UNL A   1      37.508  29.559  29.893  1.00  0.00     0.022 A 
BRANCH  67  70
ATOM     70  S   UNL A   1      37.848  29.121  32.571  1.00  0.00     0.127 S 
ATOM     71  O   UNL A   1      38.752  30.027  33.279  1.00  0.00    -0.237 OA
ATOM     72  O   UNL A   1      36.475  29.609  32.442  1.00  0.00    -0.237 OA
ATOM     73  O   UNL A   1      37.963  27.716  32.934  1.00  0.00    -0.744 OA
ENDBRANCH  67  70
ENDBRANCH  49  63
BRANCH  50  74
ATOM     74  C   UNL A   1      49.330  26.679  26.033  1.00  0.00     0.023 A 
ATOM     75  C   UNL A   1      50.207  25.894  26.808  1.00  0.00     0.012 A 
ATOM     76  C   UNL A   1      49.747  27.121  24.762  1.00  0.00     0.148 A 
ATOM     77  C   UNL A   1      51.485  25.586  26.342  1.00  0.00     0.002 A 
ATOM     78  C   UNL A   1      50.999  26.760  24.279  1.00  0.00     0.091 A 
ATOM     79  F   UNL A   1      48.903  27.876  24.045  1.00  0.00    -0.205 F 
ATOM     80  C   UNL A   1      51.877  26.009  25.075  1.00  0.00     0.022 A 
BRANCH  78  81
ATOM     81  S   UNL A   1      51.540  27.148  22.612  1.00  0.00     0.127 S 
ATOM     82  O   UNL A   1      51.744  28.590  22.691  1.00  0.00    -0.237 OA
ATOM     83  O   UNL A   1      52.760  26.354  22.498  1.00  0.00    -0.237 OA
ATOM     84  O   UNL A   1      50.455  26.711  21.735  1.00  0.00    -0.744 OA
ENDBRANCH  78  81
ENDBRANCH  50  74
BRANCH  62  85
ATOM     85  C   UNL A   1      46.513  32.476  28.723  1.00  0.00     0.023 A 
ATOM     86  C   UNL A   1      47.070  32.748  29.989  1.00  0.00     0.012 A 
ATOM     87  C   UNL A   1      46.544  33.472  27.727  1.00  0.00     0.148 A 
ATOM     88  C   UNL A   1      47.618  34.000  30.268  1.00  0.00     0.002 A 
ATOM     89  C   UNL A   1      47.138  34.700  27.995  1.00  0.00     0.091 A 
ATOM     90  F   UNL A   1      45.993  33.201  26.534  1.00  0.00    -0.205 F 
ATOM     91  C   UNL A   1      47.663  34.970  29.269  1.00  0.00     0.022 A 
BRANCH  89  92
ATOM     92  S   UNL A   1      47.331  35.974  26.743  1.00  0.00     0.127 S 
ATOM     93  O   UNL A   1      48.008  35.240  25.675  1.00  0.00    -0.237 OA
ATOM     94  O   UNL A   1      45.943  36.332  26.452  1.00  0.00    -0.237 OA
ATOM     95  O   UNL A   1      48.114  37.034  27.363  1.00  0.00    -0.744 OA
ENDBRANCH  89  92
ENDBRANCH  62  85
ENDBRANCH  36  37
ENDBRANCH  28  31
ENDBRANCH  26  27
ENDBRANCH   1  26
TORSDOF 17
ENDMDL
MODEL 2
REMARK VINA RESULT:     -11.7      5.853     11.882
REMARK SMILES CC[C@@](C)(NC(=O)Nc1c(C)cccc1Cl)C(=O)NCCCCNC(=O)c1ccc(-c2c3nc(c(-c4cccc(S(=O)(=O)[O-])c4F)c4ccc([nH]4)c(-c4cccc(S(=O)(=O)[O-])c4F)c4nc(c(-c5cccc(S(=O)(=O)[O-])c5F)c5ccc2[nH]5)C=C4)C=C3)cc1
REMARK SMILES IDX 22 1 21 2 20 3 19 4 17 5 18 6 3 8 4 9 2 10 1 11 5 12 6 13
REMARK SMILES IDX 7 15 8 16 9 18 10 19 15 20 11 21 12 22 14 23 16 24 13 25
REMARK SMILES IDX 23 26 24 27 25 28 26 30 27 31 28 32 89 33 29 34 88 35 30 36
REMARK SMILES IDX 31 37 32 38 82 39 33 40 87 41 81 42 83 43 34 44 86 45 80 46
REMARK SMILES IDX 79 47 35 49 67 50 47 51 66 52 48 53 51 54 65 55 84 56 49 57
REMARK SMILES IDX 50 58 64 60 85 61 52 62 36 63 37 64 45 65 38 66 40 67 46 68
REMARK SMILES IDX 39 69 41 70 42 71 43 72 44 73 68 74 69 75 77 76 70 77 72 78
REMARK SMILES IDX 78 79 71 80 73 81 74 82 75 83 76 84 53 85 54 86 62 87 55 88
REMARK SMILES IDX 57 89 63 90 56 91 58 92 59 93 60 94 61 95
REMARK H PARENT 19 7 5 14 8 17 24 29 83 48 51 59
REMARK Flexibility Score: inf
ROOT
ATOM      1  C   UNL A   1      31.353  32.465  26.542  1.00  0.00     0.023 C 
ENDROOT
BRANCH   1   2
ATOM      2  C   UNL A   1      31.283  31.023  26.009  1.00  0.00     0.023 C 
BRANCH   2   3
ATOM      3  C   UNL A   1      32.324  29.955  26.424  1.00  0.00     0.116 C 
BRANCH   3   4
ATOM      4  N   UNL A   1      33.342  29.633  25.433  1.00  0.00    -0.354 N 
ATOM      5  C   UNL A   1      33.294  28.840  24.283  1.00  0.00     0.245 C 
ATOM      6  O   UNL A   1      33.502  29.319  23.168  1.00  0.00    -0.272 OA
ATOM      7  H   UNL A   1      34.218  30.047  25.603  1.00  0.00     0.163 HD
BRANCH   5   8
ATOM      8  C   UNL A   1      32.888  27.365  24.449  1.00  0.00     0.117 C 
ATOM      9  C   UNL A   1      33.890  26.922  25.558  1.00  0.00     0.045 C 
BRANCH   8  10
ATOM     10  C   UNL A   1      31.485  26.894  24.920  1.00  0.00     0.035 C 
ATOM     11  C   UNL A   1      30.267  27.208  24.082  1.00  0.00     0.007 C 
ENDBRANCH   8  10
BRANCH   8  12
ATOM     12  N   UNL A   1      33.119  26.722  23.158  1.00  0.00    -0.324 N 
ATOM     13  C   UNL A   1      33.381  25.445  22.813  1.00  0.00     0.320 C 
ATOM     14  H   UNL A   1      33.075  27.339  22.392  1.00  0.00     0.166 HD
ATOM     15  O   UNL A   1      33.745  25.290  21.640  1.00  0.00    -0.248 OA
ATOM     16  N   UNL A   1      33.035  24.319  23.517  1.00  0.00    -0.306 N 
ATOM     17  H   UNL A   1      32.396  23.754  23.025  1.00  0.00     0.171 HD
BRANCH  16  18
ATOM     18  C   UNL A   1      33.380  23.761  24.809  1.00  0.00     0.064 A 
ATOM     19  C   UNL A   1      32.480  23.440  25.874  1.00  0.00    -0.026 A 
ATOM     20  C   UNL A   1      34.621  23.072  24.868  1.00  0.00     0.064 A 
ATOM     21  C   UNL A   1      30.967  23.301  25.836  1.00  0.00     0.046 C 
ATOM     22  C   UNL A   1      32.977  22.871  27.071  1.00  0.00     0.005 A 
ATOM     23  C   UNL A   1      35.017  22.319  25.985  1.00  0.00     0.023 A 
ATOM     24  Cl  UNL A   1      35.654  22.965  23.476  1.00  0.00    -0.082 Cl
ATOM     25  C   UNL A   1      34.226  22.286  27.119  1.00  0.00     0.002 A 
ENDBRANCH  16  18
ENDBRANCH   8  12
ENDBRANCH   5   8
ENDBRANCH   3   4
ENDBRANCH   2   3
ENDBRANCH   1   2
BRANCH   1  26
ATOM     26  C   UNL A   1      32.633  32.943  27.214  1.00  0.00     0.116 C 
BRANCH  26  27
ATOM     27  N   UNL A   1      32.543  34.268  27.780  1.00  0.00    -0.352 N 
ATOM     28  C   UNL A   1      33.298  34.876  28.751  1.00  0.00     0.251 C 
ATOM     29  H   UNL A   1      31.822  34.826  27.409  1.00  0.00     0.163 HD
ATOM     30  O   UNL A   1      33.020  36.030  29.072  1.00  0.00    -0.269 OA
BRANCH  28  31
ATOM     31  C   UNL A   1      34.402  34.170  29.450  1.00  0.00     0.039 A 
ATOM     32  C   UNL A   1      35.711  34.488  29.071  1.00  0.00     0.014 A 
ATOM     33  C   UNL A   1      34.188  33.175  30.408  1.00  0.00     0.014 A 
ATOM     34  C   UNL A   1      36.798  33.851  29.679  1.00  0.00     0.010 A 
ATOM     35  C   UNL A   1      35.279  32.578  31.055  1.00  0.00     0.010 A 
ATOM     36  C   UNL A   1      36.597  32.908  30.698  1.00  0.00    -0.014 A 
BRANCH  36  37
ATOM     37  C   UNL A   1      37.757  32.294  31.406  1.00  0.00     0.031 A 
ATOM     38  C   UNL A   1      38.525  31.151  30.794  1.00  0.00     0.074 A 
ATOM     39  C   UNL A   1      38.094  32.733  32.636  1.00  0.00     0.049 A 
ATOM     40  N   UNL A   1      39.539  30.481  31.282  1.00  0.00    -0.248 NA
ATOM     41  C   UNL A   1      38.088  30.688  29.468  1.00  0.00     0.031 C 
ATOM     42  C   UNL A   1      37.397  33.790  33.374  1.00  0.00     0.029 A 
ATOM     43  N   UNL A   1      39.089  32.332  33.496  1.00  0.00    -0.354 N 
ATOM     44  C   UNL A   1      39.842  29.502  30.344  1.00  0.00     0.074 A 
ATOM     45  C   UNL A   1      38.884  29.647  29.267  1.00  0.00     0.031 C 
ATOM     46  C   UNL A   1      37.982  33.950  34.571  1.00  0.00     0.029 A 
ATOM     47  C   UNL A   1      39.072  32.990  34.705  1.00  0.00     0.049 A 
ATOM     48  H   UNL A   1      39.750  31.639  33.268  1.00  0.00     0.167 HD
ATOM     49  C   UNL A   1      40.838  28.582  30.361  1.00  0.00     0.034 A 
ATOM     50  C   UNL A   1      39.836  32.830  35.805  1.00  0.00     0.034 A 
ATOM     51  C   UNL A   1      41.806  28.454  31.418  1.00  0.00     0.049 A 
ATOM     52  C   UNL A   1      40.944  31.813  35.792  1.00  0.00     0.074 A 
ATOM     53  C   UNL A   1      42.896  27.602  31.488  1.00  0.00     0.029 A 
ATOM     54  N   UNL A   1      41.800  29.187  32.595  1.00  0.00    -0.354 N 
ATOM     55  N   UNL A   1      41.303  30.997  34.832  1.00  0.00    -0.248 NA
ATOM     56  C   UNL A   1      41.777  31.721  37.001  1.00  0.00     0.031 C 
ATOM     57  C   UNL A   1      43.527  27.795  32.721  1.00  0.00     0.029 A 
ATOM     58  C   UNL A   1      42.856  28.798  33.403  1.00  0.00     0.049 A 
ATOM     59  H   UNL A   1      41.142  29.882  32.823  1.00  0.00     0.167 HD
ATOM     60  C   UNL A   1      42.424  30.322  35.304  1.00  0.00     0.074 A 
ATOM     61  C   UNL A   1      42.696  30.840  36.629  1.00  0.00     0.031 C 
ATOM     62  C   UNL A   1      43.152  29.351  34.700  1.00  0.00     0.034 A 
BRANCH  49  63
ATOM     63  C   UNL A   1      40.961  27.658  29.174  1.00  0.00     0.023 A 
ATOM     64  C   UNL A   1      40.184  26.482  29.123  1.00  0.00     0.012 A 
ATOM     65  C   UNL A   1      41.792  27.981  28.083  1.00  0.00     0.148 A 
ATOM     66  C   UNL A   1      40.260  25.625  28.027  1.00  0.00     0.002 A 
ATOM     67  C   UNL A   1      41.828  27.145  26.972  1.00  0.00     0.091 A 
ATOM     68  F   UNL A   1      42.535  29.095  28.152  1.00  0.00    -0.205 F 
ATOM     69  C   UNL A   1      41.073  25.961  26.948  1.00  0.00     0.022 A 
BRANCH  67  70
ATOM     70  S   UNL A   1      42.779  27.529  25.497  1.00  0.00     0.127 S 
ATOM     71  O   UNL A   1      42.131  28.758  25.041  1.00  0.00    -0.237 OA
ATOM     72  O   UNL A   1      44.125  27.716  26.039  1.00  0.00    -0.237 OA
ATOM     73  O   UNL A   1      42.633  26.381  24.613  1.00  0.00    -0.744 OA
ENDBRANCH  67  70
ENDBRANCH  49  63
BRANCH  50  74
ATOM     74  C   UNL A   1      39.602  33.686  37.004  1.00  0.00     0.023 A 
ATOM     75  C   UNL A   1      40.062  35.018  37.010  1.00  0.00     0.012 A 
ATOM     76  C   UNL A   1      38.911  33.194  38.127  1.00  0.00     0.148 A 
ATOM     77  C   UNL A   1      39.869  35.831  38.127  1.00  0.00     0.002 A 
ATOM     78  C   UNL A   1      38.670  34.028  39.212  1.00  0.00     0.091 A 
ATOM     79  F   UNL A   1      38.491  31.921  38.106  1.00  0.00    -0.205 F 
ATOM     80  C   UNL A   1      39.165  35.340  39.223  1.00  0.00     0.022 A 
BRANCH  78  81
ATOM     81  S   UNL A   1      37.663  33.525  40.612  1.00  0.00     0.127 S 
ATOM     82  O   UNL A   1      38.510  32.524  41.248  1.00  0.00    -0.237 OA
ATOM     83  O   UNL A   1      37.524  34.779  41.348  1.00  0.00    -0.237 OA
ATOM     84  O   UNL A   1      36.415  33.025  40.038  1.00  0.00    -0.744 OA
ENDBRANCH  78  81
ENDBRANCH  50  74
BRANCH  62  85
ATOM     85  C   UNL A   1      44.349  28.807  35.439  1.00  0.00     0.023 A 
ATOM     86  C   UNL A   1      45.627  29.359  35.218  1.00  0.00     0.012 A 
ATOM     87  C   UNL A   1      44.193  27.794  36.405  1.00  0.00     0.148 A 
ATOM     88  C   UNL A   1      46.735  28.886  35.920  1.00  0.00     0.002 A 
ATOM     89  C   UNL A   1      45.293  27.364  37.139  1.00  0.00     0.091 A 
ATOM     90  F   UNL A   1      42.972  27.268  36.590  1.00  0.00    -0.205 F 
ATOM     91  C   UNL A   1      46.566  27.899  36.888  1.00  0.00     0.022 A 
BRANCH  89  92
ATOM     92  S   UNL A   1      45.155  26.168  38.473  1.00  0.00     0.127 S 
ATOM     93  O   UNL A   1      44.674  24.984  37.762  1.00  0.00    -0.237 OA
ATOM     94  O   UNL A   1      46.536  26.075  38.947  1.00  0.00    -0.237 OA
ATOM     95  O   UNL A   1      44.222  26.740  39.434  1.00  0.00    -0.744 OA
ENDBRANCH  89  92
ENDBRANCH  62  85
ENDBRANCH  36  37
ENDBRANCH  28  31
ENDBRANCH  26  27
ENDBRANCH   1  26
TORSDOF 17
ENDMDL
MODEL 3
REMARK VINA RESULT:     -11.7      1.460      1.835
REMARK SMILES CC[C@@](C)(NC(=O)Nc1c(C)cccc1Cl)C(=O)NCCCCNC(=O)c1ccc(-c2c3nc(c(-c4cccc(S(=O)(=O)[O-])c4F)c4ccc([nH]4)c(-c4cccc(S(=O)(=O)[O-])c4F)c4nc(c(-c5cccc(S(=O)(=O)[O-])c5F)c5ccc2[nH]5)C=C4)C=C3)cc1
REMARK SMILES IDX 22 1 21 2 20 3 19 4 17 5 18 6 3 8 4 9 2 10 1 11 5 12 6 13
REMARK SMILES IDX 7 15 8 16 9 18 10 19 15 20 11 21 12 22 14 23 16 24 13 25
REMARK SMILES IDX 23 26 24 27 25 28 26 30 27 31 28 32 89 33 29 34 88 35 30 36
REMARK SMILES IDX 31 37 32 38 82 39 33 40 87 41 81 42 83 43 34 44 86 45 80 46
REMARK SMILES IDX 79 47 35 49 67 50 47 51 66 52 48 53 51 54 65 55 84 56 49 57
REMARK SMILES IDX 50 58 64 60 85 61 52 62 36 63 37 64 45 65 38 66 40 67 46 68
REMARK SMILES IDX 39 69 41 70 42 71 43 72 44 73 68 74 69 75 77 76 70 77 72 78
REMARK SMILES IDX 78 79 71 80 73 81 74 82 75 83 76 84 53 85 54 86 62 87 55 88
REMARK SMILES IDX 57 89 63 90 56 91 58 92 59 93 60 94 61 95
REMARK H PARENT 19 7 5 14 8 17 24 29 83 48 51 59
REMARK Flexibility Score: inf
ROOT
ATOM      1  C   UNL A   1      38.169  19.533  24.986  1.00  0.00     0.023 C 
ENDROOT
BRANCH   1   2
ATOM      2  C   UNL A   1      37.014  20.500  24.673  1.00  0.00     0.023 C 
BRANCH   2   3
ATOM      3  C   UNL A   1      36.980  21.935  25.255  1.00  0.00     0.116 C 
BRANCH   3   4
ATOM      4  N   UNL A   1      36.100  22.142  26.397  1.00  0.00    -0.354 N 
ATOM      5  C   UNL A   1      34.707  22.127  26.506  1.00  0.00     0.245 C 
ATOM      6  O   UNL A   1      34.131  21.314  27.228  1.00  0.00    -0.272 OA
ATOM      7  H   UNL A   1      36.571  22.325  27.242  1.00  0.00     0.163 HD
BRANCH   5   8
ATOM      8  C   UNL A   1      33.912  23.108  25.626  1.00  0.00     0.117 C 
ATOM      9  C   UNL A   1      34.893  24.319  25.599  1.00  0.00     0.045 C 
BRANCH   8  10
ATOM     10  C   UNL A   1      33.522  22.834  24.147  1.00  0.00     0.035 C 
ATOM     11  C   UNL A   1      34.486  23.191  23.039  1.00  0.00     0.007 C 
ENDBRANCH   8  10
BRANCH   8  12
ATOM     12  N   UNL A   1      32.662  23.380  26.331  1.00  0.00    -0.324 N 
ATOM     13  C   UNL A   1      31.827  24.440  26.324  1.00  0.00     0.320 C 
ATOM     14  H   UNL A   1      32.373  22.650  26.926  1.00  0.00     0.166 HD
ATOM     15  O   UNL A   1      30.970  24.428  27.217  1.00  0.00    -0.248 OA
ATOM     16  N   UNL A   1      31.663  25.346  25.308  1.00  0.00    -0.306 N 
ATOM     17  H   UNL A   1      30.758  25.314  24.922  1.00  0.00     0.171 HD
BRANCH  16  18
ATOM     18  C   UNL A   1      32.500  26.339  24.664  1.00  0.00     0.064 A 
ATOM     19  C   UNL A   1      32.767  26.458  23.263  1.00  0.00    -0.026 A 
ATOM     20  C   UNL A   1      32.711  27.535  25.400  1.00  0.00     0.064 A 
ATOM     21  C   UNL A   1      32.039  25.815  22.094  1.00  0.00     0.046 C 
ATOM     22  C   UNL A   1      33.589  27.508  22.788  1.00  0.00     0.005 A 
ATOM     23  C   UNL A   1      33.337  28.664  24.849  1.00  0.00     0.023 A 
ATOM     24  Cl  UNL A   1      32.035  27.742  26.987  1.00  0.00    -0.082 Cl
ATOM     25  C   UNL A   1      33.848  28.619  23.564  1.00  0.00     0.002 A 
ENDBRANCH  16  18
ENDBRANCH   8  12
ENDBRANCH   5   8
ENDBRANCH   3   4
ENDBRANCH   2   3
ENDBRANCH   1   2
BRANCH   1  26
ATOM     26  C   UNL A   1      39.119  19.861  26.130  1.00  0.00     0.116 C 
BRANCH  26  27
ATOM     27  N   UNL A   1      40.365  19.133  26.090  1.00  0.00    -0.352 N 
ATOM     28  C   UNL A   1      41.656  19.565  26.259  1.00  0.00     0.251 C 
ATOM     29  H   UNL A   1      40.273  18.169  25.913  1.00  0.00     0.163 HD
ATOM     30  O   UNL A   1      42.566  18.741  26.175  1.00  0.00    -0.269 OA
BRANCH  28  31
ATOM     31  C   UNL A   1      41.986  20.994  26.495  1.00  0.00     0.039 A 
ATOM     32  C   UNL A   1      42.292  21.376  27.806  1.00  0.00     0.014 A 
ATOM     33  C   UNL A   1      41.942  21.965  25.490  1.00  0.00     0.014 A 
ATOM     34  C   UNL A   1      42.599  22.708  28.101  1.00  0.00     0.010 A 
ATOM     35  C   UNL A   1      42.304  23.288  25.777  1.00  0.00     0.010 A 
ATOM     36  C   UNL A   1      42.636  23.676  27.086  1.00  0.00    -0.014 A 
BRANCH  36  37
ATOM     37  C   UNL A   1      43.048  25.078  27.386  1.00  0.00     0.031 A 
ATOM     38  C   UNL A   1      42.089  26.050  28.023  1.00  0.00     0.074 A 
ATOM     39  C   UNL A   1      44.281  25.498  27.035  1.00  0.00     0.049 A 
ATOM     40  N   UNL A   1      42.271  27.311  28.326  1.00  0.00    -0.248 NA
ATOM     41  C   UNL A   1      40.745  25.547  28.347  1.00  0.00     0.031 C 
ATOM     42  C   UNL A   1      45.288  24.681  26.355  1.00  0.00     0.029 A 
ATOM     43  N   UNL A   1      44.890  26.722  27.177  1.00  0.00    -0.354 N 
ATOM     44  C   UNL A   1      41.063  27.761  28.846  1.00  0.00     0.074 A 
ATOM     45  C   UNL A   1      40.144  26.643  28.791  1.00  0.00     0.031 C 
ATOM     46  C   UNL A   1      46.384  25.423  26.138  1.00  0.00     0.029 A 
ATOM     47  C   UNL A   1      46.152  26.777  26.629  1.00  0.00     0.049 A 
ATOM     48  H   UNL A   1      44.464  27.487  27.628  1.00  0.00     0.167 HD
ATOM     49  C   UNL A   1      40.751  28.982  29.346  1.00  0.00     0.034 A 
ATOM     50  C   UNL A   1      47.020  27.803  26.519  1.00  0.00     0.034 A 
ATOM     51  C   UNL A   1      41.671  30.087  29.425  1.00  0.00     0.049 A 
ATOM     52  C   UNL A   1      46.654  29.144  27.096  1.00  0.00     0.074 A 
ATOM     53  C   UNL A   1      41.467  31.337  29.983  1.00  0.00     0.029 A 
ATOM     54  N   UNL A   1      42.963  30.082  28.924  1.00  0.00    -0.354 N 
ATOM     55  N   UNL A   1      45.557  29.504  27.715  1.00  0.00    -0.248 NA
ATOM     56  C   UNL A   1      47.662  30.210  26.992  1.00  0.00     0.031 C 
ATOM     57  C   UNL A   1      42.623  32.099  29.789  1.00  0.00     0.029 A 
ATOM     58  C   UNL A   1      43.564  31.311  29.146  1.00  0.00     0.049 A 
ATOM     59  H   UNL A   1      43.391  29.318  28.476  1.00  0.00     0.167 HD
ATOM     60  C   UNL A   1      45.756  30.823  28.107  1.00  0.00     0.074 A 
ATOM     61  C   UNL A   1      47.087  31.192  27.673  1.00  0.00     0.031 C 
ATOM     62  C   UNL A   1      44.906  31.657  28.756  1.00  0.00     0.034 A 
BRANCH  49  63
ATOM     63  C   UNL A   1      39.357  29.183  29.890  1.00  0.00     0.023 A 
ATOM     64  C   UNL A   1      39.057  28.773  31.206  1.00  0.00     0.012 A 
ATOM     65  C   UNL A   1      38.365  29.832  29.129  1.00  0.00     0.148 A 
ATOM     66  C   UNL A   1      37.785  28.970  31.741  1.00  0.00     0.002 A 
ATOM     67  C   UNL A   1      37.112  30.067  29.685  1.00  0.00     0.091 A 
ATOM     68  F   UNL A   1      38.661  30.203  27.875  1.00  0.00    -0.205 F 
ATOM     69  C   UNL A   1      36.817  29.625  30.986  1.00  0.00     0.022 A 
BRANCH  67  70
ATOM     70  S   UNL A   1      35.822  30.974  28.827  1.00  0.00     0.127 S 
ATOM     71  O   UNL A   1      35.162  29.907  28.074  1.00  0.00    -0.237 OA
ATOM     72  O   UNL A   1      35.034  31.514  29.936  1.00  0.00    -0.237 OA
ATOM     73  O   UNL A   1      36.502  31.977  28.020  1.00  0.00    -0.744 OA
ENDBRANCH  67  70
ENDBRANCH  49  63
BRANCH  50  74
ATOM     74  C   UNL A   1      48.343  27.591  25.864  1.00  0.00     0.023 A 
ATOM     75  C   UNL A   1      49.470  27.286  26.653  1.00  0.00     0.012 A 
ATOM     76  C   UNL A   1      48.486  27.671  24.466  1.00  0.00     0.148 A 
ATOM     77  C   UNL A   1      50.721  27.101  26.064  1.00  0.00     0.002 A 
ATOM     78  C   UNL A   1      49.722  27.426  23.881  1.00  0.00     0.091 A 
ATOM     79  F   UNL A   1      47.404  27.974  23.734  1.00  0.00    -0.205 F 
ATOM     80  C   UNL A   1      50.845  27.160  24.678  1.00  0.00     0.022 A 
BRANCH  78  81
ATOM     81  S   UNL A   1      49.952  27.354  22.101  1.00  0.00     0.127 S 
ATOM     82  O   UNL A   1      49.697  28.735  21.709  1.00  0.00    -0.237 OA
ATOM     83  O   UNL A   1      51.344  26.924  21.994  1.00  0.00    -0.237 OA
ATOM     84  O   UNL A   1      48.982  26.372  21.620  1.00  0.00    -0.744 OA
ENDBRANCH  78  81
ENDBRANCH  50  74
BRANCH  62  85
ATOM     85  C   UNL A   1      45.398  33.045  29.084  1.00  0.00     0.023 A 
ATOM     86  C   UNL A   1      46.051  33.292  30.309  1.00  0.00     0.012 A 
ATOM     87  C   UNL A   1      45.271  34.088  28.147  1.00  0.00     0.148 A 
ATOM     88  C   UNL A   1      46.538  34.564  30.608  1.00  0.00     0.002 A 
ATOM     89  C   UNL A   1      45.805  35.340  28.430  1.00  0.00     0.091 A 
ATOM     90  F   UNL A   1      44.631  33.839  26.994  1.00  0.00    -0.205 F 
ATOM     91  C   UNL A   1      46.427  35.583  29.666  1.00  0.00     0.022 A 
BRANCH  89  92
ATOM     92  S   UNL A   1      45.797  36.686  27.239  1.00  0.00     0.127 S 
ATOM     93  O   UNL A   1      44.367  36.955  27.106  1.00  0.00    -0.237 OA
ATOM     94  O   UNL A   1      46.550  37.724  27.942  1.00  0.00    -0.237 OA
ATOM     95  O   UNL A   1      46.448  36.170  26.043  1.00  0.00    -0.744 OA
ENDBRANCH  89  92
ENDBRANCH  62  85
ENDBRANCH  36  37
ENDBRANCH  28  31
ENDBRANCH  26  27
ENDBRANCH   1  26
TORSDOF 17
ENDMDL
