MODEL 1
REMARK VINA RESULT:     -13.0      0.000      0.000
REMARK SMILES CS(=O)(=O)c1ccc(/C=C(/C(=O)NCCCCNC(=O)c2ccc(-c3c4nc(c(-c5cccc(S(=O)(=O)[O-])c5F)c5ccc([nH]5)c(-c5cccc(S(=O)(=O)[O-])c5F)c5nc(c(-c6cccc(S(=O)(=O)[O-])c6F)c6ccc3[nH]6)C=C5)C=C4)cc2)c2ccc(-c3ccc(F)cc3F)cc2)cc1
REMARK SMILES IDX 16 1 15 2 14 3 13 4 11 5 12 6 10 8 9 9 8 10 5 11 6 12 99 13
REMARK SMILES IDX 7 14 98 15 2 16 1 17 3 18 4 19 84 20 85 21 97 22 86 23 96 24
REMARK SMILES IDX 87 25 88 26 89 27 94 28 90 29 93 30 95 31 91 32 92 33 17 34
REMARK SMILES IDX 18 35 19 36 20 38 21 39 22 40 83 41 23 42 82 43 24 44 25 45
REMARK SMILES IDX 26 46 76 47 27 48 81 49 75 50 77 51 28 52 80 53 74 54 73 55
REMARK SMILES IDX 29 57 61 58 41 59 60 60 42 61 45 62 59 63 78 64 43 65 44 66
REMARK SMILES IDX 58 68 79 69 46 70 30 71 31 72 39 73 32 74 34 75 40 76 33 77
REMARK SMILES IDX 35 78 36 79 37 80 38 81 62 82 63 83 71 84 64 85 66 86 72 87
REMARK SMILES IDX 65 88 67 89 68 90 69 91 70 92 47 93 48 94 56 95 49 96 51 97
REMARK SMILES IDX 57 98 50 99 52 100 53 101 54 102 55 103
REMARK H PARENT 13 7 18 37 77 56 45 67
REMARK Flexibility Score: inf
ROOT
ATOM      1  C   UNL A   1      35.612  22.817  25.510  1.00  0.00     0.023 C 
ENDROOT
BRANCH   1   2
ATOM      2  C   UNL A   1      34.714  23.709  24.643  1.00  0.00     0.023 C 
BRANCH   2   3
ATOM      3  C   UNL A   1      33.326  23.123  24.365  1.00  0.00     0.116 C 
BRANCH   3   4
ATOM      4  N   UNL A   1      32.585  22.982  25.600  1.00  0.00    -0.352 N 
ATOM      5  C   UNL A   1      31.769  23.805  26.309  1.00  0.00     0.251 C 
ATOM      6  O   UNL A   1      31.333  23.352  27.370  1.00  0.00    -0.269 OA
ATOM      7  H   UNL A   1      32.696  22.097  26.018  1.00  0.00     0.163 HD
BRANCH   5   8
ATOM      8  C   UNL A   1      31.324  25.171  25.824  1.00  0.00     0.047 C 
ATOM      9  C   UNL A   1      30.460  25.323  24.795  1.00  0.00     0.022 C 
BRANCH   9  10
ATOM     10  C   UNL A   1      29.816  26.547  24.270  1.00  0.00    -0.025 A 
ATOM     11  C   UNL A   1      28.791  28.882  23.105  1.00  0.00     0.067 A 
ATOM     12  C   UNL A   1      27.929  27.836  23.439  1.00  0.00     0.021 A 
ATOM     13  C   UNL A   1      30.155  28.790  23.375  1.00  0.00     0.021 A 
ATOM     14  C   UNL A   1      28.441  26.685  24.048  1.00  0.00     0.009 A 
ATOM     15  C   UNL A   1      30.660  27.627  23.960  1.00  0.00     0.009 A 
BRANCH  11  16
ATOM     16  S   UNL A   1      28.171  30.320  22.269  1.00  0.00     0.175 S 
ATOM     17  C   UNL A   1      29.475  31.505  22.466  1.00  0.00     0.163 C 
ATOM     18  O   UNL A   1      27.018  30.806  23.012  1.00  0.00    -0.224 OA
ATOM     19  O   UNL A   1      28.064  29.996  20.864  1.00  0.00    -0.224 OA
ENDBRANCH  11  16
ENDBRANCH   9  10
BRANCH   8  20
ATOM     20  C   UNL A   1      32.036  26.345  26.391  1.00  0.00    -0.013 A 
ATOM     21  C   UNL A   1      33.341  26.594  25.949  1.00  0.00     0.009 A 
ATOM     22  C   UNL A   1      31.443  27.254  27.271  1.00  0.00     0.009 A 
ATOM     23  C   UNL A   1      34.022  27.747  26.337  1.00  0.00     0.009 A 
ATOM     24  C   UNL A   1      32.120  28.428  27.636  1.00  0.00     0.009 A 
ATOM     25  C   UNL A   1      33.414  28.711  27.156  1.00  0.00    -0.015 A 
BRANCH  25  26
ATOM     26  C   UNL A   1      34.114  29.978  27.453  1.00  0.00     0.018 A 
ATOM     27  C   UNL A   1      33.397  31.193  27.488  1.00  0.00     0.015 A 
ATOM     28  C   UNL A   1      35.496  30.043  27.702  1.00  0.00     0.133 A 
ATOM     29  C   UNL A   1      34.035  32.410  27.736  1.00  0.00     0.040 A 
ATOM     30  C   UNL A   1      36.141  31.252  27.957  1.00  0.00     0.079 A 
ATOM     31  F   UNL A   1      36.243  28.929  27.689  1.00  0.00    -0.206 F 
ATOM     32  C   UNL A   1      35.404  32.426  27.965  1.00  0.00     0.126 A 
ATOM     33  F   UNL A   1      36.018  33.593  28.201  1.00  0.00    -0.207 F 
ENDBRANCH  25  26
ENDBRANCH   8  20
ENDBRANCH   5   8
ENDBRANCH   3   4
ENDBRANCH   2   3
ENDBRANCH   1   2
BRANCH   1  34
ATOM     34  C   UNL A   1      37.095  23.169  25.480  1.00  0.00     0.116 C 
BRANCH  34  35
ATOM     35  N   UNL A   1      37.954  22.040  25.812  1.00  0.00    -0.352 N 
ATOM     36  C   UNL A   1      39.203  22.066  26.384  1.00  0.00     0.251 C 
ATOM     37  H   UNL A   1      37.594  21.148  25.603  1.00  0.00     0.163 HD
ATOM     38  O   UNL A   1      39.853  21.032  26.506  1.00  0.00    -0.269 OA
BRANCH  36  39
ATOM     39  C   UNL A   1      39.765  23.362  26.811  1.00  0.00     0.039 A 
ATOM     40  C   UNL A   1      40.687  23.389  27.859  1.00  0.00     0.014 A 
ATOM     41  C   UNL A   1      39.426  24.534  26.129  1.00  0.00     0.014 A 
ATOM     42  C   UNL A   1      41.330  24.587  28.178  1.00  0.00     0.010 A 
ATOM     43  C   UNL A   1      40.111  25.710  26.409  1.00  0.00     0.010 A 
ATOM     44  C   UNL A   1      41.073  25.747  27.430  1.00  0.00    -0.014 A 
BRANCH  44  45
ATOM     45  C   UNL A   1      41.815  27.010  27.671  1.00  0.00     0.031 A 
ATOM     46  C   UNL A   1      43.251  27.129  27.244  1.00  0.00     0.074 A 
ATOM     47  C   UNL A   1      41.233  27.997  28.381  1.00  0.00     0.049 A 
ATOM     48  N   UNL A   1      44.099  28.098  27.469  1.00  0.00    -0.248 NA
ATOM     49  C   UNL A   1      43.818  25.996  26.493  1.00  0.00     0.031 C 
ATOM     50  C   UNL A   1      39.871  27.963  28.918  1.00  0.00     0.029 A 
ATOM     51  N   UNL A   1      41.727  29.204  28.806  1.00  0.00    -0.354 N 
ATOM     52  C   UNL A   1      45.307  27.676  26.929  1.00  0.00     0.074 A 
ATOM     53  C   UNL A   1      45.090  26.353  26.387  1.00  0.00     0.031 C 
ATOM     54  C   UNL A   1      39.641  29.093  29.606  1.00  0.00     0.029 A 
ATOM     55  C   UNL A   1      40.845  29.918  29.585  1.00  0.00     0.049 A 
ATOM     56  H   UNL A   1      42.627  29.529  28.577  1.00  0.00     0.167 HD
ATOM     57  C   UNL A   1      46.484  28.342  26.864  1.00  0.00     0.034 A 
ATOM     58  C   UNL A   1      40.993  31.098  30.218  1.00  0.00     0.034 A 
ATOM     59  C   UNL A   1      46.680  29.679  27.352  1.00  0.00     0.049 A 
ATOM     60  C   UNL A   1      42.295  31.840  30.084  1.00  0.00     0.074 A 
ATOM     61  C   UNL A   1      47.804  30.478  27.247  1.00  0.00     0.029 A 
ATOM     62  N   UNL A   1      45.728  30.416  28.040  1.00  0.00    -0.354 N 
ATOM     63  N   UNL A   1      43.377  31.495  29.427  1.00  0.00    -0.248 NA
ATOM     64  C   UNL A   1      42.388  33.149  30.747  1.00  0.00     0.031 C 
ATOM     65  C   UNL A   1      47.535  31.695  27.880  1.00  0.00     0.029 A 
ATOM     66  C   UNL A   1      46.239  31.659  28.368  1.00  0.00     0.049 A 
ATOM     67  H   UNL A   1      44.822  30.101  28.262  1.00  0.00     0.167 HD
ATOM     68  C   UNL A   1      44.263  32.556  29.567  1.00  0.00     0.074 A 
ATOM     69  C   UNL A   1      43.586  33.565  30.357  1.00  0.00     0.031 C 
ATOM     70  C   UNL A   1      45.529  32.678  29.099  1.00  0.00     0.034 A 
BRANCH  57  71
ATOM     71  C   UNL A   1      47.637  27.657  26.180  1.00  0.00     0.023 A 
ATOM     72  C   UNL A   1      48.495  26.831  26.933  1.00  0.00     0.012 A 
ATOM     73  C   UNL A   1      47.841  27.781  24.791  1.00  0.00     0.148 A 
ATOM     74  C   UNL A   1      49.559  26.167  26.324  1.00  0.00     0.002 A 
ATOM     75  C   UNL A   1      48.878  27.084  24.184  1.00  0.00     0.091 A 
ATOM     76  F   UNL A   1      47.029  28.591  24.095  1.00  0.00    -0.205 F 
ATOM     77  C   UNL A   1      49.743  26.285  24.949  1.00  0.00     0.022 A 
BRANCH  75  78
ATOM     78  S   UNL A   1      49.152  27.112  22.409  1.00  0.00     0.127 S 
ATOM     79  O   UNL A   1      50.611  27.052  22.335  1.00  0.00    -0.237 OA
ATOM     80  O   UNL A   1      48.468  25.894  21.970  1.00  0.00    -0.237 OA
ATOM     81  O   UNL A   1      48.549  28.348  21.932  1.00  0.00    -0.744 OA
ENDBRANCH  75  78
ENDBRANCH  57  71
BRANCH  58  82
ATOM     82  C   UNL A   1      39.850  31.686  30.973  1.00  0.00     0.023 A 
ATOM     83  C   UNL A   1      38.876  32.426  30.275  1.00  0.00     0.012 A 
ATOM     84  C   UNL A   1      39.701  31.489  32.360  1.00  0.00     0.148 A 
ATOM     85  C   UNL A   1      37.789  32.984  30.948  1.00  0.00     0.002 A 
ATOM     86  C   UNL A   1      38.588  32.003  33.015  1.00  0.00     0.091 A 
ATOM     87  F   UNL A   1      40.645  30.793  33.009  1.00  0.00    -0.205 F 
ATOM     88  C   UNL A   1      37.639  32.765  32.315  1.00  0.00     0.022 A 
BRANCH  86  89
ATOM     89  S   UNL A   1      38.247  31.657  34.745  1.00  0.00     0.127 S 
ATOM     90  O   UNL A   1      39.426  32.217  35.400  1.00  0.00    -0.237 OA
ATOM     91  O   UNL A   1      37.006  32.402  34.966  1.00  0.00    -0.237 OA
ATOM     92  O   UNL A   1      38.097  30.211  34.829  1.00  0.00    -0.744 OA
ENDBRANCH  86  89
ENDBRANCH  58  82
BRANCH  70  93
ATOM     93  C   UNL A   1      46.265  33.958  29.391  1.00  0.00     0.023 A 
ATOM     94  C   UNL A   1      47.081  34.047  30.534  1.00  0.00     0.012 A 
ATOM     95  C   UNL A   1      46.224  35.034  28.482  1.00  0.00     0.148 A 
ATOM     96  C   UNL A   1      47.829  35.197  30.783  1.00  0.00     0.002 A 
ATOM     97  C   UNL A   1      47.006  36.160  28.713  1.00  0.00     0.091 A 
ATOM     98  F   UNL A   1      45.425  34.935  27.409  1.00  0.00    -0.205 F 
ATOM     99  C   UNL A   1      47.802  36.247  29.866  1.00  0.00     0.022 A 
BRANCH  97 100
ATOM    100  S   UNL A   1      47.106  37.517  27.539  1.00  0.00     0.127 S 
ATOM    101  O   UNL A   1      48.095  38.387  28.175  1.00  0.00    -0.237 OA
ATOM    102  O   UNL A   1      47.575  36.846  26.326  1.00  0.00    -0.237 OA
ATOM    103  O   UNL A   1      45.760  38.064  27.444  1.00  0.00    -0.744 OA
ENDBRANCH  97 100
ENDBRANCH  70  93
ENDBRANCH  44  45
ENDBRANCH  36  39
ENDBRANCH  34  35
ENDBRANCH   1  34
TORSDOF 18
ENDMDL
MODEL 2
REMARK VINA RESULT:     -12.3      1.310      7.349
REMARK SMILES CS(=O)(=O)c1ccc(/C=C(/C(=O)NCCCCNC(=O)c2ccc(-c3c4nc(c(-c5cccc(S(=O)(=O)[O-])c5F)c5ccc([nH]5)c(-c5cccc(S(=O)(=O)[O-])c5F)c5nc(c(-c6cccc(S(=O)(=O)[O-])c6F)c6ccc3[nH]6)C=C5)C=C4)cc2)c2ccc(-c3ccc(F)cc3F)cc2)cc1
REMARK SMILES IDX 16 1 15 2 14 3 13 4 11 5 12 6 10 8 9 9 8 10 5 11 6 12 99 13
REMARK SMILES IDX 7 14 98 15 2 16 1 17 3 18 4 19 84 20 85 21 97 22 86 23 96 24
REMARK SMILES IDX 87 25 88 26 89 27 94 28 90 29 93 30 95 31 91 32 92 33 17 34
REMARK SMILES IDX 18 35 19 36 20 38 21 39 22 40 83 41 23 42 82 43 24 44 25 45
REMARK SMILES IDX 26 46 76 47 27 48 81 49 75 50 77 51 28 52 80 53 74 54 73 55
REMARK SMILES IDX 29 57 61 58 41 59 60 60 42 61 45 62 59 63 78 64 43 65 44 66
REMARK SMILES IDX 58 68 79 69 46 70 30 71 31 72 39 73 32 74 34 75 40 76 33 77
REMARK SMILES IDX 35 78 36 79 37 80 38 81 62 82 63 83 71 84 64 85 66 86 72 87
REMARK SMILES IDX 65 88 67 89 68 90 69 91 70 92 47 93 48 94 56 95 49 96 51 97
REMARK SMILES IDX 57 98 50 99 52 100 53 101 54 102 55 103
REMARK H PARENT 13 7 18 37 77 56 45 67
REMARK Flexibility Score: inf
ROOT
ATOM      1  C   UNL A   1      35.795  23.298  25.916  1.00  0.00     0.023 C 
ENDROOT
BRANCH   1   2
ATOM      2  C   UNL A   1      35.040  24.082  24.836  1.00  0.00     0.023 C 
BRANCH   2   3
ATOM      3  C   UNL A   1      33.638  23.545  24.533  1.00  0.00     0.116 C 
BRANCH   3   4
ATOM      4  N   UNL A   1      32.816  23.590  25.724  1.00  0.00    -0.352 N 
ATOM      5  C   UNL A   1      31.956  24.506  26.241  1.00  0.00     0.251 C 
ATOM      6  O   UNL A   1      31.449  24.218  27.328  1.00  0.00    -0.269 OA
ATOM      7  H   UNL A   1      32.897  22.781  26.280  1.00  0.00     0.163 HD
BRANCH   5   8
ATOM      8  C   UNL A   1      31.547  25.777  25.523  1.00  0.00     0.047 C 
ATOM      9  C   UNL A   1      30.699  25.767  24.469  1.00  0.00     0.022 C 
BRANCH   9  10
ATOM     10  C   UNL A   1      30.089  26.895  23.733  1.00  0.00    -0.025 A 
ATOM     11  C   UNL A   1      28.789  29.080  22.550  1.00  0.00     0.067 A 
ATOM     12  C   UNL A   1      30.162  28.905  22.365  1.00  0.00     0.021 A 
ATOM     13  C   UNL A   1      28.050  28.160  23.292  1.00  0.00     0.021 A 
ATOM     14  C   UNL A   1      30.800  27.796  22.932  1.00  0.00     0.009 A 
ATOM     15  C   UNL A   1      28.701  27.071  23.875  1.00  0.00     0.009 A 
BRANCH  11  16
ATOM     16  S   UNL A   1      27.975  30.516  21.897  1.00  0.00     0.175 S 
ATOM     17  C   UNL A   1      29.186  31.797  22.084  1.00  0.00     0.163 C 
ATOM     18  O   UNL A   1      26.859  30.833  22.775  1.00  0.00    -0.224 OA
ATOM     19  O   UNL A   1      27.765  30.295  20.483  1.00  0.00    -0.224 OA
ENDBRANCH  11  16
ENDBRANCH   9  10
BRANCH   8  20
ATOM     20  C   UNL A   1      32.277  27.016  25.892  1.00  0.00    -0.013 A 
ATOM     21  C   UNL A   1      31.706  27.848  26.862  1.00  0.00     0.009 A 
ATOM     22  C   UNL A   1      33.537  27.347  25.386  1.00  0.00     0.009 A 
ATOM     23  C   UNL A   1      32.394  28.956  27.353  1.00  0.00     0.009 A 
ATOM     24  C   UNL A   1      34.239  28.448  25.902  1.00  0.00     0.009 A 
ATOM     25  C   UNL A   1      33.692  29.260  26.914  1.00  0.00    -0.015 A 
BRANCH  25  26
ATOM     26  C   UNL A   1      34.442  30.370  27.537  1.00  0.00     0.018 A 
ATOM     27  C   UNL A   1      33.850  31.646  27.660  1.00  0.00     0.015 A 
ATOM     28  C   UNL A   1      35.753  30.225  28.022  1.00  0.00     0.133 A 
ATOM     29  C   UNL A   1      34.543  32.722  28.217  1.00  0.00     0.040 A 
ATOM     30  C   UNL A   1      36.452  31.291  28.585  1.00  0.00     0.079 A 
ATOM     31  F   UNL A   1      36.381  29.042  27.943  1.00  0.00    -0.206 F 
ATOM     32  C   UNL A   1      35.841  32.533  28.672  1.00  0.00     0.126 A 
ATOM     33  F   UNL A   1      36.508  33.565  29.205  1.00  0.00    -0.207 F 
ENDBRANCH  25  26
ENDBRANCH   8  20
ENDBRANCH   5   8
ENDBRANCH   3   4
ENDBRANCH   2   3
ENDBRANCH   1   2
BRANCH   1  34
ATOM     34  C   UNL A   1      37.300  23.536  25.954  1.00  0.00     0.116 C 
BRANCH  34  35
ATOM     35  N   UNL A   1      38.066  22.308  26.128  1.00  0.00    -0.352 N 
ATOM     36  C   UNL A   1      39.348  22.169  26.605  1.00  0.00     0.251 C 
ATOM     37  H   UNL A   1      37.609  21.475  25.874  1.00  0.00     0.163 HD
ATOM     38  O   UNL A   1      39.901  21.074  26.593  1.00  0.00    -0.269 OA
BRANCH  36  39
ATOM     39  C   UNL A   1      40.059  23.366  27.094  1.00  0.00     0.039 A 
ATOM     40  C   UNL A   1      41.013  23.222  28.103  1.00  0.00     0.014 A 
ATOM     41  C   UNL A   1      39.827  24.612  26.505  1.00  0.00     0.014 A 
ATOM     42  C   UNL A   1      41.792  24.321  28.475  1.00  0.00     0.010 A 
ATOM     43  C   UNL A   1      40.643  25.687  26.834  1.00  0.00     0.010 A 
ATOM     44  C   UNL A   1      41.637  25.551  27.816  1.00  0.00    -0.014 A 
BRANCH  44  45
ATOM     45  C   UNL A   1      42.519  26.708  28.110  1.00  0.00     0.031 A 
ATOM     46  C   UNL A   1      41.993  27.868  28.910  1.00  0.00     0.074 A 
ATOM     47  C   UNL A   1      43.745  26.767  27.555  1.00  0.00     0.049 A 
ATOM     48  N   UNL A   1      42.564  29.014  29.170  1.00  0.00    -0.248 NA
ATOM     49  C   UNL A   1      40.635  27.732  29.462  1.00  0.00     0.031 C 
ATOM     50  C   UNL A   1      44.334  25.738  26.694  1.00  0.00     0.029 A 
ATOM     51  N   UNL A   1      44.702  27.750  27.599  1.00  0.00    -0.354 N 
ATOM     52  C   UNL A   1      41.623  29.753  29.876  1.00  0.00     0.074 A 
ATOM     53  C   UNL A   1      40.435  28.935  29.982  1.00  0.00     0.031 C 
ATOM     54  C   UNL A   1      45.546  26.147  26.286  1.00  0.00     0.029 A 
ATOM     55  C   UNL A   1      45.810  27.476  26.831  1.00  0.00     0.049 A 
ATOM     56  H   UNL A   1      44.604  28.573  28.129  1.00  0.00     0.167 HD
ATOM     57  C   UNL A   1      41.747  30.989  30.413  1.00  0.00     0.034 A 
ATOM     58  C   UNL A   1      46.909  28.215  26.585  1.00  0.00     0.034 A 
ATOM     59  C   UNL A   1      42.949  31.775  30.355  1.00  0.00     0.049 A 
ATOM     60  C   UNL A   1      47.043  29.564  27.238  1.00  0.00     0.074 A 
ATOM     61  C   UNL A   1      43.209  32.995  30.950  1.00  0.00     0.029 A 
ATOM     62  N   UNL A   1      44.094  31.417  29.660  1.00  0.00    -0.354 N 
ATOM     63  N   UNL A   1      46.205  30.178  28.040  1.00  0.00    -0.248 NA
ATOM     64  C   UNL A   1      48.284  30.309  26.984  1.00  0.00     0.031 C 
ATOM     65  C   UNL A   1      44.508  33.381  30.606  1.00  0.00     0.029 A 
ATOM     66  C   UNL A   1      45.062  32.393  29.807  1.00  0.00     0.049 A 
ATOM     67  H   UNL A   1      44.201  30.589  29.137  1.00  0.00     0.167 HD
ATOM     68  C   UNL A   1      46.832  31.361  28.413  1.00  0.00     0.074 A 
ATOM     69  C   UNL A   1      48.128  31.370  27.764  1.00  0.00     0.031 C 
ATOM     70  C   UNL A   1      46.372  32.357  29.208  1.00  0.00     0.034 A 
BRANCH  57  71
ATOM     71  C   UNL A   1      40.570  31.543  31.170  1.00  0.00     0.023 A 
ATOM     72  C   UNL A   1      39.644  32.368  30.501  1.00  0.00     0.012 A 
ATOM     73  C   UNL A   1      40.346  31.206  32.520  1.00  0.00     0.148 A 
ATOM     74  C   UNL A   1      38.533  32.879  31.170  1.00  0.00     0.002 A 
ATOM     75  C   UNL A   1      39.215  31.685  33.169  1.00  0.00     0.091 A 
ATOM     76  F   UNL A   1      41.251  30.440  33.147  1.00  0.00    -0.205 F 
ATOM     77  C   UNL A   1      38.313  32.529  32.500  1.00  0.00     0.022 A 
BRANCH  75  78
ATOM     78  S   UNL A   1      38.804  31.231  34.858  1.00  0.00     0.127 S 
ATOM     79  O   UNL A   1      39.877  31.884  35.608  1.00  0.00    -0.237 OA
ATOM     80  O   UNL A   1      37.483  31.838  35.031  1.00  0.00    -0.237 OA
ATOM     81  O   UNL A   1      38.810  29.776  34.892  1.00  0.00    -0.744 OA
ENDBRANCH  75  78
ENDBRANCH  57  71
BRANCH  58  82
ATOM     82  C   UNL A   1      48.004  27.662  25.738  1.00  0.00     0.023 A 
ATOM     83  C   UNL A   1      47.913  27.780  24.338  1.00  0.00     0.012 A 
ATOM     84  C   UNL A   1      49.143  27.058  26.305  1.00  0.00     0.148 A 
ATOM     85  C   UNL A   1      48.923  27.281  23.515  1.00  0.00     0.002 A 
ATOM     86  C   UNL A   1      50.171  26.611  25.481  1.00  0.00     0.091 A 
ATOM     87  F   UNL A   1      49.206  26.944  27.639  1.00  0.00    -0.205 F 
ATOM     88  C   UNL A   1      50.056  26.706  24.085  1.00  0.00     0.022 A 
BRANCH  86  89
ATOM     89  S   UNL A   1      51.720  25.979  26.135  1.00  0.00     0.127 S 
ATOM     90  O   UNL A   1      52.496  25.768  24.917  1.00  0.00    -0.237 OA
ATOM     91  O   UNL A   1      52.174  27.092  26.971  1.00  0.00    -0.237 OA
ATOM     92  O   UNL A   1      51.366  24.780  26.882  1.00  0.00    -0.744 OA
ENDBRANCH  86  89
ENDBRANCH  58  82
BRANCH  70  93
ATOM     93  C   UNL A   1      47.278  33.533  29.457  1.00  0.00     0.023 A 
ATOM     94  C   UNL A   1      48.153  33.517  30.560  1.00  0.00     0.012 A 
ATOM     95  C   UNL A   1      47.330  34.606  28.545  1.00  0.00     0.148 A 
ATOM     96  C   UNL A   1      49.051  34.563  30.765  1.00  0.00     0.002 A 
ATOM     97  C   UNL A   1      48.259  35.622  28.731  1.00  0.00     0.091 A 
ATOM     98  F   UNL A   1      46.474  34.609  27.512  1.00  0.00    -0.205 F 
ATOM     99  C   UNL A   1      49.114  35.608  29.845  1.00  0.00     0.022 A 
BRANCH  97 100
ATOM    100  S   UNL A   1      48.474  36.956  27.546  1.00  0.00     0.127 S 
ATOM    101  O   UNL A   1      47.187  37.645  27.637  1.00  0.00    -0.237 OA
ATOM    102  O   UNL A   1      49.603  37.696  28.112  1.00  0.00    -0.237 OA
ATOM    103  O   UNL A   1      48.752  36.316  26.269  1.00  0.00    -0.744 OA
ENDBRANCH  97 100
ENDBRANCH  70  93
ENDBRANCH  44  45
ENDBRANCH  36  39
ENDBRANCH  34  35
ENDBRANCH   1  34
TORSDOF 18
ENDMDL
MODEL 3
REMARK VINA RESULT:     -11.7      4.974     11.372
REMARK SMILES CS(=O)(=O)c1ccc(/C=C(/C(=O)NCCCCNC(=O)c2ccc(-c3c4nc(c(-c5cccc(S(=O)(=O)[O-])c5F)c5ccc([nH]5)c(-c5cccc(S(=O)(=O)[O-])c5F)c5nc(c(-c6cccc(S(=O)(=O)[O-])c6F)c6ccc3[nH]6)C=C5)C=C4)cc2)c2ccc(-c3ccc(F)cc3F)cc2)cc1
REMARK SMILES IDX 16 1 15 2 14 3 13 4 11 5 12 6 10 8 9 9 8 10 5 11 6 12 99 13
REMARK SMILES IDX 7 14 98 15 2 16 1 17 3 18 4 19 84 20 85 21 97 22 86 23 96 24
REMARK SMILES IDX 87 25 88 26 89 27 94 28 90 29 93 30 95 31 91 32 92 33 17 34
REMARK SMILES IDX 18 35 19 36 20 38 21 39 22 40 83 41 23 42 82 43 24 44 25 45
REMARK SMILES IDX 26 46 76 47 27 48 81 49 75 50 77 51 28 52 80 53 74 54 73 55
REMARK SMILES IDX 29 57 61 58 41 59 60 60 42 61 45 62 59 63 78 64 43 65 44 66
REMARK SMILES IDX 58 68 79 69 46 70 30 71 31 72 39 73 32 74 34 75 40 76 33 77
REMARK SMILES IDX 35 78 36 79 37 80 38 81 62 82 63 83 71 84 64 85 66 86 72 87
REMARK SMILES IDX 65 88 67 89 68 90 69 91 70 92 47 93 48 94 56 95 49 96 51 97
REMARK SMILES IDX 57 98 50 99 52 100 53 101 54 102 55 103
REMARK H PARENT 13 7 18 37 77 56 45 67
REMARK Flexibility Score: inf
ROOT
ATOM      1  C   UNL A   1      34.704  33.629  29.991  1.00  0.00     0.023 C 
ENDROOT
BRANCH   1   2
ATOM      2  C   UNL A   1      34.501  32.624  31.132  1.00  0.00     0.023 C 
BRANCH   2   3
ATOM      3  C   UNL A   1      35.525  32.742  32.265  1.00  0.00     0.116 C 
BRANCH   3   4
ATOM      4  N   UNL A   1      36.615  33.607  31.866  1.00  0.00    -0.352 N 
ATOM      5  C   UNL A   1      37.777  33.992  32.456  1.00  0.00     0.251 C 
ATOM      6  O   UNL A   1      38.465  34.797  31.823  1.00  0.00    -0.269 OA
ATOM      7  H   UNL A   1      36.488  34.003  30.973  1.00  0.00     0.163 HD
BRANCH   5   8
ATOM      8  C   UNL A   1      38.281  33.428  33.771  1.00  0.00     0.047 C 
ATOM      9  C   UNL A   1      38.129  34.086  34.942  1.00  0.00     0.022 C 
BRANCH   9  10
ATOM     10  C   UNL A   1      38.430  33.649  36.322  1.00  0.00    -0.025 A 
ATOM     11  C   UNL A   1      39.050  33.067  38.994  1.00  0.00     0.067 A 
ATOM     12  C   UNL A   1      37.957  32.449  38.384  1.00  0.00     0.021 A 
ATOM     13  C   UNL A   1      39.857  33.949  38.277  1.00  0.00     0.021 A 
ATOM     14  C   UNL A   1      37.670  32.719  37.042  1.00  0.00     0.009 A 
ATOM     15  C   UNL A   1      39.547  34.231  36.945  1.00  0.00     0.009 A 
BRANCH  11  16
ATOM     16  S   UNL A   1      39.389  32.791  40.715  1.00  0.00     0.175 S 
ATOM     17  C   UNL A   1      41.152  32.620  40.764  1.00  0.00     0.163 C 
ATOM     18  O   UNL A   1      38.811  31.508  41.083  1.00  0.00    -0.224 OA
ATOM     19  O   UNL A   1      39.031  33.997  41.429  1.00  0.00    -0.224 OA
ENDBRANCH  11  16
ENDBRANCH   9  10
BRANCH   8  20
ATOM     20  C   UNL A   1      39.134  32.216  33.692  1.00  0.00    -0.013 A 
ATOM     21  C   UNL A   1      40.496  32.353  33.991  1.00  0.00     0.009 A 
ATOM     22  C   UNL A   1      38.636  30.939  33.421  1.00  0.00     0.009 A 
ATOM     23  C   UNL A   1      41.330  31.239  34.066  1.00  0.00     0.009 A 
ATOM     24  C   UNL A   1      39.473  29.816  33.526  1.00  0.00     0.009 A 
ATOM     25  C   UNL A   1      40.831  29.941  33.875  1.00  0.00    -0.015 A 
BRANCH  25  26
ATOM     26  C   UNL A   1      41.712  28.772  34.078  1.00  0.00     0.018 A 
ATOM     27  C   UNL A   1      42.535  28.314  33.027  1.00  0.00     0.015 A 
ATOM     28  C   UNL A   1      41.773  28.067  35.292  1.00  0.00     0.133 A 
ATOM     29  C   UNL A   1      43.357  27.195  33.178  1.00  0.00     0.040 A 
ATOM     30  C   UNL A   1      42.594  26.953  35.455  1.00  0.00     0.079 A 
ATOM     31  F   UNL A   1      41.022  28.445  36.337  1.00  0.00    -0.206 F 
ATOM     32  C   UNL A   1      43.374  26.524  34.393  1.00  0.00     0.126 A 
ATOM     33  F   UNL A   1      44.160  25.449  34.539  1.00  0.00    -0.207 F 
ENDBRANCH  25  26
ENDBRANCH   8  20
ENDBRANCH   5   8
ENDBRANCH   3   4
ENDBRANCH   2   3
ENDBRANCH   1   2
BRANCH   1  34
ATOM     34  C   UNL A   1      35.127  33.021  28.659  1.00  0.00     0.116 C 
BRANCH  34  35
ATOM     35  N   UNL A   1      34.213  31.986  28.191  1.00  0.00    -0.352 N 
ATOM     36  C   UNL A   1      34.486  30.662  27.948  1.00  0.00     0.251 C 
ATOM     37  H   UNL A   1      33.285  32.272  28.029  1.00  0.00     0.163 HD
ATOM     38  O   UNL A   1      33.634  29.932  27.450  1.00  0.00    -0.269 OA
BRANCH  36  39
ATOM     39  C   UNL A   1      35.832  30.143  28.259  1.00  0.00     0.039 A 
ATOM     40  C   UNL A   1      36.804  30.139  27.256  1.00  0.00     0.014 A 
ATOM     41  C   UNL A   1      36.144  29.726  29.555  1.00  0.00     0.014 A 
ATOM     42  C   UNL A   1      38.117  29.784  27.573  1.00  0.00     0.010 A 
ATOM     43  C   UNL A   1      37.462  29.431  29.881  1.00  0.00     0.010 A 
ATOM     44  C   UNL A   1      38.462  29.464  28.896  1.00  0.00    -0.014 A 
BRANCH  44  45
ATOM     45  C   UNL A   1      39.866  29.186  29.290  1.00  0.00     0.031 A 
ATOM     46  C   UNL A   1      40.719  30.287  29.855  1.00  0.00     0.074 A 
ATOM     47  C   UNL A   1      40.403  27.979  29.024  1.00  0.00     0.049 A 
ATOM     48  N   UNL A   1      41.992  30.275  30.146  1.00  0.00    -0.248 NA
ATOM     49  C   UNL A   1      40.059  31.582  30.094  1.00  0.00     0.031 C 
ATOM     50  C   UNL A   1      39.697  26.856  28.404  1.00  0.00     0.029 A 
ATOM     51  N   UNL A   1      41.679  27.508  29.206  1.00  0.00    -0.354 N 
ATOM     52  C   UNL A   1      42.298  31.565  30.560  1.00  0.00     0.074 A 
ATOM     53  C   UNL A   1      41.082  32.342  30.458  1.00  0.00     0.031 C 
ATOM     54  C   UNL A   1      40.550  25.830  28.250  1.00  0.00     0.029 A 
ATOM     55  C   UNL A   1      41.868  26.229  28.734  1.00  0.00     0.049 A 
ATOM     56  H   UNL A   1      42.393  28.034  29.634  1.00  0.00     0.167 HD
ATOM     57  C   UNL A   1      43.478  32.053  31.012  1.00  0.00     0.034 A 
ATOM     58  C   UNL A   1      42.979  25.469  28.686  1.00  0.00     0.034 A 
ATOM     59  C   UNL A   1      44.668  31.262  31.166  1.00  0.00     0.049 A 
ATOM     60  C   UNL A   1      44.264  26.018  29.244  1.00  0.00     0.074 A 
ATOM     61  C   UNL A   1      45.885  31.636  31.706  1.00  0.00     0.029 A 
ATOM     62  N   UNL A   1      44.792  29.937  30.779  1.00  0.00    -0.354 N 
ATOM     63  N   UNL A   1      44.494  27.192  29.784  1.00  0.00    -0.248 NA
ATOM     64  C   UNL A   1      45.436  25.131  29.220  1.00  0.00     0.031 C 
ATOM     65  C   UNL A   1      46.749  30.539  31.637  1.00  0.00     0.029 A 
ATOM     66  C   UNL A   1      46.065  29.478  31.065  1.00  0.00     0.049 A 
ATOM     67  H   UNL A   1      44.079  29.401  30.361  1.00  0.00     0.167 HD
ATOM     68  C   UNL A   1      45.821  27.170  30.195  1.00  0.00     0.074 A 
ATOM     69  C   UNL A   1      46.341  25.860  29.858  1.00  0.00     0.031 C 
ATOM     70  C   UNL A   1      46.549  28.151  30.783  1.00  0.00     0.034 A 
BRANCH  57  71
ATOM     71  C   UNL A   1      43.520  33.496  31.436  1.00  0.00     0.023 A 
ATOM     72  C   UNL A   1      43.476  33.815  32.808  1.00  0.00     0.012 A 
ATOM     73  C   UNL A   1      43.659  34.531  30.490  1.00  0.00     0.148 A 
ATOM     74  C   UNL A   1      43.534  35.142  33.232  1.00  0.00     0.002 A 
ATOM     75  C   UNL A   1      43.758  35.848  30.922  1.00  0.00     0.091 A 
ATOM     76  F   UNL A   1      43.674  34.210  29.188  1.00  0.00    -0.205 F 
ATOM     77  C   UNL A   1      43.686  36.156  32.291  1.00  0.00     0.022 A 
BRANCH  75  78
ATOM     78  S   UNL A   1      44.030  37.218  29.792  1.00  0.00     0.127 S 
ATOM     79  O   UNL A   1      42.935  37.037  28.841  1.00  0.00    -0.237 OA
ATOM     80  O   UNL A   1      43.887  38.379  30.672  1.00  0.00    -0.237 OA
ATOM     81  O   UNL A   1      45.368  37.030  29.253  1.00  0.00    -0.744 OA
ENDBRANCH  75  78
ENDBRANCH  57  71
BRANCH  58  82
ATOM     82  C   UNL A   1      42.907  24.077  28.157  1.00  0.00     0.023 A 
ATOM     83  C   UNL A   1      42.129  23.124  28.842  1.00  0.00     0.012 A 
ATOM     84  C   UNL A   1      43.567  23.703  26.971  1.00  0.00     0.148 A 
ATOM     85  C   UNL A   1      42.032  21.814  28.371  1.00  0.00     0.002 A 
ATOM     86  C   UNL A   1      43.423  22.410  26.479  1.00  0.00     0.091 A 
ATOM     87  F   UNL A   1      44.313  24.620  26.340  1.00  0.00    -0.205 F 
ATOM     88  C   UNL A   1      42.670  21.459  27.186  1.00  0.00     0.022 A 
BRANCH  86  89
ATOM     89  S   UNL A   1      44.100  21.905  24.892  1.00  0.00     0.127 S 
ATOM     90  O   UNL A   1      43.741  20.491  24.850  1.00  0.00    -0.237 OA
ATOM     91  O   UNL A   1      43.359  22.758  23.961  1.00  0.00    -0.237 OA
ATOM     92  O   UNL A   1      45.524  22.200  24.967  1.00  0.00    -0.744 OA
ENDBRANCH  86  89
ENDBRANCH  58  82
BRANCH  70  93
ATOM     93  C   UNL A   1      47.980  27.847  31.138  1.00  0.00     0.023 A 
ATOM     94  C   UNL A   1      48.287  27.324  32.408  1.00  0.00     0.012 A 
ATOM     95  C   UNL A   1      49.003  27.989  30.179  1.00  0.00     0.148 A 
ATOM     96  C   UNL A   1      49.596  26.967  32.729  1.00  0.00     0.002 A 
ATOM     97  C   UNL A   1      50.297  27.589  30.490  1.00  0.00     0.091 A 
ATOM     98  F   UNL A   1      48.691  28.507  28.982  1.00  0.00    -0.205 F 
ATOM     99  C   UNL A   1      50.597  27.087  31.766  1.00  0.00     0.022 A 
BRANCH  97 100
ATOM    100  S   UNL A   1      51.628  27.619  29.283  1.00  0.00     0.127 S 
ATOM    101  O   UNL A   1      51.199  26.585  28.342  1.00  0.00    -0.237 OA
ATOM    102  O   UNL A   1      51.549  28.985  28.766  1.00  0.00    -0.237 OA
ATOM    103  O   UNL A   1      52.847  27.324  30.024  1.00  0.00    -0.744 OA
ENDBRANCH  97 100
ENDBRANCH  70  93
ENDBRANCH  44  45
ENDBRANCH  36  39
ENDBRANCH  34  35
ENDBRANCH   1  34
TORSDOF 18
ENDMDL
