MODEL 1
REMARK VINA RESULT:     -11.0      0.000      0.000
REMARK SMILES CC(C)C[C@H](NC(=O)[C@@H](NC(=O)[C@H](C)NC(=O)CNC(=O)OCc1ccccc1)C(C)C)C(=O)NCCCCNC(=O)c1ccc(-c2c3nc(c(-c4cccc(S(=O)(=O)[O-])c4F)c4ccc([nH]4)c(-c4cccc(S(=O)(=O)[O-])c4F)c4nc(c(-c5cccc(S(=O)(=O)[O-])c5F)c5ccc2[nH]5)C=C4)C=C3)cc1
REMARK SMILES IDX 5 1 4 2 2 3 1 4 3 5 33 6 34 7 35 8 36 10 37 11 38 12 39 13
REMARK SMILES IDX 40 14 41 15 42 17 43 18 44 19 105 20 45 21 104 22 46 23
REMARK SMILES IDX 47 24 48 25 98 26 49 27 103 28 97 29 99 30 50 31 102 32
REMARK SMILES IDX 96 33 95 34 51 36 83 37 63 38 82 39 64 40 67 41 81 42 100 43
REMARK SMILES IDX 65 44 66 45 80 47 101 48 68 49 52 50 53 51 61 52 54 53 56 54
REMARK SMILES IDX 62 55 55 56 57 57 58 58 59 59 60 60 84 61 85 62 93 63 86 64
REMARK SMILES IDX 88 65 94 66 87 67 89 68 90 69 91 70 92 71 69 72 70 73 78 74
REMARK SMILES IDX 71 75 73 76 79 77 72 78 74 79 75 80 76 81 77 82 6 83 7 84
REMARK SMILES IDX 8 86 9 87 10 88 11 89 12 91 13 92 14 93 15 94 16 95 17 97
REMARK SMILES IDX 18 98 19 99 20 100 21 102 22 103 23 104 24 105 25 106 29 107
REMARK SMILES IDX 26 108 28 109 27 110 30 111 31 112 32 113
REMARK H PARENT 35 9 40 16 99 35 67 46 6 85 10 90 15 96 19 101
REMARK Flexibility Score: inf
ROOT
ATOM      1  C   UNL A   1      31.646  28.918  24.199  1.00  0.00     0.171 C 
ENDROOT
BRANCH   1   2
ATOM      2  C   UNL A   1      30.679  30.014  23.667  1.00  0.00     0.038 C 
BRANCH   2   3
ATOM      3  C   UNL A   1      29.137  29.727  23.616  1.00  0.00    -0.015 C 
ATOM      4  C   UNL A   1      28.418  30.997  23.292  1.00  0.00     0.007 C 
ATOM      5  C   UNL A   1      28.674  28.762  22.530  1.00  0.00     0.007 C 
ENDBRANCH   2   3
ENDBRANCH   1   2
BRANCH   1   6
ATOM      6  C   UNL A   1      33.205  29.205  24.284  1.00  0.00     0.242 C 
ATOM      7  O   UNL A   1      33.944  28.842  23.363  1.00  0.00    -0.273 OA
ATOM      8  N   UNL A   1      33.790  29.727  25.443  1.00  0.00    -0.354 N 
ATOM      9  H   UNL A   1      34.763  29.871  25.421  1.00  0.00     0.163 HD
BRANCH   8  10
ATOM     10  C   UNL A   1      33.109  30.080  26.675  1.00  0.00     0.116 C 
BRANCH  10  11
ATOM     11  C   UNL A   1      31.654  30.523  26.779  1.00  0.00     0.023 C 
BRANCH  11  12
ATOM     12  C   UNL A   1      31.300  31.996  26.966  1.00  0.00     0.023 C 
BRANCH  12  13
ATOM     13  C   UNL A   1      32.335  33.075  26.672  1.00  0.00     0.116 C 
BRANCH  13  14
ATOM     14  N   UNL A   1      32.415  34.196  27.604  1.00  0.00    -0.352 N 
ATOM     15  C   UNL A   1      33.454  34.580  28.431  1.00  0.00     0.251 C 
ATOM     16  H   UNL A   1      31.611  34.763  27.651  1.00  0.00     0.163 HD
ATOM     17  O   UNL A   1      33.406  35.643  29.044  1.00  0.00    -0.269 OA
BRANCH  15  18
ATOM     18  C   UNL A   1      34.573  33.650  28.677  1.00  0.00     0.039 A 
ATOM     19  C   UNL A   1      35.866  34.143  28.485  1.00  0.00     0.014 A 
ATOM     20  C   UNL A   1      34.371  32.381  29.217  1.00  0.00     0.014 A 
ATOM     21  C   UNL A   1      36.955  33.427  28.978  1.00  0.00     0.010 A 
ATOM     22  C   UNL A   1      35.448  31.716  29.797  1.00  0.00     0.010 A 
ATOM     23  C   UNL A   1      36.746  32.247  29.710  1.00  0.00    -0.014 A 
BRANCH  23  24
ATOM     24  C   UNL A   1      37.868  31.602  30.440  1.00  0.00     0.031 A 
ATOM     25  C   UNL A   1      38.700  30.544  29.774  1.00  0.00     0.074 A 
ATOM     26  C   UNL A   1      38.085  31.914  31.736  1.00  0.00     0.049 A 
ATOM     27  N   UNL A   1      39.699  29.857  30.260  1.00  0.00    -0.248 NA
ATOM     28  C   UNL A   1      38.351  30.195  28.386  1.00  0.00     0.031 C 
ATOM     29  C   UNL A   1      37.293  32.864  32.524  1.00  0.00     0.029 A 
ATOM     30  N   UNL A   1      39.023  31.454  32.626  1.00  0.00    -0.354 N 
ATOM     31  C   UNL A   1      40.073  28.970  29.258  1.00  0.00     0.074 A 
ATOM     32  C   UNL A   1      39.172  29.183  28.148  1.00  0.00     0.031 C 
ATOM     33  C   UNL A   1      37.789  32.927  33.770  1.00  0.00     0.029 A 
ATOM     34  C   UNL A   1      38.909  31.999  33.886  1.00  0.00     0.049 A 
ATOM     35  H   UNL A   1      39.715  30.795  32.387  1.00  0.00     0.167 HD
ATOM     36  C   UNL A   1      41.093  28.081  29.250  1.00  0.00     0.034 A 
ATOM     37  C   UNL A   1      39.620  31.773  35.009  1.00  0.00     0.034 A 
ATOM     38  C   UNL A   1      42.010  27.898  30.343  1.00  0.00     0.049 A 
ATOM     39  C   UNL A   1      40.767  30.799  34.961  1.00  0.00     0.074 A 
ATOM     40  C   UNL A   1      43.131  27.089  30.396  1.00  0.00     0.029 A 
ATOM     41  N   UNL A   1      41.906  28.519  31.577  1.00  0.00    -0.354 N 
ATOM     42  N   UNL A   1      41.209  30.094  33.949  1.00  0.00    -0.248 NA
ATOM     43  C   UNL A   1      41.535  30.615  36.201  1.00  0.00     0.031 C 
ATOM     44  C   UNL A   1      43.683  27.193  31.677  1.00  0.00     0.029 A 
ATOM     45  C   UNL A   1      42.930  28.098  32.407  1.00  0.00     0.049 A 
ATOM     46  H   UNL A   1      41.205  29.164  31.827  1.00  0.00     0.167 HD
ATOM     47  C   UNL A   1      42.329  29.416  34.416  1.00  0.00     0.074 A 
ATOM     48  C   UNL A   1      42.508  29.810  35.799  1.00  0.00     0.031 C 
ATOM     49  C   UNL A   1      43.128  28.536  33.764  1.00  0.00     0.034 A 
BRANCH  36  50
ATOM     50  C   UNL A   1      41.296  27.262  28.004  1.00  0.00     0.023 A 
ATOM     51  C   UNL A   1      41.895  27.849  26.870  1.00  0.00     0.012 A 
ATOM     52  C   UNL A   1      40.947  25.898  27.972  1.00  0.00     0.148 A 
ATOM     53  C   UNL A   1      42.110  27.104  25.713  1.00  0.00     0.002 A 
ATOM     54  C   UNL A   1      41.209  25.148  26.831  1.00  0.00     0.091 A 
ATOM     55  F   UNL A   1      40.359  25.363  29.051  1.00  0.00    -0.205 F 
ATOM     56  C   UNL A   1      41.777  25.752  25.696  1.00  0.00     0.022 A 
BRANCH  54  57
ATOM     57  S   UNL A   1      40.898  23.382  26.740  1.00  0.00     0.127 S 
ATOM     58  O   UNL A   1      41.450  22.920  28.013  1.00  0.00    -0.237 OA
ATOM     59  O   UNL A   1      39.437  23.333  26.656  1.00  0.00    -0.237 OA
ATOM     60  O   UNL A   1      41.592  22.911  25.551  1.00  0.00    -0.744 OA
ENDBRANCH  54  57
ENDBRANCH  36  50
BRANCH  37  61
ATOM     61  C   UNL A   1      39.310  32.525  36.259  1.00  0.00     0.023 A 
ATOM     62  C   UNL A   1      38.328  32.031  37.141  1.00  0.00     0.012 A 
ATOM     63  C   UNL A   1      39.985  33.718  36.585  1.00  0.00     0.148 A 
ATOM     64  C   UNL A   1      37.996  32.730  38.302  1.00  0.00     0.002 A 
ATOM     65  C   UNL A   1      39.690  34.379  37.772  1.00  0.00     0.091 A 
ATOM     66  F   UNL A   1      40.909  34.178  35.730  1.00  0.00    -0.205 F 
ATOM     67  C   UNL A   1      38.682  33.899  38.622  1.00  0.00     0.022 A 
BRANCH  65  68
ATOM     68  S   UNL A   1      40.611  35.816  38.330  1.00  0.00     0.127 S 
ATOM     69  O   UNL A   1      41.926  35.577  37.741  1.00  0.00    -0.237 OA
ATOM     70  O   UNL A   1      39.855  36.913  37.725  1.00  0.00    -0.237 OA
ATOM     71  O   UNL A   1      40.554  35.780  39.786  1.00  0.00    -0.744 OA
ENDBRANCH  65  68
ENDBRANCH  37  61
BRANCH  49  72
ATOM     72  C   UNL A   1      44.305  27.969  34.515  1.00  0.00     0.023 A 
ATOM     73  C   UNL A   1      45.526  28.671  34.549  1.00  0.00     0.012 A 
ATOM     74  C   UNL A   1      44.174  26.774  35.250  1.00  0.00     0.148 A 
ATOM     75  C   UNL A   1      46.608  28.175  35.275  1.00  0.00     0.002 A 
ATOM     76  C   UNL A   1      45.239  26.315  36.015  1.00  0.00     0.091 A 
ATOM     77  F   UNL A   1      43.010  26.112  35.191  1.00  0.00    -0.205 F 
ATOM     78  C   UNL A   1      46.461  27.006  36.017  1.00  0.00     0.022 A 
BRANCH  76  79
ATOM     79  S   UNL A   1      45.109  24.874  37.081  1.00  0.00     0.127 S 
ATOM     80  O   UNL A   1      46.462  24.785  37.627  1.00  0.00    -0.237 OA
ATOM     81  O   UNL A   1      44.089  25.293  38.042  1.00  0.00    -0.237 OA
ATOM     82  O   UNL A   1      44.710  23.771  36.218  1.00  0.00    -0.744 OA
ENDBRANCH  76  79
ENDBRANCH  49  72
ENDBRANCH  23  24
ENDBRANCH  15  18
ENDBRANCH  13  14
ENDBRANCH  12  13
ENDBRANCH  11  12
ENDBRANCH  10  11
ENDBRANCH   8  10
ENDBRANCH   1   6
BRANCH   1  83
ATOM     83  N   UNL A   1      31.064  28.218  25.300  1.00  0.00    -0.343 N 
ATOM     84  C   UNL A   1      31.198  26.932  25.687  1.00  0.00     0.243 C 
ATOM     85  H   UNL A   1      30.471  28.761  25.868  1.00  0.00     0.164 HD
ATOM     86  O   UNL A   1      30.532  26.660  26.695  1.00  0.00    -0.273 OA
BRANCH  84  87
ATOM     87  C   UNL A   1      32.030  25.814  24.908  1.00  0.00     0.174 C 
BRANCH  87  88
ATOM     88  N   UNL A   1      33.081  24.912  25.580  1.00  0.00    -0.342 N 
ATOM     89  C   UNL A   1      34.168  24.102  25.587  1.00  0.00     0.242 C 
ATOM     90  H   UNL A   1      32.818  24.936  26.528  1.00  0.00     0.164 HD
ATOM     91  O   UNL A   1      34.488  23.866  26.771  1.00  0.00    -0.273 OA
BRANCH  89  92
ATOM     92  C   UNL A   1      34.960  23.292  24.460  1.00  0.00     0.168 C 
ATOM     93  C   UNL A   1      36.462  23.650  24.565  1.00  0.00     0.041 C 
BRANCH  92  94
ATOM     94  N   UNL A   1      34.572  23.460  23.052  1.00  0.00    -0.343 N 
ATOM     95  C   UNL A   1      33.612  22.883  22.265  1.00  0.00     0.240 C 
ATOM     96  H   UNL A   1      35.117  24.126  22.575  1.00  0.00     0.164 HD
ATOM     97  O   UNL A   1      33.640  23.217  21.071  1.00  0.00    -0.273 OA
BRANCH  95  98
ATOM     98  C   UNL A   1      32.413  22.007  22.752  1.00  0.00     0.219 C 
BRANCH  98  99
ATOM     99  N   UNL A   1      31.834  22.303  24.048  1.00  0.00    -0.312 N 
ATOM    100  C   UNL A   1      31.474  21.523  25.097  1.00  0.00     0.407 C 
ATOM    101  H   UNL A   1      31.671  23.262  24.196  1.00  0.00     0.167 HD
ATOM    102  O   UNL A   1      30.962  22.065  26.084  1.00  0.00    -0.225 OA
BRANCH 100 103
ATOM    103  O   UNL A   1      31.707  20.194  24.995  1.00  0.00    -0.445 OA
BRANCH 103 104
ATOM    104  C   UNL A   1      33.060  19.849  24.610  1.00  0.00     0.270 C 
BRANCH 104 105
ATOM    105  C   UNL A   1      33.427  18.391  24.777  1.00  0.00    -0.011 A 
ATOM    106  C   UNL A   1      32.562  17.516  25.461  1.00  0.00     0.007 A 
ATOM    107  C   UNL A   1      34.676  17.910  24.371  1.00  0.00     0.007 A 
ATOM    108  C   UNL A   1      32.938  16.195  25.718  1.00  0.00     0.000 A 
ATOM    109  C   UNL A   1      35.051  16.591  24.629  1.00  0.00     0.000 A 
ATOM    110  C   UNL A   1      34.184  15.733  25.302  1.00  0.00     0.000 A 
ENDBRANCH 104 105
ENDBRANCH 103 104
ENDBRANCH 100 103
ENDBRANCH  98  99
ENDBRANCH  95  98
ENDBRANCH  92  94
ENDBRANCH  89  92
ENDBRANCH  87  88
BRANCH  87 111
ATOM    111  C   UNL A   1      31.340  25.320  23.594  1.00  0.00     0.015 C 
ATOM    112  C   UNL A   1      29.800  25.417  23.597  1.00  0.00     0.010 C 
ATOM    113  C   UNL A   1      31.859  26.092  22.381  1.00  0.00     0.010 C 
ENDBRANCH  87 111
ENDBRANCH  84  87
ENDBRANCH   1  83
TORSDOF 27
ENDMDL
MODEL 2
REMARK VINA RESULT:     -11.0      1.659      2.677
REMARK SMILES CC(C)C[C@H](NC(=O)[C@@H](NC(=O)[C@H](C)NC(=O)CNC(=O)OCc1ccccc1)C(C)C)C(=O)NCCCCNC(=O)c1ccc(-c2c3nc(c(-c4cccc(S(=O)(=O)[O-])c4F)c4ccc([nH]4)c(-c4cccc(S(=O)(=O)[O-])c4F)c4nc(c(-c5cccc(S(=O)(=O)[O-])c5F)c5ccc2[nH]5)C=C4)C=C3)cc1
REMARK SMILES IDX 5 1 4 2 2 3 1 4 3 5 33 6 34 7 35 8 36 10 37 11 38 12 39 13
REMARK SMILES IDX 40 14 41 15 42 17 43 18 44 19 105 20 45 21 104 22 46 23
REMARK SMILES IDX 47 24 48 25 98 26 49 27 103 28 97 29 99 30 50 31 102 32
REMARK SMILES IDX 96 33 95 34 51 36 83 37 63 38 82 39 64 40 67 41 81 42 100 43
REMARK SMILES IDX 65 44 66 45 80 47 101 48 68 49 52 50 53 51 61 52 54 53 56 54
REMARK SMILES IDX 62 55 55 56 57 57 58 58 59 59 60 60 84 61 85 62 93 63 86 64
REMARK SMILES IDX 88 65 94 66 87 67 89 68 90 69 91 70 92 71 69 72 70 73 78 74
REMARK SMILES IDX 71 75 73 76 79 77 72 78 74 79 75 80 76 81 77 82 6 83 7 84
REMARK SMILES IDX 8 86 9 87 10 88 11 89 12 91 13 92 14 93 15 94 16 95 17 97
REMARK SMILES IDX 18 98 19 99 20 100 21 102 22 103 23 104 24 105 25 106 29 107
REMARK SMILES IDX 26 108 28 109 27 110 30 111 31 112 32 113
REMARK H PARENT 35 9 40 16 99 35 67 46 6 85 10 90 15 96 19 101
REMARK Flexibility Score: inf
ROOT
ATOM      1  C   UNL A   1      31.477  27.912  24.506  1.00  0.00     0.171 C 
ENDROOT
BRANCH   1   2
ATOM      2  C   UNL A   1      30.087  27.956  23.810  1.00  0.00     0.038 C 
BRANCH   2   3
ATOM      3  C   UNL A   1      29.491  29.337  23.362  1.00  0.00    -0.015 C 
ATOM      4  C   UNL A   1      29.956  29.637  21.973  1.00  0.00     0.007 C 
ATOM      5  C   UNL A   1      27.972  29.406  23.258  1.00  0.00     0.007 C 
ENDBRANCH   2   3
ENDBRANCH   1   2
BRANCH   1   6
ATOM      6  C   UNL A   1      32.670  28.808  23.961  1.00  0.00     0.242 C 
ATOM      7  O   UNL A   1      33.224  28.506  22.899  1.00  0.00    -0.273 OA
ATOM      8  N   UNL A   1      33.211  29.848  24.725  1.00  0.00    -0.354 N 
ATOM      9  H   UNL A   1      33.953  30.353  24.320  1.00  0.00     0.163 HD
BRANCH   8  10
ATOM     10  C   UNL A   1      32.792  30.260  26.052  1.00  0.00     0.116 C 
BRANCH  10  11
ATOM     11  C   UNL A   1      31.426  30.842  26.399  1.00  0.00     0.023 C 
BRANCH  11  12
ATOM     12  C   UNL A   1      31.247  32.345  26.590  1.00  0.00     0.023 C 
BRANCH  12  13
ATOM     13  C   UNL A   1      32.465  33.251  26.719  1.00  0.00     0.116 C 
BRANCH  13  14
ATOM     14  N   UNL A   1      32.444  34.253  27.781  1.00  0.00    -0.352 N 
ATOM     15  C   UNL A   1      33.406  34.550  28.729  1.00  0.00     0.251 C 
ATOM     16  H   UNL A   1      31.625  34.797  27.830  1.00  0.00     0.163 HD
ATOM     17  O   UNL A   1      33.283  35.531  29.458  1.00  0.00    -0.269 OA
BRANCH  15  18
ATOM     18  C   UNL A   1      34.525  33.615  28.951  1.00  0.00     0.039 A 
ATOM     19  C   UNL A   1      35.811  34.078  28.659  1.00  0.00     0.014 A 
ATOM     20  C   UNL A   1      34.340  32.376  29.563  1.00  0.00     0.014 A 
ATOM     21  C   UNL A   1      36.918  33.369  29.120  1.00  0.00     0.010 A 
ATOM     22  C   UNL A   1      35.441  31.722  30.109  1.00  0.00     0.010 A 
ATOM     23  C   UNL A   1      36.738  32.228  29.919  1.00  0.00    -0.014 A 
BRANCH  23  24
ATOM     24  C   UNL A   1      37.894  31.601  30.610  1.00  0.00     0.031 A 
ATOM     25  C   UNL A   1      38.712  30.546  29.920  1.00  0.00     0.074 A 
ATOM     26  C   UNL A   1      38.156  31.925  31.895  1.00  0.00     0.049 A 
ATOM     27  N   UNL A   1      39.736  29.873  30.374  1.00  0.00    -0.248 NA
ATOM     28  C   UNL A   1      38.314  30.183  28.550  1.00  0.00     0.031 C 
ATOM     29  C   UNL A   1      37.385  32.871  32.706  1.00  0.00     0.029 A 
ATOM     30  N   UNL A   1      39.132  31.480  32.752  1.00  0.00    -0.354 N 
ATOM     31  C   UNL A   1      40.081  28.983  29.365  1.00  0.00     0.074 A 
ATOM     32  C   UNL A   1      39.136  29.179  28.288  1.00  0.00     0.031 C 
ATOM     33  C   UNL A   1      37.926  32.949  33.932  1.00  0.00     0.029 A 
ATOM     34  C   UNL A   1      39.060  32.034  34.011  1.00  0.00     0.049 A 
ATOM     35  H   UNL A   1      39.822  30.827  32.492  1.00  0.00     0.167 HD
ATOM     36  C   UNL A   1      41.109  28.104  29.324  1.00  0.00     0.034 A 
ATOM     37  C   UNL A   1      39.815  31.823  35.108  1.00  0.00     0.034 A 
ATOM     38  C   UNL A   1      42.069  27.939  30.382  1.00  0.00     0.049 A 
ATOM     39  C   UNL A   1      40.970  30.862  35.024  1.00  0.00     0.074 A 
ATOM     40  C   UNL A   1      43.200  27.142  30.399  1.00  0.00     0.029 A 
ATOM     41  N   UNL A   1      42.004  28.568  31.616  1.00  0.00    -0.354 N 
ATOM     42  N   UNL A   1      41.381  30.154  34.001  1.00  0.00    -0.248 NA
ATOM     43  C   UNL A   1      41.786  30.695  36.236  1.00  0.00     0.031 C 
ATOM     44  C   UNL A   1      43.798  27.261  31.657  1.00  0.00     0.029 A 
ATOM     45  C   UNL A   1      43.064  28.165  32.409  1.00  0.00     0.049 A 
ATOM     46  H   UNL A   1      41.307  29.207  31.888  1.00  0.00     0.167 HD
ATOM     47  C   UNL A   1      42.525  29.491  34.430  1.00  0.00     0.074 A 
ATOM     48  C   UNL A   1      42.752  29.897  35.802  1.00  0.00     0.031 C 
ATOM     49  C   UNL A   1      43.309  28.615  33.754  1.00  0.00     0.034 A 
BRANCH  36  50
ATOM     50  C   UNL A   1      41.274  27.278  28.077  1.00  0.00     0.023 A 
ATOM     51  C   UNL A   1      41.812  27.867  26.913  1.00  0.00     0.012 A 
ATOM     52  C   UNL A   1      40.950  25.907  28.071  1.00  0.00     0.148 A 
ATOM     53  C   UNL A   1      41.990  27.115  25.754  1.00  0.00     0.002 A 
ATOM     54  C   UNL A   1      41.177  25.153  26.926  1.00  0.00     0.091 A 
ATOM     55  F   UNL A   1      40.421  25.371  29.179  1.00  0.00    -0.205 F 
ATOM     56  C   UNL A   1      41.684  25.757  25.763  1.00  0.00     0.022 A 
BRANCH  54  57
ATOM     57  S   UNL A   1      40.897  23.380  26.863  1.00  0.00     0.127 S 
ATOM     58  O   UNL A   1      41.658  22.921  28.024  1.00  0.00    -0.237 OA
ATOM     59  O   UNL A   1      39.443  23.295  27.016  1.00  0.00    -0.237 OA
ATOM     60  O   UNL A   1      41.400  22.938  25.571  1.00  0.00    -0.744 OA
ENDBRANCH  54  57
ENDBRANCH  36  50
BRANCH  37  61
ATOM     61  C   UNL A   1      39.545  32.582  36.364  1.00  0.00     0.023 A 
ATOM     62  C   UNL A   1      40.240  33.782  36.614  1.00  0.00     0.012 A 
ATOM     63  C   UNL A   1      38.601  32.128  37.308  1.00  0.00     0.148 A 
ATOM     64  C   UNL A   1      40.029  34.495  37.795  1.00  0.00     0.002 A 
ATOM     65  C   UNL A   1      38.356  32.873  38.455  1.00  0.00     0.091 A 
ATOM     66  F   UNL A   1      37.958  30.979  37.059  1.00  0.00    -0.205 F 
ATOM     67  C   UNL A   1      39.082  34.047  38.711  1.00  0.00     0.022 A 
BRANCH  65  68
ATOM     68  S   UNL A   1      37.063  32.444  39.625  1.00  0.00     0.127 S 
ATOM     69  O   UNL A   1      37.227  33.475  40.646  1.00  0.00    -0.237 OA
ATOM     70  O   UNL A   1      35.858  32.574  38.805  1.00  0.00    -0.237 OA
ATOM     71  O   UNL A   1      37.353  31.080  40.051  1.00  0.00    -0.744 OA
ENDBRANCH  65  68
ENDBRANCH  37  61
BRANCH  49  72
ATOM     72  C   UNL A   1      44.519  28.065  34.464  1.00  0.00     0.023 A 
ATOM     73  C   UNL A   1      45.742  28.763  34.418  1.00  0.00     0.012 A 
ATOM     74  C   UNL A   1      44.421  26.894  35.241  1.00  0.00     0.148 A 
ATOM     75  C   UNL A   1      46.857  28.285  35.105  1.00  0.00     0.002 A 
ATOM     76  C   UNL A   1      45.520  26.453  35.967  1.00  0.00     0.091 A 
ATOM     77  F   UNL A   1      43.254  26.234  35.258  1.00  0.00    -0.205 F 
ATOM     78  C   UNL A   1      46.743  27.139  35.889  1.00  0.00     0.022 A 
BRANCH  76  79
ATOM     79  S   UNL A   1      45.439  25.045  37.080  1.00  0.00     0.127 S 
ATOM     80  O   UNL A   1      45.567  23.924  36.152  1.00  0.00    -0.237 OA
ATOM     81  O   UNL A   1      46.603  25.264  37.938  1.00  0.00    -0.237 OA
ATOM     82  O   UNL A   1      44.156  25.147  37.763  1.00  0.00    -0.744 OA
ENDBRANCH  76  79
ENDBRANCH  49  72
ENDBRANCH  23  24
ENDBRANCH  15  18
ENDBRANCH  13  14
ENDBRANCH  12  13
ENDBRANCH  11  12
ENDBRANCH  10  11
ENDBRANCH   8  10
ENDBRANCH   1   6
BRANCH   1  83
ATOM     83  N   UNL A   1      31.333  27.836  25.925  1.00  0.00    -0.343 N 
ATOM     84  C   UNL A   1      31.336  26.766  26.749  1.00  0.00     0.243 C 
ATOM     85  H   UNL A   1      31.213  28.704  26.375  1.00  0.00     0.164 HD
ATOM     86  O   UNL A   1      31.173  27.072  27.937  1.00  0.00    -0.273 OA
BRANCH  84  87
ATOM     87  C   UNL A   1      31.431  25.242  26.284  1.00  0.00     0.174 C 
BRANCH  87  88
ATOM     88  N   UNL A   1      32.669  24.358  26.514  1.00  0.00    -0.342 N 
ATOM     89  C   UNL A   1      33.988  24.056  26.422  1.00  0.00     0.242 C 
ATOM     90  H   UNL A   1      32.298  23.580  26.991  1.00  0.00     0.164 HD
ATOM     91  O   UNL A   1      34.218  23.038  27.108  1.00  0.00    -0.273 OA
BRANCH  89  92
ATOM     92  C   UNL A   1      35.194  24.599  25.526  1.00  0.00     0.168 C 
ATOM     93  C   UNL A   1      34.737  25.903  24.829  1.00  0.00     0.041 C 
BRANCH  92  94
ATOM     94  N   UNL A   1      35.760  23.728  24.485  1.00  0.00    -0.343 N 
ATOM     95  C   UNL A   1      36.351  22.494  24.509  1.00  0.00     0.240 C 
ATOM     96  H   UNL A   1      35.702  24.114  23.581  1.00  0.00     0.164 HD
ATOM     97  O   UNL A   1      36.797  22.103  23.420  1.00  0.00    -0.273 OA
BRANCH  95  98
ATOM     98  C   UNL A   1      36.358  21.490  25.706  1.00  0.00     0.219 C 
BRANCH  98  99
ATOM     99  N   UNL A   1      35.164  20.703  25.943  1.00  0.00    -0.312 N 
ATOM    100  C   UNL A   1      34.048  20.475  25.207  1.00  0.00     0.407 C 
ATOM    101  H   UNL A   1      35.164  20.240  26.811  1.00  0.00     0.167 HD
ATOM    102  O   UNL A   1      33.157  19.767  25.692  1.00  0.00    -0.225 OA
BRANCH 100 103
ATOM    103  O   UNL A   1      33.986  21.037  23.977  1.00  0.00    -0.445 OA
BRANCH 103 104
ATOM    104  C   UNL A   1      32.645  21.349  23.526  1.00  0.00     0.270 C 
BRANCH 104 105
ATOM    105  C   UNL A   1      32.447  22.760  23.018  1.00  0.00    -0.011 A 
ATOM    106  C   UNL A   1      31.249  23.449  23.287  1.00  0.00     0.007 A 
ATOM    107  C   UNL A   1      33.385  23.360  22.173  1.00  0.00     0.007 A 
ATOM    108  C   UNL A   1      31.009  24.708  22.732  1.00  0.00     0.000 A 
ATOM    109  C   UNL A   1      33.144  24.618  21.618  1.00  0.00     0.000 A 
ATOM    110  C   UNL A   1      31.957  25.293  21.896  1.00  0.00     0.000 A 
ENDBRANCH 104 105
ENDBRANCH 103 104
ENDBRANCH 100 103
ENDBRANCH  98  99
ENDBRANCH  95  98
ENDBRANCH  92  94
ENDBRANCH  89  92
ENDBRANCH  87  88
BRANCH  87 111
ATOM    111  C   UNL A   1      30.038  24.556  26.090  1.00  0.00     0.015 C 
ATOM    112  C   UNL A   1      29.817  23.292  26.947  1.00  0.00     0.010 C 
ATOM    113  C   UNL A   1      28.902  25.535  26.388  1.00  0.00     0.010 C 
ENDBRANCH  87 111
ENDBRANCH  84  87
ENDBRANCH   1  83
TORSDOF 27
ENDMDL
MODEL 3
REMARK VINA RESULT:     -10.9      2.178      8.892
REMARK SMILES CC(C)C[C@H](NC(=O)[C@@H](NC(=O)[C@H](C)NC(=O)CNC(=O)OCc1ccccc1)C(C)C)C(=O)NCCCCNC(=O)c1ccc(-c2c3nc(c(-c4cccc(S(=O)(=O)[O-])c4F)c4ccc([nH]4)c(-c4cccc(S(=O)(=O)[O-])c4F)c4nc(c(-c5cccc(S(=O)(=O)[O-])c5F)c5ccc2[nH]5)C=C4)C=C3)cc1
REMARK SMILES IDX 5 1 4 2 2 3 1 4 3 5 33 6 34 7 35 8 36 10 37 11 38 12 39 13
REMARK SMILES IDX 40 14 41 15 42 17 43 18 44 19 105 20 45 21 104 22 46 23
REMARK SMILES IDX 47 24 48 25 98 26 49 27 103 28 97 29 99 30 50 31 102 32
REMARK SMILES IDX 96 33 95 34 51 36 83 37 63 38 82 39 64 40 67 41 81 42 100 43
REMARK SMILES IDX 65 44 66 45 80 47 101 48 68 49 52 50 53 51 61 52 54 53 56 54
REMARK SMILES IDX 62 55 55 56 57 57 58 58 59 59 60 60 84 61 85 62 93 63 86 64
REMARK SMILES IDX 88 65 94 66 87 67 89 68 90 69 91 70 92 71 69 72 70 73 78 74
REMARK SMILES IDX 71 75 73 76 79 77 72 78 74 79 75 80 76 81 77 82 6 83 7 84
REMARK SMILES IDX 8 86 9 87 10 88 11 89 12 91 13 92 14 93 15 94 16 95 17 97
REMARK SMILES IDX 18 98 19 99 20 100 21 102 22 103 23 104 24 105 25 106 29 107
REMARK SMILES IDX 26 108 28 109 27 110 30 111 31 112 32 113
REMARK H PARENT 35 9 40 16 99 35 67 46 6 85 10 90 15 96 19 101
REMARK Flexibility Score: inf
ROOT
ATOM      1  C   UNL A   1      33.985  23.907  25.536  1.00  0.00     0.171 C 
ENDROOT
BRANCH   1   2
ATOM      2  C   UNL A   1      34.610  22.483  25.569  1.00  0.00     0.038 C 
BRANCH   2   3
ATOM      3  C   UNL A   1      36.136  22.316  25.890  1.00  0.00    -0.015 C 
ATOM      4  C   UNL A   1      36.811  21.682  24.715  1.00  0.00     0.007 C 
ATOM      5  C   UNL A   1      36.919  23.606  26.104  1.00  0.00     0.007 C 
ENDBRANCH   2   3
ENDBRANCH   1   2
BRANCH   1   6
ATOM      6  C   UNL A   1      34.485  24.972  24.469  1.00  0.00     0.242 C 
ATOM      7  O   UNL A   1      35.086  24.588  23.460  1.00  0.00    -0.273 OA
ATOM      8  N   UNL A   1      34.394  26.346  24.710  1.00  0.00    -0.354 N 
ATOM      9  H   UNL A   1      34.732  26.942  24.003  1.00  0.00     0.163 HD
BRANCH   8  10
ATOM     10  C   UNL A   1      33.854  26.986  25.896  1.00  0.00     0.116 C 
BRANCH  10  11
ATOM     11  C   UNL A   1      34.297  28.339  26.443  1.00  0.00     0.023 C 
BRANCH  11  12
ATOM     12  C   UNL A   1      33.495  29.601  26.140  1.00  0.00     0.023 C 
BRANCH  12  13
ATOM     13  C   UNL A   1      32.702  30.288  27.246  1.00  0.00     0.116 C 
BRANCH  13  14
ATOM     14  N   UNL A   1      33.114  31.637  27.625  1.00  0.00    -0.352 N 
ATOM     15  C   UNL A   1      34.365  32.109  27.975  1.00  0.00     0.251 C 
ATOM     16  H   UNL A   1      32.394  32.310  27.633  1.00  0.00     0.163 HD
ATOM     17  O   UNL A   1      34.561  33.313  28.121  1.00  0.00    -0.269 OA
BRANCH  15  18
ATOM     18  C   UNL A   1      35.442  31.153  28.295  1.00  0.00     0.039 A 
ATOM     19  C   UNL A   1      36.660  31.319  27.632  1.00  0.00     0.014 A 
ATOM     20  C   UNL A   1      35.314  30.215  29.318  1.00  0.00     0.014 A 
ATOM     21  C   UNL A   1      37.792  30.653  28.098  1.00  0.00     0.010 A 
ATOM     22  C   UNL A   1      36.462  29.629  29.844  1.00  0.00     0.010 A 
ATOM     23  C   UNL A   1      37.717  29.866  29.258  1.00  0.00    -0.014 A 
BRANCH  23  24
ATOM     24  C   UNL A   1      38.952  29.345  29.898  1.00  0.00     0.031 A 
ATOM     25  C   UNL A   1      39.437  29.920  31.198  1.00  0.00     0.074 A 
ATOM     26  C   UNL A   1      39.683  28.403  29.263  1.00  0.00     0.049 A 
ATOM     27  N   UNL A   1      40.502  29.610  31.888  1.00  0.00    -0.248 NA
ATOM     28  C   UNL A   1      38.633  31.004  31.789  1.00  0.00     0.031 C 
ATOM     29  C   UNL A   1      39.366  27.822  27.955  1.00  0.00     0.029 A 
ATOM     30  N   UNL A   1      40.854  27.781  29.621  1.00  0.00    -0.354 N 
ATOM     31  C   UNL A   1      40.519  30.480  32.971  1.00  0.00     0.074 A 
ATOM     32  C   UNL A   1      39.376  31.354  32.828  1.00  0.00     0.031 C 
ATOM     33  C   UNL A   1      40.307  26.920  27.631  1.00  0.00     0.029 A 
ATOM     34  C   UNL A   1      41.313  26.881  28.686  1.00  0.00     0.049 A 
ATOM     35  H   UNL A   1      41.322  27.961  30.469  1.00  0.00     0.167 HD
ATOM     36  C   UNL A   1      41.388  30.528  34.006  1.00  0.00     0.034 A 
ATOM     37  C   UNL A   1      42.424  26.116  28.675  1.00  0.00     0.034 A 
ATOM     38  C   UNL A   1      42.503  29.632  34.164  1.00  0.00     0.049 A 
ATOM     39  C   UNL A   1      43.357  26.170  29.855  1.00  0.00     0.074 A 
ATOM     40  C   UNL A   1      43.387  29.540  35.224  1.00  0.00     0.029 A 
ATOM     41  N   UNL A   1      42.897  28.686  33.231  1.00  0.00    -0.354 N 
ATOM     42  N   UNL A   1      43.262  26.882  30.950  1.00  0.00    -0.248 NA
ATOM     43  C   UNL A   1      44.534  25.289  29.811  1.00  0.00     0.031 C 
ATOM     44  C   UNL A   1      44.338  28.563  34.915  1.00  0.00     0.029 A 
ATOM     45  C   UNL A   1      44.022  28.017  33.681  1.00  0.00     0.049 A 
ATOM     46  H   UNL A   1      42.444  28.515  32.374  1.00  0.00     0.167 HD
ATOM     47  C   UNL A   1      44.340  26.506  31.744  1.00  0.00     0.074 A 
ATOM     48  C   UNL A   1      45.064  25.489  31.010  1.00  0.00     0.031 C 
ATOM     49  C   UNL A   1      44.704  26.971  32.965  1.00  0.00     0.034 A 
BRANCH  36  50
ATOM     50  C   UNL A   1      41.147  31.560  35.075  1.00  0.00     0.023 A 
ATOM     51  C   UNL A   1      41.975  32.700  35.147  1.00  0.00     0.012 A 
ATOM     52  C   UNL A   1      40.069  31.431  35.973  1.00  0.00     0.148 A 
ATOM     53  C   UNL A   1      41.757  33.677  36.117  1.00  0.00     0.002 A 
ATOM     54  C   UNL A   1      39.829  32.433  36.905  1.00  0.00     0.091 A 
ATOM     55  F   UNL A   1      39.307  30.331  35.902  1.00  0.00    -0.205 F 
ATOM     56  C   UNL A   1      40.679  33.549  36.988  1.00  0.00     0.022 A 
BRANCH  54  57
ATOM     57  S   UNL A   1      38.416  32.405  38.014  1.00  0.00     0.127 S 
ATOM     58  O   UNL A   1      37.787  33.693  37.720  1.00  0.00    -0.237 OA
ATOM     59  O   UNL A   1      37.672  31.240  37.532  1.00  0.00    -0.237 OA
ATOM     60  O   UNL A   1      38.960  32.268  39.356  1.00  0.00    -0.744 OA
ENDBRANCH  54  57
ENDBRANCH  36  50
BRANCH  37  61
ATOM     61  C   UNL A   1      42.685  25.186  27.538  1.00  0.00     0.023 A 
ATOM     62  C   UNL A   1      43.484  25.616  26.459  1.00  0.00     0.012 A 
ATOM     63  C   UNL A   1      42.156  23.880  27.520  1.00  0.00     0.148 A 
ATOM     64  C   UNL A   1      43.719  24.779  25.368  1.00  0.00     0.002 A 
ATOM     65  C   UNL A   1      42.441  23.032  26.457  1.00  0.00     0.091 A 
ATOM     66  F   UNL A   1      41.390  23.492  28.549  1.00  0.00    -0.205 F 
ATOM     67  C   UNL A   1      43.206  23.485  25.370  1.00  0.00     0.022 A 
BRANCH  65  68
ATOM     68  S   UNL A   1      41.934  21.310  26.435  1.00  0.00     0.127 S 
ATOM     69  O   UNL A   1      42.333  20.862  27.768  1.00  0.00    -0.237 OA
ATOM     70  O   UNL A   1      40.490  21.422  26.229  1.00  0.00    -0.237 OA
ATOM     71  O   UNL A   1      42.653  20.701  25.323  1.00  0.00    -0.744 OA
ENDBRANCH  65  68
ENDBRANCH  37  61
BRANCH  49  72
ATOM     72  C   UNL A   1      45.915  26.356  33.617  1.00  0.00     0.023 A 
ATOM     73  C   UNL A   1      47.181  26.954  33.461  1.00  0.00     0.012 A 
ATOM     74  C   UNL A   1      45.782  25.225  34.448  1.00  0.00     0.148 A 
ATOM     75  C   UNL A   1      48.301  26.415  34.093  1.00  0.00     0.002 A 
ATOM     76  C   UNL A   1      46.892  24.727  35.118  1.00  0.00     0.091 A 
ATOM     77  F   UNL A   1      44.572  24.661  34.569  1.00  0.00    -0.205 F 
ATOM     78  C   UNL A   1      48.155  25.312  34.931  1.00  0.00     0.022 A 
BRANCH  76  79
ATOM     79  S   UNL A   1      46.781  23.374  36.293  1.00  0.00     0.127 S 
ATOM     80  O   UNL A   1      48.151  22.866  36.294  1.00  0.00    -0.237 OA
ATOM     81  O   UNL A   1      46.384  24.063  37.521  1.00  0.00    -0.237 OA
ATOM     82  O   UNL A   1      45.778  22.461  35.762  1.00  0.00    -0.744 OA
ENDBRANCH  76  79
ENDBRANCH  49  72
ENDBRANCH  23  24
ENDBRANCH  15  18
ENDBRANCH  13  14
ENDBRANCH  12  13
ENDBRANCH  11  12
ENDBRANCH  10  11
ENDBRANCH   8  10
ENDBRANCH   1   6
BRANCH   1  83
ATOM     83  N   UNL A   1      32.577  23.850  25.769  1.00  0.00    -0.343 N 
ATOM     84  C   UNL A   1      31.607  23.188  25.102  1.00  0.00     0.243 C 
ATOM     85  H   UNL A   1      32.263  24.377  26.539  1.00  0.00     0.164 HD
ATOM     86  O   UNL A   1      30.480  23.376  25.579  1.00  0.00    -0.273 OA
BRANCH  84  87
ATOM     87  C   UNL A   1      31.819  22.328  23.775  1.00  0.00     0.174 C 
BRANCH  87  88
ATOM     88  N   UNL A   1      32.486  22.879  22.501  1.00  0.00    -0.342 N 
ATOM     89  C   UNL A   1      32.828  23.859  21.629  1.00  0.00     0.242 C 
ATOM     90  H   UNL A   1      32.880  22.074  22.094  1.00  0.00     0.164 HD
ATOM     91  O   UNL A   1      33.624  23.392  20.788  1.00  0.00    -0.273 OA
BRANCH  89  92
ATOM     92  C   UNL A   1      32.310  25.348  21.369  1.00  0.00     0.168 C 
ATOM     93  C   UNL A   1      32.128  25.543  19.844  1.00  0.00     0.041 C 
BRANCH  92  94
ATOM     94  N   UNL A   1      33.110  26.480  21.858  1.00  0.00    -0.343 N 
ATOM     95  C   UNL A   1      32.791  27.727  22.324  1.00  0.00     0.240 C 
ATOM     96  H   UNL A   1      34.079  26.305  21.847  1.00  0.00     0.164 HD
ATOM     97  O   UNL A   1      33.760  28.461  22.567  1.00  0.00    -0.273 OA
BRANCH  95  98
ATOM     98  C   UNL A   1      31.370  28.231  22.731  1.00  0.00     0.219 C 
BRANCH  98  99
ATOM     99  N   UNL A   1      30.611  27.440  23.680  1.00  0.00    -0.312 N 
ATOM    100  C   UNL A   1      29.296  27.120  23.771  1.00  0.00     0.407 C 
ATOM    101  H   UNL A   1      31.160  27.057  24.401  1.00  0.00     0.167 HD
ATOM    102  O   UNL A   1      28.922  26.437  24.732  1.00  0.00    -0.225 OA
BRANCH 100 103
ATOM    103  O   UNL A   1      28.476  27.569  22.793  1.00  0.00    -0.445 OA
BRANCH 103 104
ATOM    104  C   UNL A   1      27.495  28.541  23.230  1.00  0.00     0.270 C 
BRANCH 104 105
ATOM    105  C   UNL A   1      27.735  29.957  22.756  1.00  0.00    -0.011 A 
ATOM    106  C   UNL A   1      28.001  30.215  21.398  1.00  0.00     0.007 A 
ATOM    107  C   UNL A   1      27.823  31.017  23.663  1.00  0.00     0.007 A 
ATOM    108  C   UNL A   1      28.333  31.502  20.965  1.00  0.00     0.000 A 
ATOM    109  C   UNL A   1      28.155  32.301  23.231  1.00  0.00     0.000 A 
ATOM    110  C   UNL A   1      28.410  32.545  21.884  1.00  0.00     0.000 A 
ENDBRANCH 104 105
ENDBRANCH 103 104
ENDBRANCH 100 103
ENDBRANCH  98  99
ENDBRANCH  95  98
ENDBRANCH  92  94
ENDBRANCH  89  92
ENDBRANCH  87  88
BRANCH  87 111
ATOM    111  C   UNL A   1      31.823  20.783  24.021  1.00  0.00     0.015 C 
ATOM    112  C   UNL A   1      32.506  19.955  22.912  1.00  0.00     0.010 C 
ATOM    113  C   UNL A   1      32.500  20.443  25.349  1.00  0.00     0.010 C 
ENDBRANCH  87 111
ENDBRANCH  84  87
ENDBRANCH   1  83
TORSDOF 27
ENDMDL
