MODEL 1
REMARK VINA RESULT:     -12.5      0.000      0.000
REMARK SMILES Cc1cc(NCC(=O)NCCCCNC(=O)c2ccc(-c3c4nc(c(-c5cccc(S(=O)(=O)[O-])c5F)c5ccc([nH]5)c(-c5cccc(S(=O)(=O)[O-])c5F)c5nc(c(-c6cccc(S(=O)(=O)[O-])c6F)c6ccc3[nH]6)C=C5)C=C4)cc2)c2cc(S(=O)(=O)N(C)C)ccc2n1
REMARK SMILES IDX 11 1 10 2 9 3 7 4 8 5 6 7 5 8 4 10 1 11 2 12 3 13 92 14
REMARK SMILES IDX 91 15 80 16 90 17 81 18 89 19 82 20 83 21 84 22 85 23 86 24
REMARK SMILES IDX 87 25 88 26 12 27 13 28 14 29 15 30 16 32 17 33 18 34 79 35
REMARK SMILES IDX 19 36 78 37 20 38 21 39 22 40 72 41 23 42 77 43 71 44 73 45
REMARK SMILES IDX 24 46 76 47 70 48 69 49 25 51 57 52 37 53 56 54 38 55 41 56
REMARK SMILES IDX 55 57 74 58 39 59 40 60 54 62 75 63 42 64 26 65 27 66 35 67
REMARK SMILES IDX 28 68 30 69 36 70 29 71 31 72 32 73 33 74 34 75 58 76 59 77
REMARK SMILES IDX 67 78 60 79 62 80 68 81 61 82 63 83 64 84 65 85 66 86 43 87
REMARK SMILES IDX 44 88 52 89 45 90 47 91 53 92 46 93 48 94 49 95 50 96 51 97
REMARK H PARENT 9 6 5 9 14 31 73 50 41 61
REMARK Flexibility Score: inf
ROOT
ATOM      1  C   UNL A   1      31.515  27.797  26.396  1.00  0.00     0.023 C 
ENDROOT
BRANCH   1   2
ATOM      2  C   UNL A   1      30.632  26.748  25.721  1.00  0.00     0.116 C 
BRANCH   2   3
ATOM      3  N   UNL A   1      30.515  25.535  26.501  1.00  0.00    -0.355 N 
ATOM      4  C   UNL A   1      31.251  24.388  26.460  1.00  0.00     0.239 C 
ATOM      5  O   UNL A   1      30.965  23.504  27.276  1.00  0.00    -0.273 OA
ATOM      6  H   UNL A   1      29.789  25.538  27.166  1.00  0.00     0.163 HD
BRANCH   4   7
ATOM      7  C   UNL A   1      32.435  24.184  25.500  1.00  0.00     0.213 C 
BRANCH   7   8
ATOM      8  N   UNL A   1      32.978  22.830  25.489  1.00  0.00    -0.376 N 
ATOM      9  H   UNL A   1      32.283  22.136  25.556  1.00  0.00     0.161 HD
BRANCH   8  10
ATOM     10  C   UNL A   1      34.260  22.313  25.405  1.00  0.00     0.046 A 
ATOM     11  C   UNL A   1      37.677  23.789  26.193  1.00  0.00     0.067 C 
ATOM     12  C   UNL A   1      36.605  22.836  25.757  1.00  0.00     0.040 A 
ATOM     13  C   UNL A   1      35.276  23.221  25.749  1.00  0.00     0.049 A 
ATOM     14  N   UNL A   1      36.993  21.591  25.425  1.00  0.00    -0.253 NA
ATOM     15  C   UNL A   1      36.055  20.694  25.092  1.00  0.00     0.073 A 
ATOM     16  C   UNL A   1      34.666  20.984  25.064  1.00  0.00     0.025 A 
ATOM     17  C   UNL A   1      36.507  19.409  24.797  1.00  0.00     0.030 A 
ATOM     18  C   UNL A   1      33.812  19.895  24.752  1.00  0.00     0.034 A 
ATOM     19  C   UNL A   1      35.644  18.357  24.476  1.00  0.00     0.024 A 
ATOM     20  C   UNL A   1      34.286  18.605  24.476  1.00  0.00     0.083 A 
BRANCH  20  21
ATOM     21  S   UNL A   1      33.061  17.363  24.146  1.00  0.00     0.242 S 
ATOM     22  O   UNL A   1      31.936  17.641  25.020  1.00  0.00    -0.207 OA
ATOM     23  O   UNL A   1      32.906  17.334  22.711  1.00  0.00    -0.207 OA
BRANCH  21  24
ATOM     24  N   UNL A   1      33.717  15.860  24.642  1.00  0.00    -0.204 NA
ATOM     25  C   UNL A   1      34.985  15.945  25.410  1.00  0.00     0.124 C 
ATOM     26  C   UNL A   1      32.716  15.057  25.398  1.00  0.00     0.124 C 
ENDBRANCH  21  24
ENDBRANCH  20  21
ENDBRANCH   8  10
ENDBRANCH   7   8
ENDBRANCH   4   7
ENDBRANCH   2   3
ENDBRANCH   1   2
BRANCH   1  27
ATOM     27  C   UNL A   1      32.939  27.861  25.844  1.00  0.00     0.023 C 
BRANCH  27  28
ATOM     28  C   UNL A   1      33.362  29.224  25.308  1.00  0.00     0.116 C 
BRANCH  28  29
ATOM     29  N   UNL A   1      32.712  30.340  25.984  1.00  0.00    -0.352 N 
ATOM     30  C   UNL A   1      33.200  31.089  27.031  1.00  0.00     0.251 C 
ATOM     31  H   UNL A   1      31.819  30.589  25.651  1.00  0.00     0.163 HD
ATOM     32  O   UNL A   1      32.506  31.943  27.572  1.00  0.00    -0.269 OA
BRANCH  30  33
ATOM     33  C   UNL A   1      34.568  30.815  27.518  1.00  0.00     0.039 A 
ATOM     34  C   UNL A   1      35.479  31.870  27.624  1.00  0.00     0.014 A 
ATOM     35  C   UNL A   1      34.913  29.532  27.949  1.00  0.00     0.014 A 
ATOM     36  C   UNL A   1      36.714  31.655  28.240  1.00  0.00     0.010 A 
ATOM     37  C   UNL A   1      36.116  29.336  28.617  1.00  0.00     0.010 A 
ATOM     38  C   UNL A   1      37.023  30.395  28.780  1.00  0.00    -0.014 A 
BRANCH  38  39
ATOM     39  C   UNL A   1      38.274  30.150  29.542  1.00  0.00     0.031 A 
ATOM     40  C   UNL A   1      39.305  29.202  28.997  1.00  0.00     0.074 A 
ATOM     41  C   UNL A   1      38.416  30.669  30.779  1.00  0.00     0.049 A 
ATOM     42  N   UNL A   1      40.375  28.724  29.575  1.00  0.00    -0.248 NA
ATOM     43  C   UNL A   1      39.082  28.696  27.632  1.00  0.00     0.031 C 
ATOM     44  C   UNL A   1      37.456  31.550  31.445  1.00  0.00     0.029 A 
ATOM     45  N   UNL A   1      39.408  30.495  31.713  1.00  0.00    -0.354 N 
ATOM     46  C   UNL A   1      40.928  27.829  28.667  1.00  0.00     0.074 A 
ATOM     47  C   UNL A   1      40.062  27.813  27.508  1.00  0.00     0.031 C 
ATOM     48  C   UNL A   1      37.897  31.831  32.682  1.00  0.00     0.029 A 
ATOM     49  C   UNL A   1      39.153  31.123  32.912  1.00  0.00     0.049 A 
ATOM     50  H   UNL A   1      40.224  29.971  31.543  1.00  0.00     0.167 HD
ATOM     51  C   UNL A   1      42.066  27.105  28.779  1.00  0.00     0.034 A 
ATOM     52  C   UNL A   1      39.843  31.115  34.070  1.00  0.00     0.034 A 
ATOM     53  C   UNL A   1      42.952  27.170  29.909  1.00  0.00     0.049 A 
ATOM     54  C   UNL A   1      41.129  30.336  34.150  1.00  0.00     0.074 A 
ATOM     55  C   UNL A   1      44.172  26.540  30.079  1.00  0.00     0.029 A 
ATOM     56  N   UNL A   1      42.716  27.908  31.057  1.00  0.00    -0.354 N 
ATOM     57  N   UNL A   1      41.709  29.607  33.227  1.00  0.00    -0.248 NA
ATOM     58  C   UNL A   1      41.874  30.404  35.417  1.00  0.00     0.031 C 
ATOM     59  C   UNL A   1      44.670  26.892  31.338  1.00  0.00     0.029 A 
ATOM     60  C   UNL A   1      43.768  27.753  31.941  1.00  0.00     0.049 A 
ATOM     61  H   UNL A   1      41.917  28.460  31.220  1.00  0.00     0.167 HD
ATOM     62  C   UNL A   1      42.905  29.168  33.784  1.00  0.00     0.074 A 
ATOM     63  C   UNL A   1      42.971  29.719  35.122  1.00  0.00     0.031 C 
ATOM     64  C   UNL A   1      43.856  28.371  33.239  1.00  0.00     0.034 A 
BRANCH  51  65
ATOM     65  C   UNL A   1      42.452  26.226  27.620  1.00  0.00     0.023 A 
ATOM     66  C   UNL A   1      43.262  26.751  26.594  1.00  0.00     0.012 A 
ATOM     67  C   UNL A   1      42.071  24.871  27.576  1.00  0.00     0.148 A 
ATOM     68  C   UNL A   1      43.660  25.952  25.523  1.00  0.00     0.002 A 
ATOM     69  C   UNL A   1      42.506  24.068  26.527  1.00  0.00     0.091 A 
ATOM     70  F   UNL A   1      41.281  24.395  28.550  1.00  0.00    -0.205 F 
ATOM     71  C   UNL A   1      43.292  24.609  25.496  1.00  0.00     0.022 A 
BRANCH  69  72
ATOM     72  S   UNL A   1      42.148  22.310  26.443  1.00  0.00     0.127 S 
ATOM     73  O   UNL A   1      40.687  22.310  26.389  1.00  0.00    -0.237 OA
ATOM     74  O   UNL A   1      42.805  21.919  25.195  1.00  0.00    -0.237 OA
ATOM     75  O   UNL A   1      42.733  21.726  27.643  1.00  0.00    -0.744 OA
ENDBRANCH  69  72
ENDBRANCH  51  65
BRANCH  52  76
ATOM     76  C   UNL A   1      39.367  31.927  35.226  1.00  0.00     0.023 A 
ATOM     77  C   UNL A   1      38.509  31.337  36.172  1.00  0.00     0.012 A 
ATOM     78  C   UNL A   1      39.781  33.261  35.412  1.00  0.00     0.148 A 
ATOM     79  C   UNL A   1      38.047  32.065  37.269  1.00  0.00     0.002 A 
ATOM     80  C   UNL A   1      39.359  33.965  36.535  1.00  0.00     0.091 A 
ATOM     81  F   UNL A   1      40.587  33.812  34.494  1.00  0.00    -0.205 F 
ATOM     82  C   UNL A   1      38.480  33.375  37.456  1.00  0.00     0.022 A 
BRANCH  80  83
ATOM     83  S   UNL A   1      39.970  35.609  36.923  1.00  0.00     0.127 S 
ATOM     84  O   UNL A   1      41.403  35.370  37.072  1.00  0.00    -0.237 OA
ATOM     85  O   UNL A   1      39.592  36.366  35.728  1.00  0.00    -0.237 OA
ATOM     86  O   UNL A   1      39.261  36.011  38.131  1.00  0.00    -0.744 OA
ENDBRANCH  80  83
ENDBRANCH  52  76
BRANCH  64  87
ATOM     87  C   UNL A   1      45.090  28.082  34.051  1.00  0.00     0.023 A 
ATOM     88  C   UNL A   1      46.167  28.988  34.033  1.00  0.00     0.012 A 
ATOM     89  C   UNL A   1      45.123  26.977  34.925  1.00  0.00     0.148 A 
ATOM     90  C   UNL A   1      47.269  28.789  34.865  1.00  0.00     0.002 A 
ATOM     91  C   UNL A   1      46.203  26.809  35.782  1.00  0.00     0.091 A 
ATOM     92  F   UNL A   1      44.091  26.121  34.911  1.00  0.00    -0.205 F 
ATOM     93  C   UNL A   1      47.281  27.710  35.747  1.00  0.00     0.022 A 
BRANCH  91  94
ATOM     94  S   UNL A   1      46.263  25.508  37.018  1.00  0.00     0.127 S 
ATOM     95  O   UNL A   1      46.538  24.330  36.198  1.00  0.00    -0.237 OA
ATOM     96  O   UNL A   1      47.377  25.935  37.865  1.00  0.00    -0.237 OA
ATOM     97  O   UNL A   1      44.963  25.519  37.677  1.00  0.00    -0.744 OA
ENDBRANCH  91  94
ENDBRANCH  64  87
ENDBRANCH  38  39
ENDBRANCH  30  33
ENDBRANCH  28  29
ENDBRANCH  27  28
ENDBRANCH   1  27
TORSDOF 18
ENDMDL
MODEL 2
REMARK VINA RESULT:     -12.3      2.054      7.820
REMARK SMILES Cc1cc(NCC(=O)NCCCCNC(=O)c2ccc(-c3c4nc(c(-c5cccc(S(=O)(=O)[O-])c5F)c5ccc([nH]5)c(-c5cccc(S(=O)(=O)[O-])c5F)c5nc(c(-c6cccc(S(=O)(=O)[O-])c6F)c6ccc3[nH]6)C=C5)C=C4)cc2)c2cc(S(=O)(=O)N(C)C)ccc2n1
REMARK SMILES IDX 11 1 10 2 9 3 7 4 8 5 6 7 5 8 4 10 1 11 2 12 3 13 92 14
REMARK SMILES IDX 91 15 80 16 90 17 81 18 89 19 82 20 83 21 84 22 85 23 86 24
REMARK SMILES IDX 87 25 88 26 12 27 13 28 14 29 15 30 16 32 17 33 18 34 79 35
REMARK SMILES IDX 19 36 78 37 20 38 21 39 22 40 72 41 23 42 77 43 71 44 73 45
REMARK SMILES IDX 24 46 76 47 70 48 69 49 25 51 57 52 37 53 56 54 38 55 41 56
REMARK SMILES IDX 55 57 74 58 39 59 40 60 54 62 75 63 42 64 26 65 27 66 35 67
REMARK SMILES IDX 28 68 30 69 36 70 29 71 31 72 32 73 33 74 34 75 58 76 59 77
REMARK SMILES IDX 67 78 60 79 62 80 68 81 61 82 63 83 64 84 65 85 66 86 43 87
REMARK SMILES IDX 44 88 52 89 45 90 47 91 53 92 46 93 48 94 49 95 50 96 51 97
REMARK H PARENT 9 6 5 9 14 31 73 50 41 61
REMARK Flexibility Score: inf
ROOT
ATOM      1  C   UNL A   1      32.136  27.586  26.119  1.00  0.00     0.023 C 
ENDROOT
BRANCH   1   2
ATOM      2  C   UNL A   1      31.539  26.640  25.079  1.00  0.00     0.116 C 
BRANCH   2   3
ATOM      3  N   UNL A   1      32.497  26.247  24.068  1.00  0.00    -0.355 N 
ATOM      4  C   UNL A   1      32.897  25.006  23.669  1.00  0.00     0.239 C 
ATOM      5  O   UNL A   1      33.712  24.947  22.741  1.00  0.00    -0.273 OA
ATOM      6  H   UNL A   1      32.929  26.994  23.594  1.00  0.00     0.163 HD
BRANCH   4   7
ATOM      7  C   UNL A   1      32.337  23.708  24.275  1.00  0.00     0.213 C 
BRANCH   7   8
ATOM      8  N   UNL A   1      33.188  23.100  25.291  1.00  0.00    -0.376 N 
ATOM      9  H   UNL A   1      32.761  23.058  26.177  1.00  0.00     0.161 HD
BRANCH   8  10
ATOM     10  C   UNL A   1      34.467  22.569  25.277  1.00  0.00     0.046 A 
ATOM     11  C   UNL A   1      37.874  24.071  26.059  1.00  0.00     0.067 C 
ATOM     12  C   UNL A   1      36.806  23.098  25.659  1.00  0.00     0.040 A 
ATOM     13  C   UNL A   1      35.481  23.491  25.587  1.00  0.00     0.049 A 
ATOM     14  N   UNL A   1      37.192  21.830  25.420  1.00  0.00    -0.253 NA
ATOM     15  C   UNL A   1      36.256  20.920  25.122  1.00  0.00     0.073 A 
ATOM     16  C   UNL A   1      34.871  21.217  25.036  1.00  0.00     0.025 A 
ATOM     17  C   UNL A   1      36.704  19.615  24.926  1.00  0.00     0.030 A 
ATOM     18  C   UNL A   1      34.016  20.116  24.775  1.00  0.00     0.034 A 
ATOM     19  C   UNL A   1      35.841  18.550  24.653  1.00  0.00     0.024 A 
ATOM     20  C   UNL A   1      34.485  18.807  24.598  1.00  0.00     0.083 A 
BRANCH  20  21
ATOM     21  S   UNL A   1      33.259  17.555  24.318  1.00  0.00     0.242 S 
ATOM     22  O   UNL A   1      31.974  18.142  24.655  1.00  0.00    -0.207 OA
ATOM     23  O   UNL A   1      33.522  17.034  22.997  1.00  0.00    -0.207 OA
BRANCH  21  24
ATOM     24  N   UNL A   1      33.545  16.303  25.451  1.00  0.00    -0.204 NA
ATOM     25  C   UNL A   1      32.428  15.342  25.629  1.00  0.00     0.124 C 
ATOM     26  C   UNL A   1      34.803  15.568  25.137  1.00  0.00     0.124 C 
ENDBRANCH  21  24
ENDBRANCH  20  21
ENDBRANCH   8  10
ENDBRANCH   7   8
ENDBRANCH   4   7
ENDBRANCH   2   3
ENDBRANCH   1   2
BRANCH   1  27
ATOM     27  C   UNL A   1      33.596  27.293  26.464  1.00  0.00     0.023 C 
BRANCH  27  28
ATOM     28  C   UNL A   1      34.553  28.463  26.264  1.00  0.00     0.116 C 
BRANCH  28  29
ATOM     29  N   UNL A   1      33.991  29.747  26.662  1.00  0.00    -0.352 N 
ATOM     30  C   UNL A   1      34.488  30.631  27.592  1.00  0.00     0.251 C 
ATOM     31  H   UNL A   1      33.156  30.015  26.210  1.00  0.00     0.163 HD
ATOM     32  O   UNL A   1      33.861  31.638  27.903  1.00  0.00    -0.269 OA
BRANCH  30  33
ATOM     33  C   UNL A   1      35.779  30.322  28.241  1.00  0.00     0.039 A 
ATOM     34  C   UNL A   1      35.782  29.687  29.486  1.00  0.00     0.014 A 
ATOM     35  C   UNL A   1      36.978  30.584  27.574  1.00  0.00     0.014 A 
ATOM     36  C   UNL A   1      36.989  29.239  30.029  1.00  0.00     0.010 A 
ATOM     37  C   UNL A   1      38.169  30.082  28.086  1.00  0.00     0.010 A 
ATOM     38  C   UNL A   1      38.186  29.396  29.311  1.00  0.00    -0.014 A 
BRANCH  38  39
ATOM     39  C   UNL A   1      39.474  28.837  29.794  1.00  0.00     0.031 A 
ATOM     40  C   UNL A   1      40.229  29.541  30.887  1.00  0.00     0.074 A 
ATOM     41  C   UNL A   1      40.026  27.782  29.159  1.00  0.00     0.049 A 
ATOM     42  N   UNL A   1      41.437  29.316  31.332  1.00  0.00    -0.248 NA
ATOM     43  C   UNL A   1      39.547  30.670  31.541  1.00  0.00     0.031 C 
ATOM     44  C   UNL A   1      39.422  27.054  28.042  1.00  0.00     0.029 A 
ATOM     45  N   UNL A   1      41.240  27.166  29.337  1.00  0.00    -0.354 N 
ATOM     46  C   UNL A   1      41.678  30.301  32.282  1.00  0.00     0.074 A 
ATOM     47  C   UNL A   1      40.500  31.139  32.333  1.00  0.00     0.031 C 
ATOM     48  C   UNL A   1      40.271  26.099  27.627  1.00  0.00     0.029 A 
ATOM     49  C   UNL A   1      41.492  26.169  28.422  1.00  0.00     0.049 A 
ATOM     50  H   UNL A   1      41.872  27.415  30.050  1.00  0.00     0.167 HD
ATOM     51  C   UNL A   1      42.772  30.477  33.060  1.00  0.00     0.034 A 
ATOM     52  C   UNL A   1      42.590  25.408  28.234  1.00  0.00     0.034 A 
ATOM     53  C   UNL A   1      43.916  29.607  33.046  1.00  0.00     0.049 A 
ATOM     54  C   UNL A   1      43.775  25.596  29.143  1.00  0.00     0.074 A 
ATOM     55  C   UNL A   1      45.037  29.652  33.855  1.00  0.00     0.029 A 
ATOM     56  N   UNL A   1      44.084  28.536  32.183  1.00  0.00    -0.354 N 
ATOM     57  N   UNL A   1      43.927  26.443  30.133  1.00  0.00    -0.248 NA
ATOM     58  C   UNL A   1      44.927  24.705  28.935  1.00  0.00     0.031 C 
ATOM     59  C   UNL A   1      45.890  28.610  33.474  1.00  0.00     0.029 A 
ATOM     60  C   UNL A   1      45.290  27.909  32.441  1.00  0.00     0.049 A 
ATOM     61  H   UNL A   1      43.441  28.263  31.489  1.00  0.00     0.167 HD
ATOM     62  C   UNL A   1      45.168  26.156  30.692  1.00  0.00     0.074 A 
ATOM     63  C   UNL A   1      45.723  25.053  29.936  1.00  0.00     0.031 C 
ATOM     64  C   UNL A   1      45.793  26.762  31.731  1.00  0.00     0.034 A 
BRANCH  51  65
ATOM     65  C   UNL A   1      42.758  31.621  34.038  1.00  0.00     0.023 A 
ATOM     66  C   UNL A   1      43.293  32.866  33.654  1.00  0.00     0.012 A 
ATOM     67  C   UNL A   1      42.164  31.484  35.308  1.00  0.00     0.148 A 
ATOM     68  C   UNL A   1      43.267  33.951  34.529  1.00  0.00     0.002 A 
ATOM     69  C   UNL A   1      42.105  32.582  36.160  1.00  0.00     0.091 A 
ATOM     70  F   UNL A   1      41.682  30.286  35.665  1.00  0.00    -0.205 F 
ATOM     71  C   UNL A   1      42.663  33.812  35.776  1.00  0.00     0.022 A 
BRANCH  69  72
ATOM     72  S   UNL A   1      41.280  32.523  37.754  1.00  0.00     0.127 S 
ATOM     73  O   UNL A   1      42.157  31.626  38.506  1.00  0.00    -0.237 OA
ATOM     74  O   UNL A   1      41.330  33.922  38.181  1.00  0.00    -0.237 OA
ATOM     75  O   UNL A   1      39.939  32.019  37.492  1.00  0.00    -0.744 OA
ENDBRANCH  69  72
ENDBRANCH  51  65
BRANCH  52  76
ATOM     76  C   UNL A   1      42.591  24.350  27.185  1.00  0.00     0.023 A 
ATOM     77  C   UNL A   1      43.245  24.596  25.963  1.00  0.00     0.012 A 
ATOM     78  C   UNL A   1      41.983  23.097  27.397  1.00  0.00     0.148 A 
ATOM     79  C   UNL A   1      43.270  23.628  24.959  1.00  0.00     0.002 A 
ATOM     80  C   UNL A   1      42.057  22.116  26.413  1.00  0.00     0.091 A 
ATOM     81  F   UNL A   1      41.353  22.884  28.560  1.00  0.00    -0.205 F 
ATOM     82  C   UNL A   1      42.686  22.386  25.187  1.00  0.00     0.022 A 
BRANCH  80  83
ATOM     83  S   UNL A   1      41.448  20.447  26.672  1.00  0.00     0.127 S 
ATOM     84  O   UNL A   1      42.187  20.039  27.865  1.00  0.00    -0.237 OA
ATOM     85  O   UNL A   1      40.017  20.673  26.881  1.00  0.00    -0.237 OA
ATOM     86  O   UNL A   1      41.765  19.723  25.448  1.00  0.00    -0.744 OA
ENDBRANCH  80  83
ENDBRANCH  52  76
BRANCH  64  87
ATOM     87  C   UNL A   1      47.128  26.220  32.167  1.00  0.00     0.023 A 
ATOM     88  C   UNL A   1      48.313  26.779  31.652  1.00  0.00     0.012 A 
ATOM     89  C   UNL A   1      47.203  25.243  33.180  1.00  0.00     0.148 A 
ATOM     90  C   UNL A   1      49.555  26.362  32.129  1.00  0.00     0.002 A 
ATOM     91  C   UNL A   1      48.441  24.864  33.681  1.00  0.00     0.091 A 
ATOM     92  F   UNL A   1      46.060  24.714  33.641  1.00  0.00    -0.205 F 
ATOM     93  C   UNL A   1      49.619  25.417  33.152  1.00  0.00     0.022 A 
BRANCH  91  94
ATOM     94  S   UNL A   1      48.618  23.729  35.061  1.00  0.00     0.127 S 
ATOM     95  O   UNL A   1      50.067  23.535  35.105  1.00  0.00    -0.237 OA
ATOM     96  O   UNL A   1      48.073  24.506  36.175  1.00  0.00    -0.237 OA
ATOM     97  O   UNL A   1      47.842  22.546  34.713  1.00  0.00    -0.744 OA
ENDBRANCH  91  94
ENDBRANCH  64  87
ENDBRANCH  38  39
ENDBRANCH  30  33
ENDBRANCH  28  29
ENDBRANCH  27  28
ENDBRANCH   1  27
TORSDOF 18
ENDMDL
MODEL 3
REMARK VINA RESULT:     -11.8      2.486      3.410
REMARK SMILES Cc1cc(NCC(=O)NCCCCNC(=O)c2ccc(-c3c4nc(c(-c5cccc(S(=O)(=O)[O-])c5F)c5ccc([nH]5)c(-c5cccc(S(=O)(=O)[O-])c5F)c5nc(c(-c6cccc(S(=O)(=O)[O-])c6F)c6ccc3[nH]6)C=C5)C=C4)cc2)c2cc(S(=O)(=O)N(C)C)ccc2n1
REMARK SMILES IDX 11 1 10 2 9 3 7 4 8 5 6 7 5 8 4 10 1 11 2 12 3 13 92 14
REMARK SMILES IDX 91 15 80 16 90 17 81 18 89 19 82 20 83 21 84 22 85 23 86 24
REMARK SMILES IDX 87 25 88 26 12 27 13 28 14 29 15 30 16 32 17 33 18 34 79 35
REMARK SMILES IDX 19 36 78 37 20 38 21 39 22 40 72 41 23 42 77 43 71 44 73 45
REMARK SMILES IDX 24 46 76 47 70 48 69 49 25 51 57 52 37 53 56 54 38 55 41 56
REMARK SMILES IDX 55 57 74 58 39 59 40 60 54 62 75 63 42 64 26 65 27 66 35 67
REMARK SMILES IDX 28 68 30 69 36 70 29 71 31 72 32 73 33 74 34 75 58 76 59 77
REMARK SMILES IDX 67 78 60 79 62 80 68 81 61 82 63 83 64 84 65 85 66 86 43 87
REMARK SMILES IDX 44 88 52 89 45 90 47 91 53 92 46 93 48 94 49 95 50 96 51 97
REMARK H PARENT 9 6 5 9 14 31 73 50 41 61
REMARK Flexibility Score: inf
ROOT
ATOM      1  C   UNL A   1      31.579  28.641  24.987  1.00  0.00     0.023 C 
ENDROOT
BRANCH   1   2
ATOM      2  C   UNL A   1      31.290  28.055  23.606  1.00  0.00     0.116 C 
BRANCH   2   3
ATOM      3  N   UNL A   1      32.496  27.696  22.890  1.00  0.00    -0.355 N 
ATOM      4  C   UNL A   1      32.766  26.612  22.110  1.00  0.00     0.239 C 
ATOM      5  O   UNL A   1      33.879  26.566  21.572  1.00  0.00    -0.273 OA
ATOM      6  H   UNL A   1      33.238  28.337  22.981  1.00  0.00     0.163 HD
BRANCH   4   7
ATOM      7  C   UNL A   1      31.741  25.500  21.832  1.00  0.00     0.213 C 
BRANCH   7   8
ATOM      8  N   UNL A   1      31.799  24.378  22.761  1.00  0.00    -0.376 N 
ATOM      9  H   UNL A   1      31.890  23.508  22.310  1.00  0.00     0.161 HD
BRANCH   8  10
ATOM     10  C   UNL A   1      31.753  24.274  24.142  1.00  0.00     0.046 A 
ATOM     11  C   UNL A   1      29.053  25.110  26.688  1.00  0.00     0.067 C 
ATOM     12  C   UNL A   1      30.353  24.667  26.085  1.00  0.00     0.040 A 
ATOM     13  C   UNL A   1      30.564  24.748  24.720  1.00  0.00     0.049 A 
ATOM     14  N   UNL A   1      31.271  24.153  26.924  1.00  0.00    -0.253 NA
ATOM     15  C   UNL A   1      32.419  23.689  26.413  1.00  0.00     0.073 A 
ATOM     16  C   UNL A   1      32.728  23.714  25.028  1.00  0.00     0.025 A 
ATOM     17  C   UNL A   1      33.318  23.129  27.320  1.00  0.00     0.030 A 
ATOM     18  C   UNL A   1      33.961  23.119  24.658  1.00  0.00     0.034 A 
ATOM     19  C   UNL A   1      34.535  22.565  26.929  1.00  0.00     0.024 A 
ATOM     20  C   UNL A   1      34.843  22.546  25.584  1.00  0.00     0.083 A 
BRANCH  20  21
ATOM     21  S   UNL A   1      36.321  21.816  24.925  1.00  0.00     0.242 S 
ATOM     22  O   UNL A   1      36.179  20.378  25.068  1.00  0.00    -0.207 OA
ATOM     23  O   UNL A   1      36.518  22.425  23.630  1.00  0.00    -0.207 OA
BRANCH  21  24
ATOM     24  N   UNL A   1      37.616  22.291  25.939  1.00  0.00    -0.204 NA
ATOM     25  C   UNL A   1      38.886  21.550  25.735  1.00  0.00     0.124 C 
ATOM     26  C   UNL A   1      37.864  23.758  25.848  1.00  0.00     0.124 C 
ENDBRANCH  21  24
ENDBRANCH  20  21
ENDBRANCH   8  10
ENDBRANCH   7   8
ENDBRANCH   4   7
ENDBRANCH   2   3
ENDBRANCH   1   2
BRANCH   1  27
ATOM     27  C   UNL A   1      32.790  28.023  25.686  1.00  0.00     0.023 C 
BRANCH  27  28
ATOM     28  C   UNL A   1      33.870  29.015  26.103  1.00  0.00     0.116 C 
BRANCH  28  29
ATOM     29  N   UNL A   1      33.346  30.329  26.455  1.00  0.00    -0.352 N 
ATOM     30  C   UNL A   1      33.894  31.249  27.320  1.00  0.00     0.251 C 
ATOM     31  H   UNL A   1      32.500  30.590  26.021  1.00  0.00     0.163 HD
ATOM     32  O   UNL A   1      33.297  32.283  27.602  1.00  0.00    -0.269 OA
BRANCH  30  33
ATOM     33  C   UNL A   1      35.203  30.947  27.936  1.00  0.00     0.039 A 
ATOM     34  C   UNL A   1      36.195  31.931  27.948  1.00  0.00     0.014 A 
ATOM     35  C   UNL A   1      35.409  29.722  28.574  1.00  0.00     0.014 A 
ATOM     36  C   UNL A   1      37.369  31.717  28.673  1.00  0.00     0.010 A 
ATOM     37  C   UNL A   1      36.550  29.536  29.347  1.00  0.00     0.010 A 
ATOM     38  C   UNL A   1      37.536  30.534  29.413  1.00  0.00    -0.014 A 
BRANCH  38  39
ATOM     39  C   UNL A   1      38.715  30.311  30.288  1.00  0.00     0.031 A 
ATOM     40  C   UNL A   1      39.777  29.334  29.872  1.00  0.00     0.074 A 
ATOM     41  C   UNL A   1      38.758  30.880  31.511  1.00  0.00     0.049 A 
ATOM     42  N   UNL A   1      40.790  28.873  30.558  1.00  0.00    -0.248 NA
ATOM     43  C   UNL A   1      39.666  28.774  28.514  1.00  0.00     0.031 C 
ATOM     44  C   UNL A   1      37.754  31.796  32.056  1.00  0.00     0.029 A 
ATOM     45  N   UNL A   1      39.665  30.738  32.532  1.00  0.00    -0.354 N 
ATOM     46  C   UNL A   1      41.407  27.937  29.738  1.00  0.00     0.074 A 
ATOM     47  C   UNL A   1      40.643  27.879  28.511  1.00  0.00     0.031 C 
ATOM     48  C   UNL A   1      38.092  32.124  33.314  1.00  0.00     0.029 A 
ATOM     49  C   UNL A   1      39.316  31.417  33.678  1.00  0.00     0.049 A 
ATOM     50  H   UNL A   1      40.486  30.201  32.453  1.00  0.00     0.167 HD
ATOM     51  C   UNL A   1      42.524  27.209  29.975  1.00  0.00     0.034 A 
ATOM     52  C   UNL A   1      39.905  31.451  34.890  1.00  0.00     0.034 A 
ATOM     53  C   UNL A   1      43.312  27.314  31.172  1.00  0.00     0.049 A 
ATOM     54  C   UNL A   1      41.171  30.667  35.111  1.00  0.00     0.074 A 
ATOM     55  C   UNL A   1      44.506  26.683  31.472  1.00  0.00     0.029 A 
ATOM     56  N   UNL A   1      42.987  28.101  32.266  1.00  0.00    -0.354 N 
ATOM     57  N   UNL A   1      41.820  29.896  34.271  1.00  0.00    -0.248 NA
ATOM     58  C   UNL A   1      41.808  30.782  36.433  1.00  0.00     0.031 C 
ATOM     59  C   UNL A   1      44.900  27.083  32.752  1.00  0.00     0.029 A 
ATOM     60  C   UNL A   1      43.960  27.975  33.242  1.00  0.00     0.049 A 
ATOM     61  H   UNL A   1      42.184  28.666  32.337  1.00  0.00     0.167 HD
ATOM     62  C   UNL A   1      42.959  29.472  34.945  1.00  0.00     0.074 A 
ATOM     63  C   UNL A   1      42.918  30.077  36.260  1.00  0.00     0.031 C 
ATOM     64  C   UNL A   1      43.944  28.646  34.515  1.00  0.00     0.034 A 
BRANCH  51  65
ATOM     65  C   UNL A   1      42.998  26.280  28.890  1.00  0.00     0.023 A 
ATOM     66  C   UNL A   1      42.470  24.976  28.818  1.00  0.00     0.012 A 
ATOM     67  C   UNL A   1      43.911  26.713  27.909  1.00  0.00     0.148 A 
ATOM     68  C   UNL A   1      42.868  24.103  27.806  1.00  0.00     0.002 A 
ATOM     69  C   UNL A   1      44.272  25.851  26.879  1.00  0.00     0.091 A 
ATOM     70  F   UNL A   1      44.420  27.949  28.007  1.00  0.00    -0.205 F 
ATOM     71  C   UNL A   1      43.759  24.544  26.831  1.00  0.00     0.022 A 
BRANCH  69  72
ATOM     72  S   UNL A   1      45.353  26.352  25.535  1.00  0.00     0.127 S 
ATOM     73  O   UNL A   1      44.627  27.496  24.984  1.00  0.00    -0.237 OA
ATOM     74  O   UNL A   1      46.587  26.696  26.242  1.00  0.00    -0.237 OA
ATOM     75  O   UNL A   1      45.462  25.195  24.657  1.00  0.00    -0.744 OA
ENDBRANCH  69  72
ENDBRANCH  51  65
BRANCH  52  76
ATOM     76  C   UNL A   1      39.343  32.315  35.967  1.00  0.00     0.023 A 
ATOM     77  C   UNL A   1      38.354  31.790  36.821  1.00  0.00     0.012 A 
ATOM     78  C   UNL A   1      39.798  33.632  36.173  1.00  0.00     0.148 A 
ATOM     79  C   UNL A   1      37.808  32.567  37.843  1.00  0.00     0.002 A 
ATOM     80  C   UNL A   1      39.287  34.384  37.226  1.00  0.00     0.091 A 
ATOM     81  F   UNL A   1      40.729  34.121  35.342  1.00  0.00    -0.205 F 
ATOM     82  C   UNL A   1      38.280  33.859  38.051  1.00  0.00     0.022 A 
BRANCH  80  83
ATOM     83  S   UNL A   1      39.930  36.007  37.648  1.00  0.00     0.127 S 
ATOM     84  O   UNL A   1      39.719  36.746  36.407  1.00  0.00    -0.237 OA
ATOM     85  O   UNL A   1      39.059  36.402  38.757  1.00  0.00    -0.237 OA
ATOM     86  O   UNL A   1      41.319  35.787  38.031  1.00  0.00    -0.744 OA
ENDBRANCH  80  83
ENDBRANCH  52  76
BRANCH  64  87
ATOM     87  C   UNL A   1      45.102  28.382  35.441  1.00  0.00     0.023 A 
ATOM     88  C   UNL A   1      46.284  29.135  35.315  1.00  0.00     0.012 A 
ATOM     89  C   UNL A   1      44.964  27.474  36.510  1.00  0.00     0.148 A 
ATOM     90  C   UNL A   1      47.321  28.977  36.234  1.00  0.00     0.002 A 
ATOM     91  C   UNL A   1      45.983  27.355  37.447  1.00  0.00     0.091 A 
ATOM     92  F   UNL A   1      43.834  26.758  36.598  1.00  0.00    -0.205 F 
ATOM     93  C   UNL A   1      47.165  28.100  37.306  1.00  0.00     0.022 A 
BRANCH  91  94
ATOM     94  S   UNL A   1      45.833  26.325  38.910  1.00  0.00     0.127 S 
ATOM     95  O   UNL A   1      44.824  27.048  39.682  1.00  0.00    -0.237 OA
ATOM     96  O   UNL A   1      45.376  25.053  38.350  1.00  0.00    -0.237 OA
ATOM     97  O   UNL A   1      47.161  26.280  39.509  1.00  0.00    -0.744 OA
ENDBRANCH  91  94
ENDBRANCH  64  87
ENDBRANCH  38  39
ENDBRANCH  30  33
ENDBRANCH  28  29
ENDBRANCH  27  28
ENDBRANCH   1  27
TORSDOF 18
ENDMDL
