MODEL 1
REMARK VINA RESULT:     -12.8      0.000      0.000
REMARK SMILES COc1c(C)cc(Br)cc1C(=O)Nc1ccc(O)c(C(=O)NCCCCNC(=O)c2ccc(-c3c4nc(c(-c5cccc(S(=O)(=O)[O-])c5F)c5ccc([nH]5)c(-c5cccc(S(=O)(=O)[O-])c5F)c5nc(c(-c6cccc(S(=O)(=O)[O-])c6F)c6ccc3[nH]6)C=C5)C=C4)cc2)c1
REMARK SMILES IDX 24 1 23 2 22 3 20 4 21 5 19 7 14 8 15 9 93 10 16 11 17 12
REMARK SMILES IDX 13 13 11 14 12 15 10 17 3 18 4 19 5 20 6 21 9 22 7 23 8 24
REMARK SMILES IDX 2 25 1 26 18 27 25 29 26 30 27 31 28 32 29 34 30 35 31 36
REMARK SMILES IDX 92 37 32 38 91 39 33 40 34 41 35 42 85 43 36 44 90 45 84 46
REMARK SMILES IDX 86 47 37 48 89 49 83 50 82 51 38 53 70 54 50 55 69 56 51 57
REMARK SMILES IDX 54 58 68 59 87 60 52 61 53 62 67 64 88 65 55 66 39 67 40 68
REMARK SMILES IDX 48 69 41 70 43 71 49 72 42 73 44 74 45 75 46 76 47 77 71 78
REMARK SMILES IDX 72 79 80 80 73 81 75 82 81 83 74 84 76 85 77 86 78 87 79 88
REMARK SMILES IDX 56 89 57 90 65 91 58 92 60 93 66 94 59 95 61 96 62 97 63 98
REMARK SMILES IDX 64 99
REMARK H PARENT 22 6 13 16 18 28 27 33 86 52 54 63
REMARK Flexibility Score: inf
ROOT
ATOM      1  C   UNL A   1      33.392  29.055  25.297  1.00  0.00     0.023 C 
ENDROOT
BRANCH   1   2
ATOM      2  C   UNL A   1      33.444  28.415  23.908  1.00  0.00     0.116 C 
BRANCH   2   3
ATOM      3  N   UNL A   1      32.179  28.581  23.222  1.00  0.00    -0.352 N 
ATOM      4  C   UNL A   1      31.429  27.703  22.481  1.00  0.00     0.255 C 
ATOM      5  O   UNL A   1      30.392  28.121  21.962  1.00  0.00    -0.269 OA
ATOM      6  H   UNL A   1      31.790  29.482  23.302  1.00  0.00     0.163 HD
BRANCH   4   7
ATOM      7  C   UNL A   1      31.711  26.246  22.406  1.00  0.00     0.083 A 
ATOM      8  C   UNL A   1      31.345  24.130  23.556  1.00  0.00     0.042 A 
ATOM      9  C   UNL A   1      32.196  23.483  22.663  1.00  0.00     0.030 A 
ATOM     10  C   UNL A   1      31.051  25.483  23.382  1.00  0.00     0.043 A 
ATOM     11  C   UNL A   1      32.783  24.210  21.625  1.00  0.00     0.049 A 
ATOM     12  C   UNL A   1      32.557  25.587  21.510  1.00  0.00     0.128 A 
BRANCH   8  13
ATOM     13  N   UNL A   1      30.775  23.503  24.665  1.00  0.00    -0.322 N 
ATOM     14  C   UNL A   1      31.106  22.340  25.320  1.00  0.00     0.259 C 
ATOM     15  O   UNL A   1      30.286  21.883  26.122  1.00  0.00    -0.269 OA
ATOM     16  H   UNL A   1      29.999  23.976  25.043  1.00  0.00     0.170 HD
BRANCH  14  17
ATOM     17  C   UNL A   1      32.417  21.632  25.174  1.00  0.00     0.083 A 
ATOM     18  C   UNL A   1      33.683  22.129  25.594  1.00  0.00     0.134 A 
ATOM     19  C   UNL A   1      34.836  21.328  25.409  1.00  0.00    -0.007 A 
ATOM     20  C   UNL A   1      36.247  21.735  25.739  1.00  0.00     0.048 C 
ATOM     21  C   UNL A   1      34.676  20.004  24.949  1.00  0.00     0.023 A 
ATOM     22  C   UNL A   1      32.305  20.309  24.710  1.00  0.00     0.033 A 
ATOM     23  C   UNL A   1      33.423  19.495  24.634  1.00  0.00     0.019 A 
ATOM     24  Br  UNL A   1      33.242  17.678  24.149  1.00  0.00    -0.051 Br
BRANCH  18  25
ATOM     25  O   UNL A   1      33.646  23.292  26.316  1.00  0.00    -0.496 OA
ATOM     26  C   UNL A   1      34.152  24.501  25.773  1.00  0.00     0.278 C 
ENDBRANCH  18  25
ENDBRANCH  14  17
ENDBRANCH   8  13
BRANCH  12  27
ATOM     27  O   UNL A   1      33.172  26.252  20.494  1.00  0.00    -0.507 OA
ATOM     28  H   UNL A   1      33.949  25.900  20.106  1.00  0.00     0.293 HD
ENDBRANCH  12  27
ENDBRANCH   4   7
ENDBRANCH   2   3
ENDBRANCH   1   2
BRANCH   1  29
ATOM     29  C   UNL A   1      32.290  30.096  25.482  1.00  0.00     0.023 C 
BRANCH  29  30
ATOM     30  C   UNL A   1      32.116  30.609  26.904  1.00  0.00     0.116 C 
BRANCH  30  31
ATOM     31  N   UNL A   1      32.199  32.062  27.007  1.00  0.00    -0.352 N 
ATOM     32  C   UNL A   1      33.205  32.835  27.534  1.00  0.00     0.251 C 
ATOM     33  H   UNL A   1      31.427  32.558  26.650  1.00  0.00     0.163 HD
ATOM     34  O   UNL A   1      33.062  34.050  27.634  1.00  0.00    -0.269 OA
BRANCH  32  35
ATOM     35  C   UNL A   1      34.444  32.185  28.013  1.00  0.00     0.039 A 
ATOM     36  C   UNL A   1      35.604  32.952  28.143  1.00  0.00     0.014 A 
ATOM     37  C   UNL A   1      34.441  30.839  28.386  1.00  0.00     0.014 A 
ATOM     38  C   UNL A   1      36.741  32.388  28.725  1.00  0.00     0.010 A 
ATOM     39  C   UNL A   1      35.546  30.304  29.036  1.00  0.00     0.010 A 
ATOM     40  C   UNL A   1      36.706  31.072  29.218  1.00  0.00    -0.014 A 
BRANCH  40  41
ATOM     41  C   UNL A   1      37.856  30.488  29.952  1.00  0.00     0.031 A 
ATOM     42  C   UNL A   1      38.161  30.932  31.357  1.00  0.00     0.074 A 
ATOM     43  C   UNL A   1      38.691  29.642  29.315  1.00  0.00     0.049 A 
ATOM     44  N   UNL A   1      39.162  30.596  32.128  1.00  0.00    -0.248 NA
ATOM     45  C   UNL A   1      37.237  31.905  31.964  1.00  0.00     0.031 C 
ATOM     46  C   UNL A   1      38.556  29.207  27.922  1.00  0.00     0.029 A 
ATOM     47  N   UNL A   1      39.837  29.020  29.745  1.00  0.00    -0.354 N 
ATOM     48  C   UNL A   1      39.012  31.341  33.291  1.00  0.00     0.074 A 
ATOM     49  C   UNL A   1      37.844  32.173  33.112  1.00  0.00     0.031 C 
ATOM     50  C   UNL A   1      39.576  28.390  27.614  1.00  0.00     0.029 A 
ATOM     51  C   UNL A   1      40.452  28.262  28.775  1.00  0.00     0.049 A 
ATOM     52  H   UNL A   1      40.187  29.109  30.662  1.00  0.00     0.167 HD
ATOM     53  C   UNL A   1      39.762  31.313  34.418  1.00  0.00     0.034 A 
ATOM     54  C   UNL A   1      41.593  27.548  28.815  1.00  0.00     0.034 A 
ATOM     55  C   UNL A   1      40.891  30.446  34.613  1.00  0.00     0.049 A 
ATOM     56  C   UNL A   1      42.373  27.488  30.099  1.00  0.00     0.074 A 
ATOM     57  C   UNL A   1      41.654  30.270  35.754  1.00  0.00     0.029 A 
ATOM     58  N   UNL A   1      41.422  29.610  33.644  1.00  0.00    -0.354 N 
ATOM     59  N   UNL A   1      42.118  28.069  31.247  1.00  0.00    -0.248 NA
ATOM     60  C   UNL A   1      43.578  26.644  30.110  1.00  0.00     0.031 C 
ATOM     61  C   UNL A   1      42.656  29.337  35.468  1.00  0.00     0.029 A 
ATOM     62  C   UNL A   1      42.506  28.918  34.156  1.00  0.00     0.049 A 
ATOM     63  H   UNL A   1      41.079  29.520  32.725  1.00  0.00     0.167 HD
ATOM     64  C   UNL A   1      43.105  27.634  32.123  1.00  0.00     0.074 A 
ATOM     65  C   UNL A   1      43.952  26.724  31.379  1.00  0.00     0.031 C 
ATOM     66  C   UNL A   1      43.302  27.970  33.422  1.00  0.00     0.034 A 
BRANCH  53  67
ATOM     67  C   UNL A   1      39.341  32.203  35.558  1.00  0.00     0.023 A 
ATOM     68  C   UNL A   1      38.493  31.688  36.561  1.00  0.00     0.012 A 
ATOM     69  C   UNL A   1      39.826  33.520  35.673  1.00  0.00     0.148 A 
ATOM     70  C   UNL A   1      38.108  32.479  37.642  1.00  0.00     0.002 A 
ATOM     71  C   UNL A   1      39.473  34.288  36.777  1.00  0.00     0.091 A 
ATOM     72  F   UNL A   1      40.612  34.000  34.700  1.00  0.00    -0.205 F 
ATOM     73  C   UNL A   1      38.605  33.774  37.755  1.00  0.00     0.022 A 
BRANCH  71  74
ATOM     74  S   UNL A   1      40.121  35.941  37.054  1.00  0.00     0.127 S 
ATOM     75  O   UNL A   1      39.393  36.344  38.257  1.00  0.00    -0.237 OA
ATOM     76  O   UNL A   1      41.546  35.682  37.262  1.00  0.00    -0.237 OA
ATOM     77  O   UNL A   1      39.811  36.699  35.850  1.00  0.00    -0.744 OA
ENDBRANCH  71  74
ENDBRANCH  53  67
BRANCH  54  78
ATOM     78  C   UNL A   1      42.026  26.769  27.620  1.00  0.00     0.023 A 
ATOM     79  C   UNL A   1      42.742  27.420  26.596  1.00  0.00     0.012 A 
ATOM     80  C   UNL A   1      41.763  25.391  27.503  1.00  0.00     0.148 A 
ATOM     81  C   UNL A   1      43.162  26.721  25.464  1.00  0.00     0.002 A 
ATOM     82  C   UNL A   1      42.231  24.689  26.398  1.00  0.00     0.091 A 
ATOM     83  F   UNL A   1      41.068  24.791  28.480  1.00  0.00    -0.205 F 
ATOM     84  C   UNL A   1      42.916  25.355  25.369  1.00  0.00     0.022 A 
BRANCH  82  85
ATOM     85  S   UNL A   1      42.075  22.904  26.258  1.00  0.00     0.127 S 
ATOM     86  O   UNL A   1      40.625  22.727  26.288  1.00  0.00    -0.237 OA
ATOM     87  O   UNL A   1      42.701  22.644  24.961  1.00  0.00    -0.237 OA
ATOM     88  O   UNL A   1      42.807  22.359  27.393  1.00  0.00    -0.744 OA
ENDBRANCH  82  85
ENDBRANCH  54  78
BRANCH  66  89
ATOM     89  C   UNL A   1      44.458  27.328  34.143  1.00  0.00     0.023 A 
ATOM     90  C   UNL A   1      45.700  27.991  34.203  1.00  0.00     0.012 A 
ATOM     91  C   UNL A   1      44.290  26.108  34.828  1.00  0.00     0.148 A 
ATOM     92  C   UNL A   1      46.766  27.436  34.911  1.00  0.00     0.002 A 
ATOM     93  C   UNL A   1      45.343  25.585  35.570  1.00  0.00     0.091 A 
ATOM     94  F   UNL A   1      43.107  25.483  34.742  1.00  0.00    -0.205 F 
ATOM     95  C   UNL A   1      46.584  26.241  35.603  1.00  0.00     0.022 A 
BRANCH  93  96
ATOM     96  S   UNL A   1      45.168  24.103  36.570  1.00  0.00     0.127 S 
ATOM     97  O   UNL A   1      46.562  23.716  36.776  1.00  0.00    -0.237 OA
ATOM     98  O   UNL A   1      44.492  24.609  37.765  1.00  0.00    -0.237 OA
ATOM     99  O   UNL A   1      44.372  23.177  35.775  1.00  0.00    -0.744 OA
ENDBRANCH  93  96
ENDBRANCH  66  89
ENDBRANCH  40  41
ENDBRANCH  32  35
ENDBRANCH  30  31
ENDBRANCH  29  30
ENDBRANCH   1  29
TORSDOF 18
ENDMDL
MODEL 2
REMARK VINA RESULT:     -12.7      2.103      2.884
REMARK SMILES COc1c(C)cc(Br)cc1C(=O)Nc1ccc(O)c(C(=O)NCCCCNC(=O)c2ccc(-c3c4nc(c(-c5cccc(S(=O)(=O)[O-])c5F)c5ccc([nH]5)c(-c5cccc(S(=O)(=O)[O-])c5F)c5nc(c(-c6cccc(S(=O)(=O)[O-])c6F)c6ccc3[nH]6)C=C5)C=C4)cc2)c1
REMARK SMILES IDX 24 1 23 2 22 3 20 4 21 5 19 7 14 8 15 9 93 10 16 11 17 12
REMARK SMILES IDX 13 13 11 14 12 15 10 17 3 18 4 19 5 20 6 21 9 22 7 23 8 24
REMARK SMILES IDX 2 25 1 26 18 27 25 29 26 30 27 31 28 32 29 34 30 35 31 36
REMARK SMILES IDX 92 37 32 38 91 39 33 40 34 41 35 42 85 43 36 44 90 45 84 46
REMARK SMILES IDX 86 47 37 48 89 49 83 50 82 51 38 53 70 54 50 55 69 56 51 57
REMARK SMILES IDX 54 58 68 59 87 60 52 61 53 62 67 64 88 65 55 66 39 67 40 68
REMARK SMILES IDX 48 69 41 70 43 71 49 72 42 73 44 74 45 75 46 76 47 77 71 78
REMARK SMILES IDX 72 79 80 80 73 81 75 82 81 83 74 84 76 85 77 86 78 87 79 88
REMARK SMILES IDX 56 89 57 90 65 91 58 92 60 93 66 94 59 95 61 96 62 97 63 98
REMARK SMILES IDX 64 99
REMARK H PARENT 22 6 13 16 18 28 27 33 86 52 54 63
REMARK Flexibility Score: inf
ROOT
ATOM      1  C   UNL A   1      33.081  27.838  25.254  1.00  0.00     0.023 C 
ENDROOT
BRANCH   1   2
ATOM      2  C   UNL A   1      33.251  28.623  23.952  1.00  0.00     0.116 C 
BRANCH   2   3
ATOM      3  N   UNL A   1      31.992  28.709  23.239  1.00  0.00    -0.352 N 
ATOM      4  C   UNL A   1      31.305  27.780  22.499  1.00  0.00     0.255 C 
ATOM      5  O   UNL A   1      30.258  28.133  21.954  1.00  0.00    -0.269 OA
ATOM      6  H   UNL A   1      31.553  29.589  23.297  1.00  0.00     0.163 HD
BRANCH   4   7
ATOM      7  C   UNL A   1      31.667  26.340  22.454  1.00  0.00     0.083 A 
ATOM      8  C   UNL A   1      31.364  24.218  23.611  1.00  0.00     0.042 A 
ATOM      9  C   UNL A   1      32.287  23.609  22.764  1.00  0.00     0.030 A 
ATOM     10  C   UNL A   1      31.006  25.552  23.409  1.00  0.00     0.043 A 
ATOM     11  C   UNL A   1      32.879  24.356  21.743  1.00  0.00     0.049 A 
ATOM     12  C   UNL A   1      32.586  25.719  21.603  1.00  0.00     0.128 A 
BRANCH   8  13
ATOM     13  N   UNL A   1      30.779  23.571  24.701  1.00  0.00    -0.322 N 
ATOM     14  C   UNL A   1      31.078  22.379  25.316  1.00  0.00     0.259 C 
ATOM     15  O   UNL A   1      30.248  21.920  26.107  1.00  0.00    -0.269 OA
ATOM     16  H   UNL A   1      30.020  24.055  25.100  1.00  0.00     0.170 HD
BRANCH  14  17
ATOM     17  C   UNL A   1      32.366  21.636  25.139  1.00  0.00     0.083 A 
ATOM     18  C   UNL A   1      33.638  22.047  25.629  1.00  0.00     0.134 A 
ATOM     19  C   UNL A   1      34.766  21.221  25.403  1.00  0.00    -0.007 A 
ATOM     20  C   UNL A   1      36.181  21.545  25.798  1.00  0.00     0.048 C 
ATOM     21  C   UNL A   1      34.571  19.949  24.827  1.00  0.00     0.023 A 
ATOM     22  C   UNL A   1      32.219  20.362  24.561  1.00  0.00     0.033 A 
ATOM     23  C   UNL A   1      33.309  19.516  24.441  1.00  0.00     0.019 A 
ATOM     24  Br  UNL A   1      33.075  17.755  23.797  1.00  0.00    -0.051 Br
BRANCH  18  25
ATOM     25  O   UNL A   1      33.623  23.145  26.448  1.00  0.00    -0.496 OA
ATOM     26  C   UNL A   1      34.106  24.398  25.990  1.00  0.00     0.278 C 
ENDBRANCH  18  25
ENDBRANCH  14  17
ENDBRANCH   8  13
BRANCH  12  27
ATOM     27  O   UNL A   1      33.208  26.406  20.606  1.00  0.00    -0.507 OA
ATOM     28  H   UNL A   1      33.212  27.343  20.615  1.00  0.00     0.293 HD
ENDBRANCH  12  27
ENDBRANCH   4   7
ENDBRANCH   2   3
ENDBRANCH   1   2
BRANCH   1  29
ATOM     29  C   UNL A   1      34.006  28.272  26.389  1.00  0.00     0.023 C 
BRANCH  29  30
ATOM     30  C   UNL A   1      33.313  28.927  27.575  1.00  0.00     0.116 C 
BRANCH  30  31
ATOM     31  N   UNL A   1      33.519  30.369  27.641  1.00  0.00    -0.352 N 
ATOM     32  C   UNL A   1      34.636  31.064  28.035  1.00  0.00     0.251 C 
ATOM     33  H   UNL A   1      32.752  30.921  27.364  1.00  0.00     0.163 HD
ATOM     34  O   UNL A   1      34.601  32.289  28.128  1.00  0.00    -0.269 OA
BRANCH  32  35
ATOM     35  C   UNL A   1      35.868  30.323  28.382  1.00  0.00     0.039 A 
ATOM     36  C   UNL A   1      36.939  30.331  27.486  1.00  0.00     0.014 A 
ATOM     37  C   UNL A   1      35.981  29.672  29.614  1.00  0.00     0.014 A 
ATOM     38  C   UNL A   1      38.154  29.756  27.860  1.00  0.00     0.010 A 
ATOM     39  C   UNL A   1      37.213  29.171  30.015  1.00  0.00     0.010 A 
ATOM     40  C   UNL A   1      38.314  29.210  29.146  1.00  0.00    -0.014 A 
BRANCH  40  41
ATOM     41  C   UNL A   1      39.628  28.704  29.616  1.00  0.00     0.031 A 
ATOM     42  C   UNL A   1      40.367  29.421  30.713  1.00  0.00     0.074 A 
ATOM     43  C   UNL A   1      40.207  27.667  28.979  1.00  0.00     0.049 A 
ATOM     44  N   UNL A   1      41.555  29.177  31.203  1.00  0.00    -0.248 NA
ATOM     45  C   UNL A   1      39.696  30.584  31.319  1.00  0.00     0.031 C 
ATOM     46  C   UNL A   1      39.634  26.946  27.839  1.00  0.00     0.029 A 
ATOM     47  N   UNL A   1      41.421  27.056  29.178  1.00  0.00    -0.354 N 
ATOM     48  C   UNL A   1      41.790  30.174  32.142  1.00  0.00     0.074 A 
ATOM     49  C   UNL A   1      40.637  31.046  32.131  1.00  0.00     0.031 C 
ATOM     50  C   UNL A   1      40.492  25.993  27.442  1.00  0.00     0.029 A 
ATOM     51  C   UNL A   1      41.687  26.049  28.279  1.00  0.00     0.049 A 
ATOM     52  H   UNL A   1      42.042  27.315  29.897  1.00  0.00     0.167 HD
ATOM     53  C   UNL A   1      42.855  30.331  32.963  1.00  0.00     0.034 A 
ATOM     54  C   UNL A   1      42.772  25.262  28.142  1.00  0.00     0.034 A 
ATOM     55  C   UNL A   1      43.975  29.431  33.009  1.00  0.00     0.049 A 
ATOM     56  C   UNL A   1      43.916  25.421  29.106  1.00  0.00     0.074 A 
ATOM     57  C   UNL A   1      45.056  29.446  33.873  1.00  0.00     0.029 A 
ATOM     58  N   UNL A   1      44.161  28.355  32.155  1.00  0.00    -0.354 N 
ATOM     59  N   UNL A   1      44.044  26.263  30.103  1.00  0.00    -0.248 NA
ATOM     60  C   UNL A   1      45.049  24.496  28.953  1.00  0.00     0.031 C 
ATOM     61  C   UNL A   1      45.903  28.387  33.530  1.00  0.00     0.029 A 
ATOM     62  C   UNL A   1      45.341  27.701  32.466  1.00  0.00     0.049 A 
ATOM     63  H   UNL A   1      43.545  28.095  31.432  1.00  0.00     0.167 HD
ATOM     64  C   UNL A   1      45.250  25.948  30.717  1.00  0.00     0.074 A 
ATOM     65  C   UNL A   1      45.805  24.823  29.993  1.00  0.00     0.031 C 
ATOM     66  C   UNL A   1      45.851  26.546  31.775  1.00  0.00     0.034 A 
BRANCH  53  67
ATOM     67  C   UNL A   1      42.829  31.486  33.928  1.00  0.00     0.023 A 
ATOM     68  C   UNL A   1      43.405  32.716  33.551  1.00  0.00     0.012 A 
ATOM     69  C   UNL A   1      42.188  31.377  35.177  1.00  0.00     0.148 A 
ATOM     70  C   UNL A   1      43.374  33.811  34.413  1.00  0.00     0.002 A 
ATOM     71  C   UNL A   1      42.122  32.486  36.014  1.00  0.00     0.091 A 
ATOM     72  F   UNL A   1      41.666  30.194  35.529  1.00  0.00    -0.205 F 
ATOM     73  C   UNL A   1      42.724  33.699  35.639  1.00  0.00     0.022 A 
BRANCH  71  74
ATOM     74  S   UNL A   1      41.241  32.467  37.580  1.00  0.00     0.127 S 
ATOM     75  O   UNL A   1      42.090  31.588  38.384  1.00  0.00    -0.237 OA
ATOM     76  O   UNL A   1      41.277  33.876  37.972  1.00  0.00    -0.237 OA
ATOM     77  O   UNL A   1      39.911  31.953  37.284  1.00  0.00    -0.744 OA
ENDBRANCH  71  74
ENDBRANCH  53  67
BRANCH  54  78
ATOM     78  C   UNL A   1      42.794  24.201  27.096  1.00  0.00     0.023 A 
ATOM     79  C   UNL A   1      43.503  24.429  25.899  1.00  0.00     0.012 A 
ATOM     80  C   UNL A   1      42.151  22.963  27.286  1.00  0.00     0.148 A 
ATOM     81  C   UNL A   1      43.545  23.457  24.900  1.00  0.00     0.002 A 
ATOM     82  C   UNL A   1      42.241  21.979  26.309  1.00  0.00     0.091 A 
ATOM     83  F   UNL A   1      41.470  22.769  28.425  1.00  0.00    -0.205 F 
ATOM     84  C   UNL A   1      42.923  22.229  25.108  1.00  0.00     0.022 A 
BRANCH  82  85
ATOM     85  S   UNL A   1      41.585  20.324  26.550  1.00  0.00     0.127 S 
ATOM     86  O   UNL A   1      40.145  20.572  26.567  1.00  0.00    -0.237 OA
ATOM     87  O   UNL A   1      42.076  19.625  25.361  1.00  0.00    -0.237 OA
ATOM     88  O   UNL A   1      42.164  19.853  27.800  1.00  0.00    -0.744 OA
ENDBRANCH  82  85
ENDBRANCH  54  78
BRANCH  66  89
ATOM     89  C   UNL A   1      47.165  25.980  32.244  1.00  0.00     0.023 A 
ATOM     90  C   UNL A   1      48.368  26.440  31.673  1.00  0.00     0.012 A 
ATOM     91  C   UNL A   1      47.211  25.054  33.305  1.00  0.00     0.148 A 
ATOM     92  C   UNL A   1      49.597  25.966  32.133  1.00  0.00     0.002 A 
ATOM     93  C   UNL A   1      48.441  24.622  33.789  1.00  0.00     0.091 A 
ATOM     94  F   UNL A   1      46.055  24.613  33.821  1.00  0.00    -0.205 F 
ATOM     95  C   UNL A   1      49.633  25.068  33.196  1.00  0.00     0.022 A 
BRANCH  93  96
ATOM     96  S   UNL A   1      48.584  23.541  35.216  1.00  0.00     0.127 S 
ATOM     97  O   UNL A   1      47.943  22.320  34.732  1.00  0.00    -0.237 OA
ATOM     98  O   UNL A   1      50.033  23.441  35.389  1.00  0.00    -0.237 OA
ATOM     99  O   UNL A   1      47.894  24.222  36.304  1.00  0.00    -0.744 OA
ENDBRANCH  93  96
ENDBRANCH  66  89
ENDBRANCH  40  41
ENDBRANCH  32  35
ENDBRANCH  30  31
ENDBRANCH  29  30
ENDBRANCH   1  29
TORSDOF 18
ENDMDL
MODEL 3
REMARK VINA RESULT:     -12.5      4.799     10.237
REMARK SMILES COc1c(C)cc(Br)cc1C(=O)Nc1ccc(O)c(C(=O)NCCCCNC(=O)c2ccc(-c3c4nc(c(-c5cccc(S(=O)(=O)[O-])c5F)c5ccc([nH]5)c(-c5cccc(S(=O)(=O)[O-])c5F)c5nc(c(-c6cccc(S(=O)(=O)[O-])c6F)c6ccc3[nH]6)C=C5)C=C4)cc2)c1
REMARK SMILES IDX 24 1 23 2 22 3 20 4 21 5 19 7 14 8 15 9 93 10 16 11 17 12
REMARK SMILES IDX 13 13 11 14 12 15 10 17 3 18 4 19 5 20 6 21 9 22 7 23 8 24
REMARK SMILES IDX 2 25 1 26 18 27 25 29 26 30 27 31 28 32 29 34 30 35 31 36
REMARK SMILES IDX 92 37 32 38 91 39 33 40 34 41 35 42 85 43 36 44 90 45 84 46
REMARK SMILES IDX 86 47 37 48 89 49 83 50 82 51 38 53 70 54 50 55 69 56 51 57
REMARK SMILES IDX 54 58 68 59 87 60 52 61 53 62 67 64 88 65 55 66 39 67 40 68
REMARK SMILES IDX 48 69 41 70 43 71 49 72 42 73 44 74 45 75 46 76 47 77 71 78
REMARK SMILES IDX 72 79 80 80 73 81 75 82 81 83 74 84 76 85 77 86 78 87 79 88
REMARK SMILES IDX 56 89 57 90 65 91 58 92 60 93 66 94 59 95 61 96 62 97 63 98
REMARK SMILES IDX 64 99
REMARK H PARENT 22 6 13 16 18 28 27 33 86 52 54 63
REMARK Flexibility Score: inf
ROOT
ATOM      1  C   UNL A   1      35.016  20.047  24.995  1.00  0.00     0.023 C 
ENDROOT
BRANCH   1   2
ATOM      2  C   UNL A   1      33.608  20.219  25.568  1.00  0.00     0.116 C 
BRANCH   2   3
ATOM      3  N   UNL A   1      33.655  20.920  26.836  1.00  0.00    -0.352 N 
ATOM      4  C   UNL A   1      33.196  22.160  27.203  1.00  0.00     0.255 C 
ATOM      5  O   UNL A   1      33.407  22.538  28.356  1.00  0.00    -0.269 OA
ATOM      6  H   UNL A   1      34.094  20.418  27.560  1.00  0.00     0.163 HD
BRANCH   4   7
ATOM      7  C   UNL A   1      32.322  22.997  26.340  1.00  0.00     0.083 A 
ATOM      8  C   UNL A   1      32.312  24.377  24.333  1.00  0.00     0.042 A 
ATOM      9  C   UNL A   1      31.002  24.770  24.594  1.00  0.00     0.030 A 
ATOM     10  C   UNL A   1      32.939  23.444  25.160  1.00  0.00     0.043 A 
ATOM     11  C   UNL A   1      30.340  24.255  25.710  1.00  0.00     0.049 A 
ATOM     12  C   UNL A   1      31.004  23.390  26.589  1.00  0.00     0.128 A 
BRANCH   8  13
ATOM     13  N   UNL A   1      33.076  24.896  23.285  1.00  0.00    -0.322 N 
ATOM     14  C   UNL A   1      33.251  26.185  22.842  1.00  0.00     0.259 C 
ATOM     15  O   UNL A   1      33.786  26.343  21.740  1.00  0.00    -0.269 OA
ATOM     16  H   UNL A   1      33.576  24.219  22.774  1.00  0.00     0.170 HD
BRANCH  14  17
ATOM     17  C   UNL A   1      32.896  27.407  23.633  1.00  0.00     0.083 A 
ATOM     18  C   UNL A   1      31.729  28.202  23.457  1.00  0.00     0.134 A 
ATOM     19  C   UNL A   1      31.519  29.318  24.303  1.00  0.00    -0.007 A 
ATOM     20  C   UNL A   1      30.374  30.290  24.203  1.00  0.00     0.048 C 
ATOM     21  C   UNL A   1      32.397  29.522  25.388  1.00  0.00     0.023 A 
ATOM     22  C   UNL A   1      33.751  27.652  24.722  1.00  0.00     0.033 A 
ATOM     23  C   UNL A   1      33.480  28.681  25.609  1.00  0.00     0.019 A 
ATOM     24  Br  UNL A   1      34.552  28.912  27.148  1.00  0.00    -0.051 Br
BRANCH  18  25
ATOM     25  O   UNL A   1      30.804  27.700  22.580  1.00  0.00    -0.496 OA
ATOM     26  C   UNL A   1      29.543  27.239  23.040  1.00  0.00     0.278 C 
ENDBRANCH  18  25
ENDBRANCH  14  17
ENDBRANCH   8  13
BRANCH  12  27
ATOM     27  O   UNL A   1      30.321  22.935  27.675  1.00  0.00    -0.507 OA
ATOM     28  H   UNL A   1      30.110  22.026  27.749  1.00  0.00     0.293 HD
ENDBRANCH  12  27
ENDBRANCH   4   7
ENDBRANCH   2   3
ENDBRANCH   1   2
BRANCH   1  29
ATOM     29  C   UNL A   1      35.704  21.346  24.582  1.00  0.00     0.023 C 
BRANCH  29  30
ATOM     30  C   UNL A   1      36.840  21.795  25.490  1.00  0.00     0.116 C 
BRANCH  30  31
ATOM     31  N   UNL A   1      37.905  20.805  25.613  1.00  0.00    -0.352 N 
ATOM     32  C   UNL A   1      39.194  20.975  26.056  1.00  0.00     0.251 C 
ATOM     33  H   UNL A   1      37.668  19.890  25.340  1.00  0.00     0.163 HD
ATOM     34  O   UNL A   1      39.995  20.046  25.995  1.00  0.00    -0.269 OA
BRANCH  32  35
ATOM     35  C   UNL A   1      39.617  22.295  26.570  1.00  0.00     0.039 A 
ATOM     36  C   UNL A   1      40.651  22.357  27.507  1.00  0.00     0.014 A 
ATOM     37  C   UNL A   1      39.031  23.467  26.085  1.00  0.00     0.014 A 
ATOM     38  C   UNL A   1      41.155  23.600  27.896  1.00  0.00     0.010 A 
ATOM     39  C   UNL A   1      39.585  24.699  26.412  1.00  0.00     0.010 A 
ATOM     40  C   UNL A   1      40.655  24.780  27.317  1.00  0.00    -0.014 A 
BRANCH  40  41
ATOM     41  C   UNL A   1      41.254  26.105  27.617  1.00  0.00     0.031 A 
ATOM     42  C   UNL A   1      42.672  26.403  27.213  1.00  0.00     0.074 A 
ATOM     43  C   UNL A   1      40.559  26.998  28.350  1.00  0.00     0.049 A 
ATOM     44  N   UNL A   1      43.391  27.469  27.455  1.00  0.00    -0.248 NA
ATOM     45  C   UNL A   1      43.388  25.354  26.467  1.00  0.00     0.031 C 
ATOM     46  C   UNL A   1      39.209  26.790  28.881  1.00  0.00     0.029 A 
ATOM     47  N   UNL A   1      40.902  28.247  28.803  1.00  0.00    -0.354 N 
ATOM     48  C   UNL A   1      44.649  27.205  26.928  1.00  0.00     0.074 A 
ATOM     49  C   UNL A   1      44.608  25.866  26.384  1.00  0.00     0.031 C 
ATOM     50  C   UNL A   1      38.840  27.872  29.584  1.00  0.00     0.029 A 
ATOM     51  C   UNL A   1      39.932  28.840  29.578  1.00  0.00     0.049 A 
ATOM     52  H   UNL A   1      41.763  28.678  28.594  1.00  0.00     0.167 HD
ATOM     53  C   UNL A   1      45.732  28.015  26.874  1.00  0.00     0.034 A 
ATOM     54  C   UNL A   1      39.925  30.027  30.215  1.00  0.00     0.034 A 
ATOM     55  C   UNL A   1      45.753  29.365  27.367  1.00  0.00     0.049 A 
ATOM     56  C   UNL A   1      41.120  30.932  30.088  1.00  0.00     0.074 A 
ATOM     57  C   UNL A   1      46.767  30.301  27.271  1.00  0.00     0.029 A 
ATOM     58  N   UNL A   1      44.713  29.972  28.053  1.00  0.00    -0.354 N 
ATOM     59  N   UNL A   1      42.240  30.732  29.436  1.00  0.00    -0.248 NA
ATOM     60  C   UNL A   1      41.037  32.243  30.749  1.00  0.00     0.031 C 
ATOM     61  C   UNL A   1      46.344  31.470  27.911  1.00  0.00     0.029 A 
ATOM     62  C   UNL A   1      45.060  31.269  28.391  1.00  0.00     0.049 A 
ATOM     63  H   UNL A   1      43.852  29.544  28.269  1.00  0.00     0.167 HD
ATOM     64  C   UNL A   1      42.979  31.900  29.578  1.00  0.00     0.074 A 
ATOM     65  C   UNL A   1      42.170  32.813  30.360  1.00  0.00     0.031 C 
ATOM     66  C   UNL A   1      44.222  32.186  29.117  1.00  0.00     0.034 A 
BRANCH  53  67
ATOM     67  C   UNL A   1      46.968  27.486  26.196  1.00  0.00     0.023 A 
ATOM     68  C   UNL A   1      47.184  27.769  24.831  1.00  0.00     0.012 A 
ATOM     69  C   UNL A   1      47.940  26.763  26.914  1.00  0.00     0.148 A 
ATOM     70  C   UNL A   1      48.330  27.314  24.183  1.00  0.00     0.002 A 
ATOM     71  C   UNL A   1      49.102  26.350  26.270  1.00  0.00     0.091 A 
ATOM     72  F   UNL A   1      47.708  26.483  28.203  1.00  0.00    -0.205 F 
ATOM     73  C   UNL A   1      49.293  26.614  24.904  1.00  0.00     0.022 A 
BRANCH  71  74
ATOM     74  S   UNL A   1      50.437  25.509  27.129  1.00  0.00     0.127 S 
ATOM     75  O   UNL A   1      50.802  26.496  28.145  1.00  0.00    -0.237 OA
ATOM     76  O   UNL A   1      49.767  24.317  27.651  1.00  0.00    -0.237 OA
ATOM     77  O   UNL A   1      51.455  25.241  26.122  1.00  0.00    -0.744 OA
ENDBRANCH  71  74
ENDBRANCH  53  67
BRANCH  54  78
ATOM     78  C   UNL A   1      38.713  30.461  30.967  1.00  0.00     0.023 A 
ATOM     79  C   UNL A   1      38.630  30.197  32.348  1.00  0.00     0.012 A 
ATOM     80  C   UNL A   1      37.663  31.156  30.337  1.00  0.00     0.148 A 
ATOM     81  C   UNL A   1      37.511  30.590  33.083  1.00  0.00     0.002 A 
ATOM     82  C   UNL A   1      36.575  31.591  31.085  1.00  0.00     0.091 A 
ATOM     83  F   UNL A   1      37.754  31.386  29.019  1.00  0.00    -0.205 F 
ATOM     84  C   UNL A   1      36.489  31.295  32.454  1.00  0.00     0.022 A 
BRANCH  82  85
ATOM     85  S   UNL A   1      35.280  32.620  30.385  1.00  0.00     0.127 S 
ATOM     86  O   UNL A   1      36.017  33.829  30.028  1.00  0.00    -0.237 OA
ATOM     87  O   UNL A   1      34.830  31.814  29.249  1.00  0.00    -0.237 OA
ATOM     88  O   UNL A   1      34.287  32.769  31.441  1.00  0.00    -0.744 OA
ENDBRANCH  82  85
ENDBRANCH  54  78
BRANCH  66  89
ATOM     89  C   UNL A   1      44.778  33.554  29.410  1.00  0.00     0.023 A 
ATOM     90  C   UNL A   1      45.507  33.772  30.596  1.00  0.00     0.012 A 
ATOM     91  C   UNL A   1      44.650  34.599  28.474  1.00  0.00     0.148 A 
ATOM     92  C   UNL A   1      46.076  35.018  30.859  1.00  0.00     0.002 A 
ATOM     93  C   UNL A   1      45.259  35.824  28.721  1.00  0.00     0.091 A 
ATOM     94  F   UNL A   1      43.935  34.377  27.361  1.00  0.00    -0.205 F 
ATOM     95  C   UNL A   1      45.962  36.039  29.917  1.00  0.00     0.022 A 
BRANCH  93  96
ATOM     96  S   UNL A   1      45.245  37.161  27.522  1.00  0.00     0.127 S 
ATOM     97  O   UNL A   1      45.840  38.255  28.289  1.00  0.00    -0.237 OA
ATOM     98  O   UNL A   1      46.094  36.633  26.454  1.00  0.00    -0.237 OA
ATOM     99  O   UNL A   1      43.850  37.346  27.146  1.00  0.00    -0.744 OA
ENDBRANCH  93  96
ENDBRANCH  66  89
ENDBRANCH  40  41
ENDBRANCH  32  35
ENDBRANCH  30  31
ENDBRANCH  29  30
ENDBRANCH   1  29
TORSDOF 18
ENDMDL
