MODEL 1
REMARK VINA RESULT:     -12.5      0.000      0.000
REMARK SMILES O=C(NCCCCNC(=O)[C@H]1CCCCN1S(=O)(=O)c1cc[nH]c1)c1ccc(-c2c3nc(c(-c4cccc(S(=O)(=O)[O-])c4F)c4ccc([nH]4)c(-c4cccc(S(=O)(=O)[O-])c4F)c4nc(c(-c5cccc(S(=O)(=O)[O-])c5F)c5ccc2[nH]5)C=C4)C=C3)cc1
REMARK SMILES IDX 5 1 4 2 3 3 1 4 2 5 25 7 26 8 87 9 27 10 86 11 28 12 29 13
REMARK SMILES IDX 30 14 80 15 31 16 85 17 79 18 81 19 32 20 84 21 78 22 77 23
REMARK SMILES IDX 33 25 65 26 45 27 64 28 46 29 49 30 63 31 82 32 47 33 48 34
REMARK SMILES IDX 62 36 83 37 50 38 34 39 35 40 43 41 36 42 38 43 44 44 37 45
REMARK SMILES IDX 39 46 40 47 41 48 42 49 66 50 67 51 75 52 68 53 70 54 76 55
REMARK SMILES IDX 69 56 71 57 72 58 73 59 74 60 51 61 52 62 60 63 53 64 55 65
REMARK SMILES IDX 61 66 54 67 56 68 57 69 58 70 59 71 6 72 7 73 8 74 9 75
REMARK SMILES IDX 10 77 11 78 12 79 16 80 13 81 15 82 14 83 17 84 18 85 19 86
REMARK SMILES IDX 20 87 21 88 24 89 22 90 23 91
REMARK H PARENT 3 6 81 24 49 35 8 76 23 92
REMARK Flexibility Score: inf
ROOT
ATOM      1  C   UNL A   1      36.343  22.644  25.866  1.00  0.00     0.023 C 
ENDROOT
BRANCH   1   2
ATOM      2  C   UNL A   1      37.317  23.818  25.834  1.00  0.00     0.116 C 
BRANCH   2   3
ATOM      3  N   UNL A   1      38.726  23.482  25.971  1.00  0.00    -0.352 N 
ATOM      4  O   UNL A   1      40.870  23.424  26.518  1.00  0.00    -0.269 OA
ATOM      5  C   UNL A   1      39.804  24.037  26.616  1.00  0.00     0.251 C 
ATOM      6  H   UNL A   1      38.963  22.659  25.486  1.00  0.00     0.163 HD
BRANCH   5   7
ATOM      7  C   UNL A   1      39.770  25.320  27.370  1.00  0.00     0.039 A 
ATOM      8  C   UNL A   1      39.306  25.433  28.680  1.00  0.00     0.014 A 
ATOM      9  C   UNL A   1      40.293  26.469  26.742  1.00  0.00     0.014 A 
ATOM     10  C   UNL A   1      39.280  26.668  29.319  1.00  0.00     0.010 A 
ATOM     11  C   UNL A   1      40.317  27.706  27.397  1.00  0.00     0.010 A 
ATOM     12  C   UNL A   1      39.803  27.804  28.691  1.00  0.00    -0.014 A 
BRANCH  12  13
ATOM     13  C   UNL A   1      39.968  29.011  29.539  1.00  0.00     0.031 A 
ATOM     14  C   UNL A   1      38.763  29.945  29.427  1.00  0.00     0.074 A 
ATOM     15  C   UNL A   1      41.167  29.220  30.156  1.00  0.00     0.049 A 
ATOM     16  N   UNL A   1      38.737  31.233  29.239  1.00  0.00    -0.248 NA
ATOM     17  C   UNL A   1      37.408  29.348  29.322  1.00  0.00     0.031 C 
ATOM     18  C   UNL A   1      42.269  28.244  30.182  1.00  0.00     0.029 A 
ATOM     19  N   UNL A   1      41.709  30.280  30.862  1.00  0.00    -0.354 N 
ATOM     20  C   UNL A   1      37.378  31.609  29.185  1.00  0.00     0.074 A 
ATOM     21  C   UNL A   1      36.621  30.398  29.076  1.00  0.00     0.031 C 
ATOM     22  C   UNL A   1      43.349  28.765  30.799  1.00  0.00     0.029 A 
ATOM     23  C   UNL A   1      43.055  30.116  31.254  1.00  0.00     0.049 A 
ATOM     24  H   UNL A   1      41.193  31.090  31.076  1.00  0.00     0.167 HD
ATOM     25  C   UNL A   1      36.949  32.890  29.379  1.00  0.00     0.034 A 
ATOM     26  C   UNL A   1      43.908  31.000  31.859  1.00  0.00     0.034 A 
ATOM     27  C   UNL A   1      38.043  33.712  29.784  1.00  0.00     0.049 A 
ATOM     28  C   UNL A   1      43.153  32.241  32.108  1.00  0.00     0.074 A 
ATOM     29  C   UNL A   1      39.048  34.381  29.141  1.00  0.00     0.029 A 
ATOM     30  N   UNL A   1      38.287  33.726  31.137  1.00  0.00    -0.354 N 
ATOM     31  N   UNL A   1      42.272  32.412  33.049  1.00  0.00    -0.248 NA
ATOM     32  C   UNL A   1      43.341  33.375  31.189  1.00  0.00     0.031 C 
ATOM     33  C   UNL A   1      40.049  34.562  30.122  1.00  0.00     0.029 A 
ATOM     34  C   UNL A   1      39.616  33.998  31.329  1.00  0.00     0.049 A 
ATOM     35  H   UNL A   1      37.621  33.566  31.845  1.00  0.00     0.167 HD
ATOM     36  C   UNL A   1      41.584  33.520  32.607  1.00  0.00     0.074 A 
ATOM     37  C   UNL A   1      42.473  34.228  31.722  1.00  0.00     0.031 C 
ATOM     38  C   UNL A   1      40.229  33.480  32.534  1.00  0.00     0.034 A 
BRANCH  25  39
ATOM     39  C   UNL A   1      35.580  33.523  29.495  1.00  0.00     0.023 A 
ATOM     40  C   UNL A   1      34.901  33.725  28.258  1.00  0.00     0.012 A 
ATOM     41  C   UNL A   1      35.038  34.148  30.629  1.00  0.00     0.148 A 
ATOM     42  C   UNL A   1      33.809  34.579  28.127  1.00  0.00     0.002 A 
ATOM     43  C   UNL A   1      33.905  34.963  30.504  1.00  0.00     0.091 A 
ATOM     44  F   UNL A   1      35.661  34.039  31.807  1.00  0.00    -0.205 F 
ATOM     45  C   UNL A   1      33.314  35.206  29.254  1.00  0.00     0.022 A 
BRANCH  43  46
ATOM     46  S   UNL A   1      33.126  35.745  31.922  1.00  0.00     0.127 S 
ATOM     47  O   UNL A   1      32.021  36.473  31.304  1.00  0.00    -0.237 OA
ATOM     48  O   UNL A   1      32.715  34.591  32.728  1.00  0.00    -0.237 OA
ATOM     49  O   UNL A   1      34.176  36.544  32.539  1.00  0.00    -0.744 OA
ENDBRANCH  43  46
ENDBRANCH  25  39
BRANCH  26  50
ATOM     50  C   UNL A   1      45.387  31.004  32.182  1.00  0.00     0.023 A 
ATOM     51  C   UNL A   1      45.891  30.860  33.483  1.00  0.00     0.012 A 
ATOM     52  C   UNL A   1      46.370  31.143  31.155  1.00  0.00     0.148 A 
ATOM     53  C   UNL A   1      47.272  30.739  33.733  1.00  0.00     0.002 A 
ATOM     54  C   UNL A   1      47.727  30.941  31.386  1.00  0.00     0.091 A 
ATOM     55  F   UNL A   1      46.003  31.522  29.929  1.00  0.00    -0.205 F 
ATOM     56  C   UNL A   1      48.186  30.738  32.683  1.00  0.00     0.022 A 
BRANCH  54  57
ATOM     57  S   UNL A   1      48.921  30.824  30.039  1.00  0.00     0.127 S 
ATOM     58  O   UNL A   1      50.180  30.635  30.754  1.00  0.00    -0.237 OA
ATOM     59  O   UNL A   1      48.438  29.643  29.322  1.00  0.00    -0.237 OA
ATOM     60  O   UNL A   1      48.818  32.068  29.286  1.00  0.00    -0.744 OA
ENDBRANCH  54  57
ENDBRANCH  26  50
BRANCH  38  61
ATOM     61  C   UNL A   1      39.595  32.511  33.520  1.00  0.00     0.023 A 
ATOM     62  C   UNL A   1      39.120  31.283  33.026  1.00  0.00     0.012 A 
ATOM     63  C   UNL A   1      39.321  32.825  34.872  1.00  0.00     0.148 A 
ATOM     64  C   UNL A   1      38.397  30.406  33.839  1.00  0.00     0.002 A 
ATOM     65  C   UNL A   1      38.597  31.954  35.685  1.00  0.00     0.091 A 
ATOM     66  F   UNL A   1      39.758  33.988  35.346  1.00  0.00    -0.205 F 
ATOM     67  C   UNL A   1      38.135  30.740  35.165  1.00  0.00     0.022 A 
BRANCH  65  68
ATOM     68  S   UNL A   1      38.145  32.327  37.392  1.00  0.00     0.127 S 
ATOM     69  O   UNL A   1      37.339  33.541  37.248  1.00  0.00    -0.237 OA
ATOM     70  O   UNL A   1      37.381  31.141  37.770  1.00  0.00    -0.237 OA
ATOM     71  O   UNL A   1      39.390  32.524  38.125  1.00  0.00    -0.744 OA
ENDBRANCH  65  68
ENDBRANCH  38  61
ENDBRANCH  12  13
ENDBRANCH   5   7
ENDBRANCH   2   3
ENDBRANCH   1   2
BRANCH   1  72
ATOM     72  C   UNL A   1      35.148  22.795  24.935  1.00  0.00     0.023 C 
BRANCH  72  73
ATOM     73  C   UNL A   1      34.199  23.965  25.235  1.00  0.00     0.116 C 
BRANCH  73  74
ATOM     74  N   UNL A   1      34.251  24.938  24.157  1.00  0.00    -0.355 N 
ATOM     75  C   UNL A   1      33.442  25.967  23.793  1.00  0.00     0.238 C 
ATOM     76  H   UNL A   1      35.033  24.829  23.569  1.00  0.00     0.163 HD
ATOM     77  O   UNL A   1      33.706  26.440  22.679  1.00  0.00    -0.273 OA
BRANCH  75  78
ATOM     78  C   UNL A   1      32.334  26.586  24.688  1.00  0.00     0.162 C 
ATOM     79  C   UNL A   1      32.960  26.990  26.051  1.00  0.00     0.030 C 
ATOM     80  N   UNL A   1      31.604  27.827  24.222  1.00  0.00    -0.185 NA
ATOM     81  C   UNL A   1      33.863  28.232  25.965  1.00  0.00     0.004 C 
ATOM     82  C   UNL A   1      32.555  28.901  23.877  1.00  0.00     0.103 C 
ATOM     83  C   UNL A   1      33.228  29.370  25.167  1.00  0.00     0.017 C 
BRANCH  80  84
ATOM     84  S   UNL A   1      30.303  27.512  23.203  1.00  0.00     0.245 S 
ATOM     85  O   UNL A   1      30.860  27.280  21.894  1.00  0.00    -0.207 OA
ATOM     86  O   UNL A   1      29.477  26.521  23.856  1.00  0.00    -0.207 OA
BRANCH  84  87
ATOM     87  C   UNL A   1      29.226  28.807  22.817  1.00  0.00     0.100 A 
ATOM     88  C   UNL A   1      29.514  29.874  21.924  1.00  0.00     0.041 A 
ATOM     89  C   UNL A   1      27.849  28.763  22.963  1.00  0.00     0.104 A 
ATOM     90  C   UNL A   1      28.310  30.408  21.517  1.00  0.00     0.083 A 
ATOM     91  N   UNL A   1      27.305  29.717  22.142  1.00  0.00    -0.366 N 
ATOM     92  H   UNL A   1      26.342  29.881  22.020  1.00  0.00     0.165 HD
ENDBRANCH  84  87
ENDBRANCH  80  84
ENDBRANCH  75  78
ENDBRANCH  73  74
ENDBRANCH  72  73
ENDBRANCH   1  72
TORSDOF 16
ENDMDL
MODEL 2
REMARK VINA RESULT:     -12.5      1.680      2.881
REMARK SMILES O=C(NCCCCNC(=O)[C@H]1CCCCN1S(=O)(=O)c1cc[nH]c1)c1ccc(-c2c3nc(c(-c4cccc(S(=O)(=O)[O-])c4F)c4ccc([nH]4)c(-c4cccc(S(=O)(=O)[O-])c4F)c4nc(c(-c5cccc(S(=O)(=O)[O-])c5F)c5ccc2[nH]5)C=C4)C=C3)cc1
REMARK SMILES IDX 5 1 4 2 3 3 1 4 2 5 25 7 26 8 87 9 27 10 86 11 28 12 29 13
REMARK SMILES IDX 30 14 80 15 31 16 85 17 79 18 81 19 32 20 84 21 78 22 77 23
REMARK SMILES IDX 33 25 65 26 45 27 64 28 46 29 49 30 63 31 82 32 47 33 48 34
REMARK SMILES IDX 62 36 83 37 50 38 34 39 35 40 43 41 36 42 38 43 44 44 37 45
REMARK SMILES IDX 39 46 40 47 41 48 42 49 66 50 67 51 75 52 68 53 70 54 76 55
REMARK SMILES IDX 69 56 71 57 72 58 73 59 74 60 51 61 52 62 60 63 53 64 55 65
REMARK SMILES IDX 61 66 54 67 56 68 57 69 58 70 59 71 6 72 7 73 8 74 9 75
REMARK SMILES IDX 10 77 11 78 12 79 16 80 13 81 15 82 14 83 17 84 18 85 19 86
REMARK SMILES IDX 20 87 21 88 24 89 22 90 23 91
REMARK H PARENT 3 6 81 24 49 35 8 76 23 92
REMARK Flexibility Score: inf
ROOT
ATOM      1  C   UNL A   1      36.647  22.820  25.067  1.00  0.00     0.023 C 
ENDROOT
BRANCH   1   2
ATOM      2  C   UNL A   1      37.476  23.817  25.871  1.00  0.00     0.116 C 
BRANCH   2   3
ATOM      3  N   UNL A   1      38.902  23.539  25.957  1.00  0.00    -0.352 N 
ATOM      4  O   UNL A   1      41.064  23.564  26.428  1.00  0.00    -0.269 OA
ATOM      5  C   UNL A   1      39.978  24.132  26.570  1.00  0.00     0.251 C 
ATOM      6  H   UNL A   1      39.155  22.730  25.455  1.00  0.00     0.163 HD
BRANCH   5   7
ATOM      7  C   UNL A   1      39.918  25.405  27.338  1.00  0.00     0.039 A 
ATOM      8  C   UNL A   1      39.465  25.492  28.653  1.00  0.00     0.014 A 
ATOM      9  C   UNL A   1      40.404  26.574  26.717  1.00  0.00     0.014 A 
ATOM     10  C   UNL A   1      39.412  26.719  29.307  1.00  0.00     0.010 A 
ATOM     11  C   UNL A   1      40.402  27.804  27.386  1.00  0.00     0.010 A 
ATOM     12  C   UNL A   1      39.899  27.875  28.686  1.00  0.00    -0.014 A 
BRANCH  12  13
ATOM     13  C   UNL A   1      40.041  29.077  29.545  1.00  0.00     0.031 A 
ATOM     14  C   UNL A   1      38.829  30.001  29.422  1.00  0.00     0.074 A 
ATOM     15  C   UNL A   1      41.228  29.291  30.182  1.00  0.00     0.049 A 
ATOM     16  N   UNL A   1      38.795  31.290  29.243  1.00  0.00    -0.248 NA
ATOM     17  C   UNL A   1      37.481  29.393  29.292  1.00  0.00     0.031 C 
ATOM     18  C   UNL A   1      42.339  28.325  30.216  1.00  0.00     0.029 A 
ATOM     19  N   UNL A   1      41.751  30.351  30.904  1.00  0.00    -0.354 N 
ATOM     20  C   UNL A   1      37.433  31.655  29.172  1.00  0.00     0.074 A 
ATOM     21  C   UNL A   1      36.689  30.438  29.042  1.00  0.00     0.031 C 
ATOM     22  C   UNL A   1      43.405  28.850  30.854  1.00  0.00     0.029 A 
ATOM     23  C   UNL A   1      43.092  30.195  31.314  1.00  0.00     0.049 A 
ATOM     24  H   UNL A   1      41.225  31.155  31.116  1.00  0.00     0.167 HD
ATOM     25  C   UNL A   1      36.991  32.930  29.369  1.00  0.00     0.034 A 
ATOM     26  C   UNL A   1      43.928  31.082  31.939  1.00  0.00     0.034 A 
ATOM     27  C   UNL A   1      38.070  33.759  29.797  1.00  0.00     0.049 A 
ATOM     28  C   UNL A   1      43.159  32.314  32.185  1.00  0.00     0.074 A 
ATOM     29  C   UNL A   1      39.079  34.441  29.174  1.00  0.00     0.029 A 
ATOM     30  N   UNL A   1      38.294  33.764  31.153  1.00  0.00    -0.354 N 
ATOM     31  N   UNL A   1      42.262  32.470  33.115  1.00  0.00    -0.248 NA
ATOM     32  C   UNL A   1      43.350  33.457  31.278  1.00  0.00     0.031 C 
ATOM     33  C   UNL A   1      40.064  34.623  30.171  1.00  0.00     0.029 A 
ATOM     34  C   UNL A   1      39.618  34.047  31.367  1.00  0.00     0.049 A 
ATOM     35  H   UNL A   1      37.620  33.593  31.850  1.00  0.00     0.167 HD
ATOM     36  C   UNL A   1      41.571  33.576  32.671  1.00  0.00     0.074 A 
ATOM     37  C   UNL A   1      42.467  34.299  31.804  1.00  0.00     0.031 C 
ATOM     38  C   UNL A   1      40.217  33.525  32.577  1.00  0.00     0.034 A 
BRANCH  25  39
ATOM     39  C   UNL A   1      35.614  33.551  29.470  1.00  0.00     0.023 A 
ATOM     40  C   UNL A   1      34.959  33.770  28.223  1.00  0.00     0.012 A 
ATOM     41  C   UNL A   1      35.045  34.151  30.604  1.00  0.00     0.148 A 
ATOM     42  C   UNL A   1      33.862  34.618  28.086  1.00  0.00     0.002 A 
ATOM     43  C   UNL A   1      33.908  34.959  30.471  1.00  0.00     0.091 A 
ATOM     44  F   UNL A   1      35.645  34.024  31.792  1.00  0.00    -0.205 F 
ATOM     45  C   UNL A   1      33.340  35.221  29.215  1.00  0.00     0.022 A 
BRANCH  43  46
ATOM     46  S   UNL A   1      33.095  35.709  31.888  1.00  0.00     0.127 S 
ATOM     47  O   UNL A   1      34.188  36.447  32.514  1.00  0.00    -0.237 OA
ATOM     48  O   UNL A   1      32.080  36.555  31.252  1.00  0.00    -0.237 OA
ATOM     49  O   UNL A   1      32.538  34.593  32.640  1.00  0.00    -0.744 OA
ENDBRANCH  43  46
ENDBRANCH  25  39
BRANCH  26  50
ATOM     50  C   UNL A   1      45.402  31.097  32.284  1.00  0.00     0.023 A 
ATOM     51  C   UNL A   1      45.883  31.154  33.599  1.00  0.00     0.012 A 
ATOM     52  C   UNL A   1      46.402  31.037  31.266  1.00  0.00     0.148 A 
ATOM     53  C   UNL A   1      47.257  31.036  33.891  1.00  0.00     0.002 A 
ATOM     54  C   UNL A   1      47.749  30.836  31.552  1.00  0.00     0.091 A 
ATOM     55  F   UNL A   1      46.064  31.220  29.988  1.00  0.00    -0.205 F 
ATOM     56  C   UNL A   1      48.184  30.836  32.873  1.00  0.00     0.022 A 
BRANCH  54  57
ATOM     57  S   UNL A   1      48.957  30.465  30.264  1.00  0.00     0.127 S 
ATOM     58  O   UNL A   1      49.062  31.741  29.560  1.00  0.00    -0.237 OA
ATOM     59  O   UNL A   1      50.130  30.104  31.060  1.00  0.00    -0.237 OA
ATOM     60  O   UNL A   1      48.401  29.369  29.479  1.00  0.00    -0.744 OA
ENDBRANCH  54  57
ENDBRANCH  26  50
BRANCH  38  61
ATOM     61  C   UNL A   1      39.577  32.543  33.547  1.00  0.00     0.023 A 
ATOM     62  C   UNL A   1      39.108  31.321  33.033  1.00  0.00     0.012 A 
ATOM     63  C   UNL A   1      39.293  32.840  34.900  1.00  0.00     0.148 A 
ATOM     64  C   UNL A   1      38.381  30.432  33.830  1.00  0.00     0.002 A 
ATOM     65  C   UNL A   1      38.564  31.958  35.697  1.00  0.00     0.091 A 
ATOM     66  F   UNL A   1      39.725  33.997  35.392  1.00  0.00    -0.205 F 
ATOM     67  C   UNL A   1      38.108  30.749  35.159  1.00  0.00     0.022 A 
BRANCH  65  68
ATOM     68  S   UNL A   1      38.099  32.309  37.405  1.00  0.00     0.127 S 
ATOM     69  O   UNL A   1      37.366  31.100  37.787  1.00  0.00    -0.237 OA
ATOM     70  O   UNL A   1      39.402  32.449  38.052  1.00  0.00    -0.237 OA
ATOM     71  O   UNL A   1      37.284  33.516  37.381  1.00  0.00    -0.744 OA
ENDBRANCH  65  68
ENDBRANCH  38  61
ENDBRANCH  12  13
ENDBRANCH   5   7
ENDBRANCH   2   3
ENDBRANCH   1   2
BRANCH   1  72
ATOM     72  C   UNL A   1      36.224  23.323  23.693  1.00  0.00     0.023 C 
BRANCH  72  73
ATOM     73  C   UNL A   1      34.731  23.198  23.355  1.00  0.00     0.116 C 
BRANCH  73  74
ATOM     74  N   UNL A   1      34.159  24.513  23.128  1.00  0.00    -0.355 N 
ATOM     75  C   UNL A   1      33.446  25.366  23.909  1.00  0.00     0.238 C 
ATOM     76  H   UNL A   1      34.320  24.858  22.220  1.00  0.00     0.163 HD
ATOM     77  O   UNL A   1      32.945  26.313  23.288  1.00  0.00    -0.273 OA
BRANCH  75  78
ATOM     78  C   UNL A   1      33.315  25.258  25.453  1.00  0.00     0.162 C 
ATOM     79  C   UNL A   1      33.996  26.495  26.101  1.00  0.00     0.030 C 
ATOM     80  N   UNL A   1      31.940  25.207  26.084  1.00  0.00    -0.185 NA
ATOM     81  C   UNL A   1      33.195  27.796  25.924  1.00  0.00     0.004 C 
ATOM     82  C   UNL A   1      31.113  26.345  25.641  1.00  0.00     0.103 C 
ATOM     83  C   UNL A   1      31.710  27.623  26.234  1.00  0.00     0.017 C 
BRANCH  80  84
ATOM     84  S   UNL A   1      31.269  23.666  26.135  1.00  0.00     0.245 S 
ATOM     85  O   UNL A   1      30.410  23.635  27.291  1.00  0.00    -0.207 OA
ATOM     86  O   UNL A   1      30.761  23.375  24.812  1.00  0.00    -0.207 OA
BRANCH  84  87
ATOM     87  C   UNL A   1      32.298  22.332  26.520  1.00  0.00     0.100 A 
ATOM     88  C   UNL A   1      32.671  21.298  25.619  1.00  0.00     0.041 A 
ATOM     89  C   UNL A   1      33.212  22.311  27.561  1.00  0.00     0.104 A 
ATOM     90  C   UNL A   1      33.821  20.718  26.110  1.00  0.00     0.083 A 
ATOM     91  N   UNL A   1      34.150  21.350  27.281  1.00  0.00    -0.366 N 
ATOM     92  H   UNL A   1      34.937  21.146  27.836  1.00  0.00     0.165 HD
ENDBRANCH  84  87
ENDBRANCH  80  84
ENDBRANCH  75  78
ENDBRANCH  73  74
ENDBRANCH  72  73
ENDBRANCH   1  72
TORSDOF 16
ENDMDL
MODEL 3
REMARK VINA RESULT:     -12.3      2.090      3.157
REMARK SMILES O=C(NCCCCNC(=O)[C@H]1CCCCN1S(=O)(=O)c1cc[nH]c1)c1ccc(-c2c3nc(c(-c4cccc(S(=O)(=O)[O-])c4F)c4ccc([nH]4)c(-c4cccc(S(=O)(=O)[O-])c4F)c4nc(c(-c5cccc(S(=O)(=O)[O-])c5F)c5ccc2[nH]5)C=C4)C=C3)cc1
REMARK SMILES IDX 5 1 4 2 3 3 1 4 2 5 25 7 26 8 87 9 27 10 86 11 28 12 29 13
REMARK SMILES IDX 30 14 80 15 31 16 85 17 79 18 81 19 32 20 84 21 78 22 77 23
REMARK SMILES IDX 33 25 65 26 45 27 64 28 46 29 49 30 63 31 82 32 47 33 48 34
REMARK SMILES IDX 62 36 83 37 50 38 34 39 35 40 43 41 36 42 38 43 44 44 37 45
REMARK SMILES IDX 39 46 40 47 41 48 42 49 66 50 67 51 75 52 68 53 70 54 76 55
REMARK SMILES IDX 69 56 71 57 72 58 73 59 74 60 51 61 52 62 60 63 53 64 55 65
REMARK SMILES IDX 61 66 54 67 56 68 57 69 58 70 59 71 6 72 7 73 8 74 9 75
REMARK SMILES IDX 10 77 11 78 12 79 16 80 13 81 15 82 14 83 17 84 18 85 19 86
REMARK SMILES IDX 20 87 21 88 24 89 22 90 23 91
REMARK H PARENT 3 6 81 24 49 35 8 76 23 92
REMARK Flexibility Score: inf
ROOT
ATOM      1  C   UNL A   1      36.432  22.950  25.050  1.00  0.00     0.023 C 
ENDROOT
BRANCH   1   2
ATOM      2  C   UNL A   1      37.373  24.009  25.616  1.00  0.00     0.116 C 
BRANCH   2   3
ATOM      3  N   UNL A   1      38.706  23.550  25.978  1.00  0.00    -0.352 N 
ATOM      4  O   UNL A   1      40.721  23.309  26.860  1.00  0.00    -0.269 OA
ATOM      5  C   UNL A   1      39.713  24.016  26.787  1.00  0.00     0.251 C 
ATOM      6  H   UNL A   1      38.941  22.702  25.538  1.00  0.00     0.163 HD
BRANCH   5   7
ATOM      7  C   UNL A   1      39.677  25.308  27.525  1.00  0.00     0.039 A 
ATOM      8  C   UNL A   1      39.326  25.418  28.869  1.00  0.00     0.014 A 
ATOM      9  C   UNL A   1      40.077  26.472  26.838  1.00  0.00     0.014 A 
ATOM     10  C   UNL A   1      39.289  26.661  29.493  1.00  0.00     0.010 A 
ATOM     11  C   UNL A   1      40.091  27.720  27.473  1.00  0.00     0.010 A 
ATOM     12  C   UNL A   1      39.690  27.813  28.807  1.00  0.00    -0.014 A 
BRANCH  12  13
ATOM     13  C   UNL A   1      39.864  29.041  29.621  1.00  0.00     0.031 A 
ATOM     14  C   UNL A   1      38.640  29.953  29.531  1.00  0.00     0.074 A 
ATOM     15  C   UNL A   1      41.079  29.284  30.191  1.00  0.00     0.049 A 
ATOM     16  N   UNL A   1      38.585  31.235  29.315  1.00  0.00    -0.248 NA
ATOM     17  C   UNL A   1      37.293  29.331  29.486  1.00  0.00     0.031 C 
ATOM     18  C   UNL A   1      42.199  28.327  30.200  1.00  0.00     0.029 A 
ATOM     19  N   UNL A   1      41.628  30.369  30.854  1.00  0.00    -0.354 N 
ATOM     20  C   UNL A   1      37.219  31.588  29.300  1.00  0.00     0.074 A 
ATOM     21  C   UNL A   1      36.480  30.363  29.245  1.00  0.00     0.031 C 
ATOM     22  C   UNL A   1      43.290  28.879  30.768  1.00  0.00     0.029 A 
ATOM     23  C   UNL A   1      42.989  30.235  31.202  1.00  0.00     0.049 A 
ATOM     24  H   UNL A   1      41.106  31.175  31.067  1.00  0.00     0.167 HD
ATOM     25  C   UNL A   1      36.775  32.865  29.481  1.00  0.00     0.034 A 
ATOM     26  C   UNL A   1      43.847  31.147  31.757  1.00  0.00     0.034 A 
ATOM     27  C   UNL A   1      37.868  33.715  29.829  1.00  0.00     0.049 A 
ATOM     28  C   UNL A   1      43.080  32.381  32.004  1.00  0.00     0.074 A 
ATOM     29  C   UNL A   1      38.839  34.385  29.136  1.00  0.00     0.029 A 
ATOM     30  N   UNL A   1      38.158  33.763  31.172  1.00  0.00    -0.354 N 
ATOM     31  N   UNL A   1      42.229  32.558  32.972  1.00  0.00    -0.248 NA
ATOM     32  C   UNL A   1      43.217  33.496  31.055  1.00  0.00     0.031 C 
ATOM     33  C   UNL A   1      39.870  34.604  30.077  1.00  0.00     0.029 A 
ATOM     34  C   UNL A   1      39.489  34.062  31.311  1.00  0.00     0.049 A 
ATOM     35  H   UNL A   1      37.521  33.608  31.906  1.00  0.00     0.167 HD
ATOM     36  C   UNL A   1      41.508  33.644  32.530  1.00  0.00     0.074 A 
ATOM     37  C   UNL A   1      42.353  34.347  31.598  1.00  0.00     0.031 C 
ATOM     38  C   UNL A   1      40.152  33.581  32.505  1.00  0.00     0.034 A 
BRANCH  25  39
ATOM     39  C   UNL A   1      35.401  33.478  29.631  1.00  0.00     0.023 A 
ATOM     40  C   UNL A   1      34.613  33.494  28.442  1.00  0.00     0.012 A 
ATOM     41  C   UNL A   1      34.935  34.241  30.713  1.00  0.00     0.148 A 
ATOM     42  C   UNL A   1      33.486  34.298  28.294  1.00  0.00     0.002 A 
ATOM     43  C   UNL A   1      33.769  35.006  30.580  1.00  0.00     0.091 A 
ATOM     44  F   UNL A   1      35.658  34.308  31.836  1.00  0.00    -0.205 F 
ATOM     45  C   UNL A   1      33.067  35.063  29.366  1.00  0.00     0.022 A 
BRANCH  43  46
ATOM     46  S   UNL A   1      33.087  35.959  31.943  1.00  0.00     0.127 S 
ATOM     47  O   UNL A   1      32.637  37.176  31.273  1.00  0.00    -0.237 OA
ATOM     48  O   UNL A   1      32.002  35.093  32.416  1.00  0.00    -0.237 OA
ATOM     49  O   UNL A   1      34.180  36.097  32.894  1.00  0.00    -0.744 OA
ENDBRANCH  43  46
ENDBRANCH  25  39
BRANCH  26  50
ATOM     50  C   UNL A   1      45.336  31.183  32.028  1.00  0.00     0.023 A 
ATOM     51  C   UNL A   1      46.292  31.457  31.039  1.00  0.00     0.012 A 
ATOM     52  C   UNL A   1      45.858  30.947  33.336  1.00  0.00     0.148 A 
ATOM     53  C   UNL A   1      47.657  31.610  31.350  1.00  0.00     0.002 A 
ATOM     54  C   UNL A   1      47.190  31.179  33.663  1.00  0.00     0.091 A 
ATOM     55  F   UNL A   1      45.067  30.447  34.289  1.00  0.00    -0.205 F 
ATOM     56  C   UNL A   1      48.101  31.512  32.666  1.00  0.00     0.022 A 
BRANCH  54  57
ATOM     57  S   UNL A   1      47.774  31.168  35.370  1.00  0.00     0.127 S 
ATOM     58  O   UNL A   1      46.829  32.067  36.028  1.00  0.00    -0.237 OA
ATOM     59  O   UNL A   1      47.624  29.755  35.721  1.00  0.00    -0.237 OA
ATOM     60  O   UNL A   1      49.154  31.637  35.339  1.00  0.00    -0.744 OA
ENDBRANCH  54  57
ENDBRANCH  26  50
BRANCH  38  61
ATOM     61  C   UNL A   1      39.569  32.625  33.534  1.00  0.00     0.023 A 
ATOM     62  C   UNL A   1      39.324  31.298  33.137  1.00  0.00     0.012 A 
ATOM     63  C   UNL A   1      39.123  33.019  34.817  1.00  0.00     0.148 A 
ATOM     64  C   UNL A   1      38.658  30.402  33.978  1.00  0.00     0.002 A 
ATOM     65  C   UNL A   1      38.455  32.130  35.657  1.00  0.00     0.091 A 
ATOM     66  F   UNL A   1      39.342  34.275  35.198  1.00  0.00    -0.205 F 
ATOM     67  C   UNL A   1      38.223  30.816  35.235  1.00  0.00     0.022 A 
BRANCH  65  68
ATOM     68  S   UNL A   1      37.791  32.589  37.271  1.00  0.00     0.127 S 
ATOM     69  O   UNL A   1      38.913  33.306  37.882  1.00  0.00    -0.237 OA
ATOM     70  O   UNL A   1      36.663  33.442  36.905  1.00  0.00    -0.237 OA
ATOM     71  O   UNL A   1      37.438  31.349  37.951  1.00  0.00    -0.744 OA
ENDBRANCH  65  68
ENDBRANCH  38  61
ENDBRANCH  12  13
ENDBRANCH   5   7
ENDBRANCH   2   3
ENDBRANCH   1   2
BRANCH   1  72
ATOM     72  C   UNL A   1      35.983  23.211  23.619  1.00  0.00     0.023 C 
BRANCH  72  73
ATOM     73  C   UNL A   1      34.474  23.389  23.404  1.00  0.00     0.116 C 
BRANCH  73  74
ATOM     74  N   UNL A   1      34.167  24.787  23.153  1.00  0.00    -0.355 N 
ATOM     75  C   UNL A   1      33.583  25.761  23.899  1.00  0.00     0.238 C 
ATOM     76  H   UNL A   1      34.438  25.092  22.256  1.00  0.00     0.163 HD
ATOM     77  O   UNL A   1      33.300  26.781  23.257  1.00  0.00    -0.273 OA
BRANCH  75  78
ATOM     78  C   UNL A   1      33.351  25.685  25.433  1.00  0.00     0.162 C 
ATOM     79  C   UNL A   1      33.823  27.019  26.076  1.00  0.00     0.030 C 
ATOM     80  N   UNL A   1      31.950  25.481  25.967  1.00  0.00    -0.185 NA
ATOM     81  C   UNL A   1      32.882  28.202  25.790  1.00  0.00     0.004 C 
ATOM     82  C   UNL A   1      31.024  26.490  25.421  1.00  0.00     0.103 C 
ATOM     83  C   UNL A   1      31.411  27.851  26.002  1.00  0.00     0.017 C 
BRANCH  80  84
ATOM     84  S   UNL A   1      31.474  23.869  26.034  1.00  0.00     0.245 S 
ATOM     85  O   UNL A   1      30.706  23.722  27.244  1.00  0.00    -0.207 OA
ATOM     86  O   UNL A   1      30.915  23.533  24.743  1.00  0.00    -0.207 OA
BRANCH  84  87
ATOM     87  C   UNL A   1      32.679  22.665  26.326  1.00  0.00     0.100 A 
ATOM     88  C   UNL A   1      33.633  22.700  27.378  1.00  0.00     0.041 A 
ATOM     89  C   UNL A   1      32.614  21.355  25.882  1.00  0.00     0.104 A 
ATOM     90  C   UNL A   1      34.078  21.410  27.575  1.00  0.00     0.083 A 
ATOM     91  N   UNL A   1      33.442  20.598  26.672  1.00  0.00    -0.366 N 
ATOM     92  H   UNL A   1      33.562  19.624  26.600  1.00  0.00     0.165 HD
ENDBRANCH  84  87
ENDBRANCH  80  84
ENDBRANCH  75  78
ENDBRANCH  73  74
ENDBRANCH  72  73
ENDBRANCH   1  72
TORSDOF 16
ENDMDL
