MODEL 1
REMARK VINA RESULT:     -13.8      0.000      0.000
REMARK SMILES Cc1ccc(C(=O)N2C[C@@H](C(=O)NCCCCNC(=O)c3ccc(-c4c5nc(c(-c6cccc(S(=O)(=O)[O-])c6F)c6ccc([nH]6)c(-c6cccc(S(=O)(=O)[O-])c6F)c6nc(c(-c7cccc(S(=O)(=O)[O-])c7F)c7ccc4[nH]7)C=C6)C=C5)cc3)C[C@H](C(=O)N3CCOCC3)C2)cc1F
REMARK SMILES IDX 16 1 15 2 14 3 13 4 11 5 12 6 10 8 8 9 9 10 94 11 85 12
REMARK SMILES IDX 84 13 6 14 7 15 5 16 1 17 2 18 3 19 96 20 4 21 95 22 97 23
REMARK SMILES IDX 86 24 87 25 88 26 89 27 93 28 90 29 92 30 91 31 17 32 18 33
REMARK SMILES IDX 19 34 20 36 21 37 22 38 83 39 23 40 82 41 24 42 25 43 26 44
REMARK SMILES IDX 76 45 27 46 81 47 75 48 77 49 28 50 80 51 74 52 73 53 29 55
REMARK SMILES IDX 61 56 41 57 60 58 42 59 45 60 59 61 78 62 43 63 44 64 58 66
REMARK SMILES IDX 79 67 46 68 30 69 31 70 39 71 32 72 34 73 40 74 33 75 35 76
REMARK SMILES IDX 36 77 37 78 38 79 62 80 63 81 71 82 64 83 66 84 72 85 65 86
REMARK SMILES IDX 67 87 68 88 69 89 70 90 47 91 48 92 56 93 49 94 51 95 57 96
REMARK SMILES IDX 50 97 52 98 53 99 54 100 55 101
REMARK H PARENT 13 7 18 35 77 54 45 65
REMARK Flexibility Score: inf
ROOT
ATOM      1  C   UNL A   1      32.820  28.981  26.993  1.00  0.00     0.023 C 
ENDROOT
BRANCH   1   2
ATOM      2  C   UNL A   1      32.197  29.645  25.763  1.00  0.00     0.023 C 
BRANCH   2   3
ATOM      3  C   UNL A   1      32.800  29.204  24.428  1.00  0.00     0.116 C 
BRANCH   3   4
ATOM      4  N   UNL A   1      31.755  28.964  23.449  1.00  0.00    -0.356 N 
ATOM      5  C   UNL A   1      31.256  27.796  22.975  1.00  0.00     0.224 C 
ATOM      6  O   UNL A   1      30.545  27.824  21.968  1.00  0.00    -0.275 OA
ATOM      7  H   UNL A   1      31.346  29.775  23.071  1.00  0.00     0.163 HD
BRANCH   5   8
ATOM      8  C   UNL A   1      31.557  26.477  23.659  1.00  0.00     0.099 C 
ATOM      9  N   UNL A   1      31.687  24.024  23.252  1.00  0.00    -0.337 N 
ATOM     10  C   UNL A   1      31.637  25.346  22.646  1.00  0.00     0.133 C 
ATOM     11  C   UNL A   1      30.710  23.730  24.297  1.00  0.00     0.133 C 
ATOM     12  C   UNL A   1      30.697  24.786  25.417  1.00  0.00     0.099 C 
ATOM     13  C   UNL A   1      30.695  26.220  24.901  1.00  0.00     0.030 C 
BRANCH   9  14
ATOM     14  C   UNL A   1      32.505  23.089  22.628  1.00  0.00     0.254 C 
ATOM     15  O   UNL A   1      33.362  23.410  21.806  1.00  0.00    -0.269 OA
BRANCH  14  16
ATOM     16  C   UNL A   1      32.311  21.641  22.864  1.00  0.00     0.042 A 
ATOM     17  C   UNL A   1      32.828  17.396  23.305  1.00  0.00     0.047 C 
ATOM     18  C   UNL A   1      32.551  18.862  23.166  1.00  0.00    -0.015 A 
ATOM     19  C   UNL A   1      32.075  19.402  21.964  1.00  0.00     0.007 A 
ATOM     20  C   UNL A   1      32.857  19.730  24.219  1.00  0.00     0.126 A 
ATOM     21  C   UNL A   1      31.958  20.787  21.810  1.00  0.00     0.014 A 
ATOM     22  C   UNL A   1      32.749  21.108  24.078  1.00  0.00     0.053 A 
ATOM     23  F   UNL A   1      33.322  19.234  25.375  1.00  0.00    -0.207 F 
ENDBRANCH  14  16
ENDBRANCH   9  14
BRANCH  12  24
ATOM     24  C   UNL A   1      31.665  24.374  26.536  1.00  0.00     0.227 C 
ATOM     25  O   UNL A   1      31.202  23.759  27.504  1.00  0.00    -0.275 OA
ATOM     26  N   UNL A   1      33.024  24.445  26.360  1.00  0.00    -0.338 N 
ATOM     27  C   UNL A   1      33.829  25.597  25.955  1.00  0.00     0.148 C 
ATOM     28  C   UNL A   1      33.845  23.310  26.765  1.00  0.00     0.148 C 
ATOM     29  C   UNL A   1      34.798  25.192  24.837  1.00  0.00     0.181 C 
ATOM     30  C   UNL A   1      34.795  22.956  25.614  1.00  0.00     0.181 C 
ATOM     31  O   UNL A   1      35.617  24.085  25.265  1.00  0.00    -0.378 OA
ENDBRANCH  12  24
ENDBRANCH   5   8
ENDBRANCH   3   4
ENDBRANCH   2   3
ENDBRANCH   1   2
BRANCH   1  32
ATOM     32  C   UNL A   1      34.215  29.492  27.286  1.00  0.00     0.116 C 
BRANCH  32  33
ATOM     33  N   UNL A   1      34.198  30.844  27.838  1.00  0.00    -0.352 N 
ATOM     34  C   UNL A   1      34.998  31.321  28.863  1.00  0.00     0.251 C 
ATOM     35  H   UNL A   1      33.558  31.478  27.441  1.00  0.00     0.163 HD
ATOM     36  O   UNL A   1      34.653  32.226  29.587  1.00  0.00    -0.269 OA
BRANCH  34  37
ATOM     37  C   UNL A   1      36.292  30.639  29.024  1.00  0.00     0.039 A 
ATOM     38  C   UNL A   1      36.564  29.796  30.105  1.00  0.00     0.014 A 
ATOM     39  C   UNL A   1      37.214  30.845  28.005  1.00  0.00     0.014 A 
ATOM     40  C   UNL A   1      37.782  29.122  30.128  1.00  0.00     0.010 A 
ATOM     41  C   UNL A   1      38.293  30.027  27.917  1.00  0.00     0.010 A 
ATOM     42  C   UNL A   1      38.628  29.248  29.023  1.00  0.00    -0.014 A 
BRANCH  42  43
ATOM     43  C   UNL A   1      39.968  28.703  28.930  1.00  0.00     0.031 A 
ATOM     44  C   UNL A   1      40.162  27.276  28.684  1.00  0.00     0.074 A 
ATOM     45  C   UNL A   1      40.958  29.623  28.963  1.00  0.00     0.049 A 
ATOM     46  N   UNL A   1      41.144  26.584  29.137  1.00  0.00    -0.248 NA
ATOM     47  C   UNL A   1      39.195  26.475  27.934  1.00  0.00     0.031 C 
ATOM     48  C   UNL A   1      42.367  29.522  28.640  1.00  0.00     0.029 A 
ATOM     49  N   UNL A   1      40.831  30.914  29.467  1.00  0.00    -0.354 N 
ATOM     50  C   UNL A   1      41.169  25.419  28.399  1.00  0.00     0.074 A 
ATOM     51  C   UNL A   1      39.841  25.306  27.842  1.00  0.00     0.031 C 
ATOM     52  C   UNL A   1      43.013  30.567  29.202  1.00  0.00     0.029 A 
ATOM     53  C   UNL A   1      42.048  31.304  30.011  1.00  0.00     0.049 A 
ATOM     54  H   UNL A   1      40.014  31.462  29.440  1.00  0.00     0.167 HD
ATOM     55  C   UNL A   1      42.377  24.835  28.139  1.00  0.00     0.034 A 
ATOM     56  C   UNL A   1      42.099  31.493  31.367  1.00  0.00     0.034 A 
ATOM     57  C   UNL A   1      43.446  25.620  28.759  1.00  0.00     0.049 A 
ATOM     58  C   UNL A   1      42.936  30.409  31.991  1.00  0.00     0.074 A 
ATOM     59  C   UNL A   1      44.320  26.554  28.227  1.00  0.00     0.029 A 
ATOM     60  N   UNL A   1      43.477  25.791  30.138  1.00  0.00    -0.354 N 
ATOM     61  N   UNL A   1      43.018  29.190  31.527  1.00  0.00    -0.248 NA
ATOM     62  C   UNL A   1      43.811  30.650  33.131  1.00  0.00     0.031 C 
ATOM     63  C   UNL A   1      44.807  27.351  29.294  1.00  0.00     0.029 A 
ATOM     64  C   UNL A   1      44.241  26.892  30.471  1.00  0.00     0.049 A 
ATOM     65  H   UNL A   1      43.020  25.207  30.786  1.00  0.00     0.167 HD
ATOM     66  C   UNL A   1      44.004  28.526  32.207  1.00  0.00     0.074 A 
ATOM     67  C   UNL A   1      44.445  29.469  33.220  1.00  0.00     0.031 C 
ATOM     68  C   UNL A   1      44.434  27.276  31.862  1.00  0.00     0.034 A 
BRANCH  55  69
ATOM     69  C   UNL A   1      42.630  23.804  27.050  1.00  0.00     0.023 A 
ATOM     70  C   UNL A   1      43.443  24.051  25.923  1.00  0.00     0.012 A 
ATOM     71  C   UNL A   1      42.078  22.502  27.131  1.00  0.00     0.148 A 
ATOM     72  C   UNL A   1      43.780  23.053  24.996  1.00  0.00     0.002 A 
ATOM     73  C   UNL A   1      42.403  21.512  26.200  1.00  0.00     0.091 A 
ATOM     74  F   UNL A   1      41.220  22.192  28.110  1.00  0.00    -0.205 F 
ATOM     75  C   UNL A   1      43.267  21.773  25.139  1.00  0.00     0.022 A 
BRANCH  73  76
ATOM     76  S   UNL A   1      41.691  19.872  26.385  1.00  0.00     0.127 S 
ATOM     77  O   UNL A   1      40.259  20.126  26.258  1.00  0.00    -0.237 OA
ATOM     78  O   UNL A   1      42.325  19.111  25.314  1.00  0.00    -0.237 OA
ATOM     79  O   UNL A   1      42.113  19.476  27.730  1.00  0.00    -0.744 OA
ENDBRANCH  73  76
ENDBRANCH  55  69
BRANCH  56  80
ATOM     80  C   UNL A   1      40.798  32.029  31.912  1.00  0.00     0.023 A 
ATOM     81  C   UNL A   1      40.620  33.404  32.155  1.00  0.00     0.012 A 
ATOM     82  C   UNL A   1      39.988  31.114  32.628  1.00  0.00     0.148 A 
ATOM     83  C   UNL A   1      39.748  33.837  33.168  1.00  0.00     0.002 A 
ATOM     84  C   UNL A   1      39.212  31.546  33.702  1.00  0.00     0.091 A 
ATOM     85  F   UNL A   1      40.105  29.805  32.352  1.00  0.00    -0.205 F 
ATOM     86  C   UNL A   1      39.086  32.909  33.978  1.00  0.00     0.022 A 
BRANCH  84  87
ATOM     87  S   UNL A   1      38.667  30.330  34.918  1.00  0.00     0.127 S 
ATOM     88  O   UNL A   1      37.899  29.386  34.113  1.00  0.00    -0.237 OA
ATOM     89  O   UNL A   1      39.915  29.831  35.491  1.00  0.00    -0.237 OA
ATOM     90  O   UNL A   1      37.876  31.109  35.871  1.00  0.00    -0.744 OA
ENDBRANCH  84  87
ENDBRANCH  56  80
BRANCH  68  91
ATOM     91  C   UNL A   1      45.235  26.355  32.745  1.00  0.00     0.023 A 
ATOM     92  C   UNL A   1      46.645  26.318  32.588  1.00  0.00     0.012 A 
ATOM     93  C   UNL A   1      44.682  25.439  33.647  1.00  0.00     0.148 A 
ATOM     94  C   UNL A   1      47.454  25.424  33.292  1.00  0.00     0.002 A 
ATOM     95  C   UNL A   1      45.502  24.646  34.445  1.00  0.00     0.091 A 
ATOM     96  F   UNL A   1      43.355  25.265  33.715  1.00  0.00    -0.205 F 
ATOM     97  C   UNL A   1      46.884  24.605  34.251  1.00  0.00     0.022 A 
BRANCH  95  98
ATOM     98  S   UNL A   1      44.754  23.802  35.836  1.00  0.00     0.127 S 
ATOM     99  O   UNL A   1      43.837  22.872  35.180  1.00  0.00    -0.237 OA
ATOM    100  O   UNL A   1      45.891  23.207  36.528  1.00  0.00    -0.237 OA
ATOM    101  O   UNL A   1      44.094  24.880  36.572  1.00  0.00    -0.744 OA
ENDBRANCH  95  98
ENDBRANCH  68  91
ENDBRANCH  42  43
ENDBRANCH  34  37
ENDBRANCH  32  33
ENDBRANCH   1  32
TORSDOF 17
ENDMDL
MODEL 2
REMARK VINA RESULT:     -13.7      1.271      2.102
REMARK SMILES Cc1ccc(C(=O)N2C[C@@H](C(=O)NCCCCNC(=O)c3ccc(-c4c5nc(c(-c6cccc(S(=O)(=O)[O-])c6F)c6ccc([nH]6)c(-c6cccc(S(=O)(=O)[O-])c6F)c6nc(c(-c7cccc(S(=O)(=O)[O-])c7F)c7ccc4[nH]7)C=C6)C=C5)cc3)C[C@H](C(=O)N3CCOCC3)C2)cc1F
REMARK SMILES IDX 16 1 15 2 14 3 13 4 11 5 12 6 10 8 8 9 9 10 94 11 85 12
REMARK SMILES IDX 84 13 6 14 7 15 5 16 1 17 2 18 3 19 96 20 4 21 95 22 97 23
REMARK SMILES IDX 86 24 87 25 88 26 89 27 93 28 90 29 92 30 91 31 17 32 18 33
REMARK SMILES IDX 19 34 20 36 21 37 22 38 83 39 23 40 82 41 24 42 25 43 26 44
REMARK SMILES IDX 76 45 27 46 81 47 75 48 77 49 28 50 80 51 74 52 73 53 29 55
REMARK SMILES IDX 61 56 41 57 60 58 42 59 45 60 59 61 78 62 43 63 44 64 58 66
REMARK SMILES IDX 79 67 46 68 30 69 31 70 39 71 32 72 34 73 40 74 33 75 35 76
REMARK SMILES IDX 36 77 37 78 38 79 62 80 63 81 71 82 64 83 66 84 72 85 65 86
REMARK SMILES IDX 67 87 68 88 69 89 70 90 47 91 48 92 56 93 49 94 51 95 57 96
REMARK SMILES IDX 50 97 52 98 53 99 54 100 55 101
REMARK H PARENT 13 7 18 35 77 54 45 65
REMARK Flexibility Score: inf
ROOT
ATOM      1  C   UNL A   1      33.013  28.611  26.835  1.00  0.00     0.023 C 
ENDROOT
BRANCH   1   2
ATOM      2  C   UNL A   1      32.050  29.713  26.386  1.00  0.00     0.023 C 
BRANCH   2   3
ATOM      3  C   UNL A   1      31.261  29.389  25.116  1.00  0.00     0.116 C 
BRANCH   3   4
ATOM      4  N   UNL A   1      32.101  29.532  23.941  1.00  0.00    -0.356 N 
ATOM      5  C   UNL A   1      32.859  28.613  23.294  1.00  0.00     0.224 C 
ATOM      6  O   UNL A   1      33.686  29.007  22.468  1.00  0.00    -0.275 OA
ATOM      7  H   UNL A   1      32.124  30.437  23.554  1.00  0.00     0.163 HD
BRANCH   5   8
ATOM      8  C   UNL A   1      32.705  27.131  23.571  1.00  0.00     0.099 C 
ATOM      9  N   UNL A   1      34.010  25.043  23.942  1.00  0.00    -0.337 N 
ATOM     10  C   UNL A   1      34.048  26.497  23.898  1.00  0.00     0.133 C 
ATOM     11  C   UNL A   1      33.360  24.358  22.828  1.00  0.00     0.133 C 
ATOM     12  C   UNL A   1      31.938  24.880  22.554  1.00  0.00     0.099 C 
ATOM     13  C   UNL A   1      31.842  26.401  22.536  1.00  0.00     0.030 C 
BRANCH   9  14
ATOM     14  C   UNL A   1      34.793  24.433  24.916  1.00  0.00     0.254 C 
ATOM     15  O   UNL A   1      35.025  24.966  26.000  1.00  0.00    -0.269 OA
BRANCH  14  16
ATOM     16  C   UNL A   1      35.461  23.140  24.647  1.00  0.00     0.042 A 
ATOM     17  C   UNL A   1      37.431  19.334  24.971  1.00  0.00     0.047 C 
ATOM     18  C   UNL A   1      36.757  20.655  24.761  1.00  0.00    -0.015 A 
ATOM     19  C   UNL A   1      37.499  21.829  24.576  1.00  0.00     0.007 A 
ATOM     20  C   UNL A   1      35.364  20.744  24.839  1.00  0.00     0.126 A 
ATOM     21  C   UNL A   1      36.855  23.070  24.524  1.00  0.00     0.014 A 
ATOM     22  C   UNL A   1      34.712  21.971  24.790  1.00  0.00     0.053 A 
ATOM     23  F   UNL A   1      34.636  19.633  25.022  1.00  0.00    -0.207 F 
ENDBRANCH  14  16
ENDBRANCH   9  14
BRANCH  12  24
ATOM     24  C   UNL A   1      30.915  24.056  23.351  1.00  0.00     0.227 C 
ATOM     25  O   UNL A   1      30.342  23.126  22.768  1.00  0.00    -0.275 OA
ATOM     26  N   UNL A   1      30.826  24.164  24.715  1.00  0.00    -0.338 N 
ATOM     27  C   UNL A   1      30.627  25.367  25.521  1.00  0.00     0.148 C 
ATOM     28  C   UNL A   1      30.751  22.944  25.513  1.00  0.00     0.148 C 
ATOM     29  C   UNL A   1      31.640  25.401  26.673  1.00  0.00     0.181 C 
ATOM     30  C   UNL A   1      31.778  23.038  26.649  1.00  0.00     0.181 C 
ATOM     31  O   UNL A   1      31.534  24.199  27.463  1.00  0.00    -0.378 OA
ENDBRANCH  12  24
ENDBRANCH   5   8
ENDBRANCH   3   4
ENDBRANCH   2   3
ENDBRANCH   1   2
BRANCH   1  32
ATOM     32  C   UNL A   1      34.408  29.133  27.106  1.00  0.00     0.116 C 
BRANCH  32  33
ATOM     33  N   UNL A   1      34.394  30.513  27.583  1.00  0.00    -0.352 N 
ATOM     34  C   UNL A   1      35.196  31.044  28.580  1.00  0.00     0.251 C 
ATOM     35  H   UNL A   1      33.754  31.125  27.152  1.00  0.00     0.163 HD
ATOM     36  O   UNL A   1      34.854  31.988  29.254  1.00  0.00    -0.269 OA
BRANCH  34  37
ATOM     37  C   UNL A   1      36.489  30.369  28.777  1.00  0.00     0.039 A 
ATOM     38  C   UNL A   1      36.760  29.586  29.901  1.00  0.00     0.014 A 
ATOM     39  C   UNL A   1      37.411  30.518  27.747  1.00  0.00     0.014 A 
ATOM     40  C   UNL A   1      37.977  28.912  29.960  1.00  0.00     0.010 A 
ATOM     41  C   UNL A   1      38.488  29.695  27.703  1.00  0.00     0.010 A 
ATOM     42  C   UNL A   1      38.822  28.976  28.849  1.00  0.00    -0.014 A 
BRANCH  42  43
ATOM     43  C   UNL A   1      40.162  28.425  28.786  1.00  0.00     0.031 A 
ATOM     44  C   UNL A   1      40.354  26.991  28.582  1.00  0.00     0.074 A 
ATOM     45  C   UNL A   1      41.154  29.342  28.802  1.00  0.00     0.049 A 
ATOM     46  N   UNL A   1      41.328  26.309  29.065  1.00  0.00    -0.248 NA
ATOM     47  C   UNL A   1      39.391  26.172  27.847  1.00  0.00     0.031 C 
ATOM     48  C   UNL A   1      42.565  29.228  28.495  1.00  0.00     0.029 A 
ATOM     49  N   UNL A   1      41.026  30.648  29.267  1.00  0.00    -0.354 N 
ATOM     50  C   UNL A   1      41.356  25.124  28.361  1.00  0.00     0.074 A 
ATOM     51  C   UNL A   1      40.034  24.999  27.795  1.00  0.00     0.031 C 
ATOM     52  C   UNL A   1      43.209  30.287  29.033  1.00  0.00     0.029 A 
ATOM     53  C   UNL A   1      42.240  31.050  29.811  1.00  0.00     0.049 A 
ATOM     54  H   UNL A   1      40.211  31.197  29.216  1.00  0.00     0.167 HD
ATOM     55  C   UNL A   1      42.565  24.529  28.130  1.00  0.00     0.034 A 
ATOM     56  C   UNL A   1      42.278  31.278  31.161  1.00  0.00     0.034 A 
ATOM     57  C   UNL A   1      43.631  25.328  28.738  1.00  0.00     0.049 A 
ATOM     58  C   UNL A   1      43.106  30.210  31.825  1.00  0.00     0.074 A 
ATOM     59  C   UNL A   1      44.513  26.244  28.187  1.00  0.00     0.029 A 
ATOM     60  N   UNL A   1      43.649  25.538  30.111  1.00  0.00    -0.354 N 
ATOM     61  N   UNL A   1      43.188  28.978  31.397  1.00  0.00    -0.248 NA
ATOM     62  C   UNL A   1      43.970  30.481  32.966  1.00  0.00     0.031 C 
ATOM     63  C   UNL A   1      44.992  27.070  29.235  1.00  0.00     0.029 A 
ATOM     64  C   UNL A   1      44.414  26.647  30.420  1.00  0.00     0.049 A 
ATOM     65  H   UNL A   1      43.184  24.975  30.772  1.00  0.00     0.167 HD
ATOM     66  C   UNL A   1      44.165  28.331  32.106  1.00  0.00     0.074 A 
ATOM     67  C   UNL A   1      44.599  29.301  33.096  1.00  0.00     0.031 C 
ATOM     68  C   UNL A   1      44.594  27.070  31.801  1.00  0.00     0.034 A 
BRANCH  55  69
ATOM     69  C   UNL A   1      42.825  23.466  27.074  1.00  0.00     0.023 A 
ATOM     70  C   UNL A   1      43.646  23.679  25.945  1.00  0.00     0.012 A 
ATOM     71  C   UNL A   1      42.273  22.167  27.189  1.00  0.00     0.148 A 
ATOM     72  C   UNL A   1      43.989  22.654  25.051  1.00  0.00     0.002 A 
ATOM     73  C   UNL A   1      42.603  21.149  26.290  1.00  0.00     0.091 A 
ATOM     74  F   UNL A   1      41.408  21.886  28.171  1.00  0.00    -0.205 F 
ATOM     75  C   UNL A   1      43.475  21.379  25.229  1.00  0.00     0.022 A 
BRANCH  73  76
ATOM     76  S   UNL A   1      41.889  19.516  26.519  1.00  0.00     0.127 S 
ATOM     77  O   UNL A   1      42.363  19.141  27.848  1.00  0.00    -0.237 OA
ATOM     78  O   UNL A   1      40.457  19.755  26.372  1.00  0.00    -0.237 OA
ATOM     79  O   UNL A   1      42.480  18.738  25.429  1.00  0.00    -0.744 OA
ENDBRANCH  73  76
ENDBRANCH  55  69
BRANCH  56  80
ATOM     80  C   UNL A   1      40.974  31.833  31.678  1.00  0.00     0.023 A 
ATOM     81  C   UNL A   1      40.796  33.216  31.874  1.00  0.00     0.012 A 
ATOM     82  C   UNL A   1      40.157  30.943  32.418  1.00  0.00     0.148 A 
ATOM     83  C   UNL A   1      39.917  33.683  32.865  1.00  0.00     0.002 A 
ATOM     84  C   UNL A   1      39.373  31.411  33.471  1.00  0.00     0.091 A 
ATOM     85  F   UNL A   1      40.273  29.626  32.186  1.00  0.00    -0.205 F 
ATOM     86  C   UNL A   1      39.246  32.784  33.700  1.00  0.00     0.022 A 
BRANCH  84  87
ATOM     87  S   UNL A   1      38.816  30.237  34.721  1.00  0.00     0.127 S 
ATOM     88  O   UNL A   1      40.066  29.676  35.222  1.00  0.00    -0.237 OA
ATOM     89  O   UNL A   1      38.053  31.062  35.655  1.00  0.00    -0.237 OA
ATOM     90  O   UNL A   1      37.976  29.297  33.977  1.00  0.00    -0.744 OA
ENDBRANCH  84  87
ENDBRANCH  56  80
BRANCH  68  91
ATOM     91  C   UNL A   1      45.384  26.172  32.718  1.00  0.00     0.023 A 
ATOM     92  C   UNL A   1      46.799  26.169  32.614  1.00  0.00     0.012 A 
ATOM     93  C   UNL A   1      44.819  25.247  33.604  1.00  0.00     0.148 A 
ATOM     94  C   UNL A   1      47.603  25.298  33.352  1.00  0.00     0.002 A 
ATOM     95  C   UNL A   1      45.628  24.478  34.436  1.00  0.00     0.091 A 
ATOM     96  F   UNL A   1      43.496  25.041  33.623  1.00  0.00    -0.205 F 
ATOM     97  C   UNL A   1      47.017  24.469  34.294  1.00  0.00     0.022 A 
BRANCH  95  98
ATOM     98  S   UNL A   1      44.849  23.621  35.802  1.00  0.00     0.127 S 
ATOM     99  O   UNL A   1      44.153  24.705  36.492  1.00  0.00    -0.237 OA
ATOM    100  O   UNL A   1      44.008  22.626  35.148  1.00  0.00    -0.237 OA
ATOM    101  O   UNL A   1      45.981  23.064  36.542  1.00  0.00    -0.744 OA
ENDBRANCH  95  98
ENDBRANCH  68  91
ENDBRANCH  42  43
ENDBRANCH  34  37
ENDBRANCH  32  33
ENDBRANCH   1  32
TORSDOF 17
ENDMDL
MODEL 3
REMARK VINA RESULT:     -13.6      4.039      8.792
REMARK SMILES Cc1ccc(C(=O)N2C[C@@H](C(=O)NCCCCNC(=O)c3ccc(-c4c5nc(c(-c6cccc(S(=O)(=O)[O-])c6F)c6ccc([nH]6)c(-c6cccc(S(=O)(=O)[O-])c6F)c6nc(c(-c7cccc(S(=O)(=O)[O-])c7F)c7ccc4[nH]7)C=C6)C=C5)cc3)C[C@H](C(=O)N3CCOCC3)C2)cc1F
REMARK SMILES IDX 16 1 15 2 14 3 13 4 11 5 12 6 10 8 8 9 9 10 94 11 85 12
REMARK SMILES IDX 84 13 6 14 7 15 5 16 1 17 2 18 3 19 96 20 4 21 95 22 97 23
REMARK SMILES IDX 86 24 87 25 88 26 89 27 93 28 90 29 92 30 91 31 17 32 18 33
REMARK SMILES IDX 19 34 20 36 21 37 22 38 83 39 23 40 82 41 24 42 25 43 26 44
REMARK SMILES IDX 76 45 27 46 81 47 75 48 77 49 28 50 80 51 74 52 73 53 29 55
REMARK SMILES IDX 61 56 41 57 60 58 42 59 45 60 59 61 78 62 43 63 44 64 58 66
REMARK SMILES IDX 79 67 46 68 30 69 31 70 39 71 32 72 34 73 40 74 33 75 35 76
REMARK SMILES IDX 36 77 37 78 38 79 62 80 63 81 71 82 64 83 66 84 72 85 65 86
REMARK SMILES IDX 67 87 68 88 69 89 70 90 47 91 48 92 56 93 49 94 51 95 57 96
REMARK SMILES IDX 50 97 52 98 53 99 54 100 55 101
REMARK H PARENT 13 7 18 35 77 54 45 65
REMARK Flexibility Score: inf
ROOT
ATOM      1  C   UNL A   1      36.225  23.179  24.833  1.00  0.00     0.023 C 
ENDROOT
BRANCH   1   2
ATOM      2  C   UNL A   1      35.284  24.219  24.223  1.00  0.00     0.023 C 
BRANCH   2   3
ATOM      3  C   UNL A   1      34.169  23.635  23.352  1.00  0.00     0.116 C 
BRANCH   3   4
ATOM      4  N   UNL A   1      34.056  24.370  22.105  1.00  0.00    -0.356 N 
ATOM      5  C   UNL A   1      33.230  25.389  21.765  1.00  0.00     0.224 C 
ATOM      6  O   UNL A   1      33.133  25.698  20.576  1.00  0.00    -0.275 OA
ATOM      7  H   UNL A   1      34.675  24.083  21.396  1.00  0.00     0.163 HD
BRANCH   5   8
ATOM      8  C   UNL A   1      32.436  26.141  22.816  1.00  0.00     0.099 C 
ATOM      9  N   UNL A   1      30.636  25.856  24.512  1.00  0.00    -0.337 N 
ATOM     10  C   UNL A   1      31.596  25.186  23.648  1.00  0.00     0.133 C 
ATOM     11  C   UNL A   1      29.810  26.899  23.910  1.00  0.00     0.133 C 
ATOM     12  C   UNL A   1      30.639  27.967  23.172  1.00  0.00     0.099 C 
ATOM     13  C   UNL A   1      31.718  27.381  22.269  1.00  0.00     0.030 C 
BRANCH   9  14
ATOM     14  C   UNL A   1      30.432  25.290  25.766  1.00  0.00     0.254 C 
ATOM     15  O   UNL A   1      29.720  25.820  26.617  1.00  0.00    -0.269 OA
BRANCH  14  16
ATOM     16  C   UNL A   1      31.145  24.055  26.160  1.00  0.00     0.042 A 
ATOM     17  C   UNL A   1      33.844  20.721  26.431  1.00  0.00     0.047 C 
ATOM     18  C   UNL A   1      32.851  21.843  26.410  1.00  0.00    -0.015 A 
ATOM     19  C   UNL A   1      31.617  21.710  25.762  1.00  0.00     0.007 A 
ATOM     20  C   UNL A   1      33.190  23.080  26.968  1.00  0.00     0.126 A 
ATOM     21  C   UNL A   1      30.766  22.814  25.632  1.00  0.00     0.014 A 
ATOM     22  C   UNL A   1      32.356  24.184  26.843  1.00  0.00     0.053 A 
ATOM     23  F   UNL A   1      34.370  23.229  27.587  1.00  0.00    -0.207 F 
ENDBRANCH  14  16
ENDBRANCH   9  14
BRANCH  12  24
ATOM     24  C   UNL A   1      30.981  29.118  24.129  1.00  0.00     0.227 C 
ATOM     25  O   UNL A   1      30.200  30.077  24.182  1.00  0.00    -0.275 OA
ATOM     26  N   UNL A   1      31.960  28.983  25.080  1.00  0.00    -0.338 N 
ATOM     27  C   UNL A   1      33.357  28.594  24.897  1.00  0.00     0.148 C 
ATOM     28  C   UNL A   1      31.682  29.424  26.443  1.00  0.00     0.148 C 
ATOM     29  C   UNL A   1      33.737  27.509  25.914  1.00  0.00     0.181 C 
ATOM     30  C   UNL A   1      32.086  28.306  27.412  1.00  0.00     0.181 C 
ATOM     31  O   UNL A   1      33.477  27.972  27.255  1.00  0.00    -0.378 OA
ENDBRANCH  12  24
ENDBRANCH   5   8
ENDBRANCH   3   4
ENDBRANCH   2   3
ENDBRANCH   1   2
BRANCH   1  32
ATOM     32  C   UNL A   1      37.321  23.805  25.668  1.00  0.00     0.116 C 
BRANCH  32  33
ATOM     33  N   UNL A   1      38.362  22.842  26.018  1.00  0.00    -0.352 N 
ATOM     34  C   UNL A   1      39.658  23.141  26.406  1.00  0.00     0.251 C 
ATOM     35  H   UNL A   1      38.118  21.889  25.975  1.00  0.00     0.163 HD
ATOM     36  O   UNL A   1      40.581  22.381  26.225  1.00  0.00    -0.269 OA
BRANCH  34  37
ATOM     37  C   UNL A   1      39.840  24.456  27.041  1.00  0.00     0.039 A 
ATOM     38  C   UNL A   1      40.389  25.545  26.361  1.00  0.00     0.014 A 
ATOM     39  C   UNL A   1      39.383  24.563  28.350  1.00  0.00     0.014 A 
ATOM     40  C   UNL A   1      40.439  26.775  27.012  1.00  0.00     0.010 A 
ATOM     41  C   UNL A   1      39.230  25.796  28.896  1.00  0.00     0.010 A 
ATOM     42  C   UNL A   1      39.850  26.879  28.275  1.00  0.00    -0.014 A 
BRANCH  42  43
ATOM     43  C   UNL A   1      39.907  28.049  29.130  1.00  0.00     0.031 A 
ATOM     44  C   UNL A   1      38.993  29.165  28.902  1.00  0.00     0.074 A 
ATOM     45  C   UNL A   1      40.754  27.946  30.177  1.00  0.00     0.049 A 
ATOM     46  N   UNL A   1      39.275  30.397  29.129  1.00  0.00    -0.248 NA
ATOM     47  C   UNL A   1      37.666  28.980  28.317  1.00  0.00     0.031 C 
ATOM     48  C   UNL A   1      40.899  28.752  31.372  1.00  0.00     0.029 A 
ATOM     49  N   UNL A   1      41.813  27.046  30.262  1.00  0.00    -0.354 N 
ATOM     50  C   UNL A   1      38.072  31.072  29.145  1.00  0.00     0.074 A 
ATOM     51  C   UNL A   1      37.157  30.213  28.431  1.00  0.00     0.031 C 
ATOM     52  C   UNL A   1      42.113  28.509  31.911  1.00  0.00     0.029 A 
ATOM     53  C   UNL A   1      42.836  27.626  31.001  1.00  0.00     0.049 A 
ATOM     54  H   UNL A   1      41.833  26.145  29.865  1.00  0.00     0.167 HD
ATOM     55  C   UNL A   1      37.936  32.144  29.982  1.00  0.00     0.034 A 
ATOM     56  C   UNL A   1      44.002  27.914  30.343  1.00  0.00     0.034 A 
ATOM     57  C   UNL A   1      39.187  32.363  30.710  1.00  0.00     0.049 A 
ATOM     58  C   UNL A   1      44.154  29.408  30.226  1.00  0.00     0.074 A 
ATOM     59  C   UNL A   1      39.569  32.014  31.995  1.00  0.00     0.029 A 
ATOM     60  N   UNL A   1      40.355  32.660  30.017  1.00  0.00    -0.354 N 
ATOM     61  N   UNL A   1      43.151  30.237  30.112  1.00  0.00    -0.248 NA
ATOM     62  C   UNL A   1      45.445  30.076  30.322  1.00  0.00     0.031 C 
ATOM     63  C   UNL A   1      40.986  32.014  32.042  1.00  0.00     0.029 A 
ATOM     64  C   UNL A   1      41.462  32.375  30.793  1.00  0.00     0.049 A 
ATOM     65  H   UNL A   1      40.388  33.023  29.103  1.00  0.00     0.167 HD
ATOM     66  C   UNL A   1      43.625  31.518  30.225  1.00  0.00     0.074 A 
ATOM     67  C   UNL A   1      45.066  31.365  30.320  1.00  0.00     0.031 C 
ATOM     68  C   UNL A   1      42.808  32.610  30.291  1.00  0.00     0.034 A 
BRANCH  55  69
ATOM     69  C   UNL A   1      36.608  32.748  30.414  1.00  0.00     0.023 A 
ATOM     70  C   UNL A   1      36.142  32.722  31.746  1.00  0.00     0.012 A 
ATOM     71  C   UNL A   1      35.769  33.414  29.488  1.00  0.00     0.148 A 
ATOM     72  C   UNL A   1      34.985  33.399  32.160  1.00  0.00     0.002 A 
ATOM     73  C   UNL A   1      34.609  34.076  29.897  1.00  0.00     0.091 A 
ATOM     74  F   UNL A   1      36.072  33.417  28.184  1.00  0.00    -0.205 F 
ATOM     75  C   UNL A   1      34.219  34.089  31.234  1.00  0.00     0.022 A 
BRANCH  73  76
ATOM     76  S   UNL A   1      33.611  34.928  28.669  1.00  0.00     0.127 S 
ATOM     77  O   UNL A   1      34.568  35.842  28.054  1.00  0.00    -0.237 OA
ATOM     78  O   UNL A   1      33.107  33.841  27.836  1.00  0.00    -0.237 OA
ATOM     79  O   UNL A   1      32.583  35.589  29.474  1.00  0.00    -0.744 OA
ENDBRANCH  73  76
ENDBRANCH  55  69
BRANCH  56  80
ATOM     80  C   UNL A   1      44.303  26.908  29.260  1.00  0.00     0.023 A 
ATOM     81  C   UNL A   1      45.178  25.830  29.488  1.00  0.00     0.012 A 
ATOM     82  C   UNL A   1      44.109  27.340  27.925  1.00  0.00     0.148 A 
ATOM     83  C   UNL A   1      45.924  25.287  28.429  1.00  0.00     0.002 A 
ATOM     84  C   UNL A   1      44.933  26.872  26.902  1.00  0.00     0.091 A 
ATOM     85  F   UNL A   1      43.224  28.323  27.692  1.00  0.00    -0.205 F 
ATOM     86  C   UNL A   1      45.844  25.841  27.147  1.00  0.00     0.022 A 
BRANCH  84  87
ATOM     87  S   UNL A   1      45.050  27.831  25.380  1.00  0.00     0.127 S 
ATOM     88  O   UNL A   1      45.543  29.123  25.845  1.00  0.00    -0.237 OA
ATOM     89  O   UNL A   1      45.961  27.048  24.548  1.00  0.00    -0.237 OA
ATOM     90  O   UNL A   1      43.681  27.846  24.862  1.00  0.00    -0.744 OA
ENDBRANCH  84  87
ENDBRANCH  56  80
BRANCH  68  91
ATOM     91  C   UNL A   1      43.238  34.036  30.059  1.00  0.00     0.023 A 
ATOM     92  C   UNL A   1      43.538  34.847  31.185  1.00  0.00     0.012 A 
ATOM     93  C   UNL A   1      43.260  34.666  28.810  1.00  0.00     0.148 A 
ATOM     94  C   UNL A   1      43.846  36.204  31.069  1.00  0.00     0.002 A 
ATOM     95  C   UNL A   1      43.700  35.981  28.687  1.00  0.00     0.091 A 
ATOM     96  F   UNL A   1      42.801  34.037  27.720  1.00  0.00    -0.205 F 
ATOM     97  C   UNL A   1      43.961  36.768  29.810  1.00  0.00     0.022 A 
BRANCH  95  98
ATOM     98  S   UNL A   1      44.080  36.587  27.045  1.00  0.00     0.127 S 
ATOM     99  O   UNL A   1      44.971  35.551  26.529  1.00  0.00    -0.237 OA
ATOM    100  O   UNL A   1      42.772  36.692  26.407  1.00  0.00    -0.237 OA
ATOM    101  O   UNL A   1      44.732  37.871  27.300  1.00  0.00    -0.744 OA
ENDBRANCH  95  98
ENDBRANCH  68  91
ENDBRANCH  42  43
ENDBRANCH  34  37
ENDBRANCH  32  33
ENDBRANCH   1  32
TORSDOF 17
ENDMDL
