MODEL 1
REMARK VINA RESULT:     -11.7      0.000      0.000
REMARK SMILES O=C(NCCCCNC(=O)c1cc(S[C@H]2CCO[C@@]3(CCOC3)C2)cs1)c1ccc(-c2c3nc(c(-c4cccc(S(=O)(=O)[O-])c4F)c4ccc([nH]4)c(-c4cccc(S(=O)(=O)[O-])c4F)c4nc(c(-c5cccc(S(=O)(=O)[O-])c5F)c5ccc2[nH]5)C=C4)C=C3)cc1
REMARK SMILES IDX 5 1 4 2 3 3 1 4 2 5 27 7 28 8 89 9 29 10 88 11 30 12 31 13
REMARK SMILES IDX 32 14 82 15 33 16 87 17 81 18 83 19 34 20 86 21 80 22 79 23
REMARK SMILES IDX 35 25 67 26 47 27 66 28 48 29 51 30 65 31 84 32 49 33 50 34
REMARK SMILES IDX 64 36 85 37 52 38 36 39 37 40 45 41 38 42 40 43 46 44 39 45
REMARK SMILES IDX 41 46 42 47 43 48 44 49 68 50 69 51 77 52 70 53 72 54 78 55
REMARK SMILES IDX 71 56 73 57 74 58 75 59 76 60 53 61 54 62 62 63 55 64 57 65
REMARK SMILES IDX 63 66 56 67 58 68 59 69 60 70 61 71 6 72 7 73 8 74 9 75
REMARK SMILES IDX 10 77 11 78 12 79 26 80 13 81 25 82 14 83 15 84 16 85 24 86
REMARK SMILES IDX 17 87 19 88 18 89 20 90 23 91 21 92 22 93
REMARK H PARENT 3 6 83 24 51 35 8 76
REMARK Flexibility Score: inf
ROOT
ATOM      1  C   UNL A   1      37.703  19.453  24.845  1.00  0.00     0.023 C 
ENDROOT
BRANCH   1   2
ATOM      2  C   UNL A   1      38.745  20.087  25.753  1.00  0.00     0.116 C 
BRANCH   2   3
ATOM      3  N   UNL A   1      39.911  19.241  25.975  1.00  0.00    -0.352 N 
ATOM      4  O   UNL A   1      42.088  18.782  26.366  1.00  0.00    -0.269 OA
ATOM      5  C   UNL A   1      41.184  19.612  26.350  1.00  0.00     0.251 C 
ATOM      6  H   UNL A   1      39.769  18.277  25.840  1.00  0.00     0.163 HD
BRANCH   5   7
ATOM      7  C   UNL A   1      41.447  21.026  26.693  1.00  0.00     0.039 A 
ATOM      8  C   UNL A   1      41.093  22.032  25.795  1.00  0.00     0.014 A 
ATOM      9  C   UNL A   1      42.110  21.343  27.881  1.00  0.00     0.014 A 
ATOM     10  C   UNL A   1      41.587  23.313  25.978  1.00  0.00     0.010 A 
ATOM     11  C   UNL A   1      42.492  22.667  28.125  1.00  0.00     0.010 A 
ATOM     12  C   UNL A   1      42.273  23.658  27.156  1.00  0.00    -0.014 A 
BRANCH  12  13
ATOM     13  C   UNL A   1      42.662  25.079  27.356  1.00  0.00     0.031 A 
ATOM     14  C   UNL A   1      41.754  26.068  28.036  1.00  0.00     0.074 A 
ATOM     15  C   UNL A   1      43.891  25.457  26.951  1.00  0.00     0.049 A 
ATOM     16  N   UNL A   1      41.993  27.320  28.341  1.00  0.00    -0.248 NA
ATOM     17  C   UNL A   1      40.409  25.610  28.415  1.00  0.00     0.031 C 
ATOM     18  C   UNL A   1      44.839  24.599  26.232  1.00  0.00     0.029 A 
ATOM     19  N   UNL A   1      44.564  26.643  27.094  1.00  0.00    -0.354 N 
ATOM     20  C   UNL A   1      40.826  27.806  28.920  1.00  0.00     0.074 A 
ATOM     21  C   UNL A   1      39.871  26.719  28.909  1.00  0.00     0.031 C 
ATOM     22  C   UNL A   1      45.981  25.268  26.037  1.00  0.00     0.029 A 
ATOM     23  C   UNL A   1      45.826  26.623  26.548  1.00  0.00     0.049 A 
ATOM     24  H   UNL A   1      44.181  27.430  27.542  1.00  0.00     0.167 HD
ATOM     25  C   UNL A   1      40.582  29.038  29.432  1.00  0.00     0.034 A 
ATOM     26  C   UNL A   1      46.753  27.593  26.443  1.00  0.00     0.034 A 
ATOM     27  C   UNL A   1      41.545  30.110  29.455  1.00  0.00     0.049 A 
ATOM     28  C   UNL A   1      46.458  28.938  27.033  1.00  0.00     0.074 A 
ATOM     29  C   UNL A   1      41.403  31.384  29.981  1.00  0.00     0.029 A 
ATOM     30  N   UNL A   1      42.825  30.041  28.927  1.00  0.00    -0.354 N 
ATOM     31  N   UNL A   1      45.388  29.340  27.676  1.00  0.00    -0.248 NA
ATOM     32  C   UNL A   1      47.509  29.956  26.915  1.00  0.00     0.031 C 
ATOM     33  C   UNL A   1      42.589  32.090  29.751  1.00  0.00     0.029 A 
ATOM     34  C   UNL A   1      43.483  31.247  29.112  1.00  0.00     0.049 A 
ATOM     35  H   UNL A   1      43.212  29.250  28.485  1.00  0.00     0.167 HD
ATOM     36  C   UNL A   1      45.644  30.650  28.055  1.00  0.00     0.074 A 
ATOM     37  C   UNL A   1      46.987  30.959  27.606  1.00  0.00     0.031 C 
ATOM     38  C   UNL A   1      44.833  31.527  28.695  1.00  0.00     0.034 A 
BRANCH  25  39
ATOM     39  C   UNL A   1      39.229  29.292  30.052  1.00  0.00     0.023 A 
ATOM     40  C   UNL A   1      38.959  28.805  31.347  1.00  0.00     0.012 A 
ATOM     41  C   UNL A   1      38.261  30.079  29.397  1.00  0.00     0.148 A 
ATOM     42  C   UNL A   1      37.740  29.074  31.971  1.00  0.00     0.002 A 
ATOM     43  C   UNL A   1      37.065  30.379  30.041  1.00  0.00     0.091 A 
ATOM     44  F   UNL A   1      38.528  30.524  28.161  1.00  0.00    -0.205 F 
ATOM     45  C   UNL A   1      36.798  29.869  31.321  1.00  0.00     0.022 A 
BRANCH  43  46
ATOM     46  S   UNL A   1      35.817  31.458  29.328  1.00  0.00     0.127 S 
ATOM     47  O   UNL A   1      36.636  32.547  28.797  1.00  0.00    -0.237 OA
ATOM     48  O   UNL A   1      35.212  30.598  28.310  1.00  0.00    -0.237 OA
ATOM     49  O   UNL A   1      34.928  31.825  30.422  1.00  0.00    -0.744 OA
ENDBRANCH  43  46
ENDBRANCH  25  39
BRANCH  26  50
ATOM     50  C   UNL A   1      48.044  27.312  25.756  1.00  0.00     0.023 A 
ATOM     51  C   UNL A   1      49.130  26.790  26.483  1.00  0.00     0.012 A 
ATOM     52  C   UNL A   1      48.185  27.531  24.371  1.00  0.00     0.148 A 
ATOM     53  C   UNL A   1      50.346  26.527  25.850  1.00  0.00     0.002 A 
ATOM     54  C   UNL A   1      49.374  27.204  23.735  1.00  0.00     0.091 A 
ATOM     55  F   UNL A   1      47.143  28.042  23.699  1.00  0.00    -0.205 F 
ATOM     56  C   UNL A   1      50.464  26.723  24.476  1.00  0.00     0.022 A 
BRANCH  54  57
ATOM     57  S   UNL A   1      49.551  27.278  21.950  1.00  0.00     0.127 S 
ATOM     58  O   UNL A   1      49.263  28.683  21.680  1.00  0.00    -0.237 OA
ATOM     59  O   UNL A   1      50.950  26.887  21.767  1.00  0.00    -0.237 OA
ATOM     60  O   UNL A   1      48.590  26.317  21.424  1.00  0.00    -0.744 OA
ENDBRANCH  54  57
ENDBRANCH  26  50
BRANCH  38  61
ATOM     61  C   UNL A   1      45.394  32.897  28.975  1.00  0.00     0.023 A 
ATOM     62  C   UNL A   1      46.083  33.141  30.181  1.00  0.00     0.012 A 
ATOM     63  C   UNL A   1      45.264  33.934  28.031  1.00  0.00     0.148 A 
ATOM     64  C   UNL A   1      46.589  34.408  30.464  1.00  0.00     0.002 A 
ATOM     65  C   UNL A   1      45.817  35.180  28.297  1.00  0.00     0.091 A 
ATOM     66  F   UNL A   1      44.588  33.688  26.900  1.00  0.00    -0.205 F 
ATOM     67  C   UNL A   1      46.466  35.424  29.518  1.00  0.00     0.022 A 
BRANCH  65  68
ATOM     68  S   UNL A   1      45.788  36.519  27.101  1.00  0.00     0.127 S 
ATOM     69  O   UNL A   1      44.357  36.807  27.011  1.00  0.00    -0.237 OA
ATOM     70  O   UNL A   1      46.576  37.552  27.774  1.00  0.00    -0.237 OA
ATOM     71  O   UNL A   1      46.397  35.988  25.890  1.00  0.00    -0.744 OA
ENDBRANCH  65  68
ENDBRANCH  38  61
ENDBRANCH  12  13
ENDBRANCH   5   7
ENDBRANCH   2   3
ENDBRANCH   1   2
BRANCH   1  72
ATOM     72  C   UNL A   1      36.309  20.059  24.953  1.00  0.00     0.023 C 
BRANCH  72  73
ATOM     73  C   UNL A   1      36.280  21.482  25.499  1.00  0.00     0.116 C 
BRANCH  73  74
ATOM     74  N   UNL A   1      35.423  21.606  26.669  1.00  0.00    -0.351 N 
ATOM     75  C   UNL A   1      34.167  22.162  26.761  1.00  0.00     0.261 C 
ATOM     76  H   UNL A   1      35.791  21.244  27.507  1.00  0.00     0.163 HD
ATOM     77  O   UNL A   1      33.696  22.353  27.885  1.00  0.00    -0.268 OA
BRANCH  75  78
ATOM     78  C   UNL A   1      33.466  22.460  25.532  1.00  0.00     0.093 A 
ATOM     79  C   UNL A   1      33.371  23.677  24.884  1.00  0.00     0.040 A 
ATOM     80  S   UNL A   1      32.630  21.236  24.688  1.00  0.00    -0.137 S 
ATOM     81  C   UNL A   1      32.510  23.636  23.757  1.00  0.00     0.019 A 
ATOM     82  C   UNL A   1      32.031  22.362  23.540  1.00  0.00     0.080 A 
BRANCH  81  83
ATOM     83  S   UNL A   1      32.057  25.016  22.760  1.00  0.00    -0.122 SA
BRANCH  83  84
ATOM     84  C   UNL A   1      32.947  26.424  23.520  1.00  0.00     0.057 C 
ATOM     85  C   UNL A   1      33.446  27.394  22.447  1.00  0.00     0.043 C 
ATOM     86  C   UNL A   1      32.026  27.168  24.501  1.00  0.00     0.053 C 
ATOM     87  C   UNL A   1      34.122  28.577  23.114  1.00  0.00     0.162 C 
ATOM     88  C   UNL A   1      32.702  28.448  25.042  1.00  0.00     0.095 C 
ATOM     89  O   UNL A   1      33.199  29.246  23.965  1.00  0.00    -0.372 OA
ATOM     90  C   UNL A   1      31.721  29.301  25.832  1.00  0.00     0.066 C 
ATOM     91  C   UNL A   1      33.759  28.170  26.117  1.00  0.00     0.195 C 
ATOM     92  C   UNL A   1      31.794  28.734  27.230  1.00  0.00     0.163 C 
ATOM     93  O   UNL A   1      33.094  28.155  27.388  1.00  0.00    -0.378 OA
ENDBRANCH  83  84
ENDBRANCH  81  83
ENDBRANCH  75  78
ENDBRANCH  73  74
ENDBRANCH  72  73
ENDBRANCH   1  72
TORSDOF 16
ENDMDL
MODEL 2
REMARK VINA RESULT:     -11.6      1.563      7.723
REMARK SMILES O=C(NCCCCNC(=O)c1cc(S[C@H]2CCO[C@@]3(CCOC3)C2)cs1)c1ccc(-c2c3nc(c(-c4cccc(S(=O)(=O)[O-])c4F)c4ccc([nH]4)c(-c4cccc(S(=O)(=O)[O-])c4F)c4nc(c(-c5cccc(S(=O)(=O)[O-])c5F)c5ccc2[nH]5)C=C4)C=C3)cc1
REMARK SMILES IDX 5 1 4 2 3 3 1 4 2 5 27 7 28 8 89 9 29 10 88 11 30 12 31 13
REMARK SMILES IDX 32 14 82 15 33 16 87 17 81 18 83 19 34 20 86 21 80 22 79 23
REMARK SMILES IDX 35 25 67 26 47 27 66 28 48 29 51 30 65 31 84 32 49 33 50 34
REMARK SMILES IDX 64 36 85 37 52 38 36 39 37 40 45 41 38 42 40 43 46 44 39 45
REMARK SMILES IDX 41 46 42 47 43 48 44 49 68 50 69 51 77 52 70 53 72 54 78 55
REMARK SMILES IDX 71 56 73 57 74 58 75 59 76 60 53 61 54 62 62 63 55 64 57 65
REMARK SMILES IDX 63 66 56 67 58 68 59 69 60 70 61 71 6 72 7 73 8 74 9 75
REMARK SMILES IDX 10 77 11 78 12 79 26 80 13 81 25 82 14 83 15 84 16 85 24 86
REMARK SMILES IDX 17 87 19 88 18 89 20 90 23 91 21 92 22 93
REMARK H PARENT 3 6 83 24 51 35 8 76
REMARK Flexibility Score: inf
ROOT
ATOM      1  C   UNL A   1      36.247  22.249  24.013  1.00  0.00     0.023 C 
ENDROOT
BRANCH   1   2
ATOM      2  C   UNL A   1      36.757  22.028  25.429  1.00  0.00     0.116 C 
BRANCH   2   3
ATOM      3  N   UNL A   1      37.696  20.920  25.539  1.00  0.00    -0.352 N 
ATOM      4  O   UNL A   1      39.700  19.935  25.883  1.00  0.00    -0.269 OA
ATOM      5  C   UNL A   1      39.003  20.940  25.977  1.00  0.00     0.251 C 
ATOM      6  H   UNL A   1      37.352  20.040  25.265  1.00  0.00     0.163 HD
BRANCH   5   7
ATOM      7  C   UNL A   1      39.556  22.198  26.523  1.00  0.00     0.039 A 
ATOM      8  C   UNL A   1      39.168  23.419  25.974  1.00  0.00     0.014 A 
ATOM      9  C   UNL A   1      40.516  22.155  27.536  1.00  0.00     0.014 A 
ATOM     10  C   UNL A   1      39.885  24.564  26.282  1.00  0.00     0.010 A 
ATOM     11  C   UNL A   1      41.148  23.338  27.940  1.00  0.00     0.010 A 
ATOM     12  C   UNL A   1      40.869  24.547  27.286  1.00  0.00    -0.014 A 
BRANCH  12  13
ATOM     13  C   UNL A   1      41.512  25.833  27.666  1.00  0.00     0.031 A 
ATOM     14  C   UNL A   1      42.905  26.192  27.225  1.00  0.00     0.074 A 
ATOM     15  C   UNL A   1      40.785  26.710  28.387  1.00  0.00     0.049 A 
ATOM     16  N   UNL A   1      43.563  27.308  27.422  1.00  0.00    -0.248 NA
ATOM     17  C   UNL A   1      43.666  25.178  26.479  1.00  0.00     0.031 C 
ATOM     18  C   UNL A   1      39.442  26.451  28.917  1.00  0.00     0.029 A 
ATOM     19  N   UNL A   1      41.054  27.993  28.788  1.00  0.00    -0.354 N 
ATOM     20  C   UNL A   1      44.817  27.124  26.853  1.00  0.00     0.074 A 
ATOM     21  C   UNL A   1      44.838  25.780  26.316  1.00  0.00     0.031 C 
ATOM     22  C   UNL A   1      38.989  27.551  29.531  1.00  0.00     0.029 A 
ATOM     23  C   UNL A   1      40.031  28.567  29.506  1.00  0.00     0.049 A 
ATOM     24  H   UNL A   1      41.897  28.457  28.582  1.00  0.00     0.167 HD
ATOM     25  C   UNL A   1      45.849  28.001  26.769  1.00  0.00     0.034 A 
ATOM     26  C   UNL A   1      39.945  29.769  30.104  1.00  0.00     0.034 A 
ATOM     27  C   UNL A   1      45.813  29.344  27.290  1.00  0.00     0.049 A 
ATOM     28  C   UNL A   1      41.096  30.721  29.977  1.00  0.00     0.074 A 
ATOM     29  C   UNL A   1      46.795  30.319  27.226  1.00  0.00     0.029 A 
ATOM     30  N   UNL A   1      44.746  29.902  27.978  1.00  0.00    -0.354 N 
ATOM     31  N   UNL A   1      42.228  30.564  29.337  1.00  0.00    -0.248 NA
ATOM     32  C   UNL A   1      40.944  32.029  30.627  1.00  0.00     0.031 C 
ATOM     33  C   UNL A   1      46.329  31.458  27.892  1.00  0.00     0.029 A 
ATOM     34  C   UNL A   1      45.045  31.205  28.344  1.00  0.00     0.049 A 
ATOM     35  H   UNL A   1      43.899  29.441  28.177  1.00  0.00     0.167 HD
ATOM     36  C   UNL A   1      42.918  31.759  29.490  1.00  0.00     0.074 A 
ATOM     37  C   UNL A   1      42.056  32.643  30.248  1.00  0.00     0.031 C 
ATOM     38  C   UNL A   1      44.161  32.087  29.064  1.00  0.00     0.034 A 
BRANCH  25  39
ATOM     39  C   UNL A   1      47.098  27.557  26.047  1.00  0.00     0.023 A 
ATOM     40  C   UNL A   1      48.053  26.777  26.730  1.00  0.00     0.012 A 
ATOM     41  C   UNL A   1      47.290  27.836  24.679  1.00  0.00     0.148 A 
ATOM     42  C   UNL A   1      49.189  26.303  26.074  1.00  0.00     0.002 A 
ATOM     43  C   UNL A   1      48.402  27.325  24.020  1.00  0.00     0.091 A 
ATOM     44  F   UNL A   1      46.379  28.590  24.047  1.00  0.00    -0.205 F 
ATOM     45  C   UNL A   1      49.358  26.568  24.717  1.00  0.00     0.022 A 
BRANCH  43  46
ATOM     46  S   UNL A   1      48.677  27.539  22.256  1.00  0.00     0.127 S 
ATOM     47  O   UNL A   1      47.506  28.326  21.869  1.00  0.00    -0.237 OA
ATOM     48  O   UNL A   1      49.942  28.275  22.229  1.00  0.00    -0.237 OA
ATOM     49  O   UNL A   1      48.739  26.199  21.692  1.00  0.00    -0.744 OA
ENDBRANCH  43  46
ENDBRANCH  25  39
BRANCH  26  50
ATOM     50  C   UNL A   1      38.718  30.130  30.866  1.00  0.00     0.023 A 
ATOM     51  C   UNL A   1      38.565  29.705  32.199  1.00  0.00     0.012 A 
ATOM     52  C   UNL A   1      37.714  30.925  30.279  1.00  0.00     0.148 A 
ATOM     53  C   UNL A   1      37.416  30.034  32.921  1.00  0.00     0.002 A 
ATOM     54  C   UNL A   1      36.606  31.306  31.023  1.00  0.00     0.091 A 
ATOM     55  F   UNL A   1      37.872  31.309  29.004  1.00  0.00    -0.205 F 
ATOM     56  C   UNL A   1      36.444  30.843  32.337  1.00  0.00     0.022 A 
BRANCH  54  57
ATOM     57  S   UNL A   1      35.393  32.472  30.398  1.00  0.00     0.127 S 
ATOM     58  O   UNL A   1      36.213  33.656  30.159  1.00  0.00    -0.237 OA
ATOM     59  O   UNL A   1      34.916  31.796  29.190  1.00  0.00    -0.237 OA
ATOM     60  O   UNL A   1      34.390  32.591  31.449  1.00  0.00    -0.744 OA
ENDBRANCH  54  57
ENDBRANCH  26  50
BRANCH  38  61
ATOM     61  C   UNL A   1      44.649  33.477  29.382  1.00  0.00     0.023 A 
ATOM     62  C   UNL A   1      45.195  33.756  30.652  1.00  0.00     0.012 A 
ATOM     63  C   UNL A   1      44.593  34.498  28.414  1.00  0.00     0.148 A 
ATOM     64  C   UNL A   1      45.632  35.041  30.968  1.00  0.00     0.002 A 
ATOM     65  C   UNL A   1      45.079  35.763  28.719  1.00  0.00     0.091 A 
ATOM     66  F   UNL A   1      44.051  34.219  27.219  1.00  0.00    -0.205 F 
ATOM     67  C   UNL A   1      45.583  36.041  29.999  1.00  0.00     0.022 A 
BRANCH  65  68
ATOM     68  S   UNL A   1      45.141  37.086  27.506  1.00  0.00     0.127 S 
ATOM     69  O   UNL A   1      43.724  37.276  27.198  1.00  0.00    -0.237 OA
ATOM     70  O   UNL A   1      45.751  38.176  28.270  1.00  0.00    -0.237 OA
ATOM     71  O   UNL A   1      45.959  36.587  26.409  1.00  0.00    -0.744 OA
ENDBRANCH  65  68
ENDBRANCH  38  61
ENDBRANCH  12  13
ENDBRANCH   5   7
ENDBRANCH   2   3
ENDBRANCH   1   2
BRANCH   1  72
ATOM     72  C   UNL A   1      35.245  23.387  23.866  1.00  0.00     0.023 C 
BRANCH  72  73
ATOM     73  C   UNL A   1      34.044  23.062  22.985  1.00  0.00     0.116 C 
BRANCH  73  74
ATOM     74  N   UNL A   1      33.481  21.753  23.280  1.00  0.00    -0.351 N 
ATOM     75  C   UNL A   1      32.667  21.382  24.327  1.00  0.00     0.261 C 
ATOM     76  H   UNL A   1      33.712  21.037  22.646  1.00  0.00     0.163 HD
ATOM     77  O   UNL A   1      32.465  20.179  24.510  1.00  0.00    -0.268 OA
BRANCH  75  78
ATOM     78  C   UNL A   1      32.075  22.430  25.128  1.00  0.00     0.093 A 
ATOM     79  C   UNL A   1      31.059  23.298  24.773  1.00  0.00     0.040 A 
ATOM     80  S   UNL A   1      32.608  22.714  26.723  1.00  0.00    -0.137 S 
ATOM     81  C   UNL A   1      30.799  24.278  25.765  1.00  0.00     0.019 A 
ATOM     82  C   UNL A   1      31.581  24.079  26.882  1.00  0.00     0.080 A 
BRANCH  81  83
ATOM     83  S   UNL A   1      29.659  25.613  25.615  1.00  0.00    -0.122 SA
BRANCH  83  84
ATOM     84  C   UNL A   1      30.621  26.926  24.776  1.00  0.00     0.057 C 
ATOM     85  C   UNL A   1      29.758  27.655  23.745  1.00  0.00     0.043 C 
ATOM     86  C   UNL A   1      31.157  27.933  25.806  1.00  0.00     0.053 C 
ATOM     87  C   UNL A   1      30.566  28.774  23.114  1.00  0.00     0.162 C 
ATOM     88  C   UNL A   1      31.844  29.132  25.112  1.00  0.00     0.095 C 
ATOM     89  O   UNL A   1      30.985  29.693  24.116  1.00  0.00    -0.372 OA
ATOM     90  C   UNL A   1      32.175  30.233  26.108  1.00  0.00     0.066 C 
ATOM     91  C   UNL A   1      33.244  28.805  24.580  1.00  0.00     0.195 C 
ATOM     92  C   UNL A   1      33.529  29.835  26.647  1.00  0.00     0.163 C 
ATOM     93  O   UNL A   1      34.182  29.062  25.634  1.00  0.00    -0.378 OA
ENDBRANCH  83  84
ENDBRANCH  81  83
ENDBRANCH  75  78
ENDBRANCH  73  74
ENDBRANCH  72  73
ENDBRANCH   1  72
TORSDOF 16
ENDMDL
MODEL 3
REMARK VINA RESULT:     -11.6      5.541      9.200
REMARK SMILES O=C(NCCCCNC(=O)c1cc(S[C@H]2CCO[C@@]3(CCOC3)C2)cs1)c1ccc(-c2c3nc(c(-c4cccc(S(=O)(=O)[O-])c4F)c4ccc([nH]4)c(-c4cccc(S(=O)(=O)[O-])c4F)c4nc(c(-c5cccc(S(=O)(=O)[O-])c5F)c5ccc2[nH]5)C=C4)C=C3)cc1
REMARK SMILES IDX 5 1 4 2 3 3 1 4 2 5 27 7 28 8 89 9 29 10 88 11 30 12 31 13
REMARK SMILES IDX 32 14 82 15 33 16 87 17 81 18 83 19 34 20 86 21 80 22 79 23
REMARK SMILES IDX 35 25 67 26 47 27 66 28 48 29 51 30 65 31 84 32 49 33 50 34
REMARK SMILES IDX 64 36 85 37 52 38 36 39 37 40 45 41 38 42 40 43 46 44 39 45
REMARK SMILES IDX 41 46 42 47 43 48 44 49 68 50 69 51 77 52 70 53 72 54 78 55
REMARK SMILES IDX 71 56 73 57 74 58 75 59 76 60 53 61 54 62 62 63 55 64 57 65
REMARK SMILES IDX 63 66 56 67 58 68 59 69 60 70 61 71 6 72 7 73 8 74 9 75
REMARK SMILES IDX 10 77 11 78 12 79 26 80 13 81 25 82 14 83 15 84 16 85 24 86
REMARK SMILES IDX 17 87 19 88 18 89 20 90 23 91 21 92 22 93
REMARK H PARENT 3 6 83 24 51 35 8 76
REMARK Flexibility Score: inf
ROOT
ATOM      1  C   UNL A   1      31.570  30.820  26.221  1.00  0.00     0.023 C 
ENDROOT
BRANCH   1   2
ATOM      2  C   UNL A   1      32.650  31.273  27.192  1.00  0.00     0.116 C 
BRANCH   2   3
ATOM      3  N   UNL A   1      32.703  32.718  27.366  1.00  0.00    -0.352 N 
ATOM      4  O   UNL A   1      33.498  34.677  28.161  1.00  0.00    -0.269 OA
ATOM      5  C   UNL A   1      33.673  33.476  27.985  1.00  0.00     0.251 C 
ATOM      6  H   UNL A   1      31.945  33.221  26.990  1.00  0.00     0.163 HD
BRANCH   5   7
ATOM      7  C   UNL A   1      34.904  32.810  28.465  1.00  0.00     0.039 A 
ATOM      8  C   UNL A   1      34.806  31.690  29.290  1.00  0.00     0.014 A 
ATOM      9  C   UNL A   1      36.154  33.346  28.150  1.00  0.00     0.014 A 
ATOM     10  C   UNL A   1      35.930  31.242  29.965  1.00  0.00     0.010 A 
ATOM     11  C   UNL A   1      37.305  32.803  28.733  1.00  0.00     0.010 A 
ATOM     12  C   UNL A   1      37.200  31.773  29.681  1.00  0.00    -0.014 A 
BRANCH  12  13
ATOM     13  C   UNL A   1      38.385  31.161  30.338  1.00  0.00     0.031 A 
ATOM     14  C   UNL A   1      38.776  31.495  31.752  1.00  0.00     0.074 A 
ATOM     15  C   UNL A   1      39.086  30.245  29.641  1.00  0.00     0.049 A 
ATOM     16  N   UNL A   1      39.742  30.984  32.475  1.00  0.00    -0.248 NA
ATOM     17  C   UNL A   1      38.001  32.535  32.446  1.00  0.00     0.031 C 
ATOM     18  C   UNL A   1      38.833  29.879  28.243  1.00  0.00     0.029 A 
ATOM     19  N   UNL A   1      40.138  29.444  30.006  1.00  0.00    -0.354 N 
ATOM     20  C   UNL A   1      39.710  31.654  33.692  1.00  0.00     0.074 A 
ATOM     21  C   UNL A   1      38.640  32.624  33.607  1.00  0.00     0.031 C 
ATOM     22  C   UNL A   1      39.671  28.899  27.884  1.00  0.00     0.029 A 
ATOM     23  C   UNL A   1      40.569  28.617  28.995  1.00  0.00     0.049 A 
ATOM     24  H   UNL A   1      40.543  29.460  30.902  1.00  0.00     0.167 HD
ATOM     25  C   UNL A   1      40.490  31.464  34.787  1.00  0.00     0.034 A 
ATOM     26  C   UNL A   1      41.591  27.743  28.952  1.00  0.00     0.034 A 
ATOM     27  C   UNL A   1      41.543  30.483  34.869  1.00  0.00     0.049 A 
ATOM     28  C   UNL A   1      42.422  27.544  30.183  1.00  0.00     0.074 A 
ATOM     29  C   UNL A   1      42.365  30.192  35.945  1.00  0.00     0.029 A 
ATOM     30  N   UNL A   1      41.925  29.638  33.839  1.00  0.00    -0.354 N 
ATOM     31  N   UNL A   1      42.301  28.110  31.359  1.00  0.00    -0.248 NA
ATOM     32  C   UNL A   1      43.510  26.562  30.094  1.00  0.00     0.031 C 
ATOM     33  C   UNL A   1      43.258  29.187  35.557  1.00  0.00     0.029 A 
ATOM     34  C   UNL A   1      42.971  28.827  34.251  1.00  0.00     0.049 A 
ATOM     35  H   UNL A   1      41.514  29.616  32.945  1.00  0.00     0.167 HD
ATOM     36  C   UNL A   1      43.284  27.541  32.156  1.00  0.00     0.074 A 
ATOM     37  C   UNL A   1      43.964  26.555  31.339  1.00  0.00     0.031 C 
ATOM     38  C   UNL A   1      43.611  27.823  33.440  1.00  0.00     0.034 A 
BRANCH  25  39
ATOM     39  C   UNL A   1      40.210  32.304  36.009  1.00  0.00     0.023 A 
ATOM     40  C   UNL A   1      40.967  33.471  36.236  1.00  0.00     0.012 A 
ATOM     41  C   UNL A   1      39.150  31.991  36.884  1.00  0.00     0.148 A 
ATOM     42  C   UNL A   1      40.694  34.299  37.325  1.00  0.00     0.002 A 
ATOM     43  C   UNL A   1      38.855  32.843  37.943  1.00  0.00     0.091 A 
ATOM     44  F   UNL A   1      38.448  30.871  36.662  1.00  0.00    -0.205 F 
ATOM     45  C   UNL A   1      39.632  33.990  38.171  1.00  0.00     0.022 A 
BRANCH  43  46
ATOM     46  S   UNL A   1      37.461  32.582  39.047  1.00  0.00     0.127 S 
ATOM     47  O   UNL A   1      37.686  33.615  40.056  1.00  0.00    -0.237 OA
ATOM     48  O   UNL A   1      36.320  32.830  38.164  1.00  0.00    -0.237 OA
ATOM     49  O   UNL A   1      37.575  31.211  39.524  1.00  0.00    -0.744 OA
ENDBRANCH  43  46
ENDBRANCH  25  39
BRANCH  26  50
ATOM     50  C   UNL A   1      41.870  26.992  27.697  1.00  0.00     0.023 A 
ATOM     51  C   UNL A   1      42.392  27.662  26.575  1.00  0.00     0.012 A 
ATOM     52  C   UNL A   1      41.648  25.602  27.625  1.00  0.00     0.148 A 
ATOM     53  C   UNL A   1      42.653  26.968  25.392  1.00  0.00     0.002 A 
ATOM     54  C   UNL A   1      41.973  24.906  26.469  1.00  0.00     0.091 A 
ATOM     55  F   UNL A   1      41.138  24.983  28.700  1.00  0.00    -0.205 F 
ATOM     56  C   UNL A   1      42.455  25.590  25.344  1.00  0.00     0.022 A 
BRANCH  54  57
ATOM     57  S   UNL A   1      41.896  23.114  26.382  1.00  0.00     0.127 S 
ATOM     58  O   UNL A   1      42.467  22.856  25.064  1.00  0.00    -0.237 OA
ATOM     59  O   UNL A   1      42.740  22.719  27.510  1.00  0.00    -0.237 OA
ATOM     60  O   UNL A   1      40.487  22.778  26.545  1.00  0.00    -0.744 OA
ENDBRANCH  54  57
ENDBRANCH  26  50
BRANCH  38  61
ATOM     61  C   UNL A   1      44.738  27.030  34.049  1.00  0.00     0.023 A 
ATOM     62  C   UNL A   1      46.063  27.505  33.955  1.00  0.00     0.012 A 
ATOM     63  C   UNL A   1      44.482  25.830  34.740  1.00  0.00     0.148 A 
ATOM     64  C   UNL A   1      47.118  26.773  34.495  1.00  0.00     0.002 A 
ATOM     65  C   UNL A   1      45.533  25.133  35.322  1.00  0.00     0.091 A 
ATOM     66  F   UNL A   1      43.219  25.385  34.802  1.00  0.00    -0.205 F 
ATOM     67  C   UNL A   1      46.852  25.593  35.187  1.00  0.00     0.022 A 
BRANCH  65  68
ATOM     68  S   UNL A   1      45.276  23.655  36.310  1.00  0.00     0.127 S 
ATOM     69  O   UNL A   1      44.672  24.207  37.521  1.00  0.00    -0.237 OA
ATOM     70  O   UNL A   1      44.361  22.879  35.471  1.00  0.00    -0.237 OA
ATOM     71  O   UNL A   1      46.591  23.055  36.483  1.00  0.00    -0.744 OA
ENDBRANCH  65  68
ENDBRANCH  38  61
ENDBRANCH  12  13
ENDBRANCH   5   7
ENDBRANCH   2   3
ENDBRANCH   1   2
BRANCH   1  72
ATOM     72  C   UNL A   1      31.781  29.429  25.636  1.00  0.00     0.023 C 
BRANCH  72  73
ATOM     73  C   UNL A   1      32.199  29.417  24.170  1.00  0.00     0.116 C 
BRANCH  73  74
ATOM     74  N   UNL A   1      31.064  29.565  23.271  1.00  0.00    -0.351 N 
ATOM     75  C   UNL A   1      30.450  28.608  22.495  1.00  0.00     0.261 C 
ATOM     76  H   UNL A   1      30.684  30.471  23.209  1.00  0.00     0.163 HD
ATOM     77  O   UNL A   1      29.634  28.980  21.649  1.00  0.00    -0.268 OA
BRANCH  75  78
ATOM     78  C   UNL A   1      30.779  27.222  22.744  1.00  0.00     0.093 A 
ATOM     79  C   UNL A   1      31.799  26.479  22.181  1.00  0.00     0.040 A 
ATOM     80  S   UNL A   1      29.872  26.297  23.854  1.00  0.00    -0.137 S 
ATOM     81  C   UNL A   1      31.765  25.114  22.567  1.00  0.00     0.019 A 
ATOM     82  C   UNL A   1      30.756  24.876  23.474  1.00  0.00     0.080 A 
BRANCH  81  83
ATOM     83  S   UNL A   1      32.833  23.849  21.962  1.00  0.00    -0.122 SA
BRANCH  83  84
ATOM     84  C   UNL A   1      33.252  22.872  23.453  1.00  0.00     0.057 C 
ATOM     85  C   UNL A   1      32.560  21.508  23.419  1.00  0.00     0.043 C 
ATOM     86  C   UNL A   1      34.773  22.678  23.551  1.00  0.00     0.053 C 
ATOM     87  C   UNL A   1      32.978  20.703  24.636  1.00  0.00     0.162 C 
ATOM     88  C   UNL A   1      35.143  21.730  24.715  1.00  0.00     0.095 C 
ATOM     89  O   UNL A   1      34.388  20.519  24.634  1.00  0.00    -0.372 OA
ATOM     90  C   UNL A   1      36.617  21.358  24.680  1.00  0.00     0.066 C 
ATOM     91  C   UNL A   1      35.057  22.398  26.093  1.00  0.00     0.195 C 
ATOM     92  C   UNL A   1      37.290  22.475  25.443  1.00  0.00     0.163 C 
ATOM     93  O   UNL A   1      36.330  22.999  26.366  1.00  0.00    -0.378 OA
ENDBRANCH  83  84
ENDBRANCH  81  83
ENDBRANCH  75  78
ENDBRANCH  73  74
ENDBRANCH  72  73
ENDBRANCH   1  72
TORSDOF 16
ENDMDL
