MODEL 1
REMARK VINA RESULT:     -12.3      0.000      0.000
REMARK SMILES CC1(C)[C@@]2(CC[C@@H]2C(=O)NCc2ccco2)[C@]1(C)C(=O)NCCCCNC(=O)c1ccc(-c2c3nc(c(-c4cccc(S(=O)(=O)[O-])c4F)c4ccc([nH]4)c(-c4cccc(S(=O)(=O)[O-])c4F)c4nc(c(-c5cccc(S(=O)(=O)[O-])c5F)c5ccc2[nH]5)C=C4)C=C3)cc1
REMARK SMILES IDX 23 1 22 2 21 3 19 4 20 5 17 7 1 8 2 9 3 10 4 11 18 12 5 13
REMARK SMILES IDX 7 14 6 15 8 16 9 17 10 18 11 20 12 21 13 22 16 23 14 24
REMARK SMILES IDX 15 25 24 26 25 27 26 28 27 29 28 31 29 32 30 33 91 34 31 35
REMARK SMILES IDX 90 36 32 37 33 38 34 39 84 40 35 41 89 42 83 43 85 44 36 45
REMARK SMILES IDX 88 46 82 47 81 48 37 50 69 51 49 52 68 53 50 54 53 55 67 56
REMARK SMILES IDX 86 57 51 58 52 59 66 61 87 62 54 63 38 64 39 65 47 66 40 67
REMARK SMILES IDX 42 68 48 69 41 70 43 71 44 72 45 73 46 74 70 75 71 76 79 77
REMARK SMILES IDX 72 78 74 79 80 80 73 81 75 82 76 83 77 84 78 85 55 86 56 87
REMARK SMILES IDX 64 88 57 89 59 90 65 91 58 92 60 93 61 94 62 95 63 96
REMARK H PARENT 21 6 10 19 26 30 85 49 53 60
REMARK Flexibility Score: inf
ROOT
ATOM      1  C   UNL A   1      36.361  20.608  24.849  1.00  0.00     0.023 C 
ENDROOT
BRANCH   1   2
ATOM      2  C   UNL A   1      36.539  22.011  25.423  1.00  0.00     0.116 C 
BRANCH   2   3
ATOM      3  N   UNL A   1      35.669  22.276  26.543  1.00  0.00    -0.356 N 
ATOM      4  C   UNL A   1      34.472  22.896  26.750  1.00  0.00     0.227 C 
ATOM      5  O   UNL A   1      34.021  22.696  27.883  1.00  0.00    -0.274 OA
ATOM      6  H   UNL A   1      36.039  21.915  27.381  1.00  0.00     0.163 HD
BRANCH   4   7
ATOM      7  C   UNL A   1      33.642  23.792  25.824  1.00  0.00     0.059 C 
ATOM      8  C   UNL A   1      31.380  22.498  26.175  1.00  0.00     0.013 C 
ATOM      9  C   UNL A   1      32.142  23.605  25.478  1.00  0.00    -0.013 C 
ATOM     10  C   UNL A   1      31.232  24.813  25.297  1.00  0.00     0.013 C 
ATOM     11  C   UNL A   1      33.212  23.390  24.404  1.00  0.00     0.003 C 
ATOM     12  C   UNL A   1      34.068  25.267  26.028  1.00  0.00     0.023 C 
ATOM     13  C   UNL A   1      33.574  24.295  23.256  1.00  0.00     0.010 C 
ATOM     14  C   UNL A   1      33.540  22.162  23.607  1.00  0.00     0.086 C 
ATOM     15  C   UNL A   1      34.140  23.078  22.544  1.00  0.00     0.015 C 
BRANCH  14  16
ATOM     16  C   UNL A   1      32.459  21.127  23.196  1.00  0.00     0.224 C 
ATOM     17  O   UNL A   1      31.711  21.317  22.222  1.00  0.00    -0.275 OA
ATOM     18  N   UNL A   1      32.208  19.950  23.851  1.00  0.00    -0.349 N 
ATOM     19  H   UNL A   1      31.568  19.364  23.386  1.00  0.00     0.163 HD
BRANCH  18  20
ATOM     20  C   UNL A   1      32.703  19.407  25.090  1.00  0.00     0.191 C 
BRANCH  20  21
ATOM     21  C   UNL A   1      33.285  18.060  24.855  1.00  0.00     0.122 A 
ATOM     22  C   UNL A   1      34.344  17.579  24.107  1.00  0.00     0.047 A 
ATOM     23  O   UNL A   1      32.677  17.026  25.505  1.00  0.00    -0.467 OA
ATOM     24  C   UNL A   1      34.380  16.180  24.307  1.00  0.00     0.042 A 
ATOM     25  C   UNL A   1      33.348  15.893  25.170  1.00  0.00     0.195 A 
ENDBRANCH  20  21
ENDBRANCH  18  20
ENDBRANCH  14  16
ENDBRANCH   4   7
ENDBRANCH   2   3
ENDBRANCH   1   2
BRANCH   1  26
ATOM     26  C   UNL A   1      37.601  19.720  24.901  1.00  0.00     0.023 C 
BRANCH  26  27
ATOM     27  C   UNL A   1      38.641  20.123  25.937  1.00  0.00     0.116 C 
BRANCH  27  28
ATOM     28  N   UNL A   1      39.866  19.337  25.860  1.00  0.00    -0.352 N 
ATOM     29  C   UNL A   1      41.168  19.727  26.086  1.00  0.00     0.251 C 
ATOM     30  H   UNL A   1      39.747  18.392  25.609  1.00  0.00     0.163 HD
ATOM     31  O   UNL A   1      42.095  18.963  25.873  1.00  0.00    -0.269 OA
BRANCH  29  32
ATOM     32  C   UNL A   1      41.426  21.104  26.558  1.00  0.00     0.039 A 
ATOM     33  C   UNL A   1      42.017  21.290  27.811  1.00  0.00     0.014 A 
ATOM     34  C   UNL A   1      41.148  22.195  25.733  1.00  0.00     0.014 A 
ATOM     35  C   UNL A   1      42.412  22.573  28.199  1.00  0.00     0.010 A 
ATOM     36  C   UNL A   1      41.618  23.453  26.086  1.00  0.00     0.010 A 
ATOM     37  C   UNL A   1      42.258  23.655  27.318  1.00  0.00    -0.014 A 
BRANCH  37  38
ATOM     38  C   UNL A   1      42.772  25.010  27.642  1.00  0.00     0.031 A 
ATOM     39  C   UNL A   1      41.859  26.022  28.276  1.00  0.00     0.074 A 
ATOM     40  C   UNL A   1      44.006  25.370  27.236  1.00  0.00     0.049 A 
ATOM     41  N   UNL A   1      42.067  27.292  28.502  1.00  0.00    -0.248 NA
ATOM     42  C   UNL A   1      40.519  25.553  28.669  1.00  0.00     0.031 C 
ATOM     43  C   UNL A   1      44.951  24.506  26.525  1.00  0.00     0.029 A 
ATOM     44  N   UNL A   1      44.660  26.576  27.323  1.00  0.00    -0.354 N 
ATOM     45  C   UNL A   1      40.870  27.786  29.006  1.00  0.00     0.074 A 
ATOM     46  C   UNL A   1      39.933  26.685  29.030  1.00  0.00     0.031 C 
ATOM     47  C   UNL A   1      46.054  25.211  26.227  1.00  0.00     0.029 A 
ATOM     48  C   UNL A   1      45.885  26.582  26.698  1.00  0.00     0.049 A 
ATOM     49  H   UNL A   1      44.286  27.359  27.786  1.00  0.00     0.167 HD
ATOM     50  C   UNL A   1      40.584  29.038  29.436  1.00  0.00     0.034 A 
ATOM     51  C   UNL A   1      46.769  27.584  26.509  1.00  0.00     0.034 A 
ATOM     52  C   UNL A   1      41.542  30.107  29.478  1.00  0.00     0.049 A 
ATOM     53  C   UNL A   1      46.461  28.945  27.072  1.00  0.00     0.074 A 
ATOM     54  C   UNL A   1      41.394  31.372  30.018  1.00  0.00     0.029 A 
ATOM     55  N   UNL A   1      42.825  30.041  28.958  1.00  0.00    -0.354 N 
ATOM     56  N   UNL A   1      45.390  29.346  27.715  1.00  0.00    -0.248 NA
ATOM     57  C   UNL A   1      47.492  29.982  26.919  1.00  0.00     0.031 C 
ATOM     58  C   UNL A   1      42.584  32.077  29.811  1.00  0.00     0.029 A 
ATOM     59  C   UNL A   1      43.477  31.244  29.157  1.00  0.00     0.049 A 
ATOM     60  H   UNL A   1      43.213  29.254  28.513  1.00  0.00     0.167 HD
ATOM     61  C   UNL A   1      45.632  30.669  28.070  1.00  0.00     0.074 A 
ATOM     62  C   UNL A   1      46.957  30.996  27.587  1.00  0.00     0.031 C 
ATOM     63  C   UNL A   1      44.821  31.537  28.725  1.00  0.00     0.034 A 
BRANCH  50  64
ATOM     64  C   UNL A   1      39.195  29.299  29.954  1.00  0.00     0.023 A 
ATOM     65  C   UNL A   1      38.838  28.847  31.241  1.00  0.00     0.012 A 
ATOM     66  C   UNL A   1      38.261  30.026  29.191  1.00  0.00     0.148 A 
ATOM     67  C   UNL A   1      37.561  29.083  31.746  1.00  0.00     0.002 A 
ATOM     68  C   UNL A   1      37.004  30.295  29.721  1.00  0.00     0.091 A 
ATOM     69  F   UNL A   1      38.609  30.425  27.960  1.00  0.00    -0.205 F 
ATOM     70  C   UNL A   1      36.648  29.814  30.991  1.00  0.00     0.022 A 
BRANCH  68  71
ATOM     71  S   UNL A   1      35.790  31.296  28.854  1.00  0.00     0.127 S 
ATOM     72  O   UNL A   1      34.910  31.708  29.947  1.00  0.00    -0.237 OA
ATOM     73  O   UNL A   1      36.613  32.371  28.297  1.00  0.00    -0.237 OA
ATOM     74  O   UNL A   1      35.191  30.419  27.858  1.00  0.00    -0.744 OA
ENDBRANCH  68  71
ENDBRANCH  50  64
BRANCH  51  75
ATOM     75  C   UNL A   1      48.057  27.310  25.813  1.00  0.00     0.023 A 
ATOM     76  C   UNL A   1      49.137  26.782  26.545  1.00  0.00     0.012 A 
ATOM     77  C   UNL A   1      48.201  27.515  24.427  1.00  0.00     0.148 A 
ATOM     78  C   UNL A   1      50.346  26.484  25.916  1.00  0.00     0.002 A 
ATOM     79  C   UNL A   1      49.390  27.167  23.796  1.00  0.00     0.091 A 
ATOM     80  F   UNL A   1      47.165  28.029  23.750  1.00  0.00    -0.205 F 
ATOM     81  C   UNL A   1      50.469  26.666  24.541  1.00  0.00     0.022 A 
BRANCH  79  82
ATOM     82  S   UNL A   1      49.593  27.240  22.012  1.00  0.00     0.127 S 
ATOM     83  O   UNL A   1      48.564  26.311  21.555  1.00  0.00    -0.237 OA
ATOM     84  O   UNL A   1      49.319  28.651  21.732  1.00  0.00    -0.237 OA
ATOM     85  O   UNL A   1      50.971  26.838  21.758  1.00  0.00    -0.744 OA
ENDBRANCH  79  82
ENDBRANCH  51  75
BRANCH  63  86
ATOM     86  C   UNL A   1      45.341  32.923  28.992  1.00  0.00     0.023 A 
ATOM     87  C   UNL A   1      46.059  33.181  30.174  1.00  0.00     0.012 A 
ATOM     88  C   UNL A   1      45.215  33.937  28.021  1.00  0.00     0.148 A 
ATOM     89  C   UNL A   1      46.632  34.433  30.395  1.00  0.00     0.002 A 
ATOM     90  C   UNL A   1      45.826  35.167  28.227  1.00  0.00     0.091 A 
ATOM     91  F   UNL A   1      44.511  33.673  26.910  1.00  0.00    -0.205 F 
ATOM     92  C   UNL A   1      46.528  35.420  29.417  1.00  0.00     0.022 A 
BRANCH  90  93
ATOM     93  S   UNL A   1      45.827  36.464  26.983  1.00  0.00     0.127 S 
ATOM     94  O   UNL A   1      46.328  35.749  25.809  1.00  0.00    -0.237 OA
ATOM     95  O   UNL A   1      44.413  36.832  26.916  1.00  0.00    -0.237 OA
ATOM     96  O   UNL A   1      46.701  37.511  27.495  1.00  0.00    -0.744 OA
ENDBRANCH  90  93
ENDBRANCH  63  86
ENDBRANCH  37  38
ENDBRANCH  29  32
ENDBRANCH  27  28
ENDBRANCH  26  27
ENDBRANCH   1  26
TORSDOF 17
ENDMDL
MODEL 2
REMARK VINA RESULT:     -12.0      5.388      8.337
REMARK SMILES CC1(C)[C@@]2(CC[C@@H]2C(=O)NCc2ccco2)[C@]1(C)C(=O)NCCCCNC(=O)c1ccc(-c2c3nc(c(-c4cccc(S(=O)(=O)[O-])c4F)c4ccc([nH]4)c(-c4cccc(S(=O)(=O)[O-])c4F)c4nc(c(-c5cccc(S(=O)(=O)[O-])c5F)c5ccc2[nH]5)C=C4)C=C3)cc1
REMARK SMILES IDX 23 1 22 2 21 3 19 4 20 5 17 7 1 8 2 9 3 10 4 11 18 12 5 13
REMARK SMILES IDX 7 14 6 15 8 16 9 17 10 18 11 20 12 21 13 22 16 23 14 24
REMARK SMILES IDX 15 25 24 26 25 27 26 28 27 29 28 31 29 32 30 33 91 34 31 35
REMARK SMILES IDX 90 36 32 37 33 38 34 39 84 40 35 41 89 42 83 43 85 44 36 45
REMARK SMILES IDX 88 46 82 47 81 48 37 50 69 51 49 52 68 53 50 54 53 55 67 56
REMARK SMILES IDX 86 57 51 58 52 59 66 61 87 62 54 63 38 64 39 65 47 66 40 67
REMARK SMILES IDX 42 68 48 69 41 70 43 71 44 72 45 73 46 74 70 75 71 76 79 77
REMARK SMILES IDX 72 78 74 79 80 80 73 81 75 82 76 83 77 84 78 85 55 86 56 87
REMARK SMILES IDX 64 88 57 89 59 90 65 91 58 92 60 93 61 94 62 95 63 96
REMARK H PARENT 21 6 10 19 26 30 85 49 53 60
REMARK Flexibility Score: inf
ROOT
ATOM      1  C   UNL A   1      31.201  29.725  24.654  1.00  0.00     0.023 C 
ENDROOT
BRANCH   1   2
ATOM      2  C   UNL A   1      30.929  28.269  24.287  1.00  0.00     0.116 C 
BRANCH   2   3
ATOM      3  N   UNL A   1      30.871  27.399  25.438  1.00  0.00    -0.356 N 
ATOM      4  C   UNL A   1      31.599  26.360  25.937  1.00  0.00     0.227 C 
ATOM      5  O   UNL A   1      31.261  26.050  27.085  1.00  0.00    -0.274 OA
ATOM      6  H   UNL A   1      30.102  27.612  26.013  1.00  0.00     0.163 HD
BRANCH   4   7
ATOM      7  C   UNL A   1      32.720  25.532  25.299  1.00  0.00     0.059 C 
ATOM      8  C   UNL A   1      31.178  24.313  23.553  1.00  0.00     0.013 C 
ATOM      9  C   UNL A   1      32.551  24.486  24.167  1.00  0.00    -0.013 C 
ATOM     10  C   UNL A   1      33.614  24.336  23.087  1.00  0.00     0.013 C 
ATOM     11  C   UNL A   1      32.943  24.037  25.577  1.00  0.00     0.003 C 
ATOM     12  C   UNL A   1      33.990  26.411  25.169  1.00  0.00     0.023 C 
ATOM     13  C   UNL A   1      34.293  23.587  26.070  1.00  0.00     0.010 C 
ATOM     14  C   UNL A   1      32.233  23.114  26.524  1.00  0.00     0.086 C 
ATOM     15  C   UNL A   1      33.581  22.848  27.190  1.00  0.00     0.015 C 
BRANCH  14  16
ATOM     16  C   UNL A   1      31.379  21.916  26.030  1.00  0.00     0.224 C 
ATOM     17  O   UNL A   1      30.138  21.936  26.079  1.00  0.00    -0.275 OA
ATOM     18  N   UNL A   1      31.884  20.745  25.529  1.00  0.00    -0.349 N 
ATOM     19  H   UNL A   1      31.199  20.142  25.158  1.00  0.00     0.163 HD
BRANCH  18  20
ATOM     20  C   UNL A   1      33.226  20.227  25.442  1.00  0.00     0.191 C 
BRANCH  20  21
ATOM     21  C   UNL A   1      33.189  18.788  25.074  1.00  0.00     0.122 A 
ATOM     22  C   UNL A   1      33.785  18.024  24.088  1.00  0.00     0.047 A 
ATOM     23  O   UNL A   1      32.407  17.991  25.860  1.00  0.00    -0.467 OA
ATOM     24  C   UNL A   1      33.339  16.696  24.279  1.00  0.00     0.042 A 
ATOM     25  C   UNL A   1      32.507  16.728  25.372  1.00  0.00     0.195 A 
ENDBRANCH  20  21
ENDBRANCH  18  20
ENDBRANCH  14  16
ENDBRANCH   4   7
ENDBRANCH   2   3
ENDBRANCH   1   2
BRANCH   1  26
ATOM     26  C   UNL A   1      32.498  29.973  25.419  1.00  0.00     0.023 C 
BRANCH  26  27
ATOM     27  C   UNL A   1      32.320  30.447  26.855  1.00  0.00     0.116 C 
BRANCH  27  28
ATOM     28  N   UNL A   1      32.412  31.895  26.999  1.00  0.00    -0.352 N 
ATOM     29  C   UNL A   1      33.422  32.653  27.550  1.00  0.00     0.251 C 
ATOM     30  H   UNL A   1      31.643  32.403  26.654  1.00  0.00     0.163 HD
ATOM     31  O   UNL A   1      33.291  33.859  27.689  1.00  0.00    -0.269 OA
BRANCH  29  32
ATOM     32  C   UNL A   1      34.653  31.975  28.005  1.00  0.00     0.039 A 
ATOM     33  C   UNL A   1      35.823  32.726  28.154  1.00  0.00     0.014 A 
ATOM     34  C   UNL A   1      34.627  30.623  28.348  1.00  0.00     0.014 A 
ATOM     35  C   UNL A   1      36.948  32.134  28.734  1.00  0.00     0.010 A 
ATOM     36  C   UNL A   1      35.718  30.063  29.000  1.00  0.00     0.010 A 
ATOM     37  C   UNL A   1      36.887  30.813  29.204  1.00  0.00    -0.014 A 
BRANCH  37  38
ATOM     38  C   UNL A   1      38.018  30.186  29.934  1.00  0.00     0.031 A 
ATOM     39  C   UNL A   1      38.319  30.607  31.346  1.00  0.00     0.074 A 
ATOM     40  C   UNL A   1      38.855  29.355  29.282  1.00  0.00     0.049 A 
ATOM     41  N   UNL A   1      39.338  30.293  32.100  1.00  0.00    -0.248 NA
ATOM     42  C   UNL A   1      37.366  31.537  31.978  1.00  0.00     0.031 C 
ATOM     43  C   UNL A   1      38.724  28.947  27.882  1.00  0.00     0.029 A 
ATOM     44  N   UNL A   1      40.010  28.740  29.700  1.00  0.00    -0.354 N 
ATOM     45  C   UNL A   1      39.184  31.030  33.268  1.00  0.00     0.074 A 
ATOM     46  C   UNL A   1      37.985  31.825  33.113  1.00  0.00     0.031 C 
ATOM     47  C   UNL A   1      39.764  28.164  27.552  1.00  0.00     0.029 A 
ATOM     48  C   UNL A   1      40.649  28.036  28.705  1.00  0.00     0.049 A 
ATOM     49  H   UNL A   1      40.348  28.798  30.622  1.00  0.00     0.167 HD
ATOM     50  C   UNL A   1      39.956  31.026  34.380  1.00  0.00     0.034 A 
ATOM     51  C   UNL A   1      41.826  27.376  28.714  1.00  0.00     0.034 A 
ATOM     52  C   UNL A   1      41.102  30.179  34.556  1.00  0.00     0.049 A 
ATOM     53  C   UNL A   1      42.621  27.319  29.990  1.00  0.00     0.074 A 
ATOM     54  C   UNL A   1      41.872  29.999  35.691  1.00  0.00     0.029 A 
ATOM     55  N   UNL A   1      41.648  29.372  33.569  1.00  0.00    -0.354 N 
ATOM     56  N   UNL A   1      42.360  27.876  31.148  1.00  0.00    -0.248 NA
ATOM     57  C   UNL A   1      43.852  26.514  29.975  1.00  0.00     0.031 C 
ATOM     58  C   UNL A   1      42.893  29.094  35.386  1.00  0.00     0.029 A 
ATOM     59  C   UNL A   1      42.748  28.699  34.066  1.00  0.00     0.049 A 
ATOM     60  H   UNL A   1      41.302  29.292  32.651  1.00  0.00     0.167 HD
ATOM     61  C   UNL A   1      43.373  27.464  32.007  1.00  0.00     0.074 A 
ATOM     62  C   UNL A   1      44.244  26.597  31.241  1.00  0.00     0.031 C 
ATOM     63  C   UNL A   1      43.571  27.789  33.309  1.00  0.00     0.034 A 
BRANCH  50  64
ATOM     64  C   UNL A   1      39.545  31.921  35.519  1.00  0.00     0.023 A 
ATOM     65  C   UNL A   1      40.032  33.242  35.575  1.00  0.00     0.012 A 
ATOM     66  C   UNL A   1      38.645  31.472  36.506  1.00  0.00     0.148 A 
ATOM     67  C   UNL A   1      39.660  34.093  36.615  1.00  0.00     0.002 A 
ATOM     68  C   UNL A   1      38.245  32.340  37.515  1.00  0.00     0.091 A 
ATOM     69  F   UNL A   1      38.213  30.204  36.452  1.00  0.00    -0.205 F 
ATOM     70  C   UNL A   1      38.760  33.645  37.579  1.00  0.00     0.022 A 
BRANCH  68  71
ATOM     71  S   UNL A   1      37.030  31.878  38.755  1.00  0.00     0.127 S 
ATOM     72  O   UNL A   1      36.871  30.448  38.497  1.00  0.00    -0.237 OA
ATOM     73  O   UNL A   1      37.723  32.198  40.005  1.00  0.00    -0.237 OA
ATOM     74  O   UNL A   1      35.859  32.702  38.489  1.00  0.00    -0.744 OA
ENDBRANCH  68  71
ENDBRANCH  50  64
BRANCH  51  75
ATOM     75  C   UNL A   1      42.280  26.663  27.488  1.00  0.00     0.023 A 
ATOM     76  C   UNL A   1      43.001  27.370  26.506  1.00  0.00     0.012 A 
ATOM     77  C   UNL A   1      42.052  25.284  27.313  1.00  0.00     0.148 A 
ATOM     78  C   UNL A   1      43.468  26.723  25.362  1.00  0.00     0.002 A 
ATOM     79  C   UNL A   1      42.565  24.633  26.196  1.00  0.00     0.091 A 
ATOM     80  F   UNL A   1      41.355  24.631  28.253  1.00  0.00    -0.205 F 
ATOM     81  C   UNL A   1      43.260  25.354  25.213  1.00  0.00     0.022 A 
BRANCH  79  82
ATOM     82  S   UNL A   1      42.463  22.852  25.985  1.00  0.00     0.127 S 
ATOM     83  O   UNL A   1      41.022  22.625  26.044  1.00  0.00    -0.237 OA
ATOM     84  O   UNL A   1      43.064  22.668  24.663  1.00  0.00    -0.237 OA
ATOM     85  O   UNL A   1      43.242  22.284  27.079  1.00  0.00    -0.744 OA
ENDBRANCH  79  82
ENDBRANCH  51  75
BRANCH  63  86
ATOM     86  C   UNL A   1      44.757  27.188  34.013  1.00  0.00     0.023 A 
ATOM     87  C   UNL A   1      45.987  27.871  34.014  1.00  0.00     0.012 A 
ATOM     88  C   UNL A   1      44.619  26.004  34.767  1.00  0.00     0.148 A 
ATOM     89  C   UNL A   1      47.069  27.379  34.742  1.00  0.00     0.002 A 
ATOM     90  C   UNL A   1      45.688  25.544  35.526  1.00  0.00     0.091 A 
ATOM     91  F   UNL A   1      43.444  25.361  34.737  1.00  0.00    -0.205 F 
ATOM     92  C   UNL A   1      46.917  26.225  35.507  1.00  0.00     0.022 A 
BRANCH  90  93
ATOM     93  S   UNL A   1      45.555  24.123  36.617  1.00  0.00     0.127 S 
ATOM     94  O   UNL A   1      46.917  24.019  37.138  1.00  0.00    -0.237 OA
ATOM     95  O   UNL A   1      44.560  24.570  37.591  1.00  0.00    -0.237 OA
ATOM     96  O   UNL A   1      45.122  23.012  35.778  1.00  0.00    -0.744 OA
ENDBRANCH  90  93
ENDBRANCH  63  86
ENDBRANCH  37  38
ENDBRANCH  29  32
ENDBRANCH  27  28
ENDBRANCH  26  27
ENDBRANCH   1  26
TORSDOF 17
ENDMDL
MODEL 3
REMARK VINA RESULT:     -11.9      5.447      8.614
REMARK SMILES CC1(C)[C@@]2(CC[C@@H]2C(=O)NCc2ccco2)[C@]1(C)C(=O)NCCCCNC(=O)c1ccc(-c2c3nc(c(-c4cccc(S(=O)(=O)[O-])c4F)c4ccc([nH]4)c(-c4cccc(S(=O)(=O)[O-])c4F)c4nc(c(-c5cccc(S(=O)(=O)[O-])c5F)c5ccc2[nH]5)C=C4)C=C3)cc1
REMARK SMILES IDX 23 1 22 2 21 3 19 4 20 5 17 7 1 8 2 9 3 10 4 11 18 12 5 13
REMARK SMILES IDX 7 14 6 15 8 16 9 17 10 18 11 20 12 21 13 22 16 23 14 24
REMARK SMILES IDX 15 25 24 26 25 27 26 28 27 29 28 31 29 32 30 33 91 34 31 35
REMARK SMILES IDX 90 36 32 37 33 38 34 39 84 40 35 41 89 42 83 43 85 44 36 45
REMARK SMILES IDX 88 46 82 47 81 48 37 50 69 51 49 52 68 53 50 54 53 55 67 56
REMARK SMILES IDX 86 57 51 58 52 59 66 61 87 62 54 63 38 64 39 65 47 66 40 67
REMARK SMILES IDX 42 68 48 69 41 70 43 71 44 72 45 73 46 74 70 75 71 76 79 77
REMARK SMILES IDX 72 78 74 79 80 80 73 81 75 82 76 83 77 84 78 85 55 86 56 87
REMARK SMILES IDX 64 88 57 89 59 90 65 91 58 92 60 93 61 94 62 95 63 96
REMARK H PARENT 21 6 10 19 26 30 85 49 53 60
REMARK Flexibility Score: inf
ROOT
ATOM      1  C   UNL A   1      31.343  27.713  26.405  1.00  0.00     0.023 C 
ENDROOT
BRANCH   1   2
ATOM      2  C   UNL A   1      32.339  26.563  26.525  1.00  0.00     0.116 C 
BRANCH   2   3
ATOM      3  N   UNL A   1      31.714  25.308  26.866  1.00  0.00    -0.356 N 
ATOM      4  C   UNL A   1      32.082  23.997  26.929  1.00  0.00     0.227 C 
ATOM      5  O   UNL A   1      31.230  23.288  27.476  1.00  0.00    -0.274 OA
ATOM      6  H   UNL A   1      30.770  25.431  27.120  1.00  0.00     0.163 HD
BRANCH   4   7
ATOM      7  C   UNL A   1      33.344  23.291  26.419  1.00  0.00     0.059 C 
ATOM      8  C   UNL A   1      34.289  25.368  25.112  1.00  0.00     0.013 C 
ATOM      9  C   UNL A   1      34.422  23.908  25.491  1.00  0.00    -0.013 C 
ATOM     10  C   UNL A   1      35.894  23.563  25.677  1.00  0.00     0.013 C 
ATOM     11  C   UNL A   1      33.517  22.784  24.979  1.00  0.00     0.003 C 
ATOM     12  C   UNL A   1      33.914  22.392  27.545  1.00  0.00     0.023 C 
ATOM     13  C   UNL A   1      33.865  21.335  24.760  1.00  0.00     0.010 C 
ATOM     14  C   UNL A   1      32.547  22.778  23.834  1.00  0.00     0.086 C 
ATOM     15  C   UNL A   1      32.711  21.261  23.775  1.00  0.00     0.015 C 
BRANCH  14  16
ATOM     16  C   UNL A   1      32.776  23.617  22.549  1.00  0.00     0.224 C 
ATOM     17  O   UNL A   1      33.703  23.365  21.762  1.00  0.00    -0.275 OA
ATOM     18  N   UNL A   1      32.024  24.699  22.173  1.00  0.00    -0.349 N 
ATOM     19  H   UNL A   1      32.238  25.039  21.274  1.00  0.00     0.163 HD
BRANCH  18  20
ATOM     20  C   UNL A   1      30.981  25.433  22.842  1.00  0.00     0.191 C 
BRANCH  20  21
ATOM     21  C   UNL A   1      31.244  26.892  22.739  1.00  0.00     0.122 A 
ATOM     22  C   UNL A   1      30.461  28.003  22.482  1.00  0.00     0.047 A 
ATOM     23  O   UNL A   1      32.537  27.280  22.941  1.00  0.00    -0.467 OA
ATOM     24  C   UNL A   1      31.322  29.124  22.524  1.00  0.00     0.042 A 
ATOM     25  C   UNL A   1      32.573  28.632  22.811  1.00  0.00     0.195 A 
ENDBRANCH  20  21
ENDBRANCH  18  20
ENDBRANCH  14  16
ENDBRANCH   4   7
ENDBRANCH   2   3
ENDBRANCH   1   2
BRANCH   1  26
ATOM     26  C   UNL A   1      31.766  29.015  27.078  1.00  0.00     0.023 C 
BRANCH  26  27
ATOM     27  C   UNL A   1      32.564  29.967  26.198  1.00  0.00     0.116 C 
BRANCH  27  28
ATOM     28  N   UNL A   1      32.435  31.364  26.594  1.00  0.00    -0.352 N 
ATOM     29  C   UNL A   1      33.266  32.126  27.386  1.00  0.00     0.251 C 
ATOM     30  H   UNL A   1      31.639  31.829  26.248  1.00  0.00     0.163 HD
ATOM     31  O   UNL A   1      32.954  33.260  27.709  1.00  0.00    -0.269 OA
BRANCH  29  32
ATOM     32  C   UNL A   1      34.530  31.531  27.868  1.00  0.00     0.039 A 
ATOM     33  C   UNL A   1      35.640  32.360  28.057  1.00  0.00     0.014 A 
ATOM     34  C   UNL A   1      34.590  30.176  28.198  1.00  0.00     0.014 A 
ATOM     35  C   UNL A   1      36.787  31.842  28.662  1.00  0.00     0.010 A 
ATOM     36  C   UNL A   1      35.699  29.687  28.875  1.00  0.00     0.010 A 
ATOM     37  C   UNL A   1      36.807  30.514  29.119  1.00  0.00    -0.014 A 
BRANCH  37  38
ATOM     38  C   UNL A   1      37.959  29.961  29.874  1.00  0.00     0.031 A 
ATOM     39  C   UNL A   1      38.222  30.427  31.279  1.00  0.00     0.074 A 
ATOM     40  C   UNL A   1      38.843  29.158  29.250  1.00  0.00     0.049 A 
ATOM     41  N   UNL A   1      39.247  30.180  32.051  1.00  0.00    -0.248 NA
ATOM     42  C   UNL A   1      37.218  31.321  31.880  1.00  0.00     0.031 C 
ATOM     43  C   UNL A   1      38.749  28.714  27.857  1.00  0.00     0.029 A 
ATOM     44  N   UNL A   1      40.023  28.610  29.693  1.00  0.00    -0.354 N 
ATOM     45  C   UNL A   1      39.044  30.934  33.200  1.00  0.00     0.074 A 
ATOM     46  C   UNL A   1      37.809  31.664  33.016  1.00  0.00     0.031 C 
ATOM     47  C   UNL A   1      39.830  27.976  27.556  1.00  0.00     0.029 A 
ATOM     48  C   UNL A   1      40.707  27.918  28.721  1.00  0.00     0.049 A 
ATOM     49  H   UNL A   1      40.347  28.705  30.617  1.00  0.00     0.167 HD
ATOM     50  C   UNL A   1      39.802  30.992  34.320  1.00  0.00     0.034 A 
ATOM     51  C   UNL A   1      41.915  27.317  28.757  1.00  0.00     0.034 A 
ATOM     52  C   UNL A   1      40.986  30.207  34.527  1.00  0.00     0.049 A 
ATOM     53  C   UNL A   1      42.697  27.327  30.042  1.00  0.00     0.074 A 
ATOM     54  C   UNL A   1      41.751  30.090  35.673  1.00  0.00     0.029 A 
ATOM     55  N   UNL A   1      41.582  29.407  33.564  1.00  0.00    -0.354 N 
ATOM     56  N   UNL A   1      42.395  27.895  31.184  1.00  0.00    -0.248 NA
ATOM     57  C   UNL A   1      43.966  26.584  30.058  1.00  0.00     0.031 C 
ATOM     58  C   UNL A   1      42.819  29.230  35.399  1.00  0.00     0.029 A 
ATOM     59  C   UNL A   1      42.709  28.799  34.087  1.00  0.00     0.049 A 
ATOM     60  H   UNL A   1      41.251  29.289  32.644  1.00  0.00     0.167 HD
ATOM     61  C   UNL A   1      43.418  27.553  32.063  1.00  0.00     0.074 A 
ATOM     62  C   UNL A   1      44.339  26.714  31.325  1.00  0.00     0.031 C 
ATOM     63  C   UNL A   1      43.584  27.916  33.359  1.00  0.00     0.034 A 
BRANCH  50  64
ATOM     64  C   UNL A   1      39.334  31.890  35.435  1.00  0.00     0.023 A 
ATOM     65  C   UNL A   1      38.437  31.389  36.400  1.00  0.00     0.012 A 
ATOM     66  C   UNL A   1      39.814  33.208  35.554  1.00  0.00     0.148 A 
ATOM     67  C   UNL A   1      37.995  32.198  37.446  1.00  0.00     0.002 A 
ATOM     68  C   UNL A   1      39.403  33.994  36.624  1.00  0.00     0.091 A 
ATOM     69  F   UNL A   1      40.646  33.676  34.613  1.00  0.00    -0.205 F 
ATOM     70  C   UNL A   1      38.486  33.496  37.563  1.00  0.00     0.022 A 
BRANCH  68  71
ATOM     71  S   UNL A   1      40.041  35.651  36.902  1.00  0.00     0.127 S 
ATOM     72  O   UNL A   1      41.480  35.406  36.975  1.00  0.00    -0.237 OA
ATOM     73  O   UNL A   1      39.604  36.359  35.697  1.00  0.00    -0.237 OA
ATOM     74  O   UNL A   1      39.416  36.115  38.133  1.00  0.00    -0.744 OA
ENDBRANCH  68  71
ENDBRANCH  50  64
BRANCH  51  75
ATOM     75  C   UNL A   1      42.417  26.600  27.551  1.00  0.00     0.023 A 
ATOM     76  C   UNL A   1      43.213  27.294  26.619  1.00  0.00     0.012 A 
ATOM     77  C   UNL A   1      42.160  25.230  27.351  1.00  0.00     0.148 A 
ATOM     78  C   UNL A   1      43.725  26.643  25.497  1.00  0.00     0.002 A 
ATOM     79  C   UNL A   1      42.718  24.574  26.259  1.00  0.00     0.091 A 
ATOM     80  F   UNL A   1      41.392  24.590  28.243  1.00  0.00    -0.205 F 
ATOM     81  C   UNL A   1      43.488  25.282  25.323  1.00  0.00     0.022 A 
BRANCH  79  82
ATOM     82  S   UNL A   1      42.578  22.798  26.025  1.00  0.00     0.127 S 
ATOM     83  O   UNL A   1      43.222  22.615  24.728  1.00  0.00    -0.237 OA
ATOM     84  O   UNL A   1      43.333  22.282  27.168  1.00  0.00    -0.237 OA
ATOM     85  O   UNL A   1      41.150  22.509  26.073  1.00  0.00    -0.744 OA
ENDBRANCH  79  82
ENDBRANCH  51  75
BRANCH  63  86
ATOM     86  C   UNL A   1      44.790  27.389  34.089  1.00  0.00     0.023 A 
ATOM     87  C   UNL A   1      45.979  28.142  34.104  1.00  0.00     0.012 A 
ATOM     88  C   UNL A   1      44.707  26.206  34.851  1.00  0.00     0.148 A 
ATOM     89  C   UNL A   1      47.075  27.719  34.854  1.00  0.00     0.002 A 
ATOM     90  C   UNL A   1      45.787  25.815  35.632  1.00  0.00     0.091 A 
ATOM     91  F   UNL A   1      43.571  25.496  34.808  1.00  0.00    -0.205 F 
ATOM     92  C   UNL A   1      46.975  26.565  35.628  1.00  0.00     0.022 A 
BRANCH  90  93
ATOM     93  S   UNL A   1      45.717  24.397  36.734  1.00  0.00     0.127 S 
ATOM     94  O   UNL A   1      45.483  23.301  35.795  1.00  0.00    -0.237 OA
ATOM     95  O   UNL A   1      47.047  24.408  37.341  1.00  0.00    -0.237 OA
ATOM     96  O   UNL A   1      44.627  24.665  37.664  1.00  0.00    -0.744 OA
ENDBRANCH  90  93
ENDBRANCH  63  86
ENDBRANCH  37  38
ENDBRANCH  29  32
ENDBRANCH  27  28
ENDBRANCH  26  27
ENDBRANCH   1  26
TORSDOF 17
ENDMDL
