MODEL 1
REMARK VINA RESULT:     -12.6      0.000      0.000
REMARK SMILES CC(C)(C)OC(=O)N1CCC[C@](Cc2ccccc2)(C(=O)NCCCCNC(=O)c2ccc(-c3c4nc(c(-c5cccc(S(=O)(=O)[O-])c5F)c5ccc([nH]5)c(-c5cccc(S(=O)(=O)[O-])c5F)c5nc(c(-c6cccc(S(=O)(=O)[O-])c6F)c6ccc3[nH]6)C=C5)C=C4)cc2)C1
REMARK SMILES IDX 24 1 23 2 22 3 20 4 21 5 12 7 8 8 9 9 93 10 10 11 11 12 6 13
REMARK SMILES IDX 7 14 5 15 2 16 1 17 3 18 4 19 13 20 14 21 15 22 19 23 16 24
REMARK SMILES IDX 18 25 17 26 25 27 26 28 27 29 28 30 29 32 30 33 31 34 92 35
REMARK SMILES IDX 32 36 91 37 33 38 34 39 35 40 85 41 36 42 90 43 84 44 86 45
REMARK SMILES IDX 37 46 89 47 83 48 82 49 38 51 70 52 50 53 69 54 51 55 54 56
REMARK SMILES IDX 68 57 87 58 52 59 53 60 67 62 88 63 55 64 39 65 40 66 48 67
REMARK SMILES IDX 41 68 43 69 49 70 42 71 44 72 45 73 46 74 47 75 71 76 72 77
REMARK SMILES IDX 80 78 73 79 75 80 81 81 74 82 76 83 77 84 78 85 79 86 56 87
REMARK SMILES IDX 57 88 65 89 58 90 60 91 66 92 59 93 61 94 62 95 63 96 64 97
REMARK H PARENT 22 6 27 31 86 50 54 61
REMARK Flexibility Score: inf
ROOT
ATOM      1  C   UNL A   1      31.954  28.322  27.593  1.00  0.00     0.023 C 
ENDROOT
BRANCH   1   2
ATOM      2  C   UNL A   1      32.486  27.207  26.690  1.00  0.00     0.116 C 
BRANCH   2   3
ATOM      3  N   UNL A   1      31.563  26.098  26.575  1.00  0.00    -0.356 N 
ATOM      4  C   UNL A   1      30.873  25.575  25.530  1.00  0.00     0.228 C 
ATOM      5  O   UNL A   1      30.257  24.532  25.789  1.00  0.00    -0.274 OA
ATOM      6  H   UNL A   1      31.403  25.629  27.425  1.00  0.00     0.163 HD
BRANCH   4   7
ATOM      7  C   UNL A   1      30.864  26.168  24.087  1.00  0.00     0.071 C 
ATOM      8  N   UNL A   1      32.533  24.958  22.638  1.00  0.00    -0.307 N 
ATOM      9  C   UNL A   1      33.076  26.188  22.108  1.00  0.00     0.123 C 
ATOM     10  C   UNL A   1      31.155  25.004  23.098  1.00  0.00     0.140 C 
ATOM     11  C   UNL A   1      33.081  27.294  23.136  1.00  0.00     0.023 C 
ATOM     12  C   UNL A   1      31.809  27.404  23.980  1.00  0.00     0.021 C 
BRANCH   8  13
ATOM     13  C   UNL A   1      33.294  23.806  22.587  1.00  0.00     0.410 C 
ATOM     14  O   UNL A   1      33.691  23.334  21.530  1.00  0.00    -0.224 OA
BRANCH  13  15
ATOM     15  O   UNL A   1      33.459  23.243  23.810  1.00  0.00    -0.444 OA
BRANCH  15  16
ATOM     16  C   UNL A   1      34.735  23.270  24.515  1.00  0.00     0.106 C 
ATOM     17  C   UNL A   1      34.580  22.269  25.670  1.00  0.00     0.056 C 
ATOM     18  C   UNL A   1      34.926  24.678  25.080  1.00  0.00     0.056 C 
ATOM     19  C   UNL A   1      35.962  22.842  23.694  1.00  0.00     0.056 C 
ENDBRANCH  15  16
ENDBRANCH  13  15
ENDBRANCH   8  13
BRANCH   7  20
ATOM     20  C   UNL A   1      29.359  26.646  23.890  1.00  0.00     0.054 C 
BRANCH  20  21
ATOM     21  C   UNL A   1      29.113  27.936  23.128  1.00  0.00    -0.047 A 
ATOM     22  C   UNL A   1      27.856  28.560  23.182  1.00  0.00     0.004 A 
ATOM     23  C   UNL A   1      30.122  28.533  22.366  1.00  0.00     0.004 A 
ATOM     24  C   UNL A   1      27.645  29.797  22.573  1.00  0.00     0.000 A 
ATOM     25  C   UNL A   1      29.910  29.769  21.752  1.00  0.00     0.000 A 
ATOM     26  C   UNL A   1      28.679  30.409  21.871  1.00  0.00     0.000 A 
ENDBRANCH  20  21
ENDBRANCH   7  20
ENDBRANCH   4   7
ENDBRANCH   2   3
ENDBRANCH   1   2
BRANCH   1  27
ATOM     27  C   UNL A   1      31.595  29.613  26.865  1.00  0.00     0.023 C 
BRANCH  27  28
ATOM     28  C   UNL A   1      32.775  30.511  26.512  1.00  0.00     0.116 C 
BRANCH  28  29
ATOM     29  N   UNL A   1      32.644  31.896  26.949  1.00  0.00    -0.352 N 
ATOM     30  C   UNL A   1      33.574  32.627  27.661  1.00  0.00     0.251 C 
ATOM     31  H   UNL A   1      31.807  32.356  26.714  1.00  0.00     0.163 HD
ATOM     32  O   UNL A   1      33.336  33.769  28.040  1.00  0.00    -0.269 OA
BRANCH  30  33
ATOM     33  C   UNL A   1      34.852  31.969  28.003  1.00  0.00     0.039 A 
ATOM     34  C   UNL A   1      36.008  32.744  28.104  1.00  0.00     0.014 A 
ATOM     35  C   UNL A   1      34.860  30.620  28.367  1.00  0.00     0.014 A 
ATOM     36  C   UNL A   1      37.157  32.184  28.666  1.00  0.00     0.010 A 
ATOM     37  C   UNL A   1      35.977  30.094  29.005  1.00  0.00     0.010 A 
ATOM     38  C   UNL A   1      37.135  30.873  29.169  1.00  0.00    -0.014 A 
BRANCH  38  39
ATOM     39  C   UNL A   1      38.299  30.294  29.887  1.00  0.00     0.031 A 
ATOM     40  C   UNL A   1      38.632  30.764  31.277  1.00  0.00     0.074 A 
ATOM     41  C   UNL A   1      39.111  29.420  29.255  1.00  0.00     0.049 A 
ATOM     42  N   UNL A   1      39.646  30.441  32.036  1.00  0.00    -0.248 NA
ATOM     43  C   UNL A   1      37.721  31.752  31.882  1.00  0.00     0.031 C 
ATOM     44  C   UNL A   1      38.947  28.951  27.876  1.00  0.00     0.029 A 
ATOM     45  N   UNL A   1      40.252  28.788  29.683  1.00  0.00    -0.354 N 
ATOM     46  C   UNL A   1      39.514  31.206  33.189  1.00  0.00     0.074 A 
ATOM     47  C   UNL A   1      38.350  32.044  33.011  1.00  0.00     0.031 C 
ATOM     48  C   UNL A   1      39.940  28.096  27.579  1.00  0.00     0.029 A 
ATOM     49  C   UNL A   1      40.825  27.973  28.733  1.00  0.00     0.049 A 
ATOM     50  H   UNL A   1      40.625  28.905  30.586  1.00  0.00     0.167 HD
ATOM     51  C   UNL A   1      40.267  31.182  34.313  1.00  0.00     0.034 A 
ATOM     52  C   UNL A   1      41.937  27.213  28.789  1.00  0.00     0.034 A 
ATOM     53  C   UNL A   1      41.389  30.308  34.512  1.00  0.00     0.049 A 
ATOM     54  C   UNL A   1      42.726  27.171  30.070  1.00  0.00     0.074 A 
ATOM     55  C   UNL A   1      42.177  30.159  35.640  1.00  0.00     0.029 A 
ATOM     56  N   UNL A   1      41.876  29.422  33.563  1.00  0.00    -0.354 N 
ATOM     57  N   UNL A   1      42.498  27.791  31.202  1.00  0.00    -0.248 NA
ATOM     58  C   UNL A   1      43.907  26.293  30.096  1.00  0.00     0.031 C 
ATOM     59  C   UNL A   1      43.142  29.183  35.373  1.00  0.00     0.029 A 
ATOM     60  C   UNL A   1      42.948  28.717  34.082  1.00  0.00     0.049 A 
ATOM     61  H   UNL A   1      41.514  29.312  32.655  1.00  0.00     0.167 HD
ATOM     62  C   UNL A   1      43.476  27.348  32.085  1.00  0.00     0.074 A 
ATOM     63  C   UNL A   1      44.289  26.390  31.362  1.00  0.00     0.031 C 
ATOM     64  C   UNL A   1      43.697  27.714  33.371  1.00  0.00     0.034 A 
BRANCH  51  65
ATOM     65  C   UNL A   1      39.845  32.075  35.450  1.00  0.00     0.023 A 
ATOM     66  C   UNL A   1      40.408  33.364  35.552  1.00  0.00     0.012 A 
ATOM     67  C   UNL A   1      38.866  31.672  36.378  1.00  0.00     0.148 A 
ATOM     68  C   UNL A   1      40.030  34.226  36.580  1.00  0.00     0.002 A 
ATOM     69  C   UNL A   1      38.463  32.553  37.375  1.00  0.00     0.091 A 
ATOM     70  F   UNL A   1      38.358  30.436  36.277  1.00  0.00    -0.205 F 
ATOM     71  C   UNL A   1      39.051  33.825  37.484  1.00  0.00     0.022 A 
BRANCH  69  72
ATOM     72  S   UNL A   1      37.158  32.163  38.547  1.00  0.00     0.127 S 
ATOM     73  O   UNL A   1      36.037  32.932  38.008  1.00  0.00    -0.237 OA
ATOM     74  O   UNL A   1      37.032  30.713  38.395  1.00  0.00    -0.237 OA
ATOM     75  O   UNL A   1      37.645  32.598  39.849  1.00  0.00    -0.744 OA
ENDBRANCH  69  72
ENDBRANCH  51  65
BRANCH  52  76
ATOM     76  C   UNL A   1      42.324  26.355  27.632  1.00  0.00     0.023 A 
ATOM     77  C   UNL A   1      43.130  26.901  26.614  1.00  0.00     0.012 A 
ATOM     78  C   UNL A   1      41.906  25.015  27.527  1.00  0.00     0.148 A 
ATOM     79  C   UNL A   1      43.481  26.144  25.495  1.00  0.00     0.002 A 
ATOM     80  C   UNL A   1      42.302  24.249  26.435  1.00  0.00     0.091 A 
ATOM     81  F   UNL A   1      41.124  24.513  28.494  1.00  0.00    -0.205 F 
ATOM     82  C   UNL A   1      43.075  24.816  25.410  1.00  0.00     0.022 A 
BRANCH  80  83
ATOM     83  S   UNL A   1      41.924  22.496  26.314  1.00  0.00     0.127 S 
ATOM     84  O   UNL A   1      42.498  22.155  25.015  1.00  0.00    -0.237 OA
ATOM     85  O   UNL A   1      42.638  21.945  27.466  1.00  0.00    -0.237 OA
ATOM     86  O   UNL A   1      40.474  22.409  26.417  1.00  0.00    -0.744 OA
ENDBRANCH  80  83
ENDBRANCH  52  76
BRANCH  64  87
ATOM     87  C   UNL A   1      44.832  27.050  34.103  1.00  0.00     0.023 A 
ATOM     88  C   UNL A   1      46.112  27.637  34.085  1.00  0.00     0.012 A 
ATOM     89  C   UNL A   1      44.611  25.891  34.874  1.00  0.00     0.148 A 
ATOM     90  C   UNL A   1      47.162  27.066  34.801  1.00  0.00     0.002 A 
ATOM     91  C   UNL A   1      45.651  25.354  35.622  1.00  0.00     0.091 A 
ATOM     92  F   UNL A   1      43.390  25.336  34.861  1.00  0.00    -0.205 F 
ATOM     93  C   UNL A   1      46.930  25.934  35.579  1.00  0.00     0.022 A 
BRANCH  91  94
ATOM     94  S   UNL A   1      45.418  23.953  36.723  1.00  0.00     0.127 S 
ATOM     95  O   UNL A   1      46.770  23.753  37.240  1.00  0.00    -0.237 OA
ATOM     96  O   UNL A   1      44.463  24.479  37.699  1.00  0.00    -0.237 OA
ATOM     97  O   UNL A   1      44.897  22.877  35.892  1.00  0.00    -0.744 OA
ENDBRANCH  91  94
ENDBRANCH  64  87
ENDBRANCH  38  39
ENDBRANCH  30  33
ENDBRANCH  28  29
ENDBRANCH  27  28
ENDBRANCH   1  27
TORSDOF 19
ENDMDL
MODEL 2
REMARK VINA RESULT:     -12.5      1.245      3.593
REMARK SMILES CC(C)(C)OC(=O)N1CCC[C@](Cc2ccccc2)(C(=O)NCCCCNC(=O)c2ccc(-c3c4nc(c(-c5cccc(S(=O)(=O)[O-])c5F)c5ccc([nH]5)c(-c5cccc(S(=O)(=O)[O-])c5F)c5nc(c(-c6cccc(S(=O)(=O)[O-])c6F)c6ccc3[nH]6)C=C5)C=C4)cc2)C1
REMARK SMILES IDX 24 1 23 2 22 3 20 4 21 5 12 7 8 8 9 9 93 10 10 11 11 12 6 13
REMARK SMILES IDX 7 14 5 15 2 16 1 17 3 18 4 19 13 20 14 21 15 22 19 23 16 24
REMARK SMILES IDX 18 25 17 26 25 27 26 28 27 29 28 30 29 32 30 33 31 34 92 35
REMARK SMILES IDX 32 36 91 37 33 38 34 39 35 40 85 41 36 42 90 43 84 44 86 45
REMARK SMILES IDX 37 46 89 47 83 48 82 49 38 51 70 52 50 53 69 54 51 55 54 56
REMARK SMILES IDX 68 57 87 58 52 59 53 60 67 62 88 63 55 64 39 65 40 66 48 67
REMARK SMILES IDX 41 68 43 69 49 70 42 71 44 72 45 73 46 74 47 75 71 76 72 77
REMARK SMILES IDX 80 78 73 79 75 80 81 81 74 82 76 83 77 84 78 85 79 86 56 87
REMARK SMILES IDX 57 88 65 89 58 90 60 91 66 92 59 93 61 94 62 95 63 96 64 97
REMARK H PARENT 22 6 27 31 86 50 54 61
REMARK Flexibility Score: inf
ROOT
ATOM      1  C   UNL A   1      33.794  28.599  25.115  1.00  0.00     0.023 C 
ENDROOT
BRANCH   1   2
ATOM      2  C   UNL A   1      33.464  27.106  25.190  1.00  0.00     0.116 C 
BRANCH   2   3
ATOM      3  N   UNL A   1      34.159  26.333  24.182  1.00  0.00    -0.356 N 
ATOM      4  C   UNL A   1      33.749  25.392  23.294  1.00  0.00     0.228 C 
ATOM      5  O   UNL A   1      34.619  25.026  22.492  1.00  0.00    -0.274 OA
ATOM      6  H   UNL A   1      35.122  26.530  24.129  1.00  0.00     0.163 HD
BRANCH   4   7
ATOM      7  C   UNL A   1      32.300  24.821  23.213  1.00  0.00     0.071 C 
ATOM      8  N   UNL A   1      30.647  26.688  22.851  1.00  0.00    -0.307 N 
ATOM      9  C   UNL A   1      29.755  26.198  23.877  1.00  0.00     0.123 C 
ATOM     10  C   UNL A   1      31.501  25.702  22.211  1.00  0.00     0.140 C 
ATOM     11  C   UNL A   1      30.507  25.577  25.030  1.00  0.00     0.023 C 
ATOM     12  C   UNL A   1      31.673  24.669  24.633  1.00  0.00     0.021 C 
BRANCH   8  13
ATOM     13  C   UNL A   1      30.572  28.013  22.466  1.00  0.00     0.410 C 
ATOM     14  O   UNL A   1      31.562  28.731  22.407  1.00  0.00    -0.224 OA
BRANCH  13  15
ATOM     15  O   UNL A   1      29.294  28.417  22.256  1.00  0.00    -0.444 OA
BRANCH  15  16
ATOM     16  C   UNL A   1      28.829  29.751  22.614  1.00  0.00     0.106 C 
ATOM     17  C   UNL A   1      27.346  29.579  22.976  1.00  0.00     0.056 C 
ATOM     18  C   UNL A   1      28.954  30.637  21.374  1.00  0.00     0.056 C 
ATOM     19  C   UNL A   1      29.526  30.401  23.820  1.00  0.00     0.056 C 
ENDBRANCH  15  16
ENDBRANCH  13  15
ENDBRANCH   8  13
BRANCH   7  20
ATOM     20  C   UNL A   1      32.503  23.376  22.579  1.00  0.00     0.054 C 
BRANCH  20  21
ATOM     21  C   UNL A   1      32.933  22.246  23.497  1.00  0.00    -0.047 A 
ATOM     22  C   UNL A   1      32.168  21.072  23.579  1.00  0.00     0.004 A 
ATOM     23  C   UNL A   1      34.093  22.342  24.273  1.00  0.00     0.004 A 
ATOM     24  C   UNL A   1      32.603  19.986  24.339  1.00  0.00     0.000 A 
ATOM     25  C   UNL A   1      34.527  21.257  25.036  1.00  0.00     0.000 A 
ATOM     26  C   UNL A   1      33.793  20.074  25.054  1.00  0.00     0.000 A 
ENDBRANCH  20  21
ENDBRANCH   7  20
ENDBRANCH   4   7
ENDBRANCH   2   3
ENDBRANCH   1   2
BRANCH   1  27
ATOM     27  C   UNL A   1      32.635  29.524  25.470  1.00  0.00     0.023 C 
BRANCH  27  28
ATOM     28  C   UNL A   1      32.584  29.974  26.925  1.00  0.00     0.116 C 
BRANCH  28  29
ATOM     29  N   UNL A   1      32.509  31.417  27.118  1.00  0.00    -0.352 N 
ATOM     30  C   UNL A   1      33.511  32.240  27.593  1.00  0.00     0.251 C 
ATOM     31  H   UNL A   1      31.655  31.850  26.887  1.00  0.00     0.163 HD
ATOM     32  O   UNL A   1      33.321  33.436  27.782  1.00  0.00    -0.269 OA
BRANCH  30  33
ATOM     33  C   UNL A   1      34.812  31.621  27.919  1.00  0.00     0.039 A 
ATOM     34  C   UNL A   1      35.948  32.427  27.993  1.00  0.00     0.014 A 
ATOM     35  C   UNL A   1      34.863  30.276  28.299  1.00  0.00     0.014 A 
ATOM     36  C   UNL A   1      37.121  31.905  28.541  1.00  0.00     0.010 A 
ATOM     37  C   UNL A   1      36.005  29.788  28.923  1.00  0.00     0.010 A 
ATOM     38  C   UNL A   1      37.143  30.599  29.058  1.00  0.00    -0.014 A 
BRANCH  38  39
ATOM     39  C   UNL A   1      38.335  30.061  29.763  1.00  0.00     0.031 A 
ATOM     40  C   UNL A   1      38.675  30.550  31.144  1.00  0.00     0.074 A 
ATOM     41  C   UNL A   1      39.162  29.206  29.125  1.00  0.00     0.049 A 
ATOM     42  N   UNL A   1      39.709  30.263  31.890  1.00  0.00    -0.248 NA
ATOM     43  C   UNL A   1      37.745  31.516  31.756  1.00  0.00     0.031 C 
ATOM     44  C   UNL A   1      38.991  28.721  27.752  1.00  0.00     0.029 A 
ATOM     45  N   UNL A   1      40.327  28.611  29.540  1.00  0.00    -0.354 N 
ATOM     46  C   UNL A   1      39.573  31.033  33.039  1.00  0.00     0.074 A 
ATOM     47  C   UNL A   1      38.382  31.836  32.872  1.00  0.00     0.031 C 
ATOM     48  C   UNL A   1      40.004  27.894  27.446  1.00  0.00     0.029 A 
ATOM     49  C   UNL A   1      40.910  27.805  28.586  1.00  0.00     0.049 A 
ATOM     50  H   UNL A   1      40.711  28.745  30.436  1.00  0.00     0.167 HD
ATOM     51  C   UNL A   1      40.343  31.040  34.152  1.00  0.00     0.034 A 
ATOM     52  C   UNL A   1      42.044  27.079  28.631  1.00  0.00     0.034 A 
ATOM     53  C   UNL A   1      41.493  30.200  34.339  1.00  0.00     0.049 A 
ATOM     54  C   UNL A   1      42.854  27.069  29.901  1.00  0.00     0.074 A 
ATOM     55  C   UNL A   1      42.301  30.084  35.456  1.00  0.00     0.029 A 
ATOM     56  N   UNL A   1      41.991  29.322  33.390  1.00  0.00    -0.354 N 
ATOM     57  N   UNL A   1      42.624  27.691  31.031  1.00  0.00    -0.248 NA
ATOM     58  C   UNL A   1      44.060  26.226  29.915  1.00  0.00     0.031 C 
ATOM     59  C   UNL A   1      43.290  29.134  35.181  1.00  0.00     0.029 A 
ATOM     60  C   UNL A   1      43.091  28.653  33.897  1.00  0.00     0.049 A 
ATOM     61  H   UNL A   1      41.619  29.194  32.488  1.00  0.00     0.167 HD
ATOM     62  C   UNL A   1      43.629  27.284  31.902  1.00  0.00     0.074 A 
ATOM     63  C   UNL A   1      44.458  26.345  31.174  1.00  0.00     0.031 C 
ATOM     64  C   UNL A   1      43.858  27.666  33.182  1.00  0.00     0.034 A 
BRANCH  51  65
ATOM     65  C   UNL A   1      39.912  31.929  35.288  1.00  0.00     0.023 A 
ATOM     66  C   UNL A   1      40.376  33.260  35.329  1.00  0.00     0.012 A 
ATOM     67  C   UNL A   1      39.018  31.477  36.278  1.00  0.00     0.148 A 
ATOM     68  C   UNL A   1      39.985  34.118  36.355  1.00  0.00     0.002 A 
ATOM     69  C   UNL A   1      38.600  32.352  37.274  1.00  0.00     0.091 A 
ATOM     70  F   UNL A   1      38.605  30.203  36.234  1.00  0.00    -0.205 F 
ATOM     71  C   UNL A   1      39.090  33.668  37.320  1.00  0.00     0.022 A 
BRANCH  69  72
ATOM     72  S   UNL A   1      37.393  31.895  38.525  1.00  0.00     0.127 S 
ATOM     73  O   UNL A   1      36.375  32.929  38.345  1.00  0.00    -0.237 OA
ATOM     74  O   UNL A   1      36.989  30.558  38.087  1.00  0.00    -0.237 OA
ATOM     75  O   UNL A   1      38.102  31.929  39.797  1.00  0.00    -0.744 OA
ENDBRANCH  69  72
ENDBRANCH  51  65
BRANCH  52  76
ATOM     76  C   UNL A   1      42.438  26.223  27.474  1.00  0.00     0.023 A 
ATOM     77  C   UNL A   1      43.202  26.788  26.434  1.00  0.00     0.012 A 
ATOM     78  C   UNL A   1      42.069  24.867  27.392  1.00  0.00     0.148 A 
ATOM     79  C   UNL A   1      43.557  26.033  25.316  1.00  0.00     0.002 A 
ATOM     80  C   UNL A   1      42.470  24.105  26.299  1.00  0.00     0.091 A 
ATOM     81  F   UNL A   1      41.327  24.347  28.381  1.00  0.00    -0.205 F 
ATOM     82  C   UNL A   1      43.199  24.690  25.252  1.00  0.00     0.022 A 
BRANCH  80  83
ATOM     83  S   UNL A   1      42.157  22.338  26.204  1.00  0.00     0.127 S 
ATOM     84  O   UNL A   1      42.872  21.972  24.984  1.00  0.00    -0.237 OA
ATOM     85  O   UNL A   1      42.762  21.849  27.443  1.00  0.00    -0.237 OA
ATOM     86  O   UNL A   1      40.706  22.209  26.160  1.00  0.00    -0.744 OA
ENDBRANCH  80  83
ENDBRANCH  52  76
BRANCH  64  87
ATOM     87  C   UNL A   1      45.023  27.041  33.901  1.00  0.00     0.023 A 
ATOM     88  C   UNL A   1      46.296  27.638  33.818  1.00  0.00     0.012 A 
ATOM     89  C   UNL A   1      44.839  25.912  34.724  1.00  0.00     0.148 A 
ATOM     90  C   UNL A   1      47.375  27.105  34.520  1.00  0.00     0.002 A 
ATOM     91  C   UNL A   1      45.908  25.413  35.457  1.00  0.00     0.091 A 
ATOM     92  F   UNL A   1      43.624  25.346  34.773  1.00  0.00    -0.205 F 
ATOM     93  C   UNL A   1      47.179  26.002  35.349  1.00  0.00     0.022 A 
BRANCH  91  94
ATOM     94  S   UNL A   1      45.726  24.056  36.619  1.00  0.00     0.127 S 
ATOM     95  O   UNL A   1      45.349  22.955  35.735  1.00  0.00    -0.237 OA
ATOM     96  O   UNL A   1      47.069  23.948  37.189  1.00  0.00    -0.237 OA
ATOM     97  O   UNL A   1      44.703  24.478  37.567  1.00  0.00    -0.744 OA
ENDBRANCH  91  94
ENDBRANCH  64  87
ENDBRANCH  38  39
ENDBRANCH  30  33
ENDBRANCH  28  29
ENDBRANCH  27  28
ENDBRANCH   1  27
TORSDOF 19
ENDMDL
MODEL 3
REMARK VINA RESULT:     -12.3      1.548      3.595
REMARK SMILES CC(C)(C)OC(=O)N1CCC[C@](Cc2ccccc2)(C(=O)NCCCCNC(=O)c2ccc(-c3c4nc(c(-c5cccc(S(=O)(=O)[O-])c5F)c5ccc([nH]5)c(-c5cccc(S(=O)(=O)[O-])c5F)c5nc(c(-c6cccc(S(=O)(=O)[O-])c6F)c6ccc3[nH]6)C=C5)C=C4)cc2)C1
REMARK SMILES IDX 24 1 23 2 22 3 20 4 21 5 12 7 8 8 9 9 93 10 10 11 11 12 6 13
REMARK SMILES IDX 7 14 5 15 2 16 1 17 3 18 4 19 13 20 14 21 15 22 19 23 16 24
REMARK SMILES IDX 18 25 17 26 25 27 26 28 27 29 28 30 29 32 30 33 31 34 92 35
REMARK SMILES IDX 32 36 91 37 33 38 34 39 35 40 85 41 36 42 90 43 84 44 86 45
REMARK SMILES IDX 37 46 89 47 83 48 82 49 38 51 70 52 50 53 69 54 51 55 54 56
REMARK SMILES IDX 68 57 87 58 52 59 53 60 67 62 88 63 55 64 39 65 40 66 48 67
REMARK SMILES IDX 41 68 43 69 49 70 42 71 44 72 45 73 46 74 47 75 71 76 72 77
REMARK SMILES IDX 80 78 73 79 75 80 81 81 74 82 76 83 77 84 78 85 79 86 56 87
REMARK SMILES IDX 57 88 65 89 58 90 60 91 66 92 59 93 61 94 62 95 63 96 64 97
REMARK H PARENT 22 6 27 31 86 50 54 61
REMARK Flexibility Score: inf
ROOT
ATOM      1  C   UNL A   1      31.798  28.663  27.687  1.00  0.00     0.023 C 
ENDROOT
BRANCH   1   2
ATOM      2  C   UNL A   1      32.212  27.493  26.791  1.00  0.00     0.116 C 
BRANCH   2   3
ATOM      3  N   UNL A   1      31.249  26.413  26.809  1.00  0.00    -0.356 N 
ATOM      4  C   UNL A   1      31.232  25.182  26.238  1.00  0.00     0.228 C 
ATOM      5  O   UNL A   1      30.275  24.471  26.575  1.00  0.00    -0.274 OA
ATOM      6  H   UNL A   1      30.445  26.610  27.342  1.00  0.00     0.163 HD
BRANCH   4   7
ATOM      7  C   UNL A   1      32.327  24.636  25.272  1.00  0.00     0.071 C 
ATOM      8  N   UNL A   1      32.368  25.992  23.148  1.00  0.00    -0.307 N 
ATOM      9  C   UNL A   1      32.401  24.816  22.309  1.00  0.00     0.123 C 
ATOM     10  C   UNL A   1      32.910  25.847  24.488  1.00  0.00     0.140 C 
ATOM     11  C   UNL A   1      31.598  23.680  22.897  1.00  0.00     0.023 C 
ATOM     12  C   UNL A   1      31.778  23.465  24.401  1.00  0.00     0.021 C 
BRANCH   8  13
ATOM     13  C   UNL A   1      31.931  27.190  22.616  1.00  0.00     0.410 C 
ATOM     14  O   UNL A   1      32.700  28.109  22.364  1.00  0.00    -0.224 OA
BRANCH  13  15
ATOM     15  O   UNL A   1      30.581  27.240  22.496  1.00  0.00    -0.444 OA
BRANCH  15  16
ATOM     16  C   UNL A   1      29.811  28.428  22.841  1.00  0.00     0.106 C 
ATOM     17  C   UNL A   1      30.510  29.019  24.076  1.00  0.00     0.056 C 
ATOM     18  C   UNL A   1      28.399  27.977  23.219  1.00  0.00     0.056 C 
ATOM     19  C   UNL A   1      29.762  29.528  21.768  1.00  0.00     0.056 C 
ENDBRANCH  15  16
ENDBRANCH  13  15
ENDBRANCH   8  13
BRANCH   7  20
ATOM     20  C   UNL A   1      33.445  24.074  26.254  1.00  0.00     0.054 C 
BRANCH  20  21
ATOM     21  C   UNL A   1      34.649  23.380  25.644  1.00  0.00    -0.047 A 
ATOM     22  C   UNL A   1      34.625  21.995  25.410  1.00  0.00     0.004 A 
ATOM     23  C   UNL A   1      35.800  24.094  25.296  1.00  0.00     0.004 A 
ATOM     24  C   UNL A   1      35.681  21.360  24.757  1.00  0.00     0.000 A 
ATOM     25  C   UNL A   1      36.860  23.459  24.646  1.00  0.00     0.000 A 
ATOM     26  C   UNL A   1      36.792  22.098  24.360  1.00  0.00     0.000 A 
ENDBRANCH  20  21
ENDBRANCH   7  20
ENDBRANCH   4   7
ENDBRANCH   2   3
ENDBRANCH   1   2
BRANCH   1  27
ATOM     27  C   UNL A   1      31.455  29.946  26.939  1.00  0.00     0.023 C 
BRANCH  27  28
ATOM     28  C   UNL A   1      32.648  30.816  26.558  1.00  0.00     0.116 C 
BRANCH  28  29
ATOM     29  N   UNL A   1      32.539  32.214  26.956  1.00  0.00    -0.352 N 
ATOM     30  C   UNL A   1      33.485  32.953  27.639  1.00  0.00     0.251 C 
ATOM     31  H   UNL A   1      31.706  32.680  26.714  1.00  0.00     0.163 HD
ATOM     32  O   UNL A   1      33.266  34.108  27.986  1.00  0.00    -0.269 OA
BRANCH  30  33
ATOM     33  C   UNL A   1      34.757  32.287  27.988  1.00  0.00     0.039 A 
ATOM     34  C   UNL A   1      35.914  33.058  28.114  1.00  0.00     0.014 A 
ATOM     35  C   UNL A   1      34.757  30.934  28.336  1.00  0.00     0.014 A 
ATOM     36  C   UNL A   1      37.054  32.488  28.684  1.00  0.00     0.010 A 
ATOM     37  C   UNL A   1      35.865  30.397  28.981  1.00  0.00     0.010 A 
ATOM     38  C   UNL A   1      37.022  31.170  29.169  1.00  0.00    -0.014 A 
BRANCH  38  39
ATOM     39  C   UNL A   1      38.176  30.580  29.895  1.00  0.00     0.031 A 
ATOM     40  C   UNL A   1      38.482  31.019  31.301  1.00  0.00     0.074 A 
ATOM     41  C   UNL A   1      39.001  29.723  29.258  1.00  0.00     0.049 A 
ATOM     42  N   UNL A   1      39.484  30.682  32.071  1.00  0.00    -0.248 NA
ATOM     43  C   UNL A   1      37.557  31.990  31.912  1.00  0.00     0.031 C 
ATOM     44  C   UNL A   1      38.864  29.284  27.867  1.00  0.00     0.029 A 
ATOM     45  N   UNL A   1      40.137  29.085  29.692  1.00  0.00    -0.354 N 
ATOM     46  C   UNL A   1      39.328  31.420  33.238  1.00  0.00     0.074 A 
ATOM     47  C   UNL A   1      38.164  32.259  33.058  1.00  0.00     0.031 C 
ATOM     48  C   UNL A   1      39.866  28.440  27.568  1.00  0.00     0.029 A 
ATOM     49  C   UNL A   1      40.731  28.294  28.734  1.00  0.00     0.049 A 
ATOM     50  H   UNL A   1      40.494  29.183  30.604  1.00  0.00     0.167 HD
ATOM     51  C   UNL A   1      40.061  31.374  34.375  1.00  0.00     0.034 A 
ATOM     52  C   UNL A   1      41.844  27.537  28.793  1.00  0.00     0.034 A 
ATOM     53  C   UNL A   1      41.183  30.499  34.574  1.00  0.00     0.049 A 
ATOM     54  C   UNL A   1      42.611  27.468  30.087  1.00  0.00     0.074 A 
ATOM     55  C   UNL A   1      41.951  30.328  35.712  1.00  0.00     0.029 A 
ATOM     56  N   UNL A   1      41.690  29.637  33.614  1.00  0.00    -0.354 N 
ATOM     57  N   UNL A   1      42.359  28.061  31.229  1.00  0.00    -0.248 NA
ATOM     58  C   UNL A   1      43.794  26.593  30.114  1.00  0.00     0.031 C 
ATOM     59  C   UNL A   1      42.924  29.361  35.440  1.00  0.00     0.029 A 
ATOM     60  C   UNL A   1      42.755  28.924  34.136  1.00  0.00     0.049 A 
ATOM     61  H   UNL A   1      41.345  29.546  32.697  1.00  0.00     0.167 HD
ATOM     62  C   UNL A   1      43.324  27.602  32.118  1.00  0.00     0.074 A 
ATOM     63  C   UNL A   1      44.153  26.664  31.389  1.00  0.00     0.031 C 
ATOM     64  C   UNL A   1      43.520  27.940  33.416  1.00  0.00     0.034 A 
BRANCH  51  65
ATOM     65  C   UNL A   1      39.616  32.239  35.523  1.00  0.00     0.023 A 
ATOM     66  C   UNL A   1      38.796  31.678  36.525  1.00  0.00     0.012 A 
ATOM     67  C   UNL A   1      40.041  33.576  35.647  1.00  0.00     0.148 A 
ATOM     68  C   UNL A   1      38.378  32.442  37.613  1.00  0.00     0.002 A 
ATOM     69  C   UNL A   1      39.654  34.319  36.757  1.00  0.00     0.091 A 
ATOM     70  F   UNL A   1      40.802  34.098  34.675  1.00  0.00    -0.205 F 
ATOM     71  C   UNL A   1      38.815  33.757  37.734  1.00  0.00     0.022 A 
BRANCH  69  72
ATOM     72  S   UNL A   1      40.220  35.999  37.047  1.00  0.00     0.127 S 
ATOM     73  O   UNL A   1      39.473  36.359  38.251  1.00  0.00    -0.237 OA
ATOM     74  O   UNL A   1      41.656  35.809  37.253  1.00  0.00    -0.237 OA
ATOM     75  O   UNL A   1      39.873  36.751  35.849  1.00  0.00    -0.744 OA
ENDBRANCH  69  72
ENDBRANCH  51  65
BRANCH  52  76
ATOM     76  C   UNL A   1      42.254  26.706  27.624  1.00  0.00     0.023 A 
ATOM     77  C   UNL A   1      43.005  27.302  26.591  1.00  0.00     0.012 A 
ATOM     78  C   UNL A   1      41.913  25.344  27.523  1.00  0.00     0.148 A 
ATOM     79  C   UNL A   1      43.375  26.569  25.462  1.00  0.00     0.002 A 
ATOM     80  C   UNL A   1      42.329  24.606  26.418  1.00  0.00     0.091 A 
ATOM     81  F   UNL A   1      41.183  24.794  28.504  1.00  0.00    -0.205 F 
ATOM     82  C   UNL A   1      43.045  25.220  25.379  1.00  0.00     0.022 A 
BRANCH  80  83
ATOM     83  S   UNL A   1      42.051  22.834  26.298  1.00  0.00     0.127 S 
ATOM     84  O   UNL A   1      42.674  22.520  25.015  1.00  0.00    -0.237 OA
ATOM     85  O   UNL A   1      42.767  22.329  27.470  1.00  0.00    -0.237 OA
ATOM     86  O   UNL A   1      40.606  22.669  26.367  1.00  0.00    -0.744 OA
ENDBRANCH  80  83
ENDBRANCH  52  76
BRANCH  64  87
ATOM     87  C   UNL A   1      44.645  27.263  34.153  1.00  0.00     0.023 A 
ATOM     88  C   UNL A   1      45.944  27.804  34.092  1.00  0.00     0.012 A 
ATOM     89  C   UNL A   1      44.397  26.142  34.971  1.00  0.00     0.148 A 
ATOM     90  C   UNL A   1      46.986  27.222  34.811  1.00  0.00     0.002 A 
ATOM     91  C   UNL A   1      45.432  25.596  35.720  1.00  0.00     0.091 A 
ATOM     92  F   UNL A   1      43.158  25.630  34.999  1.00  0.00    -0.205 F 
ATOM     93  C   UNL A   1      46.729  26.128  35.634  1.00  0.00     0.022 A 
BRANCH  91  94
ATOM     94  S   UNL A   1      45.170  24.246  36.876  1.00  0.00     0.127 S 
ATOM     95  O   UNL A   1      44.059  24.752  37.679  1.00  0.00    -0.237 OA
ATOM     96  O   UNL A   1      44.825  23.136  35.988  1.00  0.00    -0.237 OA
ATOM     97  O   UNL A   1      46.432  24.079  37.585  1.00  0.00    -0.744 OA
ENDBRANCH  91  94
ENDBRANCH  64  87
ENDBRANCH  38  39
ENDBRANCH  30  33
ENDBRANCH  28  29
ENDBRANCH  27  28
ENDBRANCH   1  27
TORSDOF 19
ENDMDL
