MODEL 1
REMARK VINA RESULT:     -12.2      0.000      0.000
REMARK SMILES Cc1ccc(C)c(S(=O)(=O)N[C@H](CC2=c3ccccc3=NC2)C(=O)NCCCCNC(=O)c2ccc(-c3c4nc(c(-c5cccc(S(=O)(=O)[O-])c5F)c5ccc([nH]5)c(-c5cccc(S(=O)(=O)[O-])c5F)c5nc(c(-c6cccc(S(=O)(=O)[O-])c6F)c6ccc3[nH]6)C=C5)C=C4)cc2)c1
REMARK SMILES IDX 27 1 26 2 25 3 23 4 24 5 12 7 11 8 8 10 9 11 10 12 7 13 1 14
REMARK SMILES IDX 2 15 3 16 96 17 4 18 5 19 6 20 13 21 14 22 15 23 22 24 16 25
REMARK SMILES IDX 20 26 21 27 17 28 19 29 18 30 28 31 29 32 30 33 31 34 32 36
REMARK SMILES IDX 33 37 34 38 95 39 35 40 94 41 36 42 37 43 38 44 88 45 39 46
REMARK SMILES IDX 93 47 87 48 89 49 40 50 92 51 86 52 85 53 41 55 73 56 53 57
REMARK SMILES IDX 72 58 54 59 57 60 71 61 90 62 55 63 56 64 70 66 91 67 58 68
REMARK SMILES IDX 42 69 43 70 51 71 44 72 46 73 52 74 45 75 47 76 48 77 49 78
REMARK SMILES IDX 50 79 74 80 75 81 83 82 76 83 78 84 84 85 77 86 79 87 80 88
REMARK SMILES IDX 81 89 82 90 59 91 60 92 68 93 61 94 63 95 69 96 62 97 64 98
REMARK SMILES IDX 65 99 66 100 67 101
REMARK H PARENT 25 6 11 9 30 35 89 54 57 65
REMARK Flexibility Score: inf
ROOT
ATOM      1  C   UNL A   1      37.805  22.737  25.364  1.00  0.00     0.023 C 
ENDROOT
BRANCH   1   2
ATOM      2  C   UNL A   1      36.807  23.029  24.200  1.00  0.00     0.116 C 
BRANCH   2   3
ATOM      3  N   UNL A   1      35.541  22.309  24.148  1.00  0.00    -0.355 N 
ATOM      4  C   UNL A   1      34.210  22.649  24.217  1.00  0.00     0.238 C 
ATOM      5  O   UNL A   1      33.440  21.710  24.443  1.00  0.00    -0.273 OA
ATOM      6  H   UNL A   1      35.669  21.340  24.037  1.00  0.00     0.163 HD
BRANCH   4   7
ATOM      7  C   UNL A   1      33.665  24.092  24.197  1.00  0.00     0.163 C 
BRANCH   7   8
ATOM      8  N   UNL A   1      34.016  24.784  22.902  1.00  0.00    -0.198 NA
ATOM      9  H   UNL A   1      34.541  25.624  23.149  1.00  0.00     0.142 HD
BRANCH   8  10
ATOM     10  S   UNL A   1      32.774  25.271  21.841  1.00  0.00     0.241 S 
ATOM     11  O   UNL A   1      31.905  24.158  21.625  1.00  0.00    -0.207 OA
ATOM     12  O   UNL A   1      33.485  25.924  20.751  1.00  0.00    -0.207 OA
BRANCH  10  13
ATOM     13  C   UNL A   1      31.874  26.559  22.672  1.00  0.00     0.085 A 
ATOM     14  C   UNL A   1      28.289  27.068  23.832  1.00  0.00     0.044 C 
ATOM     15  C   UNL A   1      29.735  27.330  23.546  1.00  0.00    -0.050 A 
ATOM     16  C   UNL A   1      30.290  28.594  23.751  1.00  0.00     0.004 A 
ATOM     17  C   UNL A   1      30.549  26.311  23.049  1.00  0.00     0.025 A 
ATOM     18  C   UNL A   1      31.635  28.830  23.454  1.00  0.00     0.005 A 
ATOM     19  C   UNL A   1      32.451  27.822  22.907  1.00  0.00    -0.031 A 
ATOM     20  C   UNL A   1      33.889  28.172  22.632  1.00  0.00     0.046 C 
ENDBRANCH  10  13
ENDBRANCH   8  10
ENDBRANCH   7   8
BRANCH   7  21
ATOM     21  C   UNL A   1      34.074  24.991  25.437  1.00  0.00     0.063 C 
BRANCH  21  22
ATOM     22  C   UNL A   1      33.172  26.067  26.009  1.00  0.00    -0.037 C 
ATOM     23  C   UNL A   1      33.326  27.348  26.359  1.00  0.00     0.001 A 
ATOM     24  C   UNL A   1      31.810  25.642  26.412  1.00  0.00     0.174 C 
ATOM     25  C   UNL A   1      34.376  28.314  26.392  1.00  0.00     0.010 A 
ATOM     26  C   UNL A   1      32.000  27.699  26.925  1.00  0.00     0.065 A 
ATOM     27  N   UNL A   1      31.128  26.758  27.071  1.00  0.00    -0.280 NA
ATOM     28  C   UNL A   1      34.104  29.552  26.852  1.00  0.00     0.001 A 
ATOM     29  C   UNL A   1      31.744  29.091  27.309  1.00  0.00     0.028 A 
ATOM     30  C   UNL A   1      32.766  29.955  27.255  1.00  0.00     0.002 A 
ENDBRANCH  21  22
ENDBRANCH   7  21
ENDBRANCH   4   7
ENDBRANCH   2   3
ENDBRANCH   1   2
BRANCH   1  31
ATOM     31  C   UNL A   1      38.079  21.293  25.856  1.00  0.00     0.023 C 
BRANCH  31  32
ATOM     32  C   UNL A   1      38.576  20.197  24.901  1.00  0.00     0.116 C 
BRANCH  32  33
ATOM     33  N   UNL A   1      39.624  19.334  25.451  1.00  0.00    -0.352 N 
ATOM     34  C   UNL A   1      40.839  19.624  26.054  1.00  0.00     0.251 C 
ATOM     35  H   UNL A   1      39.431  18.372  25.380  1.00  0.00     0.163 HD
ATOM     36  O   UNL A   1      41.632  18.715  26.287  1.00  0.00    -0.269 OA
BRANCH  34  37
ATOM     37  C   UNL A   1      41.180  21.013  26.430  1.00  0.00     0.039 A 
ATOM     38  C   UNL A   1      41.953  21.890  25.672  1.00  0.00     0.014 A 
ATOM     39  C   UNL A   1      40.834  21.429  27.693  1.00  0.00     0.014 A 
ATOM     40  C   UNL A   1      42.415  23.064  26.291  1.00  0.00     0.010 A 
ATOM     41  C   UNL A   1      40.826  22.729  28.029  1.00  0.00     0.010 A 
ATOM     42  C   UNL A   1      41.919  23.396  27.555  1.00  0.00    -0.014 A 
BRANCH  42  43
ATOM     43  C   UNL A   1      42.207  24.577  28.330  1.00  0.00     0.031 A 
ATOM     44  C   UNL A   1      41.092  25.539  28.296  1.00  0.00     0.074 A 
ATOM     45  C   UNL A   1      43.147  24.635  29.295  1.00  0.00     0.049 A 
ATOM     46  N   UNL A   1      40.947  26.482  27.427  1.00  0.00    -0.248 NA
ATOM     47  C   UNL A   1      39.887  25.268  29.102  1.00  0.00     0.031 C 
ATOM     48  C   UNL A   1      44.048  23.601  29.810  1.00  0.00     0.029 A 
ATOM     49  N   UNL A   1      43.413  25.686  30.106  1.00  0.00    -0.354 N 
ATOM     50  C   UNL A   1      39.756  27.089  27.783  1.00  0.00     0.074 A 
ATOM     51  C   UNL A   1      39.021  26.121  28.552  1.00  0.00     0.031 C 
ATOM     52  C   UNL A   1      44.619  24.027  30.967  1.00  0.00     0.029 A 
ATOM     53  C   UNL A   1      44.251  25.416  31.180  1.00  0.00     0.049 A 
ATOM     54  H   UNL A   1      43.038  26.581  29.944  1.00  0.00     0.167 HD
ATOM     55  C   UNL A   1      39.609  28.439  27.728  1.00  0.00     0.034 A 
ATOM     56  C   UNL A   1      44.557  26.301  32.162  1.00  0.00     0.034 A 
ATOM     57  C   UNL A   1      40.758  29.070  27.126  1.00  0.00     0.049 A 
ATOM     58  C   UNL A   1      44.280  27.650  31.594  1.00  0.00     0.074 A 
ATOM     59  C   UNL A   1      41.401  28.968  25.908  1.00  0.00     0.029 A 
ATOM     60  N   UNL A   1      41.678  29.602  28.001  1.00  0.00    -0.354 N 
ATOM     61  N   UNL A   1      44.921  28.159  30.577  1.00  0.00    -0.248 NA
ATOM     62  C   UNL A   1      42.997  28.265  31.892  1.00  0.00     0.031 C 
ATOM     63  C   UNL A   1      42.794  29.020  26.219  1.00  0.00     0.029 A 
ATOM     64  C   UNL A   1      42.929  29.212  27.596  1.00  0.00     0.049 A 
ATOM     65  H   UNL A   1      41.473  30.165  28.783  1.00  0.00     0.167 HD
ATOM     66  C   UNL A   1      43.948  28.838  29.853  1.00  0.00     0.074 A 
ATOM     67  C   UNL A   1      42.816  28.963  30.768  1.00  0.00     0.031 C 
ATOM     68  C   UNL A   1      44.042  28.971  28.497  1.00  0.00     0.034 A 
BRANCH  55  69
ATOM     69  C   UNL A   1      38.617  29.211  28.545  1.00  0.00     0.023 A 
ATOM     70  C   UNL A   1      37.765  30.094  27.859  1.00  0.00     0.012 A 
ATOM     71  C   UNL A   1      38.603  29.259  29.957  1.00  0.00     0.148 A 
ATOM     72  C   UNL A   1      36.925  30.974  28.547  1.00  0.00     0.002 A 
ATOM     73  C   UNL A   1      37.697  30.060  30.636  1.00  0.00     0.091 A 
ATOM     74  F   UNL A   1      39.556  28.635  30.658  1.00  0.00    -0.205 F 
ATOM     75  C   UNL A   1      36.871  30.939  29.937  1.00  0.00     0.022 A 
BRANCH  73  76
ATOM     76  S   UNL A   1      37.547  29.985  32.424  1.00  0.00     0.127 S 
ATOM     77  O   UNL A   1      38.826  30.545  32.848  1.00  0.00    -0.237 OA
ATOM     78  O   UNL A   1      36.384  30.840  32.664  1.00  0.00    -0.237 OA
ATOM     79  O   UNL A   1      37.320  28.577  32.727  1.00  0.00    -0.744 OA
ENDBRANCH  73  76
ENDBRANCH  55  69
BRANCH  56  80
ATOM     80  C   UNL A   1      44.798  26.122  33.617  1.00  0.00     0.023 A 
ATOM     81  C   UNL A   1      46.091  26.394  34.119  1.00  0.00     0.012 A 
ATOM     82  C   UNL A   1      43.734  26.032  34.542  1.00  0.00     0.148 A 
ATOM     83  C   UNL A   1      46.304  26.660  35.477  1.00  0.00     0.002 A 
ATOM     84  C   UNL A   1      43.954  26.290  35.895  1.00  0.00     0.091 A 
ATOM     85  F   UNL A   1      42.496  25.803  34.082  1.00  0.00    -0.205 F 
ATOM     86  C   UNL A   1      45.234  26.626  36.360  1.00  0.00     0.022 A 
BRANCH  84  87
ATOM     87  S   UNL A   1      42.628  26.314  37.111  1.00  0.00     0.127 S 
ATOM     88  O   UNL A   1      41.866  27.499  36.710  1.00  0.00    -0.237 OA
ATOM     89  O   UNL A   1      41.955  25.044  36.846  1.00  0.00    -0.237 OA
ATOM     90  O   UNL A   1      43.278  26.424  38.408  1.00  0.00    -0.744 OA
ENDBRANCH  84  87
ENDBRANCH  56  80
BRANCH  68  91
ATOM     91  C   UNL A   1      45.354  28.615  27.842  1.00  0.00     0.023 A 
ATOM     92  C   UNL A   1      46.476  29.471  27.873  1.00  0.00     0.012 A 
ATOM     93  C   UNL A   1      45.513  27.307  27.354  1.00  0.00     0.148 A 
ATOM     94  C   UNL A   1      47.727  29.030  27.429  1.00  0.00     0.002 A 
ATOM     95  C   UNL A   1      46.765  26.861  26.949  1.00  0.00     0.091 A 
ATOM     96  F   UNL A   1      44.436  26.507  27.340  1.00  0.00    -0.205 F 
ATOM     97  C   UNL A   1      47.874  27.719  26.981  1.00  0.00     0.022 A 
BRANCH  95  98
ATOM     98  S   UNL A   1      47.049  25.157  26.461  1.00  0.00     0.127 S 
ATOM     99  O   UNL A   1      48.483  25.155  26.176  1.00  0.00    -0.237 OA
ATOM    100  O   UNL A   1      46.664  24.423  27.669  1.00  0.00    -0.237 OA
ATOM    101  O   UNL A   1      46.188  24.913  25.312  1.00  0.00    -0.744 OA
ENDBRANCH  95  98
ENDBRANCH  68  91
ENDBRANCH  42  43
ENDBRANCH  34  37
ENDBRANCH  32  33
ENDBRANCH  31  32
ENDBRANCH   1  31
TORSDOF 19
ENDMDL
MODEL 2
REMARK VINA RESULT:     -11.9      1.179      1.933
REMARK SMILES Cc1ccc(C)c(S(=O)(=O)N[C@H](CC2=c3ccccc3=NC2)C(=O)NCCCCNC(=O)c2ccc(-c3c4nc(c(-c5cccc(S(=O)(=O)[O-])c5F)c5ccc([nH]5)c(-c5cccc(S(=O)(=O)[O-])c5F)c5nc(c(-c6cccc(S(=O)(=O)[O-])c6F)c6ccc3[nH]6)C=C5)C=C4)cc2)c1
REMARK SMILES IDX 27 1 26 2 25 3 23 4 24 5 12 7 11 8 8 10 9 11 10 12 7 13 1 14
REMARK SMILES IDX 2 15 3 16 96 17 4 18 5 19 6 20 13 21 14 22 15 23 22 24 16 25
REMARK SMILES IDX 20 26 21 27 17 28 19 29 18 30 28 31 29 32 30 33 31 34 32 36
REMARK SMILES IDX 33 37 34 38 95 39 35 40 94 41 36 42 37 43 38 44 88 45 39 46
REMARK SMILES IDX 93 47 87 48 89 49 40 50 92 51 86 52 85 53 41 55 73 56 53 57
REMARK SMILES IDX 72 58 54 59 57 60 71 61 90 62 55 63 56 64 70 66 91 67 58 68
REMARK SMILES IDX 42 69 43 70 51 71 44 72 46 73 52 74 45 75 47 76 48 77 49 78
REMARK SMILES IDX 50 79 74 80 75 81 83 82 76 83 78 84 84 85 77 86 79 87 80 88
REMARK SMILES IDX 81 89 82 90 59 91 60 92 68 93 61 94 63 95 69 96 62 97 64 98
REMARK SMILES IDX 65 99 66 100 67 101
REMARK H PARENT 25 6 11 9 30 35 89 54 57 65
REMARK Flexibility Score: inf
ROOT
ATOM      1  C   UNL A   1      38.514  21.799  25.770  1.00  0.00     0.023 C 
ENDROOT
BRANCH   1   2
ATOM      2  C   UNL A   1      37.113  22.435  25.504  1.00  0.00     0.116 C 
BRANCH   2   3
ATOM      3  N   UNL A   1      36.029  22.193  26.448  1.00  0.00    -0.355 N 
ATOM      4  C   UNL A   1      34.762  22.690  26.643  1.00  0.00     0.238 C 
ATOM      5  O   UNL A   1      34.266  22.444  27.746  1.00  0.00    -0.273 OA
ATOM      6  H   UNL A   1      36.261  21.503  27.110  1.00  0.00     0.163 HD
BRANCH   4   7
ATOM      7  C   UNL A   1      34.026  23.636  25.671  1.00  0.00     0.163 C 
BRANCH   7   8
ATOM      8  N   UNL A   1      33.674  22.924  24.387  1.00  0.00    -0.198 NA
ATOM      9  H   UNL A   1      33.947  23.542  23.623  1.00  0.00     0.142 HD
BRANCH   8  10
ATOM     10  S   UNL A   1      32.059  22.461  24.094  1.00  0.00     0.241 S 
ATOM     11  O   UNL A   1      31.758  21.333  24.917  1.00  0.00    -0.207 OA
ATOM     12  O   UNL A   1      31.972  22.408  22.641  1.00  0.00    -0.207 OA
BRANCH  10  13
ATOM     13  C   UNL A   1      31.041  23.831  24.590  1.00  0.00     0.085 A 
ATOM     14  C   UNL A   1      29.802  27.037  22.965  1.00  0.00     0.044 C 
ATOM     15  C   UNL A   1      30.051  25.973  23.989  1.00  0.00    -0.050 A 
ATOM     16  C   UNL A   1      29.663  26.151  25.318  1.00  0.00     0.004 A 
ATOM     17  C   UNL A   1      30.699  24.790  23.631  1.00  0.00     0.025 A 
ATOM     18  C   UNL A   1      29.928  25.161  26.268  1.00  0.00     0.005 A 
ATOM     19  C   UNL A   1      30.622  23.986  25.925  1.00  0.00    -0.031 A 
ATOM     20  C   UNL A   1      30.849  22.976  27.018  1.00  0.00     0.046 C 
ENDBRANCH  10  13
ENDBRANCH   8  10
ENDBRANCH   7   8
BRANCH   7  21
ATOM     21  C   UNL A   1      34.764  25.005  25.364  1.00  0.00     0.063 C 
BRANCH  21  22
ATOM     22  C   UNL A   1      34.026  26.271  24.978  1.00  0.00    -0.037 C 
ATOM     23  C   UNL A   1      33.277  27.169  25.626  1.00  0.00     0.001 A 
ATOM     24  C   UNL A   1      33.979  26.594  23.531  1.00  0.00     0.174 C 
ATOM     25  C   UNL A   1      32.791  27.378  26.952  1.00  0.00     0.010 A 
ATOM     26  C   UNL A   1      32.831  28.076  24.541  1.00  0.00     0.065 A 
ATOM     27  N   UNL A   1      33.113  27.757  23.321  1.00  0.00    -0.280 NA
ATOM     28  C   UNL A   1      32.016  28.453  27.198  1.00  0.00     0.001 A 
ATOM     29  C   UNL A   1      32.075  29.282  24.896  1.00  0.00     0.028 A 
ATOM     30  C   UNL A   1      31.707  29.439  26.174  1.00  0.00     0.002 A 
ENDBRANCH  21  22
ENDBRANCH   7  21
ENDBRANCH   4   7
ENDBRANCH   2   3
ENDBRANCH   1   2
BRANCH   1  31
ATOM     31  C   UNL A   1      38.885  20.395  25.227  1.00  0.00     0.023 C 
BRANCH  31  32
ATOM     32  C   UNL A   1      39.402  19.284  26.154  1.00  0.00     0.116 C 
BRANCH  32  33
ATOM     33  N   UNL A   1      40.776  18.854  25.886  1.00  0.00    -0.352 N 
ATOM     34  C   UNL A   1      41.971  19.555  25.830  1.00  0.00     0.251 C 
ATOM     35  H   UNL A   1      40.868  17.889  25.713  1.00  0.00     0.163 HD
ATOM     36  O   UNL A   1      42.984  18.995  25.419  1.00  0.00    -0.269 OA
BRANCH  34  37
ATOM     37  C   UNL A   1      42.038  20.964  26.274  1.00  0.00     0.039 A 
ATOM     38  C   UNL A   1      42.379  22.050  25.470  1.00  0.00     0.014 A 
ATOM     39  C   UNL A   1      41.898  21.211  27.618  1.00  0.00     0.014 A 
ATOM     40  C   UNL A   1      42.668  23.272  26.102  1.00  0.00     0.010 A 
ATOM     41  C   UNL A   1      41.649  22.444  28.086  1.00  0.00     0.010 A 
ATOM     42  C   UNL A   1      42.408  23.398  27.470  1.00  0.00    -0.014 A 
BRANCH  42  43
ATOM     43  C   UNL A   1      42.566  24.572  28.290  1.00  0.00     0.031 A 
ATOM     44  C   UNL A   1      41.397  25.464  28.201  1.00  0.00     0.074 A 
ATOM     45  C   UNL A   1      43.433  24.662  29.320  1.00  0.00     0.049 A 
ATOM     46  N   UNL A   1      41.251  26.420  27.347  1.00  0.00    -0.248 NA
ATOM     47  C   UNL A   1      40.160  25.096  28.916  1.00  0.00     0.031 C 
ATOM     48  C   UNL A   1      44.361  23.672  29.871  1.00  0.00     0.029 A 
ATOM     49  N   UNL A   1      43.575  25.705  30.171  1.00  0.00    -0.354 N 
ATOM     50  C   UNL A   1      40.001  26.941  27.633  1.00  0.00     0.074 A 
ATOM     51  C   UNL A   1      39.280  25.908  28.327  1.00  0.00     0.031 C 
ATOM     52  C   UNL A   1      44.824  24.101  31.075  1.00  0.00     0.029 A 
ATOM     53  C   UNL A   1      44.355  25.458  31.294  1.00  0.00     0.049 A 
ATOM     54  H   UNL A   1      43.156  26.579  30.004  1.00  0.00     0.167 HD
ATOM     55  C   UNL A   1      39.773  28.281  27.600  1.00  0.00     0.034 A 
ATOM     56  C   UNL A   1      44.535  26.332  32.315  1.00  0.00     0.034 A 
ATOM     57  C   UNL A   1      40.917  28.998  27.094  1.00  0.00     0.049 A 
ATOM     58  C   UNL A   1      44.212  27.677  31.761  1.00  0.00     0.074 A 
ATOM     59  C   UNL A   1      41.646  28.971  25.922  1.00  0.00     0.029 A 
ATOM     60  N   UNL A   1      41.740  29.562  28.043  1.00  0.00    -0.354 N 
ATOM     61  N   UNL A   1      44.887  28.253  30.803  1.00  0.00    -0.248 NA
ATOM     62  C   UNL A   1      42.875  28.203  31.984  1.00  0.00     0.031 C 
ATOM     63  C   UNL A   1      43.009  29.101  26.330  1.00  0.00     0.029 A 
ATOM     64  C   UNL A   1      43.038  29.262  27.717  1.00  0.00     0.049 A 
ATOM     65  H   UNL A   1      41.447  30.089  28.822  1.00  0.00     0.167 HD
ATOM     66  C   UNL A   1      43.923  28.890  30.029  1.00  0.00     0.074 A 
ATOM     67  C   UNL A   1      42.727  28.919  30.867  1.00  0.00     0.031 C 
ATOM     68  C   UNL A   1      44.100  29.066  28.687  1.00  0.00     0.034 A 
BRANCH  55  69
ATOM     69  C   UNL A   1      38.680  28.966  28.364  1.00  0.00     0.023 A 
ATOM     70  C   UNL A   1      37.760  29.733  27.626  1.00  0.00     0.012 A 
ATOM     71  C   UNL A   1      38.618  29.055  29.773  1.00  0.00     0.148 A 
ATOM     72  C   UNL A   1      36.812  30.538  28.263  1.00  0.00     0.002 A 
ATOM     73  C   UNL A   1      37.613  29.774  30.401  1.00  0.00     0.091 A 
ATOM     74  F   UNL A   1      39.611  28.558  30.520  1.00  0.00    -0.205 F 
ATOM     75  C   UNL A   1      36.720  30.539  29.651  1.00  0.00     0.022 A 
BRANCH  73  76
ATOM     76  S   UNL A   1      37.417  29.738  32.186  1.00  0.00     0.127 S 
ATOM     77  O   UNL A   1      36.149  30.439  32.355  1.00  0.00    -0.237 OA
ATOM     78  O   UNL A   1      37.374  28.300  32.454  1.00  0.00    -0.237 OA
ATOM     79  O   UNL A   1      38.603  30.404  32.711  1.00  0.00    -0.744 OA
ENDBRANCH  73  76
ENDBRANCH  55  69
BRANCH  56  80
ATOM     80  C   UNL A   1      44.689  26.128  33.779  1.00  0.00     0.023 A 
ATOM     81  C   UNL A   1      45.963  26.339  34.354  1.00  0.00     0.012 A 
ATOM     82  C   UNL A   1      43.572  26.076  34.643  1.00  0.00     0.148 A 
ATOM     83  C   UNL A   1      46.113  26.582  35.724  1.00  0.00     0.002 A 
ATOM     84  C   UNL A   1      43.729  26.310  36.010  1.00  0.00     0.091 A 
ATOM     85  F   UNL A   1      42.353  25.906  34.114  1.00  0.00    -0.205 F 
ATOM     86  C   UNL A   1      44.995  26.586  36.548  1.00  0.00     0.022 A 
BRANCH  84  87
ATOM     87  S   UNL A   1      42.340  26.381  37.152  1.00  0.00     0.127 S 
ATOM     88  O   UNL A   1      43.010  26.315  38.453  1.00  0.00    -0.237 OA
ATOM     89  O   UNL A   1      41.759  27.683  36.836  1.00  0.00    -0.237 OA
ATOM     90  O   UNL A   1      41.510  25.228  36.840  1.00  0.00    -0.744 OA
ENDBRANCH  84  87
ENDBRANCH  56  80
BRANCH  68  91
ATOM     91  C   UNL A   1      45.474  28.811  28.116  1.00  0.00     0.023 A 
ATOM     92  C   UNL A   1      46.533  29.735  28.244  1.00  0.00     0.012 A 
ATOM     93  C   UNL A   1      45.750  27.529  27.612  1.00  0.00     0.148 A 
ATOM     94  C   UNL A   1      47.837  29.385  27.878  1.00  0.00     0.002 A 
ATOM     95  C   UNL A   1      47.052  27.173  27.284  1.00  0.00     0.091 A 
ATOM     96  F   UNL A   1      44.730  26.663  27.506  1.00  0.00    -0.205 F 
ATOM     97  C   UNL A   1      48.099  28.099  27.412  1.00  0.00     0.022 A 
BRANCH  95  98
ATOM     98  S   UNL A   1      47.478  25.504  26.780  1.00  0.00     0.127 S 
ATOM     99  O   UNL A   1      47.330  24.760  28.030  1.00  0.00    -0.237 OA
ATOM    100  O   UNL A   1      46.456  25.216  25.772  1.00  0.00    -0.237 OA
ATOM    101  O   UNL A   1      48.836  25.571  26.255  1.00  0.00    -0.744 OA
ENDBRANCH  95  98
ENDBRANCH  68  91
ENDBRANCH  42  43
ENDBRANCH  34  37
ENDBRANCH  32  33
ENDBRANCH  31  32
ENDBRANCH   1  31
TORSDOF 19
ENDMDL
MODEL 3
REMARK VINA RESULT:     -11.6      3.093      6.655
REMARK SMILES Cc1ccc(C)c(S(=O)(=O)N[C@H](CC2=c3ccccc3=NC2)C(=O)NCCCCNC(=O)c2ccc(-c3c4nc(c(-c5cccc(S(=O)(=O)[O-])c5F)c5ccc([nH]5)c(-c5cccc(S(=O)(=O)[O-])c5F)c5nc(c(-c6cccc(S(=O)(=O)[O-])c6F)c6ccc3[nH]6)C=C5)C=C4)cc2)c1
REMARK SMILES IDX 27 1 26 2 25 3 23 4 24 5 12 7 11 8 8 10 9 11 10 12 7 13 1 14
REMARK SMILES IDX 2 15 3 16 96 17 4 18 5 19 6 20 13 21 14 22 15 23 22 24 16 25
REMARK SMILES IDX 20 26 21 27 17 28 19 29 18 30 28 31 29 32 30 33 31 34 32 36
REMARK SMILES IDX 33 37 34 38 95 39 35 40 94 41 36 42 37 43 38 44 88 45 39 46
REMARK SMILES IDX 93 47 87 48 89 49 40 50 92 51 86 52 85 53 41 55 73 56 53 57
REMARK SMILES IDX 72 58 54 59 57 60 71 61 90 62 55 63 56 64 70 66 91 67 58 68
REMARK SMILES IDX 42 69 43 70 51 71 44 72 46 73 52 74 45 75 47 76 48 77 49 78
REMARK SMILES IDX 50 79 74 80 75 81 83 82 76 83 78 84 84 85 77 86 79 87 80 88
REMARK SMILES IDX 81 89 82 90 59 91 60 92 68 93 61 94 63 95 69 96 62 97 64 98
REMARK SMILES IDX 65 99 66 100 67 101
REMARK H PARENT 25 6 11 9 30 35 89 54 57 65
REMARK Flexibility Score: inf
ROOT
ATOM      1  C   UNL A   1      38.261  22.983  26.059  1.00  0.00     0.023 C 
ENDROOT
BRANCH   1   2
ATOM      2  C   UNL A   1      37.185  23.341  24.987  1.00  0.00     0.116 C 
BRANCH   2   3
ATOM      3  N   UNL A   1      36.193  22.341  24.609  1.00  0.00    -0.355 N 
ATOM      4  C   UNL A   1      34.826  22.312  24.471  1.00  0.00     0.238 C 
ATOM      5  O   UNL A   1      34.327  21.183  24.427  1.00  0.00    -0.273 OA
ATOM      6  H   UNL A   1      36.605  21.472  24.400  1.00  0.00     0.163 HD
BRANCH   4   7
ATOM      7  C   UNL A   1      33.906  23.548  24.534  1.00  0.00     0.163 C 
BRANCH   7   8
ATOM      8  N   UNL A   1      34.077  24.413  23.308  1.00  0.00    -0.198 NA
ATOM      9  H   UNL A   1      34.349  25.339  23.636  1.00  0.00     0.142 HD
BRANCH   8  10
ATOM     10  S   UNL A   1      32.766  24.633  22.239  1.00  0.00     0.241 S 
ATOM     11  O   UNL A   1      31.919  23.486  22.324  1.00  0.00    -0.207 OA
ATOM     12  O   UNL A   1      33.400  25.040  20.993  1.00  0.00    -0.207 OA
BRANCH  10  13
ATOM     13  C   UNL A   1      31.875  26.058  22.818  1.00  0.00     0.085 A 
ATOM     14  C   UNL A   1      28.305  26.782  23.909  1.00  0.00     0.044 C 
ATOM     15  C   UNL A   1      29.747  26.983  23.557  1.00  0.00    -0.050 A 
ATOM     16  C   UNL A   1      30.301  28.263  23.504  1.00  0.00     0.004 A 
ATOM     17  C   UNL A   1      30.556  25.887  23.255  1.00  0.00     0.025 A 
ATOM     18  C   UNL A   1      31.640  28.437  23.148  1.00  0.00     0.005 A 
ATOM     19  C   UNL A   1      32.451  27.342  22.795  1.00  0.00    -0.031 A 
ATOM     20  C   UNL A   1      33.884  27.632  22.437  1.00  0.00     0.046 C 
ENDBRANCH  10  13
ENDBRANCH   8  10
ENDBRANCH   7   8
BRANCH   7  21
ATOM     21  C   UNL A   1      34.028  24.422  25.851  1.00  0.00     0.063 C 
BRANCH  21  22
ATOM     22  C   UNL A   1      33.089  25.569  26.171  1.00  0.00    -0.037 C 
ATOM     23  C   UNL A   1      33.225  26.888  26.339  1.00  0.00     0.001 A 
ATOM     24  C   UNL A   1      31.691  25.205  26.506  1.00  0.00     0.174 C 
ATOM     25  C   UNL A   1      34.278  27.851  26.324  1.00  0.00     0.010 A 
ATOM     26  C   UNL A   1      31.857  27.316  26.721  1.00  0.00     0.065 A 
ATOM     27  N   UNL A   1      30.964  26.406  26.926  1.00  0.00    -0.280 NA
ATOM     28  C   UNL A   1      33.980  29.143  26.567  1.00  0.00     0.001 A 
ATOM     29  C   UNL A   1      31.583  28.750  26.869  1.00  0.00     0.028 A 
ATOM     30  C   UNL A   1      32.615  29.599  26.781  1.00  0.00     0.002 A 
ENDBRANCH  21  22
ENDBRANCH   7  21
ENDBRANCH   4   7
ENDBRANCH   2   3
ENDBRANCH   1   2
BRANCH   1  31
ATOM     31  C   UNL A   1      39.132  21.706  25.940  1.00  0.00     0.023 C 
BRANCH  31  32
ATOM     32  C   UNL A   1      40.265  21.408  26.934  1.00  0.00     0.116 C 
BRANCH  32  33
ATOM     33  N   UNL A   1      41.610  21.696  26.434  1.00  0.00    -0.352 N 
ATOM     34  C   UNL A   1      42.325  22.880  26.332  1.00  0.00     0.251 C 
ATOM     35  H   UNL A   1      42.097  20.904  26.110  1.00  0.00     0.163 HD
ATOM     36  O   UNL A   1      43.389  22.895  25.717  1.00  0.00    -0.269 OA
BRANCH  34  37
ATOM     37  C   UNL A   1      41.825  24.118  26.968  1.00  0.00     0.039 A 
ATOM     38  C   UNL A   1      40.772  24.900  26.499  1.00  0.00     0.014 A 
ATOM     39  C   UNL A   1      42.546  24.622  28.023  1.00  0.00     0.014 A 
ATOM     40  C   UNL A   1      40.605  26.181  27.052  1.00  0.00     0.010 A 
ATOM     41  C   UNL A   1      42.034  25.551  28.847  1.00  0.00     0.010 A 
ATOM     42  C   UNL A   1      41.364  26.531  28.173  1.00  0.00    -0.014 A 
BRANCH  42  43
ATOM     43  C   UNL A   1      41.300  27.756  28.929  1.00  0.00     0.031 A 
ATOM     44  C   UNL A   1      42.152  28.806  28.345  1.00  0.00     0.074 A 
ATOM     45  C   UNL A   1      40.300  28.066  29.781  1.00  0.00     0.049 A 
ATOM     46  N   UNL A   1      43.391  29.013  28.643  1.00  0.00    -0.248 NA
ATOM     47  C   UNL A   1      41.698  29.501  27.125  1.00  0.00     0.031 C 
ATOM     48  C   UNL A   1      39.086  27.327  30.132  1.00  0.00     0.029 A 
ATOM     49  N   UNL A   1      40.144  29.226  30.460  1.00  0.00    -0.354 N 
ATOM     50  C   UNL A   1      43.763  30.066  27.826  1.00  0.00     0.074 A 
ATOM     51  C   UNL A   1      42.835  30.076  26.727  1.00  0.00     0.031 C 
ATOM     52  C   UNL A   1      38.233  28.141  30.807  1.00  0.00     0.029 A 
ATOM     53  C   UNL A   1      38.910  29.399  31.075  1.00  0.00     0.049 A 
ATOM     54  H   UNL A   1      40.858  29.902  30.515  1.00  0.00     0.167 HD
ATOM     55  C   UNL A   1      44.571  31.059  28.282  1.00  0.00     0.034 A 
ATOM     56  C   UNL A   1      38.517  30.528  31.714  1.00  0.00     0.034 A 
ATOM     57  C   UNL A   1      45.071  30.767  29.603  1.00  0.00     0.049 A 
ATOM     58  C   UNL A   1      39.771  31.254  32.064  1.00  0.00     0.074 A 
ATOM     59  C   UNL A   1      45.809  29.743  30.163  1.00  0.00     0.029 A 
ATOM     60  N   UNL A   1      44.403  31.372  30.645  1.00  0.00    -0.354 N 
ATOM     61  N   UNL A   1      40.677  30.794  32.883  1.00  0.00    -0.248 NA
ATOM     62  C   UNL A   1      40.219  32.310  31.169  1.00  0.00     0.031 C 
ATOM     63  C   UNL A   1      45.202  29.501  31.433  1.00  0.00     0.029 A 
ATOM     64  C   UNL A   1      44.170  30.425  31.609  1.00  0.00     0.049 A 
ATOM     65  H   UNL A   1      44.139  32.319  30.688  1.00  0.00     0.167 HD
ATOM     66  C   UNL A   1      41.888  31.175  32.317  1.00  0.00     0.074 A 
ATOM     67  C   UNL A   1      41.539  32.197  31.334  1.00  0.00     0.031 C 
ATOM     68  C   UNL A   1      43.014  30.422  32.488  1.00  0.00     0.034 A 
BRANCH  55  69
ATOM     69  C   UNL A   1      44.610  32.443  27.707  1.00  0.00     0.023 A 
ATOM     70  C   UNL A   1      45.709  32.775  26.895  1.00  0.00     0.012 A 
ATOM     71  C   UNL A   1      43.731  33.489  28.070  1.00  0.00     0.148 A 
ATOM     72  C   UNL A   1      45.915  34.084  26.453  1.00  0.00     0.002 A 
ATOM     73  C   UNL A   1      43.882  34.764  27.547  1.00  0.00     0.091 A 
ATOM     74  F   UNL A   1      42.822  33.295  29.033  1.00  0.00    -0.205 F 
ATOM     75  C   UNL A   1      44.988  35.075  26.756  1.00  0.00     0.022 A 
BRANCH  73  76
ATOM     76  S   UNL A   1      42.664  36.047  27.856  1.00  0.00     0.127 S 
ATOM     77  O   UNL A   1      42.909  36.350  29.262  1.00  0.00    -0.237 OA
ATOM     78  O   UNL A   1      43.078  37.088  26.915  1.00  0.00    -0.237 OA
ATOM     79  O   UNL A   1      41.380  35.435  27.537  1.00  0.00    -0.744 OA
ENDBRANCH  73  76
ENDBRANCH  55  69
BRANCH  56  80
ATOM     80  C   UNL A   1      37.195  31.196  31.823  1.00  0.00     0.023 A 
ATOM     81  C   UNL A   1      36.768  31.632  33.099  1.00  0.00     0.012 A 
ATOM     82  C   UNL A   1      36.525  31.709  30.690  1.00  0.00     0.148 A 
ATOM     83  C   UNL A   1      35.778  32.611  33.241  1.00  0.00     0.002 A 
ATOM     84  C   UNL A   1      35.532  32.678  30.839  1.00  0.00     0.091 A 
ATOM     85  F   UNL A   1      36.934  31.329  29.472  1.00  0.00    -0.205 F 
ATOM     86  C   UNL A   1      35.174  33.146  32.111  1.00  0.00     0.022 A 
BRANCH  84  87
ATOM     87  S   UNL A   1      34.722  33.465  29.437  1.00  0.00     0.127 S 
ATOM     88  O   UNL A   1      33.695  34.276  30.094  1.00  0.00    -0.237 OA
ATOM     89  O   UNL A   1      35.818  34.235  28.852  1.00  0.00    -0.237 OA
ATOM     90  O   UNL A   1      34.204  32.382  28.617  1.00  0.00    -0.744 OA
ENDBRANCH  84  87
ENDBRANCH  56  80
BRANCH  68  91
ATOM     91  C   UNL A   1      42.981  29.328  33.529  1.00  0.00     0.023 A 
ATOM     92  C   UNL A   1      42.612  28.001  33.225  1.00  0.00     0.012 A 
ATOM     93  C   UNL A   1      43.522  29.609  34.795  1.00  0.00     0.148 A 
ATOM     94  C   UNL A   1      42.780  26.978  34.163  1.00  0.00     0.002 A 
ATOM     95  C   UNL A   1      43.722  28.584  35.711  1.00  0.00     0.091 A 
ATOM     96  F   UNL A   1      43.874  30.876  35.060  1.00  0.00    -0.205 F 
ATOM     97  C   UNL A   1      43.349  27.267  35.401  1.00  0.00     0.022 A 
BRANCH  95  98
ATOM     98  S   UNL A   1      44.546  28.865  37.280  1.00  0.00     0.127 S 
ATOM     99  O   UNL A   1      44.336  27.593  37.968  1.00  0.00    -0.237 OA
ATOM    100  O   UNL A   1      45.927  29.113  36.862  1.00  0.00    -0.237 OA
ATOM    101  O   UNL A   1      43.887  30.015  37.886  1.00  0.00    -0.744 OA
ENDBRANCH  95  98
ENDBRANCH  68  91
ENDBRANCH  42  43
ENDBRANCH  34  37
ENDBRANCH  32  33
ENDBRANCH  31  32
ENDBRANCH   1  31
TORSDOF 19
ENDMDL
