MODEL 1
REMARK VINA RESULT:     -12.1      0.000      0.000
REMARK SMILES O=C(NCCCCNC(=O)c1ccc(-c2c3nc(c(-c4cccc(S(=O)(=O)[O-])c4F)c4ccc([nH]4)c(-c4cccc(S(=O)(=O)[O-])c4F)c4nc(c(-c5cccc(S(=O)(=O)[O-])c5F)c5ccc2[nH]5)C=C4)C=C3)cc1)C1=Cc2cc(Cl)c(Cl)cc2O[C@@H]1C(F)(F)F
REMARK SMILES IDX 6 1 5 2 4 3 3 4 1 5 2 6 74 8 75 9 85 10 76 11 84 12 77 13
REMARK SMILES IDX 83 14 78 15 82 16 79 17 80 18 81 19 86 20 87 21 88 22 89 23
REMARK SMILES IDX 7 24 8 25 9 26 10 28 11 29 12 30 73 31 13 32 72 33 14 34
REMARK SMILES IDX 15 35 16 36 66 37 17 38 71 39 65 40 67 41 18 42 70 43 64 44
REMARK SMILES IDX 63 45 19 47 51 48 31 49 50 50 32 51 35 52 49 53 68 54 33 55
REMARK SMILES IDX 34 56 48 58 69 59 36 60 20 61 21 62 29 63 22 64 24 65 30 66
REMARK SMILES IDX 23 67 25 68 26 69 27 70 28 71 52 72 53 73 61 74 54 75 56 76
REMARK SMILES IDX 62 77 55 78 57 79 58 80 59 81 60 82 37 83 38 84 46 85 39 86
REMARK SMILES IDX 41 87 47 88 40 89 42 90 43 91 44 92 45 93
REMARK H PARENT 3 7 8 27 67 46 35 57
REMARK Flexibility Score: inf
ROOT
ATOM      1  C   UNL A   1      32.168  29.092  26.292  1.00  0.00     0.023 C 
ENDROOT
BRANCH   1   2
ATOM      2  C   UNL A   1      31.594  27.912  27.076  1.00  0.00     0.023 C 
BRANCH   2   3
ATOM      3  C   UNL A   1      31.059  26.784  26.192  1.00  0.00     0.116 C 
BRANCH   3   4
ATOM      4  N   UNL A   1      31.040  25.474  26.852  1.00  0.00    -0.352 N 
ATOM      5  O   UNL A   1      31.900  23.457  27.463  1.00  0.00    -0.270 OA
ATOM      6  C   UNL A   1      31.867  24.390  26.673  1.00  0.00     0.251 C 
ATOM      7  H   UNL A   1      30.329  25.353  27.521  1.00  0.00     0.163 HD
BRANCH   6   8
ATOM      8  C   UNL A   1      32.775  24.422  25.511  1.00  0.00     0.067 C 
ATOM      9  C   UNL A   1      34.025  24.852  25.726  1.00  0.00     0.025 C 
ATOM     10  C   UNL A   1      32.377  23.639  24.297  1.00  0.00     0.314 C 
ATOM     11  C   UNL A   1      35.044  23.995  25.112  1.00  0.00     0.019 A 
ATOM     12  O   UNL A   1      33.364  22.633  23.952  1.00  0.00    -0.475 OA
ATOM     13  C   UNL A   1      36.342  24.066  25.629  1.00  0.00     0.034 A 
ATOM     14  C   UNL A   1      34.649  22.858  24.381  1.00  0.00     0.129 A 
ATOM     15  C   UNL A   1      37.201  22.971  25.512  1.00  0.00     0.060 A 
ATOM     16  C   UNL A   1      35.524  21.784  24.227  1.00  0.00     0.069 A 
ATOM     17  Cl  UNL A   1      38.710  23.056  26.350  1.00  0.00    -0.083 Cl
ATOM     18  C   UNL A   1      36.785  21.823  24.825  1.00  0.00     0.063 A 
ATOM     19  Cl  UNL A   1      37.746  20.390  24.755  1.00  0.00    -0.083 Cl
BRANCH  10  20
ATOM     20  C   UNL A   1      32.098  24.555  23.092  1.00  0.00     0.429 C 
ATOM     21  F   UNL A   1      32.795  24.151  22.000  1.00  0.00    -0.167 F 
ATOM     22  F   UNL A   1      30.792  24.557  22.741  1.00  0.00    -0.167 F 
ATOM     23  F   UNL A   1      32.450  25.841  23.331  1.00  0.00    -0.167 F 
ENDBRANCH  10  20
ENDBRANCH   6   8
ENDBRANCH   3   4
ENDBRANCH   2   3
ENDBRANCH   1   2
BRANCH   1  24
ATOM     24  C   UNL A   1      33.597  29.507  26.642  1.00  0.00     0.116 C 
BRANCH  24  25
ATOM     25  N   UNL A   1      33.716  30.829  27.248  1.00  0.00    -0.352 N 
ATOM     26  C   UNL A   1      34.746  31.322  28.022  1.00  0.00     0.251 C 
ATOM     27  H   UNL A   1      32.968  31.447  27.083  1.00  0.00     0.163 HD
ATOM     28  O   UNL A   1      34.682  32.449  28.504  1.00  0.00    -0.269 OA
BRANCH  26  29
ATOM     29  C   UNL A   1      35.908  30.453  28.314  1.00  0.00     0.039 A 
ATOM     30  C   UNL A   1      37.027  30.518  27.478  1.00  0.00     0.014 A 
ATOM     31  C   UNL A   1      35.931  29.665  29.467  1.00  0.00     0.014 A 
ATOM     32  C   UNL A   1      38.210  29.880  27.861  1.00  0.00     0.010 A 
ATOM     33  C   UNL A   1      37.132  29.098  29.883  1.00  0.00     0.010 A 
ATOM     34  C   UNL A   1      38.289  29.215  29.096  1.00  0.00    -0.014 A 
BRANCH  34  35
ATOM     35  C   UNL A   1      39.574  28.673  29.611  1.00  0.00     0.031 A 
ATOM     36  C   UNL A   1      40.299  29.381  30.723  1.00  0.00     0.074 A 
ATOM     37  C   UNL A   1      40.148  27.618  28.996  1.00  0.00     0.049 A 
ATOM     38  N   UNL A   1      41.477  29.133  31.229  1.00  0.00    -0.248 NA
ATOM     39  C   UNL A   1      39.624  30.547  31.320  1.00  0.00     0.031 C 
ATOM     40  C   UNL A   1      39.592  26.900  27.846  1.00  0.00     0.029 A 
ATOM     41  N   UNL A   1      41.345  26.985  29.229  1.00  0.00    -0.354 N 
ATOM     42  C   UNL A   1      41.707  30.133  32.165  1.00  0.00     0.074 A 
ATOM     43  C   UNL A   1      40.558  31.010  32.137  1.00  0.00     0.031 C 
ATOM     44  C   UNL A   1      40.442  25.928  27.477  1.00  0.00     0.029 A 
ATOM     45  C   UNL A   1      41.615  25.965  28.343  1.00  0.00     0.049 A 
ATOM     46  H   UNL A   1      41.953  27.236  29.961  1.00  0.00     0.167 HD
ATOM     47  C   UNL A   1      42.764  30.290  32.997  1.00  0.00     0.034 A 
ATOM     48  C   UNL A   1      42.688  25.155  28.239  1.00  0.00     0.034 A 
ATOM     49  C   UNL A   1      43.871  29.377  33.071  1.00  0.00     0.049 A 
ATOM     50  C   UNL A   1      43.810  25.300  29.234  1.00  0.00     0.074 A 
ATOM     51  C   UNL A   1      44.944  29.395  33.943  1.00  0.00     0.029 A 
ATOM     52  N   UNL A   1      44.044  28.278  32.245  1.00  0.00    -0.354 N 
ATOM     53  N   UNL A   1      43.931  26.157  30.219  1.00  0.00    -0.248 NA
ATOM     54  C   UNL A   1      44.923  24.344  29.130  1.00  0.00     0.031 C 
ATOM     55  C   UNL A   1      45.768  28.306  33.643  1.00  0.00     0.029 A 
ATOM     56  C   UNL A   1      45.202  27.605  32.591  1.00  0.00     0.049 A 
ATOM     57  H   UNL A   1      43.432  28.014  31.519  1.00  0.00     0.167 HD
ATOM     58  C   UNL A   1      45.108  25.818  30.876  1.00  0.00     0.074 A 
ATOM     59  C   UNL A   1      45.656  24.668  30.186  1.00  0.00     0.031 C 
ATOM     60  C   UNL A   1      45.693  26.417  31.942  1.00  0.00     0.034 A 
BRANCH  47  61
ATOM     61  C   UNL A   1      42.739  31.458  33.946  1.00  0.00     0.023 A 
ATOM     62  C   UNL A   1      43.297  32.689  33.543  1.00  0.00     0.012 A 
ATOM     63  C   UNL A   1      42.119  31.360  35.207  1.00  0.00     0.148 A 
ATOM     64  C   UNL A   1      43.268  33.794  34.391  1.00  0.00     0.002 A 
ATOM     65  C   UNL A   1      42.057  32.479  36.031  1.00  0.00     0.091 A 
ATOM     66  F   UNL A   1      41.614  30.176  35.582  1.00  0.00    -0.205 F 
ATOM     67  C   UNL A   1      42.640  33.692  35.629  1.00  0.00     0.022 A 
BRANCH  65  68
ATOM     68  S   UNL A   1      41.207  32.471  37.614  1.00  0.00     0.127 S 
ATOM     69  O   UNL A   1      42.069  31.599  38.408  1.00  0.00    -0.237 OA
ATOM     70  O   UNL A   1      41.251  33.883  37.993  1.00  0.00    -0.237 OA
ATOM     71  O   UNL A   1      39.871  31.956  37.347  1.00  0.00    -0.744 OA
ENDBRANCH  65  68
ENDBRANCH  47  61
BRANCH  48  72
ATOM     72  C   UNL A   1      42.715  24.077  27.210  1.00  0.00     0.023 A 
ATOM     73  C   UNL A   1      43.350  24.320  25.976  1.00  0.00     0.012 A 
ATOM     74  C   UNL A   1      42.143  22.813  27.446  1.00  0.00     0.148 A 
ATOM     75  C   UNL A   1      43.386  23.339  24.985  1.00  0.00     0.002 A 
ATOM     76  C   UNL A   1      42.229  21.820  26.475  1.00  0.00     0.091 A 
ATOM     77  F   UNL A   1      41.529  22.600  28.620  1.00  0.00    -0.205 F 
ATOM     78  C   UNL A   1      42.835  22.086  25.237  1.00  0.00     0.022 A 
BRANCH  76  79
ATOM     79  S   UNL A   1      41.662  20.140  26.774  1.00  0.00     0.127 S 
ATOM     80  O   UNL A   1      40.253  20.352  27.097  1.00  0.00    -0.237 OA
ATOM     81  O   UNL A   1      41.908  19.497  25.483  1.00  0.00    -0.237 OA
ATOM     82  O   UNL A   1      42.499  19.640  27.856  1.00  0.00    -0.744 OA
ENDBRANCH  76  79
ENDBRANCH  48  72
BRANCH  60  83
ATOM     83  C   UNL A   1      46.968  25.819  32.472  1.00  0.00     0.023 A 
ATOM     84  C   UNL A   1      48.208  26.304  32.014  1.00  0.00     0.012 A 
ATOM     85  C   UNL A   1      46.935  24.852  33.495  1.00  0.00     0.148 A 
ATOM     86  C   UNL A   1      49.399  25.817  32.551  1.00  0.00     0.002 A 
ATOM     87  C   UNL A   1      48.124  24.403  34.056  1.00  0.00     0.091 A 
ATOM     88  F   UNL A   1      45.743  24.389  33.900  1.00  0.00    -0.205 F 
ATOM     89  C   UNL A   1      49.357  24.878  33.580  1.00  0.00     0.022 A 
BRANCH  87  90
ATOM     90  S   UNL A   1      48.158  23.268  35.448  1.00  0.00     0.127 S 
ATOM     91  O   UNL A   1      49.575  22.913  35.509  1.00  0.00    -0.237 OA
ATOM     92  O   UNL A   1      47.692  24.110  36.551  1.00  0.00    -0.237 OA
ATOM     93  O   UNL A   1      47.253  22.182  35.099  1.00  0.00    -0.744 OA
ENDBRANCH  87  90
ENDBRANCH  60  83
ENDBRANCH  34  35
ENDBRANCH  26  29
ENDBRANCH  24  25
ENDBRANCH   1  24
TORSDOF 15
ENDMDL
MODEL 2
REMARK VINA RESULT:     -11.9      5.858      8.430
REMARK SMILES O=C(NCCCCNC(=O)c1ccc(-c2c3nc(c(-c4cccc(S(=O)(=O)[O-])c4F)c4ccc([nH]4)c(-c4cccc(S(=O)(=O)[O-])c4F)c4nc(c(-c5cccc(S(=O)(=O)[O-])c5F)c5ccc2[nH]5)C=C4)C=C3)cc1)C1=Cc2cc(Cl)c(Cl)cc2O[C@@H]1C(F)(F)F
REMARK SMILES IDX 6 1 5 2 4 3 3 4 1 5 2 6 74 8 75 9 85 10 76 11 84 12 77 13
REMARK SMILES IDX 83 14 78 15 82 16 79 17 80 18 81 19 86 20 87 21 88 22 89 23
REMARK SMILES IDX 7 24 8 25 9 26 10 28 11 29 12 30 73 31 13 32 72 33 14 34
REMARK SMILES IDX 15 35 16 36 66 37 17 38 71 39 65 40 67 41 18 42 70 43 64 44
REMARK SMILES IDX 63 45 19 47 51 48 31 49 50 50 32 51 35 52 49 53 68 54 33 55
REMARK SMILES IDX 34 56 48 58 69 59 36 60 20 61 21 62 29 63 22 64 24 65 30 66
REMARK SMILES IDX 23 67 25 68 26 69 27 70 28 71 52 72 53 73 61 74 54 75 56 76
REMARK SMILES IDX 62 77 55 78 57 79 58 80 59 81 60 82 37 83 38 84 46 85 39 86
REMARK SMILES IDX 41 87 47 88 40 89 42 90 43 91 44 92 45 93
REMARK H PARENT 3 7 8 27 67 46 35 57
REMARK Flexibility Score: inf
ROOT
ATOM      1  C   UNL A   1      38.208  21.563  25.376  1.00  0.00     0.023 C 
ENDROOT
BRANCH   1   2
ATOM      2  C   UNL A   1      37.761  23.024  25.329  1.00  0.00     0.023 C 
BRANCH   2   3
ATOM      3  C   UNL A   1      36.256  23.203  25.121  1.00  0.00     0.116 C 
BRANCH   3   4
ATOM      4  N   UNL A   1      35.455  22.910  26.314  1.00  0.00    -0.352 N 
ATOM      5  O   UNL A   1      34.130  21.627  27.649  1.00  0.00    -0.270 OA
ATOM      6  C   UNL A   1      34.535  21.910  26.530  1.00  0.00     0.251 C 
ATOM      7  H   UNL A   1      35.596  23.520  27.073  1.00  0.00     0.163 HD
BRANCH   6   8
ATOM      8  C   UNL A   1      34.098  21.135  25.354  1.00  0.00     0.067 C 
ATOM      9  C   UNL A   1      34.928  20.182  24.909  1.00  0.00     0.025 C 
ATOM     10  C   UNL A   1      32.647  21.194  24.984  1.00  0.00     0.314 C 
ATOM     11  C   UNL A   1      34.251  18.912  24.627  1.00  0.00     0.019 A 
ATOM     12  O   UNL A   1      32.029  19.881  25.005  1.00  0.00    -0.475 OA
ATOM     13  C   UNL A   1      35.037  17.755  24.604  1.00  0.00     0.034 A 
ATOM     14  C   UNL A   1      32.862  18.804  24.830  1.00  0.00     0.129 A 
ATOM     15  C   UNL A   1      34.461  16.515  24.887  1.00  0.00     0.060 A 
ATOM     16  C   UNL A   1      32.282  17.559  25.068  1.00  0.00     0.069 A 
ATOM     17  Cl  UNL A   1      35.529  15.165  25.041  1.00  0.00    -0.083 Cl
ATOM     18  C   UNL A   1      33.086  16.419  25.135  1.00  0.00     0.063 A 
ATOM     19  Cl  UNL A   1      32.336  14.941  25.617  1.00  0.00    -0.083 Cl
BRANCH  10  20
ATOM     20  C   UNL A   1      32.432  21.870  23.619  1.00  0.00     0.429 C 
ATOM     21  F   UNL A   1      32.124  20.955  22.665  1.00  0.00    -0.167 F 
ATOM     22  F   UNL A   1      31.417  22.763  23.643  1.00  0.00    -0.167 F 
ATOM     23  F   UNL A   1      33.535  22.530  23.192  1.00  0.00    -0.167 F 
ENDBRANCH  10  20
ENDBRANCH   6   8
ENDBRANCH   3   4
ENDBRANCH   2   3
ENDBRANCH   1   2
BRANCH   1  24
ATOM     24  C   UNL A   1      39.272  21.214  26.416  1.00  0.00     0.116 C 
BRANCH  24  25
ATOM     25  N   UNL A   1      40.029  20.000  26.129  1.00  0.00    -0.352 N 
ATOM     26  C   UNL A   1      41.399  19.842  26.085  1.00  0.00     0.251 C 
ATOM     27  H   UNL A   1      39.497  19.194  25.944  1.00  0.00     0.163 HD
ATOM     28  O   UNL A   1      41.893  18.761  25.781  1.00  0.00    -0.269 OA
BRANCH  26  29
ATOM     29  C   UNL A   1      42.269  21.009  26.353  1.00  0.00     0.039 A 
ATOM     30  C   UNL A   1      42.644  21.832  25.287  1.00  0.00     0.014 A 
ATOM     31  C   UNL A   1      42.619  21.345  27.663  1.00  0.00     0.014 A 
ATOM     32  C   UNL A   1      43.272  23.052  25.547  1.00  0.00     0.010 A 
ATOM     33  C   UNL A   1      43.172  22.596  27.923  1.00  0.00     0.010 A 
ATOM     34  C   UNL A   1      43.487  23.471  26.871  1.00  0.00    -0.014 A 
BRANCH  34  35
ATOM     35  C   UNL A   1      43.995  24.832  27.187  1.00  0.00     0.031 A 
ATOM     36  C   UNL A   1      43.063  25.873  27.746  1.00  0.00     0.074 A 
ATOM     37  C   UNL A   1      45.259  25.166  26.856  1.00  0.00     0.049 A 
ATOM     38  N   UNL A   1      43.286  27.139  27.979  1.00  0.00    -0.248 NA
ATOM     39  C   UNL A   1      41.688  25.440  28.049  1.00  0.00     0.031 C 
ATOM     40  C   UNL A   1      46.235  24.275  26.222  1.00  0.00     0.029 A 
ATOM     41  N   UNL A   1      45.934  26.358  26.975  1.00  0.00    -0.354 N 
ATOM     42  C   UNL A   1      42.073  27.665  28.407  1.00  0.00     0.074 A 
ATOM     43  C   UNL A   1      41.110  26.587  28.374  1.00  0.00     0.031 C 
ATOM     44  C   UNL A   1      47.378  24.948  26.011  1.00  0.00     0.029 A 
ATOM     45  C   UNL A   1      47.214  26.323  26.468  1.00  0.00     0.049 A 
ATOM     46  H   UNL A   1      45.539  27.161  27.384  1.00  0.00     0.167 HD
ATOM     47  C   UNL A   1      41.794  28.924  28.821  1.00  0.00     0.034 A 
ATOM     48  C   UNL A   1      48.148  27.292  26.378  1.00  0.00     0.034 A 
ATOM     49  C   UNL A   1      42.770  29.973  28.919  1.00  0.00     0.049 A 
ATOM     50  C   UNL A   1      47.835  28.659  26.926  1.00  0.00     0.074 A 
ATOM     51  C   UNL A   1      42.609  31.254  29.415  1.00  0.00     0.029 A 
ATOM     52  N   UNL A   1      44.092  29.860  28.519  1.00  0.00    -0.354 N 
ATOM     53  N   UNL A   1      46.726  29.091  27.478  1.00  0.00    -0.248 NA
ATOM     54  C   UNL A   1      48.911  29.661  26.878  1.00  0.00     0.031 C 
ATOM     55  C   UNL A   1      43.835  31.918  29.313  1.00  0.00     0.029 A 
ATOM     56  C   UNL A   1      44.761  31.047  28.764  1.00  0.00     0.049 A 
ATOM     57  H   UNL A   1      44.496  29.055  28.122  1.00  0.00     0.167 HD
ATOM     58  C   UNL A   1      46.984  30.397  27.878  1.00  0.00     0.074 A 
ATOM     59  C   UNL A   1      48.358  30.681  27.521  1.00  0.00     0.031 C 
ATOM     60  C   UNL A   1      46.150  31.287  28.472  1.00  0.00     0.034 A 
BRANCH  47  61
ATOM     61  C   UNL A   1      40.386  29.215  29.269  1.00  0.00     0.023 A 
ATOM     62  C   UNL A   1      39.435  29.648  28.321  1.00  0.00     0.012 A 
ATOM     63  C   UNL A   1      39.988  29.010  30.604  1.00  0.00     0.148 A 
ATOM     64  C   UNL A   1      38.119  29.904  28.702  1.00  0.00     0.002 A 
ATOM     65  C   UNL A   1      38.663  29.228  30.967  1.00  0.00     0.091 A 
ATOM     66  F   UNL A   1      40.911  28.620  31.494  1.00  0.00    -0.205 F 
ATOM     67  C   UNL A   1      37.731  29.685  30.020  1.00  0.00     0.022 A 
BRANCH  65  68
ATOM     68  S   UNL A   1      38.046  28.905  32.623  1.00  0.00     0.127 S 
ATOM     69  O   UNL A   1      38.903  29.769  33.431  1.00  0.00    -0.237 OA
ATOM     70  O   UNL A   1      36.654  29.344  32.524  1.00  0.00    -0.237 OA
ATOM     71  O   UNL A   1      38.217  27.475  32.841  1.00  0.00    -0.744 OA
ENDBRANCH  65  68
ENDBRANCH  47  61
BRANCH  48  72
ATOM     72  C   UNL A   1      49.498  26.981  25.827  1.00  0.00     0.023 A 
ATOM     73  C   UNL A   1      50.445  26.339  26.650  1.00  0.00     0.012 A 
ATOM     74  C   UNL A   1      49.846  27.292  24.499  1.00  0.00     0.148 A 
ATOM     75  C   UNL A   1      51.722  26.042  26.173  1.00  0.00     0.002 A 
ATOM     76  C   UNL A   1      51.102  26.944  24.012  1.00  0.00     0.091 A 
ATOM     77  F   UNL A   1      48.940  27.916  23.732  1.00  0.00    -0.205 F 
ATOM     78  C   UNL A   1      52.048  26.336  24.852  1.00  0.00     0.022 A 
BRANCH  76  79
ATOM     79  S   UNL A   1      51.551  27.167  22.286  1.00  0.00     0.127 S 
ATOM     80  O   UNL A   1      51.799  28.606  22.223  1.00  0.00    -0.237 OA
ATOM     81  O   UNL A   1      52.746  26.330  22.167  1.00  0.00    -0.237 OA
ATOM     82  O   UNL A   1      50.408  26.681  21.526  1.00  0.00    -0.744 OA
ENDBRANCH  76  79
ENDBRANCH  48  72
BRANCH  60  83
ATOM     83  C   UNL A   1      46.705  32.641  28.824  1.00  0.00     0.023 A 
ATOM     84  C   UNL A   1      47.317  32.839  30.076  1.00  0.00     0.012 A 
ATOM     85  C   UNL A   1      46.708  33.682  27.876  1.00  0.00     0.148 A 
ATOM     86  C   UNL A   1      47.905  34.064  30.389  1.00  0.00     0.002 A 
ATOM     87  C   UNL A   1      47.334  34.885  28.178  1.00  0.00     0.091 A 
ATOM     88  F   UNL A   1      46.100  33.478  26.698  1.00  0.00    -0.205 F 
ATOM     89  C   UNL A   1      47.927  35.080  29.436  1.00  0.00     0.022 A 
BRANCH  87  90
ATOM     90  S   UNL A   1      47.491  36.212  26.976  1.00  0.00     0.127 S 
ATOM     91  O   UNL A   1      48.233  37.216  27.736  1.00  0.00    -0.237 OA
ATOM     92  O   UNL A   1      48.253  35.573  25.902  1.00  0.00    -0.237 OA
ATOM     93  O   UNL A   1      46.130  36.580  26.610  1.00  0.00    -0.744 OA
ENDBRANCH  87  90
ENDBRANCH  60  83
ENDBRANCH  34  35
ENDBRANCH  26  29
ENDBRANCH  24  25
ENDBRANCH   1  24
TORSDOF 15
ENDMDL
MODEL 3
REMARK VINA RESULT:     -11.9      2.000      2.676
REMARK SMILES O=C(NCCCCNC(=O)c1ccc(-c2c3nc(c(-c4cccc(S(=O)(=O)[O-])c4F)c4ccc([nH]4)c(-c4cccc(S(=O)(=O)[O-])c4F)c4nc(c(-c5cccc(S(=O)(=O)[O-])c5F)c5ccc2[nH]5)C=C4)C=C3)cc1)C1=Cc2cc(Cl)c(Cl)cc2O[C@@H]1C(F)(F)F
REMARK SMILES IDX 6 1 5 2 4 3 3 4 1 5 2 6 74 8 75 9 85 10 76 11 84 12 77 13
REMARK SMILES IDX 83 14 78 15 82 16 79 17 80 18 81 19 86 20 87 21 88 22 89 23
REMARK SMILES IDX 7 24 8 25 9 26 10 28 11 29 12 30 73 31 13 32 72 33 14 34
REMARK SMILES IDX 15 35 16 36 66 37 17 38 71 39 65 40 67 41 18 42 70 43 64 44
REMARK SMILES IDX 63 45 19 47 51 48 31 49 50 50 32 51 35 52 49 53 68 54 33 55
REMARK SMILES IDX 34 56 48 58 69 59 36 60 20 61 21 62 29 63 22 64 24 65 30 66
REMARK SMILES IDX 23 67 25 68 26 69 27 70 28 71 52 72 53 73 61 74 54 75 56 76
REMARK SMILES IDX 62 77 55 78 57 79 58 80 59 81 60 82 37 83 38 84 46 85 39 86
REMARK SMILES IDX 41 87 47 88 40 89 42 90 43 91 44 92 45 93
REMARK H PARENT 3 7 8 27 67 46 35 57
REMARK Flexibility Score: inf
ROOT
ATOM      1  C   UNL A   1      31.646  28.685  25.682  1.00  0.00     0.023 C 
ENDROOT
BRANCH   1   2
ATOM      2  C   UNL A   1      31.596  27.446  26.576  1.00  0.00     0.023 C 
BRANCH   2   3
ATOM      3  C   UNL A   1      30.753  26.304  26.004  1.00  0.00     0.116 C 
BRANCH   3   4
ATOM      4  N   UNL A   1      30.881  25.045  26.746  1.00  0.00    -0.352 N 
ATOM      5  O   UNL A   1      31.976  23.204  27.517  1.00  0.00    -0.270 OA
ATOM      6  C   UNL A   1      31.853  24.075  26.667  1.00  0.00     0.251 C 
ATOM      7  H   UNL A   1      30.164  24.869  27.396  1.00  0.00     0.163 HD
BRANCH   6   8
ATOM      8  C   UNL A   1      32.799  24.162  25.539  1.00  0.00     0.067 C 
ATOM      9  C   UNL A   1      33.990  24.724  25.784  1.00  0.00     0.025 C 
ATOM     10  C   UNL A   1      32.530  23.305  24.340  1.00  0.00     0.314 C 
ATOM     11  C   UNL A   1      35.114  23.956  25.239  1.00  0.00     0.019 A 
ATOM     12  O   UNL A   1      33.627  22.394  24.068  1.00  0.00    -0.475 OA
ATOM     13  C   UNL A   1      36.376  24.176  25.800  1.00  0.00     0.034 A 
ATOM     14  C   UNL A   1      34.865  22.763  24.535  1.00  0.00     0.129 A 
ATOM     15  C   UNL A   1      37.345  23.171  25.754  1.00  0.00     0.060 A 
ATOM     16  C   UNL A   1      35.848  21.779  24.452  1.00  0.00     0.069 A 
ATOM     17  Cl  UNL A   1      38.802  23.437  26.643  1.00  0.00    -0.083 Cl
ATOM     18  C   UNL A   1      37.075  21.966  25.094  1.00  0.00     0.063 A 
ATOM     19  Cl  UNL A   1      38.177  20.637  25.111  1.00  0.00    -0.083 Cl
BRANCH  10  20
ATOM     20  C   UNL A   1      32.210  24.148  23.093  1.00  0.00     0.429 C 
ATOM     21  F   UNL A   1      32.671  23.549  21.967  1.00  0.00    -0.167 F 
ATOM     22  F   UNL A   1      30.880  24.326  22.923  1.00  0.00    -0.167 F 
ATOM     23  F   UNL A   1      32.773  25.379  23.146  1.00  0.00    -0.167 F 
ENDBRANCH  10  20
ENDBRANCH   6   8
ENDBRANCH   3   4
ENDBRANCH   2   3
ENDBRANCH   1   2
BRANCH   1  24
ATOM     24  C   UNL A   1      32.862  29.595  25.854  1.00  0.00     0.116 C 
BRANCH  24  25
ATOM     25  N   UNL A   1      32.564  30.910  26.413  1.00  0.00    -0.352 N 
ATOM     26  C   UNL A   1      33.344  31.674  27.255  1.00  0.00     0.251 C 
ATOM     27  H   UNL A   1      31.698  31.301  26.156  1.00  0.00     0.163 HD
ATOM     28  O   UNL A   1      32.935  32.749  27.682  1.00  0.00    -0.269 OA
BRANCH  26  29
ATOM     29  C   UNL A   1      34.662  31.156  27.686  1.00  0.00     0.039 A 
ATOM     30  C   UNL A   1      35.693  32.063  27.947  1.00  0.00     0.014 A 
ATOM     31  C   UNL A   1      34.840  29.793  27.936  1.00  0.00     0.014 A 
ATOM     32  C   UNL A   1      36.863  31.617  28.565  1.00  0.00     0.010 A 
ATOM     33  C   UNL A   1      35.972  29.366  28.623  1.00  0.00     0.010 A 
ATOM     34  C   UNL A   1      36.987  30.275  28.962  1.00  0.00    -0.014 A 
BRANCH  34  35
ATOM     35  C   UNL A   1      38.142  29.803  29.772  1.00  0.00     0.031 A 
ATOM     36  C   UNL A   1      38.361  30.344  31.158  1.00  0.00     0.074 A 
ATOM     37  C   UNL A   1      39.059  28.986  29.214  1.00  0.00     0.049 A 
ATOM     38  N   UNL A   1      39.363  30.144  31.973  1.00  0.00    -0.248 NA
ATOM     39  C   UNL A   1      37.334  31.259  31.685  1.00  0.00     0.031 C 
ATOM     40  C   UNL A   1      39.011  28.465  27.845  1.00  0.00     0.029 A 
ATOM     41  N   UNL A   1      40.230  28.474  29.717  1.00  0.00    -0.354 N 
ATOM     42  C   UNL A   1      39.115  30.942  33.082  1.00  0.00     0.074 A 
ATOM     43  C   UNL A   1      37.882  31.652  32.825  1.00  0.00     0.031 C 
ATOM     44  C   UNL A   1      40.098  27.710  27.619  1.00  0.00     0.029 A 
ATOM     45  C   UNL A   1      40.935  27.710  28.814  1.00  0.00     0.049 A 
ATOM     46  H   UNL A   1      40.538  28.638  30.637  1.00  0.00     0.167 HD
ATOM     47  C   UNL A   1      39.832  31.051  34.227  1.00  0.00     0.034 A 
ATOM     48  C   UNL A   1      42.123  27.083  28.933  1.00  0.00     0.034 A 
ATOM     49  C   UNL A   1      41.019  30.291  34.507  1.00  0.00     0.049 A 
ATOM     50  C   UNL A   1      42.855  27.153  30.248  1.00  0.00     0.074 A 
ATOM     51  C   UNL A   1      41.764  30.258  35.671  1.00  0.00     0.029 A 
ATOM     52  N   UNL A   1      41.630  29.424  33.614  1.00  0.00    -0.354 N 
ATOM     53  N   UNL A   1      42.518  27.788  31.345  1.00  0.00    -0.248 NA
ATOM     54  C   UNL A   1      44.108  26.390  30.357  1.00  0.00     0.031 C 
ATOM     55  C   UNL A   1      42.829  29.371  35.482  1.00  0.00     0.029 A 
ATOM     56  C   UNL A   1      42.739  28.845  34.204  1.00  0.00     0.049 A 
ATOM     57  H   UNL A   1      41.319  29.246  32.697  1.00  0.00     0.167 HD
ATOM     58  C   UNL A   1      43.491  27.468  32.284  1.00  0.00     0.074 A 
ATOM     59  C   UNL A   1      44.423  26.571  31.633  1.00  0.00     0.031 C 
ATOM     60  C   UNL A   1      43.612  27.895  33.565  1.00  0.00     0.034 A 
BRANCH  47  61
ATOM     61  C   UNL A   1      39.310  31.976  35.293  1.00  0.00     0.023 A 
ATOM     62  C   UNL A   1      38.326  31.511  36.190  1.00  0.00     0.012 A 
ATOM     63  C   UNL A   1      39.826  33.277  35.447  1.00  0.00     0.148 A 
ATOM     64  C   UNL A   1      37.839  32.337  37.201  1.00  0.00     0.002 A 
ATOM     65  C   UNL A   1      39.366  34.081  36.485  1.00  0.00     0.091 A 
ATOM     66  F   UNL A   1      40.746  33.709  34.572  1.00  0.00    -0.205 F 
ATOM     67  C   UNL A   1      38.366  33.616  37.355  1.00  0.00     0.022 A 
BRANCH  65  68
ATOM     68  S   UNL A   1      40.032  35.716  36.813  1.00  0.00     0.127 S 
ATOM     69  O   UNL A   1      39.613  36.450  35.621  1.00  0.00    -0.237 OA
ATOM     70  O   UNL A   1      39.331  36.094  38.040  1.00  0.00    -0.237 OA
ATOM     71  O   UNL A   1      41.470  35.539  36.965  1.00  0.00    -0.744 OA
ENDBRANCH  65  68
ENDBRANCH  47  61
BRANCH  48  72
ATOM     72  C   UNL A   1      42.654  26.262  27.808  1.00  0.00     0.023 A 
ATOM     73  C   UNL A   1      43.434  26.882  26.812  1.00  0.00     0.012 A 
ATOM     74  C   UNL A   1      42.415  24.877  27.724  1.00  0.00     0.148 A 
ATOM     75  C   UNL A   1      43.938  26.148  25.738  1.00  0.00     0.002 A 
ATOM     76  C   UNL A   1      42.965  24.140  26.680  1.00  0.00     0.091 A 
ATOM     77  F   UNL A   1      41.658  24.303  28.671  1.00  0.00    -0.205 F 
ATOM     78  C   UNL A   1      43.713  24.776  25.677  1.00  0.00     0.022 A 
BRANCH  76  79
ATOM     79  S   UNL A   1      42.833  22.349  26.603  1.00  0.00     0.127 S 
ATOM     80  O   UNL A   1      41.591  22.172  25.853  1.00  0.00    -0.237 OA
ATOM     81  O   UNL A   1      44.049  21.981  25.877  1.00  0.00    -0.237 OA
ATOM     82  O   UNL A   1      42.812  21.905  27.990  1.00  0.00    -0.744 OA
ENDBRANCH  76  79
ENDBRANCH  48  72
BRANCH  60  83
ATOM     83  C   UNL A   1      44.764  27.364  34.376  1.00  0.00     0.023 A 
ATOM     84  C   UNL A   1      45.945  28.122  34.490  1.00  0.00     0.012 A 
ATOM     85  C   UNL A   1      44.635  26.166  35.104  1.00  0.00     0.148 A 
ATOM     86  C   UNL A   1      46.991  27.683  35.300  1.00  0.00     0.002 A 
ATOM     87  C   UNL A   1      45.663  25.757  35.944  1.00  0.00     0.091 A 
ATOM     88  F   UNL A   1      43.510  25.449  34.964  1.00  0.00    -0.205 F 
ATOM     89  C   UNL A   1      46.845  26.510  36.036  1.00  0.00     0.022 A 
BRANCH  87  90
ATOM     90  S   UNL A   1      45.521  24.310  37.000  1.00  0.00     0.127 S 
ATOM     91  O   UNL A   1      44.614  24.789  38.041  1.00  0.00    -0.237 OA
ATOM     92  O   UNL A   1      44.941  23.317  36.094  1.00  0.00    -0.237 OA
ATOM     93  O   UNL A   1      46.875  24.003  37.439  1.00  0.00    -0.744 OA
ENDBRANCH  87  90
ENDBRANCH  60  83
ENDBRANCH  34  35
ENDBRANCH  26  29
ENDBRANCH  24  25
ENDBRANCH   1  24
TORSDOF 15
ENDMDL
