MODEL 1
REMARK VINA RESULT:     -12.5      0.000      0.000
REMARK SMILES O=C(NCCCCNC(=O)[C@]12C[NH2+]C[C@H]1CN(C(=O)c1ccccc1-n1cncn1)C2)c1ccc(-c2c3nc(c(-c4cccc(S(=O)(=O)[O-])c4F)c4ccc([nH]4)c(-c4cccc(S(=O)(=O)[O-])c4F)c4nc(c(-c5cccc(S(=O)(=O)[O-])c5F)c5ccc2[nH]5)C=C4)C=C3)cc1
REMARK SMILES IDX 5 1 4 2 3 3 1 4 2 5 32 7 33 8 94 9 34 10 93 11 35 12 36 13
REMARK SMILES IDX 37 14 87 15 38 16 92 17 86 18 88 19 39 20 91 21 85 22 84 23
REMARK SMILES IDX 40 25 72 26 52 27 71 28 53 29 56 30 70 31 89 32 54 33 55 34
REMARK SMILES IDX 69 36 90 37 57 38 41 39 42 40 50 41 43 42 45 43 51 44 44 45
REMARK SMILES IDX 46 46 47 47 48 48 49 49 73 50 74 51 82 52 75 53 77 54 83 55
REMARK SMILES IDX 76 56 78 57 79 58 80 59 81 60 58 61 59 62 67 63 60 64 62 65
REMARK SMILES IDX 68 66 61 67 63 68 64 69 65 70 66 71 6 72 7 73 8 74 9 75
REMARK SMILES IDX 10 77 11 78 12 79 15 80 31 81 13 82 14 83 16 84 17 85 18 88
REMARK SMILES IDX 19 89 20 90 21 91 25 92 22 93 24 94 23 95 26 96 27 97 30 98
REMARK SMILES IDX 28 99 29 100
REMARK H PARENT 3 6 88 24 56 35 8 76 13 86 13 87
REMARK Flexibility Score: inf
ROOT
ATOM      1  C   UNL A   1      33.156  29.689  27.231  1.00  0.00     0.023 C 
ENDROOT
BRANCH   1   2
ATOM      2  C   UNL A   1      33.873  31.040  27.319  1.00  0.00     0.116 C 
BRANCH   2   3
ATOM      3  N   UNL A   1      34.018  31.568  28.658  1.00  0.00    -0.352 N 
ATOM      4  O   UNL A   1      34.894  32.422  30.495  1.00  0.00    -0.269 OA
ATOM      5  C   UNL A   1      35.087  31.723  29.499  1.00  0.00     0.251 C 
ATOM      6  H   UNL A   1      33.169  31.880  29.047  1.00  0.00     0.163 HD
BRANCH   5   7
ATOM      7  C   UNL A   1      36.387  31.025  29.327  1.00  0.00     0.039 A 
ATOM      8  C   UNL A   1      36.544  29.645  29.194  1.00  0.00     0.014 A 
ATOM      9  C   UNL A   1      37.535  31.831  29.399  1.00  0.00     0.014 A 
ATOM     10  C   UNL A   1      37.792  29.062  29.321  1.00  0.00     0.010 A 
ATOM     11  C   UNL A   1      38.797  31.260  29.473  1.00  0.00     0.010 A 
ATOM     12  C   UNL A   1      38.909  29.873  29.500  1.00  0.00    -0.014 A 
BRANCH  12  13
ATOM     13  C   UNL A   1      40.206  29.219  29.549  1.00  0.00     0.031 A 
ATOM     14  C   UNL A   1      40.732  29.043  30.932  1.00  0.00     0.074 A 
ATOM     15  C   UNL A   1      40.803  28.719  28.449  1.00  0.00     0.049 A 
ATOM     16  N   UNL A   1      41.808  29.541  31.450  1.00  0.00    -0.248 NA
ATOM     17  C   UNL A   1      39.860  28.367  31.906  1.00  0.00     0.031 C 
ATOM     18  C   UNL A   1      40.240  28.606  27.101  1.00  0.00     0.029 A 
ATOM     19  N   UNL A   1      41.989  28.061  28.343  1.00  0.00    -0.354 N 
ATOM     20  C   UNL A   1      41.863  29.035  32.750  1.00  0.00     0.074 A 
ATOM     21  C   UNL A   1      40.559  28.503  33.032  1.00  0.00     0.031 C 
ATOM     22  C   UNL A   1      40.951  27.692  26.403  1.00  0.00     0.029 A 
ATOM     23  C   UNL A   1      42.082  27.263  27.207  1.00  0.00     0.049 A 
ATOM     24  H   UNL A   1      42.712  28.142  29.006  1.00  0.00     0.167 HD
ATOM     25  C   UNL A   1      43.050  28.851  33.391  1.00  0.00     0.034 A 
ATOM     26  C   UNL A   1      42.961  26.251  26.999  1.00  0.00     0.034 A 
ATOM     27  C   UNL A   1      44.102  29.622  32.780  1.00  0.00     0.049 A 
ATOM     28  C   UNL A   1      44.089  26.443  27.940  1.00  0.00     0.074 A 
ATOM     29  C   UNL A   1      44.332  30.962  32.547  1.00  0.00     0.029 A 
ATOM     30  N   UNL A   1      44.975  28.944  31.966  1.00  0.00    -0.354 N 
ATOM     31  N   UNL A   1      44.914  27.449  27.871  1.00  0.00    -0.248 NA
ATOM     32  C   UNL A   1      44.025  25.768  29.225  1.00  0.00     0.031 C 
ATOM     33  C   UNL A   1      44.973  31.007  31.274  1.00  0.00     0.029 A 
ATOM     34  C   UNL A   1      45.148  29.693  30.836  1.00  0.00     0.049 A 
ATOM     35  H   UNL A   1      45.400  28.077  32.162  1.00  0.00     0.167 HD
ATOM     36  C   UNL A   1      45.110  27.821  29.194  1.00  0.00     0.074 A 
ATOM     37  C   UNL A   1      44.624  26.690  29.983  1.00  0.00     0.031 C 
ATOM     38  C   UNL A   1      45.368  29.120  29.528  1.00  0.00     0.034 A 
BRANCH  25  39
ATOM     39  C   UNL A   1      43.370  27.671  34.292  1.00  0.00     0.023 A 
ATOM     40  C   UNL A   1      43.787  27.968  35.611  1.00  0.00     0.012 A 
ATOM     41  C   UNL A   1      43.583  26.347  33.843  1.00  0.00     0.148 A 
ATOM     42  C   UNL A   1      44.469  27.033  36.397  1.00  0.00     0.002 A 
ATOM     43  C   UNL A   1      44.201  25.400  34.653  1.00  0.00     0.091 A 
ATOM     44  F   UNL A   1      43.310  26.008  32.582  1.00  0.00    -0.205 F 
ATOM     45  C   UNL A   1      44.680  25.748  35.916  1.00  0.00     0.022 A 
BRANCH  43  46
ATOM     46  S   UNL A   1      44.471  23.713  34.094  1.00  0.00     0.127 S 
ATOM     47  O   UNL A   1      43.105  23.208  34.024  1.00  0.00    -0.237 OA
ATOM     48  O   UNL A   1      45.123  23.928  32.802  1.00  0.00    -0.237 OA
ATOM     49  O   UNL A   1      45.332  23.099  35.100  1.00  0.00    -0.744 OA
ENDBRANCH  43  46
ENDBRANCH  25  39
BRANCH  26  50
ATOM     50  C   UNL A   1      42.749  24.967  26.289  1.00  0.00     0.023 A 
ATOM     51  C   UNL A   1      43.685  24.529  25.330  1.00  0.00     0.012 A 
ATOM     52  C   UNL A   1      41.783  24.042  26.745  1.00  0.00     0.148 A 
ATOM     53  C   UNL A   1      43.672  23.210  24.860  1.00  0.00     0.002 A 
ATOM     54  C   UNL A   1      41.768  22.735  26.268  1.00  0.00     0.091 A 
ATOM     55  F   UNL A   1      40.942  24.416  27.717  1.00  0.00    -0.205 F 
ATOM     56  C   UNL A   1      42.719  22.311  25.333  1.00  0.00     0.022 A 
BRANCH  54  57
ATOM     57  S   UNL A   1      40.578  21.520  26.853  1.00  0.00     0.127 S 
ATOM     58  O   UNL A   1      40.979  20.325  26.107  1.00  0.00    -0.237 OA
ATOM     59  O   UNL A   1      40.876  21.472  28.286  1.00  0.00    -0.237 OA
ATOM     60  O   UNL A   1      39.269  22.038  26.497  1.00  0.00    -0.744 OA
ENDBRANCH  54  57
ENDBRANCH  26  50
BRANCH  38  61
ATOM     61  C   UNL A   1      45.656  30.093  28.413  1.00  0.00     0.023 A 
ATOM     62  C   UNL A   1      44.633  30.790  27.735  1.00  0.00     0.012 A 
ATOM     63  C   UNL A   1      46.994  30.442  28.168  1.00  0.00     0.148 A 
ATOM     64  C   UNL A   1      44.940  31.795  26.813  1.00  0.00     0.002 A 
ATOM     65  C   UNL A   1      47.293  31.471  27.286  1.00  0.00     0.091 A 
ATOM     66  F   UNL A   1      47.952  29.778  28.831  1.00  0.00    -0.205 F 
ATOM     67  C   UNL A   1      46.271  32.145  26.597  1.00  0.00     0.022 A 
BRANCH  65  68
ATOM     68  S   UNL A   1      48.975  32.053  27.060  1.00  0.00     0.127 S 
ATOM     69  O   UNL A   1      48.794  33.146  26.106  1.00  0.00    -0.237 OA
ATOM     70  O   UNL A   1      49.342  32.476  28.413  1.00  0.00    -0.237 OA
ATOM     71  O   UNL A   1      49.733  30.910  26.568  1.00  0.00    -0.744 OA
ENDBRANCH  65  68
ENDBRANCH  38  61
ENDBRANCH  12  13
ENDBRANCH   5   7
ENDBRANCH   2   3
ENDBRANCH   1   2
BRANCH   1  72
ATOM     72  C   UNL A   1      34.059  28.497  26.934  1.00  0.00     0.023 C 
BRANCH  72  73
ATOM     73  C   UNL A   1      33.311  27.266  26.482  1.00  0.00     0.116 C 
BRANCH  73  74
ATOM     74  N   UNL A   1      31.925  27.551  26.154  1.00  0.00    -0.355 N 
ATOM     75  C   UNL A   1      31.396  27.479  24.887  1.00  0.00     0.234 C 
ATOM     76  H   UNL A   1      31.323  27.812  26.888  1.00  0.00     0.163 HD
ATOM     77  O   UNL A   1      30.178  27.463  24.726  1.00  0.00    -0.274 OA
BRANCH  75  78
ATOM     78  C   UNL A   1      32.465  27.365  23.781  1.00  0.00     0.125 C 
ATOM     79  C   UNL A   1      32.381  28.944  23.677  1.00  0.00     0.280 C 
ATOM     80  C   UNL A   1      33.025  27.343  22.324  1.00  0.00     0.087 C 
ATOM     81  C   UNL A   1      31.654  26.020  23.399  1.00  0.00     0.143 C 
ATOM     82  N   UNL A   1      33.656  29.434  23.115  1.00  0.00    -0.345 N 
ATOM     83  C   UNL A   1      34.049  28.438  22.142  1.00  0.00     0.267 C 
ATOM     84  C   UNL A   1      33.625  25.960  22.137  1.00  0.00     0.130 C 
ATOM     85  N   UNL A   1      32.686  25.138  22.846  1.00  0.00    -0.337 N 
ATOM     86  H   UNL A   1      34.362  29.517  23.847  1.00  0.00     0.346 HD
ATOM     87  H   UNL A   1      33.559  30.360  22.696  1.00  0.00     0.346 HD
BRANCH  85  88
ATOM     88  C   UNL A   1      32.979  23.810  23.115  1.00  0.00     0.256 C 
ATOM     89  O   UNL A   1      32.486  22.889  22.469  1.00  0.00    -0.269 OA
BRANCH  88  90
ATOM     90  C   UNL A   1      33.921  23.446  24.206  1.00  0.00     0.065 A 
ATOM     91  C   UNL A   1      35.278  23.336  23.849  1.00  0.00     0.016 A 
ATOM     92  C   UNL A   1      33.550  23.234  25.542  1.00  0.00     0.079 A 
ATOM     93  C   UNL A   1      36.252  23.057  24.813  1.00  0.00     0.001 A 
ATOM     94  C   UNL A   1      34.540  23.005  26.516  1.00  0.00     0.029 A 
ATOM     95  C   UNL A   1      35.883  22.903  26.147  1.00  0.00     0.002 A 
BRANCH  92  96
ATOM     96  N   UNL A   1      32.202  23.242  25.957  1.00  0.00    -0.220 N 
ATOM     97  C   UNL A   1      31.533  24.140  26.754  1.00  0.00     0.225 A 
ATOM     98  N   UNL A   1      31.366  22.223  25.640  1.00  0.00    -0.155 NA
ATOM     99  N   UNL A   1      30.359  23.660  27.096  1.00  0.00    -0.223 NA
ATOM    100  C   UNL A   1      30.316  22.476  26.423  1.00  0.00     0.246 A 
ENDBRANCH  92  96
ENDBRANCH  88  90
ENDBRANCH  85  88
ENDBRANCH  75  78
ENDBRANCH  73  74
ENDBRANCH  72  73
ENDBRANCH   1  72
TORSDOF 17
ENDMDL
MODEL 2
REMARK VINA RESULT:     -12.3      1.849      2.203
REMARK SMILES O=C(NCCCCNC(=O)[C@]12C[NH2+]C[C@H]1CN(C(=O)c1ccccc1-n1cncn1)C2)c1ccc(-c2c3nc(c(-c4cccc(S(=O)(=O)[O-])c4F)c4ccc([nH]4)c(-c4cccc(S(=O)(=O)[O-])c4F)c4nc(c(-c5cccc(S(=O)(=O)[O-])c5F)c5ccc2[nH]5)C=C4)C=C3)cc1
REMARK SMILES IDX 5 1 4 2 3 3 1 4 2 5 32 7 33 8 94 9 34 10 93 11 35 12 36 13
REMARK SMILES IDX 37 14 87 15 38 16 92 17 86 18 88 19 39 20 91 21 85 22 84 23
REMARK SMILES IDX 40 25 72 26 52 27 71 28 53 29 56 30 70 31 89 32 54 33 55 34
REMARK SMILES IDX 69 36 90 37 57 38 41 39 42 40 50 41 43 42 45 43 51 44 44 45
REMARK SMILES IDX 46 46 47 47 48 48 49 49 73 50 74 51 82 52 75 53 77 54 83 55
REMARK SMILES IDX 76 56 78 57 79 58 80 59 81 60 58 61 59 62 67 63 60 64 62 65
REMARK SMILES IDX 68 66 61 67 63 68 64 69 65 70 66 71 6 72 7 73 8 74 9 75
REMARK SMILES IDX 10 77 11 78 12 79 15 80 31 81 13 82 14 83 16 84 17 85 18 88
REMARK SMILES IDX 19 89 20 90 21 91 25 92 22 93 24 94 23 95 26 96 27 97 30 98
REMARK SMILES IDX 28 99 29 100
REMARK H PARENT 3 6 88 24 56 35 8 76 13 86 13 87
REMARK Flexibility Score: inf
ROOT
ATOM      1  C   UNL A   1      34.282  29.097  27.544  1.00  0.00     0.023 C 
ENDROOT
BRANCH   1   2
ATOM      2  C   UNL A   1      34.663  30.580  27.466  1.00  0.00     0.116 C 
BRANCH   2   3
ATOM      3  N   UNL A   1      34.769  31.251  28.743  1.00  0.00    -0.352 N 
ATOM      4  O   UNL A   1      35.594  32.280  30.512  1.00  0.00    -0.269 OA
ATOM      5  C   UNL A   1      35.805  31.466  29.611  1.00  0.00     0.251 C 
ATOM      6  H   UNL A   1      33.916  31.633  29.053  1.00  0.00     0.163 HD
BRANCH   5   7
ATOM      7  C   UNL A   1      37.084  30.712  29.581  1.00  0.00     0.039 A 
ATOM      8  C   UNL A   1      37.196  29.322  29.641  1.00  0.00     0.014 A 
ATOM      9  C   UNL A   1      38.257  31.483  29.586  1.00  0.00     0.014 A 
ATOM     10  C   UNL A   1      38.418  28.723  29.889  1.00  0.00     0.010 A 
ATOM     11  C   UNL A   1      39.495  30.889  29.781  1.00  0.00     0.010 A 
ATOM     12  C   UNL A   1      39.557  29.516  29.998  1.00  0.00    -0.014 A 
BRANCH  12  13
ATOM     13  C   UNL A   1      40.828  28.835  30.181  1.00  0.00     0.031 A 
ATOM     14  C   UNL A   1      41.248  28.733  31.607  1.00  0.00     0.074 A 
ATOM     15  C   UNL A   1      41.486  28.252  29.160  1.00  0.00     0.049 A 
ATOM     16  N   UNL A   1      42.299  29.236  32.170  1.00  0.00    -0.248 NA
ATOM     17  C   UNL A   1      40.290  28.141  32.553  1.00  0.00     0.031 C 
ATOM     18  C   UNL A   1      41.018  28.069  27.784  1.00  0.00     0.029 A 
ATOM     19  N   UNL A   1      42.658  27.560  29.181  1.00  0.00    -0.354 N 
ATOM     20  C   UNL A   1      42.247  28.811  33.499  1.00  0.00     0.074 A 
ATOM     21  C   UNL A   1      40.911  28.330  33.717  1.00  0.00     0.031 C 
ATOM     22  C   UNL A   1      41.750  27.096  27.196  1.00  0.00     0.029 A 
ATOM     23  C   UNL A   1      42.808  26.690  28.104  1.00  0.00     0.049 A 
ATOM     24  H   UNL A   1      43.334  27.665  29.888  1.00  0.00     0.167 HD
ATOM     25  C   UNL A   1      43.379  28.639  34.235  1.00  0.00     0.034 A 
ATOM     26  C   UNL A   1      43.670  25.646  28.023  1.00  0.00     0.034 A 
ATOM     27  C   UNL A   1      44.494  29.344  33.656  1.00  0.00     0.049 A 
ATOM     28  C   UNL A   1      44.733  25.869  29.030  1.00  0.00     0.074 A 
ATOM     29  C   UNL A   1      44.779  30.661  33.360  1.00  0.00     0.029 A 
ATOM     30  N   UNL A   1      45.403  28.595  32.951  1.00  0.00    -0.354 N 
ATOM     31  N   UNL A   1      45.590  26.848  28.961  1.00  0.00    -0.248 NA
ATOM     32  C   UNL A   1      44.558  25.277  30.346  1.00  0.00     0.031 C 
ATOM     33  C   UNL A   1      45.510  30.610  32.136  1.00  0.00     0.029 A 
ATOM     34  C   UNL A   1      45.677  29.268  31.793  1.00  0.00     0.049 A 
ATOM     35  H   UNL A   1      45.788  27.732  33.229  1.00  0.00     0.167 HD
ATOM     36  C   UNL A   1      45.702  27.298  30.269  1.00  0.00     0.074 A 
ATOM     37  C   UNL A   1      45.129  26.230  31.089  1.00  0.00     0.031 C 
ATOM     38  C   UNL A   1      45.973  28.608  30.541  1.00  0.00     0.034 A 
BRANCH  25  39
ATOM     39  C   UNL A   1      43.600  27.510  35.227  1.00  0.00     0.023 A 
ATOM     40  C   UNL A   1      44.014  27.876  36.530  1.00  0.00     0.012 A 
ATOM     41  C   UNL A   1      43.728  26.145  34.881  1.00  0.00     0.148 A 
ATOM     42  C   UNL A   1      44.615  26.957  37.397  1.00  0.00     0.002 A 
ATOM     43  C   UNL A   1      44.264  25.221  35.771  1.00  0.00     0.091 A 
ATOM     44  F   UNL A   1      43.454  25.732  33.642  1.00  0.00    -0.205 F 
ATOM     45  C   UNL A   1      44.744  25.629  37.016  1.00  0.00     0.022 A 
BRANCH  43  46
ATOM     46  S   UNL A   1      44.425  23.482  35.344  1.00  0.00     0.127 S 
ATOM     47  O   UNL A   1      44.985  22.932  36.573  1.00  0.00    -0.237 OA
ATOM     48  O   UNL A   1      43.037  23.112  35.071  1.00  0.00    -0.237 OA
ATOM     49  O   UNL A   1      45.293  23.446  34.171  1.00  0.00    -0.744 OA
ENDBRANCH  43  46
ENDBRANCH  25  39
BRANCH  26  50
ATOM     50  C   UNL A   1      43.472  24.325  27.379  1.00  0.00     0.023 A 
ATOM     51  C   UNL A   1      42.213  23.694  27.437  1.00  0.00     0.012 A 
ATOM     52  C   UNL A   1      44.431  23.814  26.475  1.00  0.00     0.148 A 
ATOM     53  C   UNL A   1      41.913  22.606  26.608  1.00  0.00     0.002 A 
ATOM     54  C   UNL A   1      44.131  22.727  25.660  1.00  0.00     0.091 A 
ATOM     55  F   UNL A   1      45.600  24.454  26.344  1.00  0.00    -0.205 F 
ATOM     56  C   UNL A   1      42.868  22.126  25.715  1.00  0.00     0.022 A 
BRANCH  54  57
ATOM     57  S   UNL A   1      45.311  22.072  24.470  1.00  0.00     0.127 S 
ATOM     58  O   UNL A   1      44.497  21.090  23.751  1.00  0.00    -0.237 OA
ATOM     59  O   UNL A   1      45.650  23.267  23.695  1.00  0.00    -0.237 OA
ATOM     60  O   UNL A   1      46.391  21.499  25.252  1.00  0.00    -0.744 OA
ENDBRANCH  54  57
ENDBRANCH  26  50
BRANCH  38  61
ATOM     61  C   UNL A   1      46.368  29.502  29.394  1.00  0.00     0.023 A 
ATOM     62  C   UNL A   1      47.674  29.511  28.857  1.00  0.00     0.012 A 
ATOM     63  C   UNL A   1      45.357  30.216  28.731  1.00  0.00     0.148 A 
ATOM     64  C   UNL A   1      47.967  30.237  27.699  1.00  0.00     0.002 A 
ATOM     65  C   UNL A   1      45.642  30.898  27.556  1.00  0.00     0.091 A 
ATOM     66  F   UNL A   1      44.119  30.185  29.249  1.00  0.00    -0.205 F 
ATOM     67  C   UNL A   1      46.949  30.921  27.041  1.00  0.00     0.022 A 
BRANCH  65  68
ATOM     68  S   UNL A   1      44.352  31.691  26.595  1.00  0.00     0.127 S 
ATOM     69  O   UNL A   1      43.899  32.743  27.503  1.00  0.00    -0.237 OA
ATOM     70  O   UNL A   1      45.087  32.169  25.422  1.00  0.00    -0.237 OA
ATOM     71  O   UNL A   1      43.374  30.651  26.301  1.00  0.00    -0.744 OA
ENDBRANCH  65  68
ENDBRANCH  38  61
ENDBRANCH  12  13
ENDBRANCH   5   7
ENDBRANCH   2   3
ENDBRANCH   1   2
BRANCH   1  72
ATOM     72  C   UNL A   1      32.804  28.798  27.321  1.00  0.00     0.023 C 
BRANCH  72  73
ATOM     73  C   UNL A   1      32.550  27.485  26.620  1.00  0.00     0.116 C 
BRANCH  73  74
ATOM     74  N   UNL A   1      31.205  27.397  26.080  1.00  0.00    -0.355 N 
ATOM     75  C   UNL A   1      30.913  27.136  24.762  1.00  0.00     0.234 C 
ATOM     76  H   UNL A   1      30.451  27.532  26.699  1.00  0.00     0.163 HD
ATOM     77  O   UNL A   1      29.775  26.807  24.435  1.00  0.00    -0.274 OA
BRANCH  75  78
ATOM     78  C   UNL A   1      32.136  27.243  23.829  1.00  0.00     0.125 C 
ATOM     79  C   UNL A   1      31.861  28.804  23.813  1.00  0.00     0.280 C 
ATOM     80  C   UNL A   1      32.899  27.409  22.477  1.00  0.00     0.087 C 
ATOM     81  C   UNL A   1      31.573  25.846  23.243  1.00  0.00     0.143 C 
ATOM     82  N   UNL A   1      33.128  29.489  23.486  1.00  0.00    -0.345 N 
ATOM     83  C   UNL A   1      33.785  28.631  22.524  1.00  0.00     0.267 C 
ATOM     84  C   UNL A   1      33.697  26.128  22.298  1.00  0.00     0.130 C 
ATOM     85  N   UNL A   1      32.782  25.144  22.801  1.00  0.00    -0.337 N 
ATOM     86  H   UNL A   1      33.703  29.596  24.322  1.00  0.00     0.346 HD
ATOM     87  H   UNL A   1      32.971  30.427  23.116  1.00  0.00     0.346 HD
BRANCH  85  88
ATOM     88  C   UNL A   1      33.206  23.844  23.028  1.00  0.00     0.256 C 
ATOM     89  O   UNL A   1      32.777  22.894  22.376  1.00  0.00    -0.269 OA
BRANCH  88  90
ATOM     90  C   UNL A   1      34.214  23.545  24.079  1.00  0.00     0.065 A 
ATOM     91  C   UNL A   1      35.563  23.572  23.677  1.00  0.00     0.016 A 
ATOM     92  C   UNL A   1      33.909  23.269  25.420  1.00  0.00     0.079 A 
ATOM     93  C   UNL A   1      36.590  23.365  24.602  1.00  0.00     0.001 A 
ATOM     94  C   UNL A   1      34.949  23.113  26.357  1.00  0.00     0.029 A 
ATOM     95  C   UNL A   1      36.282  23.147  25.943  1.00  0.00     0.002 A 
BRANCH  92  96
ATOM     96  N   UNL A   1      32.581  23.141  25.878  1.00  0.00    -0.220 N 
ATOM     97  C   UNL A   1      31.701  22.094  25.740  1.00  0.00     0.225 A 
ATOM     98  N   UNL A   1      31.954  24.169  26.499  1.00  0.00    -0.155 NA
ATOM     99  N   UNL A   1      30.493  22.465  26.096  1.00  0.00    -0.223 NA
ATOM    100  C   UNL A   1      30.688  23.746  26.517  1.00  0.00     0.246 A 
ENDBRANCH  92  96
ENDBRANCH  88  90
ENDBRANCH  85  88
ENDBRANCH  75  78
ENDBRANCH  73  74
ENDBRANCH  72  73
ENDBRANCH   1  72
TORSDOF 17
ENDMDL
MODEL 3
REMARK VINA RESULT:     -12.2      1.815      2.373
REMARK SMILES O=C(NCCCCNC(=O)[C@]12C[NH2+]C[C@H]1CN(C(=O)c1ccccc1-n1cncn1)C2)c1ccc(-c2c3nc(c(-c4cccc(S(=O)(=O)[O-])c4F)c4ccc([nH]4)c(-c4cccc(S(=O)(=O)[O-])c4F)c4nc(c(-c5cccc(S(=O)(=O)[O-])c5F)c5ccc2[nH]5)C=C4)C=C3)cc1
REMARK SMILES IDX 5 1 4 2 3 3 1 4 2 5 32 7 33 8 94 9 34 10 93 11 35 12 36 13
REMARK SMILES IDX 37 14 87 15 38 16 92 17 86 18 88 19 39 20 91 21 85 22 84 23
REMARK SMILES IDX 40 25 72 26 52 27 71 28 53 29 56 30 70 31 89 32 54 33 55 34
REMARK SMILES IDX 69 36 90 37 57 38 41 39 42 40 50 41 43 42 45 43 51 44 44 45
REMARK SMILES IDX 46 46 47 47 48 48 49 49 73 50 74 51 82 52 75 53 77 54 83 55
REMARK SMILES IDX 76 56 78 57 79 58 80 59 81 60 58 61 59 62 67 63 60 64 62 65
REMARK SMILES IDX 68 66 61 67 63 68 64 69 65 70 66 71 6 72 7 73 8 74 9 75
REMARK SMILES IDX 10 77 11 78 12 79 15 80 31 81 13 82 14 83 16 84 17 85 18 88
REMARK SMILES IDX 19 89 20 90 21 91 25 92 22 93 24 94 23 95 26 96 27 97 30 98
REMARK SMILES IDX 28 99 29 100
REMARK H PARENT 3 6 88 24 56 35 8 76 13 86 13 87
REMARK Flexibility Score: inf
ROOT
ATOM      1  C   UNL A   1      34.103  29.308  27.203  1.00  0.00     0.023 C 
ENDROOT
BRANCH   1   2
ATOM      2  C   UNL A   1      34.518  30.782  27.254  1.00  0.00     0.116 C 
BRANCH   2   3
ATOM      3  N   UNL A   1      34.609  31.345  28.583  1.00  0.00    -0.352 N 
ATOM      4  O   UNL A   1      35.413  32.225  30.441  1.00  0.00    -0.269 OA
ATOM      5  C   UNL A   1      35.635  31.491  29.476  1.00  0.00     0.251 C 
ATOM      6  H   UNL A   1      33.751  31.696  28.916  1.00  0.00     0.163 HD
BRANCH   5   7
ATOM      7  C   UNL A   1      36.919  30.747  29.396  1.00  0.00     0.039 A 
ATOM      8  C   UNL A   1      37.036  29.360  29.295  1.00  0.00     0.014 A 
ATOM      9  C   UNL A   1      38.088  31.515  29.525  1.00  0.00     0.014 A 
ATOM     10  C   UNL A   1      38.253  28.738  29.508  1.00  0.00     0.010 A 
ATOM     11  C   UNL A   1      39.322  30.903  29.686  1.00  0.00     0.010 A 
ATOM     12  C   UNL A   1      39.384  29.514  29.742  1.00  0.00    -0.014 A 
BRANCH  12  13
ATOM     13  C   UNL A   1      40.653  28.818  29.880  1.00  0.00     0.031 A 
ATOM     14  C   UNL A   1      41.054  28.589  31.297  1.00  0.00     0.074 A 
ATOM     15  C   UNL A   1      41.325  28.328  28.820  1.00  0.00     0.049 A 
ATOM     16  N   UNL A   1      42.097  29.039  31.917  1.00  0.00    -0.248 NA
ATOM     17  C   UNL A   1      40.083  27.916  32.174  1.00  0.00     0.031 C 
ATOM     18  C   UNL A   1      40.876  28.268  27.427  1.00  0.00     0.029 A 
ATOM     19  N   UNL A   1      42.496  27.635  28.795  1.00  0.00    -0.354 N 
ATOM     20  C   UNL A   1      42.027  28.497  33.202  1.00  0.00     0.074 A 
ATOM     21  C   UNL A   1      40.688  28.000  33.358  1.00  0.00     0.031 C 
ATOM     22  C   UNL A   1      41.616  27.351  26.765  1.00  0.00     0.029 A 
ATOM     23  C   UNL A   1      42.661  26.864  27.648  1.00  0.00     0.049 A 
ATOM     24  H   UNL A   1      43.163  27.676  29.518  1.00  0.00     0.167 HD
ATOM     25  C   UNL A   1      43.149  28.259  33.935  1.00  0.00     0.034 A 
ATOM     26  C   UNL A   1      43.525  25.830  27.486  1.00  0.00     0.034 A 
ATOM     27  C   UNL A   1      44.271  29.012  33.436  1.00  0.00     0.049 A 
ATOM     28  C   UNL A   1      44.574  25.962  28.523  1.00  0.00     0.074 A 
ATOM     29  C   UNL A   1      44.560  30.349  33.262  1.00  0.00     0.029 A 
ATOM     30  N   UNL A   1      45.190  28.327  32.679  1.00  0.00    -0.354 N 
ATOM     31  N   UNL A   1      45.431  26.942  28.553  1.00  0.00    -0.248 NA
ATOM     32  C   UNL A   1      44.381  25.256  29.779  1.00  0.00     0.031 C 
ATOM     33  C   UNL A   1      45.308  30.407  32.049  1.00  0.00     0.029 A 
ATOM     34  C   UNL A   1      45.480  29.100  31.590  1.00  0.00     0.049 A 
ATOM     35  H   UNL A   1      45.571  27.443  32.885  1.00  0.00     0.167 HD
ATOM     36  C   UNL A   1      45.525  27.274  29.897  1.00  0.00     0.074 A 
ATOM     37  C   UNL A   1      44.941  26.138  30.611  1.00  0.00     0.031 C 
ATOM     38  C   UNL A   1      45.793  28.555  30.289  1.00  0.00     0.034 A 
BRANCH  25  39
ATOM     39  C   UNL A   1      43.356  27.046  34.826  1.00  0.00     0.023 A 
ATOM     40  C   UNL A   1      43.550  27.292  36.206  1.00  0.00     0.012 A 
ATOM     41  C   UNL A   1      43.677  25.749  34.361  1.00  0.00     0.148 A 
ATOM     42  C   UNL A   1      44.126  26.337  37.050  1.00  0.00     0.002 A 
ATOM     43  C   UNL A   1      44.185  24.780  35.219  1.00  0.00     0.091 A 
ATOM     44  F   UNL A   1      43.617  25.462  33.060  1.00  0.00    -0.205 F 
ATOM     45  C   UNL A   1      44.448  25.081  36.556  1.00  0.00     0.022 A 
BRANCH  43  46
ATOM     46  S   UNL A   1      44.590  23.127  34.640  1.00  0.00     0.127 S 
ATOM     47  O   UNL A   1      45.732  23.394  33.773  1.00  0.00    -0.237 OA
ATOM     48  O   UNL A   1      44.905  22.441  35.893  1.00  0.00    -0.237 OA
ATOM     49  O   UNL A   1      43.384  22.636  33.980  1.00  0.00    -0.744 OA
ENDBRANCH  43  46
ENDBRANCH  25  39
BRANCH  26  50
ATOM     50  C   UNL A   1      43.336  24.573  26.724  1.00  0.00     0.023 A 
ATOM     51  C   UNL A   1      44.380  24.071  25.921  1.00  0.00     0.012 A 
ATOM     52  C   UNL A   1      42.240  23.723  26.997  1.00  0.00     0.148 A 
ATOM     53  C   UNL A   1      44.345  22.761  25.428  1.00  0.00     0.002 A 
ATOM     54  C   UNL A   1      42.205  22.425  26.497  1.00  0.00     0.091 A 
ATOM     55  F   UNL A   1      41.281  24.153  27.827  1.00  0.00    -0.205 F 
ATOM     56  C   UNL A   1      43.261  21.936  25.720  1.00  0.00     0.022 A 
BRANCH  54  57
ATOM     57  S   UNL A   1      40.846  21.302  26.854  1.00  0.00     0.127 S 
ATOM     58  O   UNL A   1      39.717  21.986  26.220  1.00  0.00    -0.237 OA
ATOM     59  O   UNL A   1      41.279  20.080  26.172  1.00  0.00    -0.237 OA
ATOM     60  O   UNL A   1      40.763  21.221  28.301  1.00  0.00    -0.744 OA
ENDBRANCH  54  57
ENDBRANCH  26  50
BRANCH  38  61
ATOM     61  C   UNL A   1      46.203  29.547  29.231  1.00  0.00     0.023 A 
ATOM     62  C   UNL A   1      47.529  29.638  28.753  1.00  0.00     0.012 A 
ATOM     63  C   UNL A   1      45.196  30.277  28.582  1.00  0.00     0.148 A 
ATOM     64  C   UNL A   1      47.844  30.461  27.669  1.00  0.00     0.002 A 
ATOM     65  C   UNL A   1      45.505  31.057  27.475  1.00  0.00     0.091 A 
ATOM     66  F   UNL A   1      43.940  30.168  29.041  1.00  0.00    -0.205 F 
ATOM     67  C   UNL A   1      46.830  31.161  27.021  1.00  0.00     0.022 A 
BRANCH  65  68
ATOM     68  S   UNL A   1      44.229  31.882  26.522  1.00  0.00     0.127 S 
ATOM     69  O   UNL A   1      43.307  30.785  26.235  1.00  0.00    -0.237 OA
ATOM     70  O   UNL A   1      43.723  32.874  27.472  1.00  0.00    -0.237 OA
ATOM     71  O   UNL A   1      44.901  32.457  25.364  1.00  0.00    -0.744 OA
ENDBRANCH  65  68
ENDBRANCH  38  61
ENDBRANCH  12  13
ENDBRANCH   5   7
ENDBRANCH   2   3
ENDBRANCH   1   2
BRANCH   1  72
ATOM     72  C   UNL A   1      33.997  28.716  25.802  1.00  0.00     0.023 C 
BRANCH  72  73
ATOM     73  C   UNL A   1      33.916  27.208  25.786  1.00  0.00     0.116 C 
BRANCH  73  74
ATOM     74  N   UNL A   1      32.795  26.706  26.560  1.00  0.00    -0.355 N 
ATOM     75  C   UNL A   1      31.691  26.089  26.019  1.00  0.00     0.234 C 
ATOM     76  H   UNL A   1      32.827  26.813  27.538  1.00  0.00     0.163 HD
ATOM     77  O   UNL A   1      30.924  25.453  26.739  1.00  0.00    -0.274 OA
BRANCH  75  78
ATOM     78  C   UNL A   1      31.592  26.240  24.488  1.00  0.00     0.125 C 
ATOM     79  C   UNL A   1      30.628  27.466  24.773  1.00  0.00     0.280 C 
ATOM     80  C   UNL A   1      30.943  26.117  23.074  1.00  0.00     0.087 C 
ATOM     81  C   UNL A   1      31.637  24.625  24.515  1.00  0.00     0.143 C 
ATOM     82  N   UNL A   1      30.669  28.363  23.600  1.00  0.00    -0.345 N 
ATOM     83  C   UNL A   1      30.774  27.485  22.455  1.00  0.00     0.267 C 
ATOM     84  C   UNL A   1      31.883  25.235  22.268  1.00  0.00     0.130 C 
ATOM     85  N   UNL A   1      32.295  24.276  23.252  1.00  0.00    -0.337 N 
ATOM     86  H   UNL A   1      31.478  28.983  23.651  1.00  0.00     0.346 HD
ATOM     87  H   UNL A   1      29.844  28.962  23.547  1.00  0.00     0.346 HD
BRANCH  85  88
ATOM     88  C   UNL A   1      33.342  23.406  22.989  1.00  0.00     0.256 C 
ATOM     89  O   UNL A   1      34.272  23.711  22.246  1.00  0.00    -0.269 OA
BRANCH  88  90
ATOM     90  C   UNL A   1      33.383  22.055  23.609  1.00  0.00     0.065 A 
ATOM     91  C   UNL A   1      32.348  21.171  23.250  1.00  0.00     0.016 A 
ATOM     92  C   UNL A   1      34.382  21.613  24.489  1.00  0.00     0.079 A 
ATOM     93  C   UNL A   1      32.330  19.858  23.731  1.00  0.00     0.001 A 
ATOM     94  C   UNL A   1      34.386  20.275  24.927  1.00  0.00     0.029 A 
ATOM     95  C   UNL A   1      33.355  19.409  24.560  1.00  0.00     0.002 A 
BRANCH  92  96
ATOM     96  N   UNL A   1      35.401  22.467  24.960  1.00  0.00    -0.220 N 
ATOM     97  C   UNL A   1      35.393  23.344  26.018  1.00  0.00     0.225 A 
ATOM     98  N   UNL A   1      36.583  22.573  24.305  1.00  0.00    -0.155 NA
ATOM     99  N   UNL A   1      36.450  24.122  25.973  1.00  0.00    -0.223 NA
ATOM    100  C   UNL A   1      37.127  23.639  24.894  1.00  0.00     0.246 A 
ENDBRANCH  92  96
ENDBRANCH  88  90
ENDBRANCH  85  88
ENDBRANCH  75  78
ENDBRANCH  73  74
ENDBRANCH  72  73
ENDBRANCH   1  72
TORSDOF 17
ENDMDL
