MODEL 1
REMARK VINA RESULT:     -11.0      0.000      0.000
REMARK SMILES O=C(COCCNC(=O)Nc1cccc(F)c1)NCCCCNC(=O)c1ccc(-c2c3nc(c(-c4cccc(S(=O)(=O)[O-])c4F)c4ccc([nH]4)c(-c4cccc(S(=O)(=O)[O-])c4F)c4nc(c(-c5cccc(S(=O)(=O)[O-])c5F)c5ccc2[nH]5)C=C4)C=C3)cc1
REMARK SMILES IDX 19 1 18 2 1 3 2 4 3 6 4 7 5 8 6 9 7 10 8 11 9 13 10 14 11 16
REMARK SMILES IDX 12 17 17 18 13 19 15 20 14 21 16 22 20 23 21 24 22 25 23 26
REMARK SMILES IDX 24 27 25 29 26 30 27 31 88 32 28 33 87 34 29 35 30 36 31 37
REMARK SMILES IDX 81 38 32 39 86 40 80 41 82 42 33 43 85 44 79 45 78 46 34 48
REMARK SMILES IDX 66 49 46 50 65 51 47 52 50 53 64 54 83 55 48 56 49 57 63 59
REMARK SMILES IDX 84 60 51 61 35 62 36 63 44 64 37 65 39 66 45 67 38 68 40 69
REMARK SMILES IDX 41 70 42 71 43 72 67 73 68 74 76 75 69 76 71 77 77 78 70 79
REMARK SMILES IDX 72 80 73 81 74 82 75 83 52 84 53 85 61 86 54 87 56 88 62 89
REMARK SMILES IDX 55 90 57 91 58 92 59 93 60 94
REMARK H PARENT 18 5 7 12 10 15 23 28 82 47 50 58
REMARK Flexibility Score: inf
ROOT
ATOM      1  C   UNL A   1      33.246  21.893  27.420  1.00  0.00     0.116 C 
ENDROOT
BRANCH   1   2
ATOM      2  N   UNL A   1      32.525  22.435  26.294  1.00  0.00    -0.354 N 
ATOM      3  O   UNL A   1      31.357  24.028  27.477  1.00  0.00    -0.272 OA
ATOM      4  C   UNL A   1      31.632  23.478  26.417  1.00  0.00     0.245 C 
ATOM      5  H   UNL A   1      32.676  22.044  25.403  1.00  0.00     0.163 HD
BRANCH   4   6
ATOM      6  C   UNL A   1      31.000  23.885  25.083  1.00  0.00     0.260 C 
BRANCH   6   7
ATOM      7  O   UNL A   1      30.558  25.230  24.986  1.00  0.00    -0.370 OA
BRANCH   7   8
ATOM      8  C   UNL A   1      29.914  25.579  23.762  1.00  0.00     0.182 C 
BRANCH   8   9
ATOM      9  C   UNL A   1      30.682  26.567  22.884  1.00  0.00     0.146 C 
BRANCH   9  10
ATOM     10  N   UNL A   1      31.486  25.991  21.806  1.00  0.00    -0.336 N 
ATOM     11  C   UNL A   1      32.780  26.082  21.437  1.00  0.00     0.319 C 
ATOM     12  H   UNL A   1      30.963  25.403  21.214  1.00  0.00     0.165 HD
ATOM     13  O   UNL A   1      33.112  25.607  20.349  1.00  0.00    -0.249 OA
ATOM     14  N   UNL A   1      33.707  26.751  22.156  1.00  0.00    -0.308 N 
ATOM     15  H   UNL A   1      34.476  27.073  21.631  1.00  0.00     0.171 HD
BRANCH  14  16
ATOM     16  C   UNL A   1      33.765  27.064  23.515  1.00  0.00     0.045 A 
ATOM     17  C   UNL A   1      33.955  26.084  24.497  1.00  0.00     0.026 A 
ATOM     18  C   UNL A   1      33.559  28.391  23.882  1.00  0.00     0.065 A 
ATOM     19  C   UNL A   1      33.763  26.401  25.843  1.00  0.00     0.005 A 
ATOM     20  C   UNL A   1      33.362  28.692  25.224  1.00  0.00     0.125 A 
ATOM     21  C   UNL A   1      33.432  27.705  26.202  1.00  0.00     0.039 A 
ATOM     22  F   UNL A   1      33.046  29.945  25.573  1.00  0.00    -0.207 F 
ENDBRANCH  14  16
ENDBRANCH   9  10
ENDBRANCH   8   9
ENDBRANCH   7   8
ENDBRANCH   6   7
ENDBRANCH   4   6
ENDBRANCH   1   2
BRANCH   1  23
ATOM     23  C   UNL A   1      34.730  21.728  27.108  1.00  0.00     0.023 C 
BRANCH  23  24
ATOM     24  C   UNL A   1      35.039  21.462  25.631  1.00  0.00     0.023 C 
BRANCH  24  25
ATOM     25  C   UNL A   1      36.442  21.853  25.179  1.00  0.00     0.116 C 
BRANCH  25  26
ATOM     26  N   UNL A   1      37.418  20.801  25.412  1.00  0.00    -0.352 N 
ATOM     27  C   UNL A   1      38.718  20.901  25.850  1.00  0.00     0.251 C 
ATOM     28  H   UNL A   1      37.103  19.886  25.231  1.00  0.00     0.163 HD
ATOM     29  O   UNL A   1      39.445  19.915  25.832  1.00  0.00    -0.269 OA
BRANCH  27  30
ATOM     30  C   UNL A   1      39.243  22.204  26.319  1.00  0.00     0.039 A 
ATOM     31  C   UNL A   1      40.293  22.213  27.241  1.00  0.00     0.014 A 
ATOM     32  C   UNL A   1      38.709  23.408  25.855  1.00  0.00     0.014 A 
ATOM     33  C   UNL A   1      40.849  23.431  27.647  1.00  0.00     0.010 A 
ATOM     34  C   UNL A   1      39.312  24.616  26.203  1.00  0.00     0.010 A 
ATOM     35  C   UNL A   1      40.387  24.641  27.103  1.00  0.00    -0.014 A 
BRANCH  35  36
ATOM     36  C   UNL A   1      41.032  25.937  27.446  1.00  0.00     0.031 A 
ATOM     37  C   UNL A   1      42.458  26.211  27.047  1.00  0.00     0.074 A 
ATOM     38  C   UNL A   1      40.358  26.840  28.188  1.00  0.00     0.049 A 
ATOM     39  N   UNL A   1      43.197  27.258  27.309  1.00  0.00    -0.248 NA
ATOM     40  C   UNL A   1      43.152  25.168  26.273  1.00  0.00     0.031 C 
ATOM     41  C   UNL A   1      38.996  26.666  28.695  1.00  0.00     0.029 A 
ATOM     42  N   UNL A   1      40.732  28.074  28.661  1.00  0.00    -0.354 N 
ATOM     43  C   UNL A   1      44.446  26.989  26.761  1.00  0.00     0.074 A 
ATOM     44  C   UNL A   1      44.377  25.665  26.182  1.00  0.00     0.031 C 
ATOM     45  C   UNL A   1      38.645  27.755  29.396  1.00  0.00     0.029 A 
ATOM     46  C   UNL A   1      39.766  28.690  29.423  1.00  0.00     0.049 A 
ATOM     47  H   UNL A   1      41.610  28.479  28.473  1.00  0.00     0.167 HD
ATOM     48  C   UNL A   1      45.542  27.782  26.720  1.00  0.00     0.034 A 
ATOM     49  C   UNL A   1      39.780  29.867  30.079  1.00  0.00     0.034 A 
ATOM     50  C   UNL A   1      45.594  29.115  27.258  1.00  0.00     0.049 A 
ATOM     51  C   UNL A   1      41.003  30.740  29.997  1.00  0.00     0.074 A 
ATOM     52  C   UNL A   1      46.635  30.024  27.188  1.00  0.00     0.029 A 
ATOM     53  N   UNL A   1      44.574  29.728  27.966  1.00  0.00    -0.354 N 
ATOM     54  N   UNL A   1      42.126  30.525  29.356  1.00  0.00    -0.248 NA
ATOM     55  C   UNL A   1      40.953  32.031  30.699  1.00  0.00     0.031 C 
ATOM     56  C   UNL A   1      46.257  31.174  27.885  1.00  0.00     0.029 A 
ATOM     57  C   UNL A   1      44.965  30.998  28.353  1.00  0.00     0.049 A 
ATOM     58  H   UNL A   1      43.700  29.320  28.166  1.00  0.00     0.167 HD
ATOM     59  C   UNL A   1      42.901  31.662  29.549  1.00  0.00     0.074 A 
ATOM     60  C   UNL A   1      42.113  32.574  30.352  1.00  0.00     0.031 C 
ATOM     61  C   UNL A   1      44.156  31.921  29.108  1.00  0.00     0.034 A 
BRANCH  48  62
ATOM     62  C   UNL A   1      46.771  27.264  26.018  1.00  0.00     0.023 A 
ATOM     63  C   UNL A   1      46.949  27.528  24.646  1.00  0.00     0.012 A 
ATOM     64  C   UNL A   1      47.796  26.617  26.736  1.00  0.00     0.148 A 
ATOM     65  C   UNL A   1      48.118  27.140  23.994  1.00  0.00     0.002 A 
ATOM     66  C   UNL A   1      48.979  26.276  26.092  1.00  0.00     0.091 A 
ATOM     67  F   UNL A   1      47.599  26.359  28.038  1.00  0.00    -0.205 F 
ATOM     68  C   UNL A   1      49.137  26.527  24.718  1.00  0.00     0.022 A 
BRANCH  66  69
ATOM     69  S   UNL A   1      50.386  25.567  26.952  1.00  0.00     0.127 S 
ATOM     70  O   UNL A   1      51.332  25.367  25.854  1.00  0.00    -0.237 OA
ATOM     71  O   UNL A   1      50.748  26.637  27.881  1.00  0.00    -0.237 OA
ATOM     72  O   UNL A   1      49.902  24.346  27.583  1.00  0.00    -0.744 OA
ENDBRANCH  66  69
ENDBRANCH  48  62
BRANCH  49  73
ATOM     73  C   UNL A   1      38.563  30.315  30.814  1.00  0.00     0.023 A 
ATOM     74  C   UNL A   1      38.456  30.060  32.196  1.00  0.00     0.012 A 
ATOM     75  C   UNL A   1      37.541  31.038  30.168  1.00  0.00     0.148 A 
ATOM     76  C   UNL A   1      37.346  30.500  32.916  1.00  0.00     0.002 A 
ATOM     77  C   UNL A   1      36.467  31.525  30.904  1.00  0.00     0.091 A 
ATOM     78  F   UNL A   1      37.657  31.260  28.852  1.00  0.00    -0.205 F 
ATOM     79  C   UNL A   1      36.358  31.243  32.275  1.00  0.00     0.022 A 
BRANCH  77  80
ATOM     80  S   UNL A   1      35.222  32.609  30.194  1.00  0.00     0.127 S 
ATOM     81  O   UNL A   1      34.308  32.792  31.319  1.00  0.00    -0.237 OA
ATOM     82  O   UNL A   1      36.015  33.787  29.845  1.00  0.00    -0.237 OA
ATOM     83  O   UNL A   1      34.677  31.889  29.051  1.00  0.00    -0.744 OA
ENDBRANCH  77  80
ENDBRANCH  49  73
BRANCH  61  84
ATOM     84  C   UNL A   1      44.771  33.254  29.446  1.00  0.00     0.023 A 
ATOM     85  C   UNL A   1      45.524  33.400  30.628  1.00  0.00     0.012 A 
ATOM     86  C   UNL A   1      44.709  34.323  28.530  1.00  0.00     0.148 A 
ATOM     87  C   UNL A   1      46.189  34.595  30.902  1.00  0.00     0.002 A 
ATOM     88  C   UNL A   1      45.418  35.491  28.784  1.00  0.00     0.091 A 
ATOM     89  F   UNL A   1      43.976  34.170  27.418  1.00  0.00    -0.205 F 
ATOM     90  C   UNL A   1      46.149  35.633  29.974  1.00  0.00     0.022 A 
BRANCH  88  91
ATOM     91  S   UNL A   1      45.517  36.840  27.600  1.00  0.00     0.127 S 
ATOM     92  O   UNL A   1      46.473  37.736  28.249  1.00  0.00    -0.237 OA
ATOM     93  O   UNL A   1      46.025  36.166  26.406  1.00  0.00    -0.237 OA
ATOM     94  O   UNL A   1      44.164  37.364  27.472  1.00  0.00    -0.744 OA
ENDBRANCH  88  91
ENDBRANCH  61  84
ENDBRANCH  35  36
ENDBRANCH  27  30
ENDBRANCH  25  26
ENDBRANCH  24  25
ENDBRANCH  23  24
ENDBRANCH   1  23
TORSDOF 19
ENDMDL
MODEL 2
REMARK VINA RESULT:     -10.6      5.167      7.716
REMARK SMILES O=C(COCCNC(=O)Nc1cccc(F)c1)NCCCCNC(=O)c1ccc(-c2c3nc(c(-c4cccc(S(=O)(=O)[O-])c4F)c4ccc([nH]4)c(-c4cccc(S(=O)(=O)[O-])c4F)c4nc(c(-c5cccc(S(=O)(=O)[O-])c5F)c5ccc2[nH]5)C=C4)C=C3)cc1
REMARK SMILES IDX 19 1 18 2 1 3 2 4 3 6 4 7 5 8 6 9 7 10 8 11 9 13 10 14 11 16
REMARK SMILES IDX 12 17 17 18 13 19 15 20 14 21 16 22 20 23 21 24 22 25 23 26
REMARK SMILES IDX 24 27 25 29 26 30 27 31 88 32 28 33 87 34 29 35 30 36 31 37
REMARK SMILES IDX 81 38 32 39 86 40 80 41 82 42 33 43 85 44 79 45 78 46 34 48
REMARK SMILES IDX 66 49 46 50 65 51 47 52 50 53 64 54 83 55 48 56 49 57 63 59
REMARK SMILES IDX 84 60 51 61 35 62 36 63 44 64 37 65 39 66 45 67 38 68 40 69
REMARK SMILES IDX 41 70 42 71 43 72 67 73 68 74 76 75 69 76 71 77 77 78 70 79
REMARK SMILES IDX 72 80 73 81 74 82 75 83 52 84 53 85 61 86 54 87 56 88 62 89
REMARK SMILES IDX 55 90 57 91 58 92 59 93 60 94
REMARK H PARENT 18 5 7 12 10 15 23 28 82 47 50 58
REMARK Flexibility Score: inf
ROOT
ATOM      1  C   UNL A   1      31.079  27.918  24.722  1.00  0.00     0.116 C 
ENDROOT
BRANCH   1   2
ATOM      2  N   UNL A   1      31.739  26.922  23.913  1.00  0.00    -0.354 N 
ATOM      3  O   UNL A   1      30.673  27.443  21.940  1.00  0.00    -0.272 OA
ATOM      4  C   UNL A   1      31.482  26.770  22.567  1.00  0.00     0.245 C 
ATOM      5  H   UNL A   1      32.399  26.327  24.339  1.00  0.00     0.163 HD
BRANCH   4   6
ATOM      6  C   UNL A   1      32.312  25.657  21.922  1.00  0.00     0.260 C 
BRANCH   6   7
ATOM      7  O   UNL A   1      33.360  25.120  22.716  1.00  0.00    -0.370 OA
BRANCH   7   8
ATOM      8  C   UNL A   1      33.607  23.726  22.546  1.00  0.00     0.182 C 
BRANCH   8   9
ATOM      9  C   UNL A   1      32.861  22.812  23.518  1.00  0.00     0.146 C 
BRANCH   9  10
ATOM     10  N   UNL A   1      32.190  23.466  24.642  1.00  0.00    -0.336 N 
ATOM     11  C   UNL A   1      32.444  23.576  25.962  1.00  0.00     0.319 C 
ATOM     12  H   UNL A   1      31.366  23.933  24.374  1.00  0.00     0.165 HD
ATOM     13  O   UNL A   1      31.568  24.052  26.687  1.00  0.00    -0.249 OA
ATOM     14  N   UNL A   1      33.569  23.102  26.540  1.00  0.00    -0.308 N 
ATOM     15  H   UNL A   1      33.479  22.890  27.497  1.00  0.00     0.171 HD
BRANCH  14  16
ATOM     16  C   UNL A   1      34.839  22.862  26.013  1.00  0.00     0.045 A 
ATOM     17  C   UNL A   1      35.667  23.899  25.565  1.00  0.00     0.026 A 
ATOM     18  C   UNL A   1      35.246  21.537  25.882  1.00  0.00     0.065 A 
ATOM     19  C   UNL A   1      36.815  23.604  24.829  1.00  0.00     0.005 A 
ATOM     20  C   UNL A   1      36.385  21.257  25.140  1.00  0.00     0.125 A 
ATOM     21  C   UNL A   1      37.156  22.276  24.587  1.00  0.00     0.039 A 
ATOM     22  F   UNL A   1      36.717  19.980  24.908  1.00  0.00    -0.207 F 
ENDBRANCH  14  16
ENDBRANCH   9  10
ENDBRANCH   8   9
ENDBRANCH   7   8
ENDBRANCH   6   7
ENDBRANCH   4   6
ENDBRANCH   1   2
BRANCH   1  23
ATOM     23  C   UNL A   1      31.336  27.693  26.209  1.00  0.00     0.023 C 
BRANCH  23  24
ATOM     24  C   UNL A   1      31.759  28.951  26.974  1.00  0.00     0.023 C 
BRANCH  24  25
ATOM     25  C   UNL A   1      32.767  29.842  26.255  1.00  0.00     0.116 C 
BRANCH  25  26
ATOM     26  N   UNL A   1      32.590  31.251  26.568  1.00  0.00    -0.352 N 
ATOM     27  C   UNL A   1      33.354  32.067  27.371  1.00  0.00     0.251 C 
ATOM     28  H   UNL A   1      31.814  31.683  26.144  1.00  0.00     0.163 HD
ATOM     29  O   UNL A   1      32.959  33.193  27.647  1.00  0.00    -0.269 OA
BRANCH  27  30
ATOM     30  C   UNL A   1      34.639  31.574  27.918  1.00  0.00     0.039 A 
ATOM     31  C   UNL A   1      35.722  32.454  27.987  1.00  0.00     0.014 A 
ATOM     32  C   UNL A   1      34.778  30.257  28.361  1.00  0.00     0.014 A 
ATOM     33  C   UNL A   1      36.924  32.031  28.561  1.00  0.00     0.010 A 
ATOM     34  C   UNL A   1      35.952  29.860  29.000  1.00  0.00     0.010 A 
ATOM     35  C   UNL A   1      37.038  30.741  29.106  1.00  0.00    -0.014 A 
BRANCH  35  36
ATOM     36  C   UNL A   1      38.274  30.307  29.810  1.00  0.00     0.031 A 
ATOM     37  C   UNL A   1      39.198  29.297  29.183  1.00  0.00     0.074 A 
ATOM     38  C   UNL A   1      38.528  30.766  31.053  1.00  0.00     0.049 A 
ATOM     39  N   UNL A   1      40.286  28.763  29.674  1.00  0.00    -0.248 NA
ATOM     40  C   UNL A   1      38.843  28.805  27.841  1.00  0.00     0.031 C 
ATOM     41  C   UNL A   1      37.678  31.697  31.799  1.00  0.00     0.029 A 
ATOM     42  N   UNL A   1      39.562  30.498  31.917  1.00  0.00    -0.354 N 
ATOM     43  C   UNL A   1      40.728  27.853  28.720  1.00  0.00     0.074 A 
ATOM     44  C   UNL A   1      39.772  27.883  27.634  1.00  0.00     0.031 C 
ATOM     45  C   UNL A   1      38.229  31.930  33.000  1.00  0.00     0.029 A 
ATOM     46  C   UNL A   1      39.451  31.141  33.129  1.00  0.00     0.049 A 
ATOM     47  H   UNL A   1      40.312  29.901  31.691  1.00  0.00     0.167 HD
ATOM     48  C   UNL A   1      41.842  27.086  28.733  1.00  0.00     0.034 A 
ATOM     49  C   UNL A   1      40.234  31.095  34.225  1.00  0.00     0.034 A 
ATOM     50  C   UNL A   1      42.814  27.092  29.793  1.00  0.00     0.049 A 
ATOM     51  C   UNL A   1      41.479  30.251  34.204  1.00  0.00     0.074 A 
ATOM     52  C   UNL A   1      44.016  26.410  29.854  1.00  0.00     0.029 A 
ATOM     53  N   UNL A   1      42.698  27.805  30.975  1.00  0.00    -0.354 N 
ATOM     54  N   UNL A   1      41.951  29.505  33.236  1.00  0.00    -0.248 NA
ATOM     55  C   UNL A   1      42.318  30.266  35.412  1.00  0.00     0.031 C 
ATOM     56  C   UNL A   1      44.611  26.683  31.088  1.00  0.00     0.029 A 
ATOM     57  C   UNL A   1      43.800  27.568  31.779  1.00  0.00     0.049 A 
ATOM     58  H   UNL A   1      41.944  28.392  31.209  1.00  0.00     0.167 HD
ATOM     59  C   UNL A   1      43.155  28.990  33.701  1.00  0.00     0.074 A 
ATOM     60  C   UNL A   1      43.351  29.523  35.034  1.00  0.00     0.031 C 
ATOM     61  C   UNL A   1      44.014  28.142  33.083  1.00  0.00     0.034 A 
BRANCH  48  62
ATOM     62  C   UNL A   1      42.118  26.209  27.538  1.00  0.00     0.023 A 
ATOM     63  C   UNL A   1      42.847  26.727  26.451  1.00  0.00     0.012 A 
ATOM     64  C   UNL A   1      41.754  24.848  27.542  1.00  0.00     0.148 A 
ATOM     65  C   UNL A   1      43.195  25.912  25.375  1.00  0.00     0.002 A 
ATOM     66  C   UNL A   1      42.145  24.029  26.489  1.00  0.00     0.091 A 
ATOM     67  F   UNL A   1      41.045  24.379  28.579  1.00  0.00    -0.205 F 
ATOM     68  C   UNL A   1      42.856  24.561  25.400  1.00  0.00     0.022 A 
BRANCH  66  69
ATOM     69  S   UNL A   1      41.839  22.260  26.468  1.00  0.00     0.127 S 
ATOM     70  O   UNL A   1      40.390  22.214  26.275  1.00  0.00    -0.237 OA
ATOM     71  O   UNL A   1      42.622  21.828  25.310  1.00  0.00    -0.237 OA
ATOM     72  O   UNL A   1      42.310  21.751  27.749  1.00  0.00    -0.744 OA
ENDBRANCH  66  69
ENDBRANCH  48  62
BRANCH  49  73
ATOM     73  C   UNL A   1      39.891  31.932  35.410  1.00  0.00     0.023 A 
ATOM     74  C   UNL A   1      40.460  33.214  35.539  1.00  0.00     0.012 A 
ATOM     75  C   UNL A   1      38.964  31.492  36.376  1.00  0.00     0.148 A 
ATOM     76  C   UNL A   1      40.129  34.035  36.618  1.00  0.00     0.002 A 
ATOM     77  C   UNL A   1      38.594  32.338  37.415  1.00  0.00     0.091 A 
ATOM     78  F   UNL A   1      38.443  30.265  36.240  1.00  0.00    -0.205 F 
ATOM     79  C   UNL A   1      39.187  33.603  37.548  1.00  0.00     0.022 A 
BRANCH  77  80
ATOM     80  S   UNL A   1      37.287  31.925  38.577  1.00  0.00     0.127 S 
ATOM     81  O   UNL A   1      36.234  32.859  38.188  1.00  0.00    -0.237 OA
ATOM     82  O   UNL A   1      37.023  30.525  38.245  1.00  0.00    -0.237 OA
ATOM     83  O   UNL A   1      37.856  32.133  39.901  1.00  0.00    -0.744 OA
ENDBRANCH  77  80
ENDBRANCH  49  73
BRANCH  61  84
ATOM     84  C   UNL A   1      45.272  27.745  33.810  1.00  0.00     0.023 A 
ATOM     85  C   UNL A   1      46.409  28.573  33.747  1.00  0.00     0.012 A 
ATOM     86  C   UNL A   1      45.283  26.618  34.656  1.00  0.00     0.148 A 
ATOM     87  C   UNL A   1      47.546  28.275  34.500  1.00  0.00     0.002 A 
ATOM     88  C   UNL A   1      46.398  26.358  35.444  1.00  0.00     0.091 A 
ATOM     89  F   UNL A   1      44.196  25.835  34.691  1.00  0.00    -0.205 F 
ATOM     90  C   UNL A   1      47.534  27.178  35.359  1.00  0.00     0.022 A 
BRANCH  88  91
ATOM     91  S   UNL A   1      46.437  25.035  36.659  1.00  0.00     0.127 S 
ATOM     92  O   UNL A   1      45.518  25.539  37.678  1.00  0.00    -0.237 OA
ATOM     93  O   UNL A   1      45.932  23.896  35.893  1.00  0.00    -0.237 OA
ATOM     94  O   UNL A   1      47.826  24.915  37.081  1.00  0.00    -0.744 OA
ENDBRANCH  88  91
ENDBRANCH  61  84
ENDBRANCH  35  36
ENDBRANCH  27  30
ENDBRANCH  25  26
ENDBRANCH  24  25
ENDBRANCH  23  24
ENDBRANCH   1  23
TORSDOF 19
ENDMDL
MODEL 3
REMARK VINA RESULT:     -10.6      4.697      7.581
REMARK SMILES O=C(COCCNC(=O)Nc1cccc(F)c1)NCCCCNC(=O)c1ccc(-c2c3nc(c(-c4cccc(S(=O)(=O)[O-])c4F)c4ccc([nH]4)c(-c4cccc(S(=O)(=O)[O-])c4F)c4nc(c(-c5cccc(S(=O)(=O)[O-])c5F)c5ccc2[nH]5)C=C4)C=C3)cc1
REMARK SMILES IDX 19 1 18 2 1 3 2 4 3 6 4 7 5 8 6 9 7 10 8 11 9 13 10 14 11 16
REMARK SMILES IDX 12 17 17 18 13 19 15 20 14 21 16 22 20 23 21 24 22 25 23 26
REMARK SMILES IDX 24 27 25 29 26 30 27 31 88 32 28 33 87 34 29 35 30 36 31 37
REMARK SMILES IDX 81 38 32 39 86 40 80 41 82 42 33 43 85 44 79 45 78 46 34 48
REMARK SMILES IDX 66 49 46 50 65 51 47 52 50 53 64 54 83 55 48 56 49 57 63 59
REMARK SMILES IDX 84 60 51 61 35 62 36 63 44 64 37 65 39 66 45 67 38 68 40 69
REMARK SMILES IDX 41 70 42 71 43 72 67 73 68 74 76 75 69 76 71 77 77 78 70 79
REMARK SMILES IDX 72 80 73 81 74 82 75 83 52 84 53 85 61 86 54 87 56 88 62 89
REMARK SMILES IDX 55 90 57 91 58 92 59 93 60 94
REMARK H PARENT 18 5 7 12 10 15 23 28 82 47 50 58
REMARK Flexibility Score: inf
ROOT
ATOM      1  C   UNL A   1      33.583  27.273  25.915  1.00  0.00     0.116 C 
ENDROOT
BRANCH   1   2
ATOM      2  N   UNL A   1      32.583  26.298  25.553  1.00  0.00    -0.354 N 
ATOM      3  O   UNL A   1      31.111  26.793  27.253  1.00  0.00    -0.272 OA
ATOM      4  C   UNL A   1      31.409  26.141  26.259  1.00  0.00     0.245 C 
ATOM      5  H   UNL A   1      32.745  25.721  24.771  1.00  0.00     0.163 HD
BRANCH   4   6
ATOM      6  C   UNL A   1      30.502  25.053  25.677  1.00  0.00     0.260 C 
BRANCH   6   7
ATOM      7  O   UNL A   1      30.896  24.518  24.423  1.00  0.00    -0.370 OA
BRANCH   7   8
ATOM      8  C   UNL A   1      31.043  23.100  24.379  1.00  0.00     0.182 C 
BRANCH   8   9
ATOM      9  C   UNL A   1      31.915  22.504  25.484  1.00  0.00     0.146 C 
BRANCH   9  10
ATOM     10  N   UNL A   1      31.878  21.047  25.627  1.00  0.00    -0.336 N 
ATOM     11  C   UNL A   1      32.663  20.034  25.208  1.00  0.00     0.319 C 
ATOM     12  H   UNL A   1      31.102  20.736  26.148  1.00  0.00     0.165 HD
ATOM     13  O   UNL A   1      32.249  18.881  25.342  1.00  0.00    -0.249 OA
ATOM     14  N   UNL A   1      33.834  20.226  24.563  1.00  0.00    -0.308 N 
ATOM     15  H   UNL A   1      34.111  19.477  23.986  1.00  0.00     0.171 HD
BRANCH  14  16
ATOM     16  C   UNL A   1      34.721  21.304  24.573  1.00  0.00     0.045 A 
ATOM     17  C   UNL A   1      34.631  22.350  23.647  1.00  0.00     0.026 A 
ATOM     18  C   UNL A   1      35.757  21.281  25.502  1.00  0.00     0.065 A 
ATOM     19  C   UNL A   1      35.672  23.274  23.536  1.00  0.00     0.005 A 
ATOM     20  C   UNL A   1      36.791  22.200  25.376  1.00  0.00     0.125 A 
ATOM     21  C   UNL A   1      36.772  23.175  24.384  1.00  0.00     0.039 A 
ATOM     22  F   UNL A   1      37.849  22.110  26.192  1.00  0.00    -0.207 F 
ENDBRANCH  14  16
ENDBRANCH   9  10
ENDBRANCH   8   9
ENDBRANCH   7   8
ENDBRANCH   6   7
ENDBRANCH   4   6
ENDBRANCH   1   2
BRANCH   1  23
ATOM     23  C   UNL A   1      33.671  28.394  24.884  1.00  0.00     0.023 C 
BRANCH  23  24
ATOM     24  C   UNL A   1      32.560  29.441  24.994  1.00  0.00     0.023 C 
BRANCH  24  25
ATOM     25  C   UNL A   1      32.202  29.864  26.415  1.00  0.00     0.116 C 
BRANCH  25  26
ATOM     26  N   UNL A   1      32.028  31.302  26.544  1.00  0.00    -0.352 N 
ATOM     27  C   UNL A   1      32.819  32.220  27.196  1.00  0.00     0.251 C 
ATOM     28  H   UNL A   1      31.230  31.671  26.101  1.00  0.00     0.163 HD
ATOM     29  O   UNL A   1      32.427  33.372  27.336  1.00  0.00    -0.269 OA
BRANCH  27  30
ATOM     30  C   UNL A   1      34.130  31.808  27.746  1.00  0.00     0.039 A 
ATOM     31  C   UNL A   1      35.101  32.787  27.974  1.00  0.00     0.014 A 
ATOM     32  C   UNL A   1      34.404  30.470  28.039  1.00  0.00     0.014 A 
ATOM     33  C   UNL A   1      36.322  32.430  28.555  1.00  0.00     0.010 A 
ATOM     34  C   UNL A   1      35.590  30.129  28.686  1.00  0.00     0.010 A 
ATOM     35  C   UNL A   1      36.563  31.104  28.950  1.00  0.00    -0.014 A 
BRANCH  35  36
ATOM     36  C   UNL A   1      37.814  30.726  29.661  1.00  0.00     0.031 A 
ATOM     37  C   UNL A   1      38.809  29.797  29.016  1.00  0.00     0.074 A 
ATOM     38  C   UNL A   1      38.019  31.157  30.922  1.00  0.00     0.049 A 
ATOM     39  N   UNL A   1      39.921  29.316  29.508  1.00  0.00    -0.248 NA
ATOM     40  C   UNL A   1      38.506  29.329  27.653  1.00  0.00     0.031 C 
ATOM     41  C   UNL A   1      37.101  32.007  31.683  1.00  0.00     0.029 A 
ATOM     42  N   UNL A   1      39.055  30.926  31.794  1.00  0.00    -0.354 N 
ATOM     43  C   UNL A   1      40.435  28.469  28.533  1.00  0.00     0.074 A 
ATOM     44  C   UNL A   1      39.495  28.475  27.433  1.00  0.00     0.031 C 
ATOM     45  C   UNL A   1      37.618  32.234  32.900  1.00  0.00     0.029 A 
ATOM     46  C   UNL A   1      38.885  31.519  33.024  1.00  0.00     0.049 A 
ATOM     47  H   UNL A   1      39.845  30.386  31.561  1.00  0.00     0.167 HD
ATOM     48  C   UNL A   1      41.595  27.774  28.540  1.00  0.00     0.034 A 
ATOM     49  C   UNL A   1      39.653  31.486  34.132  1.00  0.00     0.034 A 
ATOM     50  C   UNL A   1      42.548  27.805  29.616  1.00  0.00     0.049 A 
ATOM     51  C   UNL A   1      40.950  30.724  34.104  1.00  0.00     0.074 A 
ATOM     52  C   UNL A   1      43.791  27.199  29.675  1.00  0.00     0.029 A 
ATOM     53  N   UNL A   1      42.370  28.469  30.819  1.00  0.00    -0.354 N 
ATOM     54  N   UNL A   1      41.483  30.042  33.120  1.00  0.00    -0.248 NA
ATOM     55  C   UNL A   1      41.768  30.751  35.326  1.00  0.00     0.031 C 
ATOM     56  C   UNL A   1      44.348  27.467  30.927  1.00  0.00     0.029 A 
ATOM     57  C   UNL A   1      43.472  28.275  31.633  1.00  0.00     0.049 A 
ATOM     58  H   UNL A   1      41.576  29.000  31.059  1.00  0.00     0.167 HD
ATOM     59  C   UNL A   1      42.709  29.588  33.589  1.00  0.00     0.074 A 
ATOM     60  C   UNL A   1      42.851  30.088  34.942  1.00  0.00     0.031 C 
ATOM     61  C   UNL A   1      43.629  28.818  32.959  1.00  0.00     0.034 A 
BRANCH  48  62
ATOM     62  C   UNL A   1      41.943  26.956  27.322  1.00  0.00     0.023 A 
ATOM     63  C   UNL A   1      42.498  27.593  26.195  1.00  0.00     0.012 A 
ATOM     64  C   UNL A   1      41.828  25.552  27.337  1.00  0.00     0.148 A 
ATOM     65  C   UNL A   1      42.914  26.849  25.092  1.00  0.00     0.002 A 
ATOM     66  C   UNL A   1      42.288  24.812  26.254  1.00  0.00     0.091 A 
ATOM     67  F   UNL A   1      41.281  24.967  28.413  1.00  0.00    -0.205 F 
ATOM     68  C   UNL A   1      42.822  25.460  25.126  1.00  0.00     0.022 A 
BRANCH  66  69
ATOM     69  S   UNL A   1      42.299  23.017  26.236  1.00  0.00     0.127 S 
ATOM     70  O   UNL A   1      43.052  22.715  27.453  1.00  0.00    -0.237 OA
ATOM     71  O   UNL A   1      40.873  22.701  26.307  1.00  0.00    -0.237 OA
ATOM     72  O   UNL A   1      42.951  22.629  24.992  1.00  0.00    -0.744 OA
ENDBRANCH  66  69
ENDBRANCH  48  62
BRANCH  49  73
ATOM     73  C   UNL A   1      39.240  32.260  35.337  1.00  0.00     0.023 A 
ATOM     74  C   UNL A   1      38.430  31.644  36.311  1.00  0.00     0.012 A 
ATOM     75  C   UNL A   1      39.689  33.579  35.551  1.00  0.00     0.148 A 
ATOM     76  C   UNL A   1      38.059  32.332  37.466  1.00  0.00     0.002 A 
ATOM     77  C   UNL A   1      39.365  34.236  36.732  1.00  0.00     0.091 A 
ATOM     78  F   UNL A   1      40.450  34.150  34.608  1.00  0.00    -0.205 F 
ATOM     79  C   UNL A   1      38.536  33.622  37.684  1.00  0.00     0.022 A 
BRANCH  77  80
ATOM     80  S   UNL A   1      40.049  35.841  37.163  1.00  0.00     0.127 S 
ATOM     81  O   UNL A   1      39.651  36.654  36.016  1.00  0.00    -0.237 OA
ATOM     82  O   UNL A   1      39.342  36.143  38.407  1.00  0.00    -0.237 OA
ATOM     83  O   UNL A   1      41.481  35.631  37.320  1.00  0.00    -0.744 OA
ENDBRANCH  77  80
ENDBRANCH  49  73
BRANCH  61  84
ATOM     84  C   UNL A   1      44.900  28.476  33.693  1.00  0.00     0.023 A 
ATOM     85  C   UNL A   1      46.004  29.347  33.627  1.00  0.00     0.012 A 
ATOM     86  C   UNL A   1      44.951  27.358  34.550  1.00  0.00     0.148 A 
ATOM     87  C   UNL A   1      47.148  29.101  34.387  1.00  0.00     0.002 A 
ATOM     88  C   UNL A   1      46.072  27.149  35.344  1.00  0.00     0.091 A 
ATOM     89  F   UNL A   1      43.895  26.533  34.588  1.00  0.00    -0.205 F 
ATOM     90  C   UNL A   1      47.176  28.012  35.255  1.00  0.00     0.022 A 
BRANCH  88  91
ATOM     91  S   UNL A   1      46.158  25.839  36.571  1.00  0.00     0.127 S 
ATOM     92  O   UNL A   1      47.420  26.143  37.244  1.00  0.00    -0.237 OA
ATOM     93  O   UNL A   1      44.962  26.089  37.374  1.00  0.00    -0.237 OA
ATOM     94  O   UNL A   1      46.138  24.586  35.827  1.00  0.00    -0.744 OA
ENDBRANCH  88  91
ENDBRANCH  61  84
ENDBRANCH  35  36
ENDBRANCH  27  30
ENDBRANCH  25  26
ENDBRANCH  24  25
ENDBRANCH  23  24
ENDBRANCH   1  23
TORSDOF 19
ENDMDL
