MODEL 1
REMARK VINA RESULT:     -12.0      0.000      0.000
REMARK SMILES Cc1ccccc1-n1nc(Cl)c(C(=O)NCCCCNC(=O)c2ccc(-c3c4nc(c(-c5cccc(S(=O)(=O)[O-])c5F)c5ccc([nH]5)c(-c5cccc(S(=O)(=O)[O-])c5F)c5nc(c(-c6cccc(S(=O)(=O)[O-])c6F)c6ccc3[nH]6)C=C5)C=C4)cc2)n1
REMARK SMILES IDX 18 1 17 2 16 3 15 4 13 5 14 6 12 8 8 9 9 10 86 11 10 12
REMARK SMILES IDX 11 13 7 14 1 15 2 16 3 17 4 18 6 19 5 20 19 21 20 22 21 23
REMARK SMILES IDX 22 25 23 26 24 27 85 28 25 29 84 30 26 31 27 32 28 33 78 34
REMARK SMILES IDX 29 35 83 36 77 37 79 38 30 39 82 40 76 41 75 42 31 44 63 45
REMARK SMILES IDX 43 46 62 47 44 48 47 49 61 50 80 51 45 52 46 53 60 55 81 56
REMARK SMILES IDX 48 57 32 58 33 59 41 60 34 61 36 62 42 63 35 64 37 65 38 66
REMARK SMILES IDX 39 67 40 68 64 69 65 70 73 71 66 72 68 73 74 74 67 75 69 76
REMARK SMILES IDX 70 77 71 78 72 79 49 80 50 81 58 82 51 83 53 84 59 85 52 86
REMARK SMILES IDX 54 87 55 88 56 89 57 90
REMARK H PARENT 15 7 20 24 79 43 47 54
REMARK Flexibility Score: inf
ROOT
ATOM      1  C   UNL A   1      37.043  22.559  26.091  1.00  0.00     0.023 C 
ENDROOT
BRANCH   1   2
ATOM      2  C   UNL A   1      36.475  23.780  25.365  1.00  0.00     0.023 C 
BRANCH   2   3
ATOM      3  C   UNL A   1      34.950  23.944  25.471  1.00  0.00     0.116 C 
BRANCH   3   4
ATOM      4  N   UNL A   1      34.210  22.863  24.826  1.00  0.00    -0.351 N 
ATOM      5  C   UNL A   1      32.871  22.745  24.487  1.00  0.00     0.275 C 
ATOM      6  O   UNL A   1      32.497  21.694  23.987  1.00  0.00    -0.267 OA
ATOM      7  H   UNL A   1      34.758  22.078  24.592  1.00  0.00     0.163 HD
BRANCH   5   8
ATOM      8  C   UNL A   1      31.947  23.848  24.756  1.00  0.00     0.189 A 
ATOM      9  N   UNL A   1      30.996  25.728  24.643  1.00  0.00    -0.149 N 
ATOM     10  N   UNL A   1      30.398  25.183  25.729  1.00  0.00    -0.135 NA
ATOM     11  N   UNL A   1      31.941  24.983  24.051  1.00  0.00    -0.141 NA
ATOM     12  C   UNL A   1      30.928  23.951  25.727  1.00  0.00     0.184 A 
ATOM     13  Cl  UNL A   1      30.391  22.792  26.837  1.00  0.00    -0.058 Cl
BRANCH   9  14
ATOM     14  C   UNL A   1      30.825  27.071  24.234  1.00  0.00     0.089 A 
ATOM     15  C   UNL A   1      32.521  27.954  25.980  1.00  0.00     0.047 C 
ATOM     16  C   UNL A   1      31.448  28.131  24.934  1.00  0.00    -0.023 A 
ATOM     17  C   UNL A   1      31.075  29.445  24.617  1.00  0.00     0.006 A 
ATOM     18  C   UNL A   1      30.126  29.702  23.627  1.00  0.00     0.000 A 
ATOM     19  C   UNL A   1      29.916  27.333  23.199  1.00  0.00     0.030 A 
ATOM     20  C   UNL A   1      29.555  28.650  22.914  1.00  0.00     0.002 A 
ENDBRANCH   9  14
ENDBRANCH   5   8
ENDBRANCH   3   4
ENDBRANCH   2   3
ENDBRANCH   1   2
BRANCH   1  21
ATOM     21  C   UNL A   1      38.432  22.137  25.637  1.00  0.00     0.116 C 
BRANCH  21  22
ATOM     22  N   UNL A   1      39.432  21.966  26.669  1.00  0.00    -0.352 N 
ATOM     23  C   UNL A   1      40.192  22.944  27.301  1.00  0.00     0.251 C 
ATOM     24  H   UNL A   1      39.596  21.040  26.960  1.00  0.00     0.163 HD
ATOM     25  O   UNL A   1      41.159  22.585  27.967  1.00  0.00    -0.269 OA
BRANCH  23  26
ATOM     26  C   UNL A   1      39.752  24.372  27.300  1.00  0.00     0.039 A 
ATOM     27  C   UNL A   1      40.478  25.264  26.498  1.00  0.00     0.014 A 
ATOM     28  C   UNL A   1      38.886  24.879  28.262  1.00  0.00     0.014 A 
ATOM     29  C   UNL A   1      40.634  26.582  26.908  1.00  0.00     0.010 A 
ATOM     30  C   UNL A   1      39.097  26.151  28.726  1.00  0.00     0.010 A 
ATOM     31  C   UNL A   1      40.067  26.945  28.116  1.00  0.00    -0.014 A 
BRANCH  31  32
ATOM     32  C   UNL A   1      40.392  28.126  28.880  1.00  0.00     0.031 A 
ATOM     33  C   UNL A   1      39.557  29.315  28.711  1.00  0.00     0.074 A 
ATOM     34  C   UNL A   1      41.191  27.916  29.950  1.00  0.00     0.049 A 
ATOM     35  N   UNL A   1      39.789  30.448  29.269  1.00  0.00    -0.248 NA
ATOM     36  C   UNL A   1      38.377  29.318  27.849  1.00  0.00     0.031 C 
ATOM     37  C   UNL A   1      41.219  28.621  31.224  1.00  0.00     0.029 A 
ATOM     38  N   UNL A   1      42.217  26.994  30.082  1.00  0.00    -0.354 N 
ATOM     39  C   UNL A   1      38.623  31.175  29.157  1.00  0.00     0.074 A 
ATOM     40  C   UNL A   1      37.882  30.530  28.107  1.00  0.00     0.031 C 
ATOM     41  C   UNL A   1      42.330  28.266  31.899  1.00  0.00     0.029 A 
ATOM     42  C   UNL A   1      43.155  27.483  30.990  1.00  0.00     0.049 A 
ATOM     43  H   UNL A   1      42.274  26.132  29.610  1.00  0.00     0.167 HD
ATOM     44  C   UNL A   1      38.347  32.085  30.130  1.00  0.00     0.034 A 
ATOM     45  C   UNL A   1      44.384  27.889  30.527  1.00  0.00     0.034 A 
ATOM     46  C   UNL A   1      39.540  32.288  30.981  1.00  0.00     0.049 A 
ATOM     47  C   UNL A   1      44.560  29.402  30.571  1.00  0.00     0.074 A 
ATOM     48  C   UNL A   1      39.871  31.859  32.255  1.00  0.00     0.029 A 
ATOM     49  N   UNL A   1      40.736  32.711  30.393  1.00  0.00    -0.354 N 
ATOM     50  N   UNL A   1      43.596  30.247  30.822  1.00  0.00    -0.248 NA
ATOM     51  C   UNL A   1      45.837  30.078  30.365  1.00  0.00     0.031 C 
ATOM     52  C   UNL A   1      41.294  31.880  32.364  1.00  0.00     0.029 A 
ATOM     53  C   UNL A   1      41.828  32.371  31.182  1.00  0.00     0.049 A 
ATOM     54  H   UNL A   1      40.796  33.186  29.533  1.00  0.00     0.167 HD
ATOM     55  C   UNL A   1      44.043  31.531  30.692  1.00  0.00     0.074 A 
ATOM     56  C   UNL A   1      45.475  31.369  30.486  1.00  0.00     0.031 C 
ATOM     57  C   UNL A   1      43.198  32.611  30.712  1.00  0.00     0.034 A 
BRANCH  44  58
ATOM     58  C   UNL A   1      36.952  32.592  30.499  1.00  0.00     0.023 A 
ATOM     59  C   UNL A   1      36.471  32.242  31.781  1.00  0.00     0.012 A 
ATOM     60  C   UNL A   1      36.029  33.293  29.675  1.00  0.00     0.148 A 
ATOM     61  C   UNL A   1      35.168  32.538  32.208  1.00  0.00     0.002 A 
ATOM     62  C   UNL A   1      34.745  33.631  30.117  1.00  0.00     0.091 A 
ATOM     63  F   UNL A   1      36.338  33.596  28.417  1.00  0.00    -0.205 F 
ATOM     64  C   UNL A   1      34.306  33.241  31.380  1.00  0.00     0.022 A 
BRANCH  62  65
ATOM     65  S   UNL A   1      33.580  34.571  29.103  1.00  0.00     0.127 S 
ATOM     66  O   UNL A   1      32.568  34.966  30.085  1.00  0.00    -0.237 OA
ATOM     67  O   UNL A   1      34.413  35.670  28.614  1.00  0.00    -0.237 OA
ATOM     68  O   UNL A   1      33.104  33.665  28.065  1.00  0.00    -0.744 OA
ENDBRANCH  62  65
ENDBRANCH  44  58
BRANCH  45  69
ATOM     69  C   UNL A   1      44.889  26.977  29.443  1.00  0.00     0.023 A 
ATOM     70  C   UNL A   1      44.994  25.604  29.786  1.00  0.00     0.012 A 
ATOM     71  C   UNL A   1      44.774  27.323  28.085  1.00  0.00     0.148 A 
ATOM     72  C   UNL A   1      44.751  24.610  28.837  1.00  0.00     0.002 A 
ATOM     73  C   UNL A   1      44.556  26.321  27.138  1.00  0.00     0.091 A 
ATOM     74  F   UNL A   1      44.813  28.618  27.744  1.00  0.00    -0.205 F 
ATOM     75  C   UNL A   1      44.477  24.972  27.523  1.00  0.00     0.022 A 
BRANCH  73  76
ATOM     76  S   UNL A   1      44.264  26.726  25.410  1.00  0.00     0.127 S 
ATOM     77  O   UNL A   1      45.626  26.892  24.910  1.00  0.00    -0.237 OA
ATOM     78  O   UNL A   1      43.577  25.538  24.904  1.00  0.00    -0.237 OA
ATOM     79  O   UNL A   1      43.439  27.925  25.439  1.00  0.00    -0.744 OA
ENDBRANCH  73  76
ENDBRANCH  45  69
BRANCH  57  80
ATOM     80  C   UNL A   1      43.614  34.013  30.301  1.00  0.00     0.023 A 
ATOM     81  C   UNL A   1      43.992  34.988  31.245  1.00  0.00     0.012 A 
ATOM     82  C   UNL A   1      43.759  34.367  28.936  1.00  0.00     0.148 A 
ATOM     83  C   UNL A   1      44.373  36.280  30.871  1.00  0.00     0.002 A 
ATOM     84  C   UNL A   1      44.264  35.610  28.565  1.00  0.00     0.091 A 
ATOM     85  F   UNL A   1      43.386  33.505  27.978  1.00  0.00    -0.205 F 
ATOM     86  C   UNL A   1      44.524  36.588  29.528  1.00  0.00     0.022 A 
BRANCH  84  87
ATOM     87  S   UNL A   1      44.743  35.963  26.870  1.00  0.00     0.127 S 
ATOM     88  O   UNL A   1      43.449  36.025  26.197  1.00  0.00    -0.237 OA
ATOM     89  O   UNL A   1      45.425  37.252  27.003  1.00  0.00    -0.237 OA
ATOM     90  O   UNL A   1      45.619  34.867  26.477  1.00  0.00    -0.744 OA
ENDBRANCH  84  87
ENDBRANCH  57  80
ENDBRANCH  31  32
ENDBRANCH  23  26
ENDBRANCH  21  22
ENDBRANCH   1  21
TORSDOF 15
ENDMDL
MODEL 2
REMARK VINA RESULT:     -11.9      4.013      9.264
REMARK SMILES Cc1ccccc1-n1nc(Cl)c(C(=O)NCCCCNC(=O)c2ccc(-c3c4nc(c(-c5cccc(S(=O)(=O)[O-])c5F)c5ccc([nH]5)c(-c5cccc(S(=O)(=O)[O-])c5F)c5nc(c(-c6cccc(S(=O)(=O)[O-])c6F)c6ccc3[nH]6)C=C5)C=C4)cc2)n1
REMARK SMILES IDX 18 1 17 2 16 3 15 4 13 5 14 6 12 8 8 9 9 10 86 11 10 12
REMARK SMILES IDX 11 13 7 14 1 15 2 16 3 17 4 18 6 19 5 20 19 21 20 22 21 23
REMARK SMILES IDX 22 25 23 26 24 27 85 28 25 29 84 30 26 31 27 32 28 33 78 34
REMARK SMILES IDX 29 35 83 36 77 37 79 38 30 39 82 40 76 41 75 42 31 44 63 45
REMARK SMILES IDX 43 46 62 47 44 48 47 49 61 50 80 51 45 52 46 53 60 55 81 56
REMARK SMILES IDX 48 57 32 58 33 59 41 60 34 61 36 62 42 63 35 64 37 65 38 66
REMARK SMILES IDX 39 67 40 68 64 69 65 70 73 71 66 72 68 73 74 74 67 75 69 76
REMARK SMILES IDX 70 77 71 78 72 79 49 80 50 81 58 82 51 83 53 84 59 85 52 86
REMARK SMILES IDX 54 87 55 88 56 89 57 90
REMARK H PARENT 15 7 20 24 79 43 47 54
REMARK Flexibility Score: inf
ROOT
ATOM      1  C   UNL A   1      32.230  31.220  27.244  1.00  0.00     0.023 C 
ENDROOT
BRANCH   1   2
ATOM      2  C   UNL A   1      31.520  31.071  25.897  1.00  0.00     0.023 C 
BRANCH   2   3
ATOM      3  C   UNL A   1      31.601  29.668  25.274  1.00  0.00     0.116 C 
BRANCH   3   4
ATOM      4  N   UNL A   1      30.886  29.560  24.005  1.00  0.00    -0.351 N 
ATOM      5  C   UNL A   1      30.945  28.608  23.000  1.00  0.00     0.275 C 
ATOM      6  O   UNL A   1      30.259  28.785  22.002  1.00  0.00    -0.267 OA
ATOM      7  H   UNL A   1      30.250  30.293  23.834  1.00  0.00     0.163 HD
BRANCH   5   8
ATOM      8  C   UNL A   1      31.830  27.450  23.136  1.00  0.00     0.189 A 
ATOM      9  N   UNL A   1      32.495  25.471  23.438  1.00  0.00    -0.149 N 
ATOM     10  N   UNL A   1      33.665  26.151  23.398  1.00  0.00    -0.135 NA
ATOM     11  N   UNL A   1      31.380  26.205  23.316  1.00  0.00    -0.141 NA
ATOM     12  C   UNL A   1      33.239  27.386  23.097  1.00  0.00     0.184 A 
ATOM     13  Cl  UNL A   1      34.355  28.621  22.791  1.00  0.00    -0.058 Cl
BRANCH   9  14
ATOM     14  C   UNL A   1      32.383  24.106  23.790  1.00  0.00     0.089 A 
ATOM     15  C   UNL A   1      32.093  24.645  26.306  1.00  0.00     0.047 C 
ATOM     16  C   UNL A   1      32.312  23.706  25.145  1.00  0.00    -0.023 A 
ATOM     17  C   UNL A   1      32.416  22.338  25.440  1.00  0.00     0.006 A 
ATOM     18  C   UNL A   1      32.570  21.396  24.423  1.00  0.00     0.000 A 
ATOM     19  C   UNL A   1      32.478  23.152  22.766  1.00  0.00     0.030 A 
ATOM     20  C   UNL A   1      32.592  21.801  23.090  1.00  0.00     0.002 A 
ENDBRANCH   9  14
ENDBRANCH   5   8
ENDBRANCH   3   4
ENDBRANCH   2   3
ENDBRANCH   1   2
BRANCH   1  21
ATOM     21  C   UNL A   1      33.706  30.854  27.230  1.00  0.00     0.116 C 
BRANCH  21  22
ATOM     22  N   UNL A   1      34.638  31.888  27.627  1.00  0.00    -0.352 N 
ATOM     23  C   UNL A   1      35.850  31.743  28.293  1.00  0.00     0.251 C 
ATOM     24  H   UNL A   1      34.382  32.810  27.396  1.00  0.00     0.163 HD
ATOM     25  O   UNL A   1      36.377  32.748  28.761  1.00  0.00    -0.269 OA
BRANCH  23  26
ATOM     26  C   UNL A   1      36.565  30.430  28.302  1.00  0.00     0.039 A 
ATOM     27  C   UNL A   1      36.620  29.741  29.521  1.00  0.00     0.014 A 
ATOM     28  C   UNL A   1      37.405  30.040  27.265  1.00  0.00     0.014 A 
ATOM     29  C   UNL A   1      37.735  28.968  29.821  1.00  0.00     0.010 A 
ATOM     30  C   UNL A   1      38.549  29.353  27.575  1.00  0.00     0.010 A 
ATOM     31  C   UNL A   1      38.756  28.934  28.890  1.00  0.00    -0.014 A 
BRANCH  31  32
ATOM     32  C   UNL A   1      40.110  28.498  29.136  1.00  0.00     0.031 A 
ATOM     33  C   UNL A   1      40.416  27.073  29.006  1.00  0.00     0.074 A 
ATOM     34  C   UNL A   1      41.045  29.472  29.090  1.00  0.00     0.049 A 
ATOM     35  N   UNL A   1      41.556  26.550  29.277  1.00  0.00    -0.248 NA
ATOM     36  C   UNL A   1      39.413  26.101  28.575  1.00  0.00     0.031 C 
ATOM     37  C   UNL A   1      42.435  29.389  28.668  1.00  0.00     0.029 A 
ATOM     38  N   UNL A   1      40.917  30.796  29.480  1.00  0.00    -0.354 N 
ATOM     39  C   UNL A   1      41.548  25.297  28.702  1.00  0.00     0.074 A 
ATOM     40  C   UNL A   1      40.159  24.998  28.481  1.00  0.00     0.031 C 
ATOM     41  C   UNL A   1      43.074  30.521  29.025  1.00  0.00     0.029 A 
ATOM     42  C   UNL A   1      42.166  31.278  29.874  1.00  0.00     0.049 A 
ATOM     43  H   UNL A   1      40.080  31.314  29.479  1.00  0.00     0.167 HD
ATOM     44  C   UNL A   1      42.736  24.783  28.281  1.00  0.00     0.034 A 
ATOM     45  C   UNL A   1      42.392  31.531  31.206  1.00  0.00     0.034 A 
ATOM     46  C   UNL A   1      43.850  25.606  28.801  1.00  0.00     0.049 A 
ATOM     47  C   UNL A   1      43.337  30.522  31.846  1.00  0.00     0.074 A 
ATOM     48  C   UNL A   1      44.683  26.541  28.212  1.00  0.00     0.029 A 
ATOM     49  N   UNL A   1      43.981  25.787  30.181  1.00  0.00    -0.354 N 
ATOM     50  N   UNL A   1      43.734  29.419  31.269  1.00  0.00    -0.248 NA
ATOM     51  C   UNL A   1      43.930  30.689  33.169  1.00  0.00     0.031 C 
ATOM     52  C   UNL A   1      45.189  27.386  29.246  1.00  0.00     0.029 A 
ATOM     53  C   UNL A   1      44.711  26.935  30.468  1.00  0.00     0.049 A 
ATOM     54  H   UNL A   1      43.606  25.181  30.860  1.00  0.00     0.167 HD
ATOM     55  C   UNL A   1      44.492  28.678  32.130  1.00  0.00     0.074 A 
ATOM     56  C   UNL A   1      44.654  29.559  33.279  1.00  0.00     0.031 C 
ATOM     57  C   UNL A   1      44.879  27.392  31.852  1.00  0.00     0.034 A 
BRANCH  44  58
ATOM     58  C   UNL A   1      42.908  23.722  27.194  1.00  0.00     0.023 A 
ATOM     59  C   UNL A   1      43.496  24.149  25.981  1.00  0.00     0.012 A 
ATOM     60  C   UNL A   1      42.458  22.374  27.208  1.00  0.00     0.148 A 
ATOM     61  C   UNL A   1      43.608  23.314  24.860  1.00  0.00     0.002 A 
ATOM     62  C   UNL A   1      42.612  21.525  26.106  1.00  0.00     0.091 A 
ATOM     63  F   UNL A   1      41.807  21.887  28.262  1.00  0.00    -0.205 F 
ATOM     64  C   UNL A   1      43.175  21.998  24.923  1.00  0.00     0.022 A 
BRANCH  62  65
ATOM     65  S   UNL A   1      42.098  19.792  26.127  1.00  0.00     0.127 S 
ATOM     66  O   UNL A   1      40.640  19.904  26.048  1.00  0.00    -0.237 OA
ATOM     67  O   UNL A   1      42.733  19.267  24.918  1.00  0.00    -0.237 OA
ATOM     68  O   UNL A   1      42.601  19.222  27.371  1.00  0.00    -0.744 OA
ENDBRANCH  62  65
ENDBRANCH  44  58
BRANCH  45  69
ATOM     69  C   UNL A   1      41.183  32.142  31.860  1.00  0.00     0.023 A 
ATOM     70  C   UNL A   1      40.692  33.333  31.268  1.00  0.00     0.012 A 
ATOM     71  C   UNL A   1      40.306  31.367  32.639  1.00  0.00     0.148 A 
ATOM     72  C   UNL A   1      39.324  33.612  31.252  1.00  0.00     0.002 A 
ATOM     73  C   UNL A   1      38.942  31.667  32.639  1.00  0.00     0.091 A 
ATOM     74  F   UNL A   1      40.796  30.318  33.312  1.00  0.00    -0.205 F 
ATOM     75  C   UNL A   1      38.443  32.747  31.892  1.00  0.00     0.022 A 
BRANCH  73  76
ATOM     76  S   UNL A   1      37.763  30.621  33.506  1.00  0.00     0.127 S 
ATOM     77  O   UNL A   1      37.907  31.091  34.881  1.00  0.00    -0.237 OA
ATOM     78  O   UNL A   1      36.489  30.971  32.879  1.00  0.00    -0.237 OA
ATOM     79  O   UNL A   1      38.203  29.259  33.242  1.00  0.00    -0.744 OA
ENDBRANCH  73  76
ENDBRANCH  45  69
BRANCH  57  80
ATOM     80  C   UNL A   1      45.479  26.452  32.884  1.00  0.00     0.023 A 
ATOM     81  C   UNL A   1      46.867  26.386  33.119  1.00  0.00     0.012 A 
ATOM     82  C   UNL A   1      44.655  25.684  33.746  1.00  0.00     0.148 A 
ATOM     83  C   UNL A   1      47.422  25.521  34.066  1.00  0.00     0.002 A 
ATOM     84  C   UNL A   1      45.205  24.923  34.774  1.00  0.00     0.091 A 
ATOM     85  F   UNL A   1      43.327  25.666  33.562  1.00  0.00    -0.205 F 
ATOM     86  C   UNL A   1      46.590  24.799  34.905  1.00  0.00     0.022 A 
BRANCH  84  87
ATOM     87  S   UNL A   1      44.178  24.196  36.058  1.00  0.00     0.127 S 
ATOM     88  O   UNL A   1      43.439  25.357  36.546  1.00  0.00    -0.237 OA
ATOM     89  O   UNL A   1      43.373  23.234  35.303  1.00  0.00    -0.237 OA
ATOM     90  O   UNL A   1      45.107  23.585  36.999  1.00  0.00    -0.744 OA
ENDBRANCH  84  87
ENDBRANCH  57  80
ENDBRANCH  31  32
ENDBRANCH  23  26
ENDBRANCH  21  22
ENDBRANCH   1  21
TORSDOF 15
ENDMDL
MODEL 3
REMARK VINA RESULT:     -11.5      4.066      9.661
REMARK SMILES Cc1ccccc1-n1nc(Cl)c(C(=O)NCCCCNC(=O)c2ccc(-c3c4nc(c(-c5cccc(S(=O)(=O)[O-])c5F)c5ccc([nH]5)c(-c5cccc(S(=O)(=O)[O-])c5F)c5nc(c(-c6cccc(S(=O)(=O)[O-])c6F)c6ccc3[nH]6)C=C5)C=C4)cc2)n1
REMARK SMILES IDX 18 1 17 2 16 3 15 4 13 5 14 6 12 8 8 9 9 10 86 11 10 12
REMARK SMILES IDX 11 13 7 14 1 15 2 16 3 17 4 18 6 19 5 20 19 21 20 22 21 23
REMARK SMILES IDX 22 25 23 26 24 27 85 28 25 29 84 30 26 31 27 32 28 33 78 34
REMARK SMILES IDX 29 35 83 36 77 37 79 38 30 39 82 40 76 41 75 42 31 44 63 45
REMARK SMILES IDX 43 46 62 47 44 48 47 49 61 50 80 51 45 52 46 53 60 55 81 56
REMARK SMILES IDX 48 57 32 58 33 59 41 60 34 61 36 62 42 63 35 64 37 65 38 66
REMARK SMILES IDX 39 67 40 68 64 69 65 70 73 71 66 72 68 73 74 74 67 75 69 76
REMARK SMILES IDX 70 77 71 78 72 79 49 80 50 81 58 82 51 83 53 84 59 85 52 86
REMARK SMILES IDX 54 87 55 88 56 89 57 90
REMARK H PARENT 15 7 20 24 79 43 47 54
REMARK Flexibility Score: inf
ROOT
ATOM      1  C   UNL A   1      33.810  29.674  27.608  1.00  0.00     0.023 C 
ENDROOT
BRANCH   1   2
ATOM      2  C   UNL A   1      32.540  30.355  27.092  1.00  0.00     0.023 C 
BRANCH   2   3
ATOM      3  C   UNL A   1      31.722  29.526  26.089  1.00  0.00     0.116 C 
BRANCH   3   4
ATOM      4  N   UNL A   1      32.174  29.684  24.709  1.00  0.00    -0.351 N 
ATOM      5  C   UNL A   1      32.646  28.760  23.789  1.00  0.00     0.275 C 
ATOM      6  O   UNL A   1      33.007  29.174  22.696  1.00  0.00    -0.267 OA
ATOM      7  H   UNL A   1      32.137  30.609  24.373  1.00  0.00     0.163 HD
BRANCH   5   8
ATOM      8  C   UNL A   1      32.730  27.344  24.149  1.00  0.00     0.189 A 
ATOM      9  N   UNL A   1      33.527  25.439  24.581  1.00  0.00    -0.149 N 
ATOM     10  N   UNL A   1      32.197  25.184  24.567  1.00  0.00    -0.135 NA
ATOM     11  N   UNL A   1      33.890  26.700  24.311  1.00  0.00    -0.141 NA
ATOM     12  C   UNL A   1      31.697  26.417  24.400  1.00  0.00     0.184 A 
ATOM     13  Cl  UNL A   1      30.025  26.671  24.452  1.00  0.00    -0.058 Cl
BRANCH   9  14
ATOM     14  C   UNL A   1      34.525  24.441  24.666  1.00  0.00     0.089 A 
ATOM     15  C   UNL A   1      33.814  23.357  22.425  1.00  0.00     0.047 C 
ATOM     16  C   UNL A   1      34.590  23.392  23.718  1.00  0.00    -0.023 A 
ATOM     17  C   UNL A   1      35.460  22.321  23.971  1.00  0.00     0.006 A 
ATOM     18  C   UNL A   1      36.251  22.297  25.120  1.00  0.00     0.000 A 
ATOM     19  C   UNL A   1      35.365  24.443  25.789  1.00  0.00     0.030 A 
ATOM     20  C   UNL A   1      36.211  23.360  26.022  1.00  0.00     0.002 A 
ENDBRANCH   9  14
ENDBRANCH   5   8
ENDBRANCH   3   4
ENDBRANCH   2   3
ENDBRANCH   1   2
BRANCH   1  21
ATOM     21  C   UNL A   1      35.081  30.044  26.860  1.00  0.00     0.116 C 
BRANCH  21  22
ATOM     22  N   UNL A   1      35.948  31.017  27.488  1.00  0.00    -0.352 N 
ATOM     23  C   UNL A   1      37.119  30.789  28.203  1.00  0.00     0.251 C 
ATOM     24  H   UNL A   1      35.675  31.958  27.399  1.00  0.00     0.163 HD
ATOM     25  O   UNL A   1      37.579  31.713  28.868  1.00  0.00    -0.269 OA
BRANCH  23  26
ATOM     26  C   UNL A   1      37.878  29.512  28.040  1.00  0.00     0.039 A 
ATOM     27  C   UNL A   1      37.818  28.594  29.098  1.00  0.00     0.014 A 
ATOM     28  C   UNL A   1      38.847  29.349  27.056  1.00  0.00     0.014 A 
ATOM     29  C   UNL A   1      38.920  27.793  29.373  1.00  0.00     0.010 A 
ATOM     30  C   UNL A   1      39.972  28.630  27.361  1.00  0.00     0.010 A 
ATOM     31  C   UNL A   1      40.042  27.960  28.583  1.00  0.00    -0.014 A 
BRANCH  31  32
ATOM     32  C   UNL A   1      41.374  27.504  28.901  1.00  0.00     0.031 A 
ATOM     33  C   UNL A   1      41.692  26.091  28.693  1.00  0.00     0.074 A 
ATOM     34  C   UNL A   1      42.308  28.476  28.998  1.00  0.00     0.049 A 
ATOM     35  N   UNL A   1      42.810  25.546  29.013  1.00  0.00    -0.248 NA
ATOM     36  C   UNL A   1      40.729  25.155  28.117  1.00  0.00     0.031 C 
ATOM     37  C   UNL A   1      43.726  28.419  28.678  1.00  0.00     0.029 A 
ATOM     38  N   UNL A   1      42.147  29.769  29.470  1.00  0.00    -0.354 N 
ATOM     39  C   UNL A   1      42.850  24.338  28.350  1.00  0.00     0.074 A 
ATOM     40  C   UNL A   1      41.482  24.060  28.002  1.00  0.00     0.031 C 
ATOM     41  C   UNL A   1      44.333  29.520  29.164  1.00  0.00     0.029 A 
ATOM     42  C   UNL A   1      43.360  30.217  29.993  1.00  0.00     0.049 A 
ATOM     43  H   UNL A   1      41.311  30.288  29.442  1.00  0.00     0.167 HD
ATOM     44  C   UNL A   1      44.068  23.852  27.986  1.00  0.00     0.034 A 
ATOM     45  C   UNL A   1      43.483  30.374  31.353  1.00  0.00     0.034 A 
ATOM     46  C   UNL A   1      45.136  24.632  28.648  1.00  0.00     0.049 A 
ATOM     47  C   UNL A   1      44.378  29.318  31.990  1.00  0.00     0.074 A 
ATOM     48  C   UNL A   1      46.010  25.605  28.193  1.00  0.00     0.029 A 
ATOM     49  N   UNL A   1      45.160  24.713  30.044  1.00  0.00    -0.354 N 
ATOM     50  N   UNL A   1      44.821  28.258  31.368  1.00  0.00    -0.248 NA
ATOM     51  C   UNL A   1      44.867  29.388  33.363  1.00  0.00     0.031 C 
ATOM     52  C   UNL A   1      46.432  26.371  29.321  1.00  0.00     0.029 A 
ATOM     53  C   UNL A   1      45.863  25.835  30.467  1.00  0.00     0.049 A 
ATOM     54  H   UNL A   1      44.736  24.061  30.647  1.00  0.00     0.167 HD
ATOM     55  C   UNL A   1      45.512  27.455  32.229  1.00  0.00     0.074 A 
ATOM     56  C   UNL A   1      45.583  28.250  33.447  1.00  0.00     0.031 C 
ATOM     57  C   UNL A   1      45.922  26.191  31.890  1.00  0.00     0.034 A 
BRANCH  44  58
ATOM     58  C   UNL A   1      44.325  22.872  26.842  1.00  0.00     0.023 A 
ATOM     59  C   UNL A   1      45.173  23.320  25.804  1.00  0.00     0.012 A 
ATOM     60  C   UNL A   1      43.738  21.593  26.636  1.00  0.00     0.148 A 
ATOM     61  C   UNL A   1      45.404  22.573  24.639  1.00  0.00     0.002 A 
ATOM     62  C   UNL A   1      44.004  20.826  25.496  1.00  0.00     0.091 A 
ATOM     63  F   UNL A   1      42.852  21.106  27.502  1.00  0.00    -0.205 F 
ATOM     64  C   UNL A   1      44.827  21.321  24.487  1.00  0.00     0.022 A 
BRANCH  62  65
ATOM     65  S   UNL A   1      43.311  19.175  25.245  1.00  0.00     0.127 S 
ATOM     66  O   UNL A   1      41.872  19.431  25.332  1.00  0.00    -0.237 OA
ATOM     67  O   UNL A   1      43.789  18.840  23.903  1.00  0.00    -0.237 OA
ATOM     68  O   UNL A   1      43.847  18.331  26.306  1.00  0.00    -0.744 OA
ENDBRANCH  62  65
ENDBRANCH  44  58
BRANCH  45  69
ATOM     69  C   UNL A   1      42.225  30.939  31.955  1.00  0.00     0.023 A 
ATOM     70  C   UNL A   1      41.818  32.207  31.464  1.00  0.00     0.012 A 
ATOM     71  C   UNL A   1      41.260  30.105  32.545  1.00  0.00     0.148 A 
ATOM     72  C   UNL A   1      40.465  32.527  31.348  1.00  0.00     0.002 A 
ATOM     73  C   UNL A   1      39.909  30.444  32.447  1.00  0.00     0.091 A 
ATOM     74  F   UNL A   1      41.660  28.969  33.131  1.00  0.00    -0.205 F 
ATOM     75  C   UNL A   1      39.508  31.619  31.790  1.00  0.00     0.022 A 
BRANCH  73  76
ATOM     76  S   UNL A   1      38.629  29.340  33.063  1.00  0.00     0.127 S 
ATOM     77  O   UNL A   1      38.592  29.691  34.480  1.00  0.00    -0.237 OA
ATOM     78  O   UNL A   1      37.446  29.753  32.308  1.00  0.00    -0.237 OA
ATOM     79  O   UNL A   1      39.102  28.001  32.744  1.00  0.00    -0.744 OA
ENDBRANCH  73  76
ENDBRANCH  45  69
BRANCH  57  80
ATOM     80  C   UNL A   1      46.444  25.177  32.895  1.00  0.00     0.023 A 
ATOM     81  C   UNL A   1      47.767  25.215  33.378  1.00  0.00     0.012 A 
ATOM     82  C   UNL A   1      45.583  24.218  33.486  1.00  0.00     0.148 A 
ATOM     83  C   UNL A   1      48.250  24.283  34.300  1.00  0.00     0.002 A 
ATOM     84  C   UNL A   1      46.033  23.377  34.499  1.00  0.00     0.091 A 
ATOM     85  F   UNL A   1      44.319  24.097  33.053  1.00  0.00    -0.205 F 
ATOM     86  C   UNL A   1      47.379  23.371  34.873  1.00  0.00     0.022 A 
BRANCH  84  87
ATOM     87  S   UNL A   1      44.895  22.379  35.468  1.00  0.00     0.127 S 
ATOM     88  O   UNL A   1      45.387  22.593  36.826  1.00  0.00    -0.237 OA
ATOM     89  O   UNL A   1      43.606  23.011  35.179  1.00  0.00    -0.237 OA
ATOM     90  O   UNL A   1      45.023  21.025  34.945  1.00  0.00    -0.744 OA
ENDBRANCH  84  87
ENDBRANCH  57  80
ENDBRANCH  31  32
ENDBRANCH  23  26
ENDBRANCH  21  22
ENDBRANCH   1  21
TORSDOF 15
ENDMDL
