MODEL 1
REMARK VINA RESULT:     -11.7      0.000      0.000
REMARK SMILES O=C(C[C@@H]1C=CCC1)NCc1ccc(C(=O)NCCCCNC(=O)c2ccc(-c3c4nc(c(-c5cccc(S(=O)(=O)[O-])c5F)c5ccc([nH]5)c(-c5cccc(S(=O)(=O)[O-])c5F)c5nc(c(-c6cccc(S(=O)(=O)[O-])c6F)c6ccc3[nH]6)C=C5)C=C4)cc2)o1
REMARK SMILES IDX 19 1 18 2 17 3 15 4 16 5 14 7 11 8 12 9 88 10 13 11 10 12
REMARK SMILES IDX 9 13 1 14 2 15 3 17 4 18 5 19 8 20 6 21 7 22 20 23 21 24
REMARK SMILES IDX 22 25 23 26 24 28 25 29 26 30 87 31 27 32 86 33 28 34 29 35
REMARK SMILES IDX 30 36 80 37 31 38 85 39 79 40 81 41 32 42 84 43 78 44 77 45
REMARK SMILES IDX 33 47 65 48 45 49 64 50 46 51 49 52 63 53 82 54 47 55 48 56
REMARK SMILES IDX 62 58 83 59 50 60 34 61 35 62 43 63 36 64 38 65 44 66 37 67
REMARK SMILES IDX 39 68 40 69 41 70 42 71 66 72 67 73 75 74 68 75 70 76 76 77
REMARK SMILES IDX 69 78 71 79 72 80 73 81 74 82 51 83 52 84 60 85 53 86 55 87
REMARK SMILES IDX 61 88 54 89 56 90 57 91 58 92 59 93
REMARK H PARENT 17 6 9 16 22 27 81 46 49 57
REMARK Flexibility Score: inf
ROOT
ATOM      1  C   UNL A   1      31.044  31.261  25.855  1.00  0.00     0.023 C 
ENDROOT
BRANCH   1   2
ATOM      2  C   UNL A   1      32.196  30.303  26.156  1.00  0.00     0.116 C 
BRANCH   2   3
ATOM      3  N   UNL A   1      31.845  29.363  27.201  1.00  0.00    -0.349 N 
ATOM      4  C   UNL A   1      31.951  27.992  27.246  1.00  0.00     0.286 C 
ATOM      5  O   UNL A   1      31.675  27.460  28.324  1.00  0.00    -0.266 OA
ATOM      6  H   UNL A   1      31.469  29.774  28.014  1.00  0.00     0.163 HD
BRANCH   4   7
ATOM      7  C   UNL A   1      32.381  27.228  26.086  1.00  0.00     0.191 A 
ATOM      8  C   UNL A   1      32.090  26.466  24.026  1.00  0.00     0.124 A 
ATOM      9  C   UNL A   1      33.294  25.959  24.457  1.00  0.00     0.048 A 
ATOM     10  O   UNL A   1      31.536  27.235  25.000  1.00  0.00    -0.454 OA
ATOM     11  C   UNL A   1      33.497  26.475  25.759  1.00  0.00     0.056 A 
BRANCH   8  12
ATOM     12  C   UNL A   1      31.335  26.358  22.754  1.00  0.00     0.191 C 
BRANCH  12  13
ATOM     13  N   UNL A   1      31.114  27.701  22.260  1.00  0.00    -0.349 N 
ATOM     14  O   UNL A   1      29.011  27.909  23.129  1.00  0.00    -0.275 OA
ATOM     15  C   UNL A   1      29.939  28.375  22.472  1.00  0.00     0.220 C 
ATOM     16  H   UNL A   1      31.832  28.147  21.756  1.00  0.00     0.163 HD
BRANCH  15  17
ATOM     17  C   UNL A   1      29.807  29.712  21.766  1.00  0.00     0.107 C 
BRANCH  17  18
ATOM     18  C   UNL A   1      28.471  30.411  22.028  1.00  0.00     0.021 C 
ATOM     19  C   UNL A   1      28.145  31.419  20.963  1.00  0.00    -0.027 C 
ATOM     20  C   UNL A   1      28.477  31.272  23.310  1.00  0.00     0.012 C 
ATOM     21  C   UNL A   1      28.125  32.671  21.425  1.00  0.00    -0.031 C 
ATOM     22  C   UNL A   1      28.442  32.739  22.877  1.00  0.00     0.027 C 
ENDBRANCH  17  18
ENDBRANCH  15  17
ENDBRANCH  12  13
ENDBRANCH   8  12
ENDBRANCH   4   7
ENDBRANCH   2   3
ENDBRANCH   1   2
BRANCH   1  23
ATOM     23  C   UNL A   1      31.214  32.658  26.461  1.00  0.00     0.023 C 
BRANCH  23  24
ATOM     24  C   UNL A   1      32.588  32.941  27.065  1.00  0.00     0.116 C 
BRANCH  24  25
ATOM     25  N   UNL A   1      32.689  34.252  27.692  1.00  0.00    -0.352 N 
ATOM     26  C   UNL A   1      33.620  34.681  28.610  1.00  0.00     0.251 C 
ATOM     27  H   UNL A   1      32.008  34.912  27.427  1.00  0.00     0.163 HD
ATOM     28  O   UNL A   1      33.527  35.789  29.124  1.00  0.00    -0.269 OA
BRANCH  26  29
ATOM     29  C   UNL A   1      34.708  33.762  29.001  1.00  0.00     0.039 A 
ATOM     30  C   UNL A   1      36.029  34.114  28.710  1.00  0.00     0.014 A 
ATOM     31  C   UNL A   1      34.423  32.595  29.713  1.00  0.00     0.014 A 
ATOM     32  C   UNL A   1      37.074  33.334  29.208  1.00  0.00     0.010 A 
ATOM     33  C   UNL A   1      35.465  31.851  30.255  1.00  0.00     0.010 A 
ATOM     34  C   UNL A   1      36.799  32.221  30.020  1.00  0.00    -0.014 A 
BRANCH  34  35
ATOM     35  C   UNL A   1      37.882  31.440  30.670  1.00  0.00     0.031 A 
ATOM     36  C   UNL A   1      38.246  31.711  32.102  1.00  0.00     0.074 A 
ATOM     37  C   UNL A   1      38.618  30.587  29.932  1.00  0.00     0.049 A 
ATOM     38  N   UNL A   1      39.246  31.240  32.800  1.00  0.00    -0.248 NA
ATOM     39  C   UNL A   1      37.394  32.661  32.835  1.00  0.00     0.031 C 
ATOM     40  C   UNL A   1      38.410  30.298  28.510  1.00  0.00     0.029 A 
ATOM     41  N   UNL A   1      39.718  29.835  30.263  1.00  0.00    -0.354 N 
ATOM     42  C   UNL A   1      39.171  31.869  34.036  1.00  0.00     0.074 A 
ATOM     43  C   UNL A   1      38.040  32.770  33.987  1.00  0.00     0.031 C 
ATOM     44  C   UNL A   1      39.354  29.440  28.091  1.00  0.00     0.029 A 
ATOM     45  C   UNL A   1      40.253  29.140  29.202  1.00  0.00     0.049 A 
ATOM     46  H   UNL A   1      40.089  29.798  31.174  1.00  0.00     0.167 HD
ATOM     47  C   UNL A   1      39.957  31.692  35.125  1.00  0.00     0.034 A 
ATOM     48  C   UNL A   1      41.349  28.359  29.130  1.00  0.00     0.034 A 
ATOM     49  C   UNL A   1      41.040  30.749  35.191  1.00  0.00     0.049 A 
ATOM     50  C   UNL A   1      42.169  28.135  30.372  1.00  0.00     0.074 A 
ATOM     51  C   UNL A   1      41.833  30.426  36.277  1.00  0.00     0.029 A 
ATOM     52  N   UNL A   1      41.479  29.975  34.128  1.00  0.00    -0.354 N 
ATOM     53  N   UNL A   1      41.989  28.619  31.576  1.00  0.00    -0.248 NA
ATOM     54  C   UNL A   1      43.324  27.232  30.254  1.00  0.00     0.031 C 
ATOM     55  C   UNL A   1      42.757  29.457  35.870  1.00  0.00     0.029 A 
ATOM     56  C   UNL A   1      42.533  29.173  34.532  1.00  0.00     0.049 A 
ATOM     57  H   UNL A   1      41.099  29.993  33.221  1.00  0.00     0.167 HD
ATOM     58  C   UNL A   1      42.983  28.053  32.366  1.00  0.00     0.074 A 
ATOM     59  C   UNL A   1      43.752  27.177  31.508  1.00  0.00     0.031 C 
ATOM     60  C   UNL A   1      43.244  28.255  33.681  1.00  0.00     0.034 A 
BRANCH  47  61
ATOM     61  C   UNL A   1      39.628  32.485  36.360  1.00  0.00     0.023 A 
ATOM     62  C   UNL A   1      40.286  33.710  36.587  1.00  0.00     0.012 A 
ATOM     63  C   UNL A   1      38.636  32.053  37.263  1.00  0.00     0.148 A 
ATOM     64  C   UNL A   1      39.986  34.481  37.709  1.00  0.00     0.002 A 
ATOM     65  C   UNL A   1      38.315  32.846  38.360  1.00  0.00     0.091 A 
ATOM     66  F   UNL A   1      38.040  30.873  37.044  1.00  0.00    -0.205 F 
ATOM     67  C   UNL A   1      38.995  34.053  38.588  1.00  0.00     0.022 A 
BRANCH  65  68
ATOM     68  S   UNL A   1      37.004  32.413  39.509  1.00  0.00     0.127 S 
ATOM     69  O   UNL A   1      37.261  33.337  40.611  1.00  0.00    -0.237 OA
ATOM     70  O   UNL A   1      35.799  32.709  38.732  1.00  0.00    -0.237 OA
ATOM     71  O   UNL A   1      37.193  31.001  39.813  1.00  0.00    -0.744 OA
ENDBRANCH  65  68
ENDBRANCH  47  61
BRANCH  48  72
ATOM     72  C   UNL A   1      41.685  27.669  27.853  1.00  0.00     0.023 A 
ATOM     73  C   UNL A   1      42.128  28.435  26.758  1.00  0.00     0.012 A 
ATOM     74  C   UNL A   1      41.608  26.269  27.725  1.00  0.00     0.148 A 
ATOM     75  C   UNL A   1      42.464  27.824  25.550  1.00  0.00     0.002 A 
ATOM     76  C   UNL A   1      41.994  25.661  26.535  1.00  0.00     0.091 A 
ATOM     77  F   UNL A   1      41.169  25.557  28.773  1.00  0.00    -0.205 F 
ATOM     78  C   UNL A   1      42.407  26.438  25.441  1.00  0.00     0.022 A 
BRANCH  76  79
ATOM     79  S   UNL A   1      42.076  23.875  26.357  1.00  0.00     0.127 S 
ATOM     80  O   UNL A   1      42.706  23.732  25.048  1.00  0.00    -0.237 OA
ATOM     81  O   UNL A   1      42.919  23.492  27.492  1.00  0.00    -0.237 OA
ATOM     82  O   UNL A   1      40.698  23.414  26.458  1.00  0.00    -0.744 OA
ENDBRANCH  76  79
ENDBRANCH  48  72
BRANCH  60  83
ATOM     83  C   UNL A   1      44.389  27.495  34.294  1.00  0.00     0.023 A 
ATOM     84  C   UNL A   1      45.679  28.058  34.286  1.00  0.00     0.012 A 
ATOM     85  C   UNL A   1      44.168  26.275  34.963  1.00  0.00     0.148 A 
ATOM     86  C   UNL A   1      46.738  27.411  34.921  1.00  0.00     0.002 A 
ATOM     87  C   UNL A   1      45.219  25.656  35.628  1.00  0.00     0.091 A 
ATOM     88  F   UNL A   1      42.936  25.747  34.938  1.00  0.00    -0.205 F 
ATOM     89  C   UNL A   1      46.506  26.218  35.602  1.00  0.00     0.022 A 
BRANCH  87  90
ATOM     90  S   UNL A   1      44.990  24.165  36.605  1.00  0.00     0.127 S 
ATOM     91  O   UNL A   1      46.371  23.753  36.847  1.00  0.00    -0.237 OA
ATOM     92  O   UNL A   1      44.289  24.671  37.788  1.00  0.00    -0.237 OA
ATOM     93  O   UNL A   1      44.200  23.263  35.779  1.00  0.00    -0.744 OA
ENDBRANCH  87  90
ENDBRANCH  60  83
ENDBRANCH  34  35
ENDBRANCH  26  29
ENDBRANCH  24  25
ENDBRANCH  23  24
ENDBRANCH   1  23
TORSDOF 18
ENDMDL
MODEL 2
REMARK VINA RESULT:     -11.5      3.237      9.029
REMARK SMILES O=C(C[C@@H]1C=CCC1)NCc1ccc(C(=O)NCCCCNC(=O)c2ccc(-c3c4nc(c(-c5cccc(S(=O)(=O)[O-])c5F)c5ccc([nH]5)c(-c5cccc(S(=O)(=O)[O-])c5F)c5nc(c(-c6cccc(S(=O)(=O)[O-])c6F)c6ccc3[nH]6)C=C5)C=C4)cc2)o1
REMARK SMILES IDX 19 1 18 2 17 3 15 4 16 5 14 7 11 8 12 9 88 10 13 11 10 12
REMARK SMILES IDX 9 13 1 14 2 15 3 17 4 18 5 19 8 20 6 21 7 22 20 23 21 24
REMARK SMILES IDX 22 25 23 26 24 28 25 29 26 30 87 31 27 32 86 33 28 34 29 35
REMARK SMILES IDX 30 36 80 37 31 38 85 39 79 40 81 41 32 42 84 43 78 44 77 45
REMARK SMILES IDX 33 47 65 48 45 49 64 50 46 51 49 52 63 53 82 54 47 55 48 56
REMARK SMILES IDX 62 58 83 59 50 60 34 61 35 62 43 63 36 64 38 65 44 66 37 67
REMARK SMILES IDX 39 68 40 69 41 70 42 71 66 72 67 73 75 74 68 75 70 76 76 77
REMARK SMILES IDX 69 78 71 79 72 80 73 81 74 82 51 83 52 84 60 85 53 86 55 87
REMARK SMILES IDX 61 88 54 89 56 90 57 91 58 92 59 93
REMARK H PARENT 17 6 9 16 22 27 81 46 49 57
REMARK Flexibility Score: inf
ROOT
ATOM      1  C   UNL A   1      31.273  27.804  25.092  1.00  0.00     0.023 C 
ENDROOT
BRANCH   1   2
ATOM      2  C   UNL A   1      31.129  26.583  24.184  1.00  0.00     0.116 C 
BRANCH   2   3
ATOM      3  N   UNL A   1      32.057  26.636  23.074  1.00  0.00    -0.349 N 
ATOM      4  C   UNL A   1      33.258  25.991  22.877  1.00  0.00     0.286 C 
ATOM      5  O   UNL A   1      33.781  26.144  21.771  1.00  0.00    -0.266 OA
ATOM      6  H   UNL A   1      31.784  27.230  22.337  1.00  0.00     0.163 HD
BRANCH   4   7
ATOM      7  C   UNL A   1      33.853  25.168  23.917  1.00  0.00     0.191 A 
ATOM      8  C   UNL A   1      35.003  23.399  24.594  1.00  0.00     0.124 A 
ATOM      9  C   UNL A   1      34.650  24.087  25.732  1.00  0.00     0.048 A 
ATOM     10  O   UNL A   1      34.530  24.046  23.497  1.00  0.00    -0.454 OA
ATOM     11  C   UNL A   1      33.947  25.236  25.297  1.00  0.00     0.056 A 
BRANCH   8  12
ATOM     12  C   UNL A   1      35.785  22.163  24.353  1.00  0.00     0.191 C 
BRANCH  12  13
ATOM     13  N   UNL A   1      35.077  21.066  24.979  1.00  0.00    -0.349 N 
ATOM     14  O   UNL A   1      33.325  21.071  23.511  1.00  0.00    -0.275 OA
ATOM     15  C   UNL A   1      33.870  20.612  24.512  1.00  0.00     0.220 C 
ATOM     16  H   UNL A   1      35.476  20.629  25.765  1.00  0.00     0.163 HD
BRANCH  15  17
ATOM     17  C   UNL A   1      33.187  19.557  25.363  1.00  0.00     0.107 C 
BRANCH  17  18
ATOM     18  C   UNL A   1      32.925  18.247  24.617  1.00  0.00     0.021 C 
ATOM     19  C   UNL A   1      32.500  17.146  25.546  1.00  0.00    -0.027 C 
ATOM     20  C   UNL A   1      34.193  17.658  23.962  1.00  0.00     0.012 C 
ATOM     21  C   UNL A   1      33.388  16.152  25.610  1.00  0.00    -0.031 C 
ATOM     22  C   UNL A   1      34.575  16.402  24.748  1.00  0.00     0.027 C 
ENDBRANCH  17  18
ENDBRANCH  15  17
ENDBRANCH  12  13
ENDBRANCH   8  12
ENDBRANCH   4   7
ENDBRANCH   2   3
ENDBRANCH   1   2
BRANCH   1  23
ATOM     23  C   UNL A   1      32.135  28.926  24.504  1.00  0.00     0.023 C 
BRANCH  23  24
ATOM     24  C   UNL A   1      33.103  29.584  25.487  1.00  0.00     0.116 C 
BRANCH  24  25
ATOM     25  N   UNL A   1      32.568  30.786  26.113  1.00  0.00    -0.352 N 
ATOM     26  C   UNL A   1      33.139  31.547  27.107  1.00  0.00     0.251 C 
ATOM     27  H   UNL A   1      31.691  31.091  25.785  1.00  0.00     0.163 HD
ATOM     28  O   UNL A   1      32.530  32.486  27.604  1.00  0.00    -0.269 OA
BRANCH  26  29
ATOM     29  C   UNL A   1      34.484  31.181  27.597  1.00  0.00     0.039 A 
ATOM     30  C   UNL A   1      35.461  32.176  27.697  1.00  0.00     0.014 A 
ATOM     31  C   UNL A   1      34.749  29.878  28.022  1.00  0.00     0.014 A 
ATOM     32  C   UNL A   1      36.685  31.880  28.301  1.00  0.00     0.010 A 
ATOM     33  C   UNL A   1      35.945  29.600  28.674  1.00  0.00     0.010 A 
ATOM     34  C   UNL A   1      36.918  30.600  28.833  1.00  0.00    -0.014 A 
BRANCH  34  35
ATOM     35  C   UNL A   1      38.153  30.281  29.592  1.00  0.00     0.031 A 
ATOM     36  C   UNL A   1      39.150  29.310  29.028  1.00  0.00     0.074 A 
ATOM     37  C   UNL A   1      38.305  30.764  30.841  1.00  0.00     0.049 A 
ATOM     38  N   UNL A   1      40.211  28.798  29.595  1.00  0.00    -0.248 NA
ATOM     39  C   UNL A   1      38.905  28.827  27.660  1.00  0.00     0.031 C 
ATOM     40  C   UNL A   1      37.365  31.655  31.527  1.00  0.00     0.029 A 
ATOM     41  N   UNL A   1      39.288  30.540  31.774  1.00  0.00    -0.354 N 
ATOM     42  C   UNL A   1      40.733  27.900  28.674  1.00  0.00     0.074 A 
ATOM     43  C   UNL A   1      39.863  27.921  27.519  1.00  0.00     0.031 C 
ATOM     44  C   UNL A   1      37.812  31.894  32.771  1.00  0.00     0.029 A 
ATOM     45  C   UNL A   1      39.052  31.153  32.983  1.00  0.00     0.049 A 
ATOM     46  H   UNL A   1      40.086  29.993  31.593  1.00  0.00     0.167 HD
ATOM     47  C   UNL A   1      41.853  27.144  28.770  1.00  0.00     0.034 A 
ATOM     48  C   UNL A   1      39.749  31.113  34.136  1.00  0.00     0.034 A 
ATOM     49  C   UNL A   1      42.750  27.172  29.892  1.00  0.00     0.049 A 
ATOM     50  C   UNL A   1      41.021  30.312  34.193  1.00  0.00     0.074 A 
ATOM     51  C   UNL A   1      43.959  26.519  30.043  1.00  0.00     0.029 A 
ATOM     52  N   UNL A   1      42.537  27.897  31.055  1.00  0.00    -0.354 N 
ATOM     53  N   UNL A   1      41.582  29.590  33.254  1.00  0.00    -0.248 NA
ATOM     54  C   UNL A   1      41.773  30.343  35.456  1.00  0.00     0.031 C 
ATOM     55  C   UNL A   1      44.478  26.846  31.301  1.00  0.00     0.029 A 
ATOM     56  C   UNL A   1      43.593  27.708  31.929  1.00  0.00     0.049 A 
ATOM     57  H   UNL A   1      41.751  28.463  31.232  1.00  0.00     0.167 HD
ATOM     58  C   UNL A   1      42.769  29.112  33.799  1.00  0.00     0.074 A 
ATOM     59  C   UNL A   1      42.853  29.639  35.144  1.00  0.00     0.031 C 
ATOM     60  C   UNL A   1      43.695  28.296  33.240  1.00  0.00     0.034 A 
BRANCH  47  61
ATOM     61  C   UNL A   1      42.210  26.274  27.595  1.00  0.00     0.023 A 
ATOM     62  C   UNL A   1      42.944  26.826  26.527  1.00  0.00     0.012 A 
ATOM     63  C   UNL A   1      41.871  24.907  27.569  1.00  0.00     0.148 A 
ATOM     64  C   UNL A   1      43.311  26.041  25.435  1.00  0.00     0.002 A 
ATOM     65  C   UNL A   1      42.274  24.120  26.495  1.00  0.00     0.091 A 
ATOM     66  F   UNL A   1      41.150  24.405  28.582  1.00  0.00    -0.205 F 
ATOM     67  C   UNL A   1      42.985  24.688  25.425  1.00  0.00     0.022 A 
BRANCH  65  68
ATOM     68  S   UNL A   1      41.961  22.353  26.426  1.00  0.00     0.127 S 
ATOM     69  O   UNL A   1      40.507  22.316  26.292  1.00  0.00    -0.237 OA
ATOM     70  O   UNL A   1      42.695  21.954  25.224  1.00  0.00    -0.237 OA
ATOM     71  O   UNL A   1      42.495  21.807  27.666  1.00  0.00    -0.744 OA
ENDBRANCH  65  68
ENDBRANCH  47  61
BRANCH  48  72
ATOM     72  C   UNL A   1      39.299  31.921  35.303  1.00  0.00     0.023 A 
ATOM     73  C   UNL A   1      38.456  31.327  36.263  1.00  0.00     0.012 A 
ATOM     74  C   UNL A   1      39.723  33.251  35.492  1.00  0.00     0.148 A 
ATOM     75  C   UNL A   1      38.023  32.048  37.376  1.00  0.00     0.002 A 
ATOM     76  C   UNL A   1      39.329  33.948  36.630  1.00  0.00     0.091 A 
ATOM     77  F   UNL A   1      40.511  33.806  34.561  1.00  0.00    -0.205 F 
ATOM     78  C   UNL A   1      38.468  33.353  37.565  1.00  0.00     0.022 A 
BRANCH  76  79
ATOM     79  S   UNL A   1      39.964  35.584  37.015  1.00  0.00     0.127 S 
ATOM     80  O   UNL A   1      39.315  35.864  38.293  1.00  0.00    -0.237 OA
ATOM     81  O   UNL A   1      41.405  35.344  37.095  1.00  0.00    -0.237 OA
ATOM     82  O   UNL A   1      39.562  36.426  35.896  1.00  0.00    -0.744 OA
ENDBRANCH  76  79
ENDBRANCH  48  72
BRANCH  60  83
ATOM     83  C   UNL A   1      44.905  27.941  34.061  1.00  0.00     0.023 A 
ATOM     84  C   UNL A   1      46.000  28.825  34.101  1.00  0.00     0.012 A 
ATOM     85  C   UNL A   1      44.915  26.787  34.868  1.00  0.00     0.148 A 
ATOM     86  C   UNL A   1      47.096  28.558  34.919  1.00  0.00     0.002 A 
ATOM     87  C   UNL A   1      45.992  26.547  35.712  1.00  0.00     0.091 A 
ATOM     88  F   UNL A   1      43.870  25.949  34.797  1.00  0.00    -0.205 F 
ATOM     89  C   UNL A   1      47.087  27.427  35.733  1.00  0.00     0.022 A 
BRANCH  87  90
ATOM     90  S   UNL A   1      46.023  25.165  36.860  1.00  0.00     0.127 S 
ATOM     91  O   UNL A   1      45.938  24.023  35.953  1.00  0.00    -0.237 OA
ATOM     92  O   UNL A   1      47.324  25.330  37.512  1.00  0.00    -0.237 OA
ATOM     93  O   UNL A   1      44.880  25.354  37.743  1.00  0.00    -0.744 OA
ENDBRANCH  87  90
ENDBRANCH  60  83
ENDBRANCH  34  35
ENDBRANCH  26  29
ENDBRANCH  24  25
ENDBRANCH  23  24
ENDBRANCH   1  23
TORSDOF 18
ENDMDL
MODEL 3
REMARK VINA RESULT:     -11.5      2.956      4.021
REMARK SMILES O=C(C[C@@H]1C=CCC1)NCc1ccc(C(=O)NCCCCNC(=O)c2ccc(-c3c4nc(c(-c5cccc(S(=O)(=O)[O-])c5F)c5ccc([nH]5)c(-c5cccc(S(=O)(=O)[O-])c5F)c5nc(c(-c6cccc(S(=O)(=O)[O-])c6F)c6ccc3[nH]6)C=C5)C=C4)cc2)o1
REMARK SMILES IDX 19 1 18 2 17 3 15 4 16 5 14 7 11 8 12 9 88 10 13 11 10 12
REMARK SMILES IDX 9 13 1 14 2 15 3 17 4 18 5 19 8 20 6 21 7 22 20 23 21 24
REMARK SMILES IDX 22 25 23 26 24 28 25 29 26 30 87 31 27 32 86 33 28 34 29 35
REMARK SMILES IDX 30 36 80 37 31 38 85 39 79 40 81 41 32 42 84 43 78 44 77 45
REMARK SMILES IDX 33 47 65 48 45 49 64 50 46 51 49 52 63 53 82 54 47 55 48 56
REMARK SMILES IDX 62 58 83 59 50 60 34 61 35 62 43 63 36 64 38 65 44 66 37 67
REMARK SMILES IDX 39 68 40 69 41 70 42 71 66 72 67 73 75 74 68 75 70 76 76 77
REMARK SMILES IDX 69 78 71 79 72 80 73 81 74 82 51 83 52 84 60 85 53 86 55 87
REMARK SMILES IDX 61 88 54 89 56 90 57 91 58 92 59 93
REMARK H PARENT 17 6 9 16 22 27 81 46 49 57
REMARK Flexibility Score: inf
ROOT
ATOM      1  C   UNL A   1      31.557  27.788  26.986  1.00  0.00     0.023 C 
ENDROOT
BRANCH   1   2
ATOM      2  C   UNL A   1      31.420  26.564  26.081  1.00  0.00     0.116 C 
BRANCH   2   3
ATOM      3  N   UNL A   1      31.180  25.360  26.848  1.00  0.00    -0.349 N 
ATOM      4  C   UNL A   1      31.820  24.142  26.830  1.00  0.00     0.286 C 
ATOM      5  O   UNL A   1      31.466  23.329  27.686  1.00  0.00    -0.266 OA
ATOM      6  H   UNL A   1      30.435  25.424  27.490  1.00  0.00     0.163 HD
BRANCH   4   7
ATOM      7  C   UNL A   1      32.865  23.852  25.862  1.00  0.00     0.191 A 
ATOM      8  C   UNL A   1      33.578  23.533  23.788  1.00  0.00     0.124 A 
ATOM      9  C   UNL A   1      34.675  23.365  24.602  1.00  0.00     0.048 A 
ATOM     10  O   UNL A   1      32.486  23.831  24.539  1.00  0.00    -0.454 OA
ATOM     11  C   UNL A   1      34.226  23.604  25.923  1.00  0.00     0.056 A 
BRANCH   8  12
ATOM     12  C   UNL A   1      33.382  23.481  22.320  1.00  0.00     0.191 C 
BRANCH  12  13
ATOM     13  N   UNL A   1      32.380  24.467  21.975  1.00  0.00    -0.349 N 
ATOM     14  O   UNL A   1      33.865  26.165  21.602  1.00  0.00    -0.275 OA
ATOM     15  C   UNL A   1      32.705  25.761  21.658  1.00  0.00     0.220 C 
ATOM     16  H   UNL A   1      31.433  24.200  21.965  1.00  0.00     0.163 HD
BRANCH  15  17
ATOM     17  C   UNL A   1      31.535  26.708  21.465  1.00  0.00     0.107 C 
BRANCH  17  18
ATOM     18  C   UNL A   1      31.152  27.471  22.736  1.00  0.00     0.021 C 
ATOM     19  C   UNL A   1      29.705  27.284  23.088  1.00  0.00    -0.027 C 
ATOM     20  C   UNL A   1      31.261  29.003  22.580  1.00  0.00     0.012 C 
ATOM     21  C   UNL A   1      29.001  28.414  23.003  1.00  0.00    -0.031 C 
ATOM     22  C   UNL A   1      29.838  29.566  22.569  1.00  0.00     0.027 C 
ENDBRANCH  17  18
ENDBRANCH  15  17
ENDBRANCH  12  13
ENDBRANCH   8  12
ENDBRANCH   4   7
ENDBRANCH   2   3
ENDBRANCH   1   2
BRANCH   1  23
ATOM     23  C   UNL A   1      32.421  28.909  26.400  1.00  0.00     0.023 C 
BRANCH  23  24
ATOM     24  C   UNL A   1      33.696  29.223  27.182  1.00  0.00     0.116 C 
BRANCH  24  25
ATOM     25  N   UNL A   1      33.756  30.595  27.669  1.00  0.00    -0.352 N 
ATOM     26  C   UNL A   1      34.774  31.198  28.372  1.00  0.00     0.251 C 
ATOM     27  H   UNL A   1      32.974  31.159  27.472  1.00  0.00     0.163 HD
ATOM     28  O   UNL A   1      34.649  32.339  28.798  1.00  0.00    -0.269 OA
BRANCH  26  29
ATOM     29  C   UNL A   1      36.004  30.426  28.642  1.00  0.00     0.039 A 
ATOM     30  C   UNL A   1      37.123  30.629  27.829  1.00  0.00     0.014 A 
ATOM     31  C   UNL A   1      36.069  29.564  29.739  1.00  0.00     0.014 A 
ATOM     32  C   UNL A   1      38.337  30.025  28.165  1.00  0.00     0.010 A 
ATOM     33  C   UNL A   1      37.290  29.010  30.105  1.00  0.00     0.010 A 
ATOM     34  C   UNL A   1      38.438  29.246  29.330  1.00  0.00    -0.014 A 
BRANCH  34  35
ATOM     35  C   UNL A   1      39.736  28.691  29.789  1.00  0.00     0.031 A 
ATOM     36  C   UNL A   1      40.513  29.392  30.866  1.00  0.00     0.074 A 
ATOM     37  C   UNL A   1      40.270  27.635  29.143  1.00  0.00     0.049 A 
ATOM     38  N   UNL A   1      41.721  29.148  31.302  1.00  0.00    -0.248 NA
ATOM     39  C   UNL A   1      39.859  30.540  31.516  1.00  0.00     0.031 C 
ATOM     40  C   UNL A   1      39.645  26.917  28.030  1.00  0.00     0.029 A 
ATOM     41  N   UNL A   1      41.481  27.007  29.303  1.00  0.00    -0.354 N 
ATOM     42  C   UNL A   1      41.989  30.134  32.241  1.00  0.00     0.074 A 
ATOM     43  C   UNL A   1      40.827  30.994  32.298  1.00  0.00     0.031 C 
ATOM     44  C   UNL A   1      40.478  25.955  27.602  1.00  0.00     0.029 A 
ATOM     45  C   UNL A   1      41.707  26.004  28.388  1.00  0.00     0.049 A 
ATOM     46  H   UNL A   1      42.125  27.252  30.006  1.00  0.00     0.167 HD
ATOM     47  C   UNL A   1      43.094  30.295  33.008  1.00  0.00     0.034 A 
ATOM     48  C   UNL A   1      42.787  25.221  28.198  1.00  0.00     0.034 A 
ATOM     49  C   UNL A   1      44.221  29.403  32.993  1.00  0.00     0.049 A 
ATOM     50  C   UNL A   1      43.977  25.384  29.104  1.00  0.00     0.074 A 
ATOM     51  C   UNL A   1      45.344  29.423  33.800  1.00  0.00     0.029 A 
ATOM     52  N   UNL A   1      44.364  28.325  32.132  1.00  0.00    -0.354 N 
ATOM     53  N   UNL A   1      44.149  26.226  30.094  1.00  0.00    -0.248 NA
ATOM     54  C   UNL A   1      45.109  24.470  28.890  1.00  0.00     0.031 C 
ATOM     55  C   UNL A   1      46.171  28.359  33.423  1.00  0.00     0.029 A 
ATOM     56  C   UNL A   1      45.558  27.673  32.387  1.00  0.00     0.049 A 
ATOM     57  H   UNL A   1      43.713  28.063  31.442  1.00  0.00     0.167 HD
ATOM     58  C   UNL A   1      45.390  25.920  30.642  1.00  0.00     0.074 A 
ATOM     59  C   UNL A   1      45.919  24.805  29.885  1.00  0.00     0.031 C 
ATOM     60  C   UNL A   1      46.038  26.521  31.669  1.00  0.00     0.034 A 
BRANCH  47  61
ATOM     61  C   UNL A   1      43.108  31.443  33.980  1.00  0.00     0.023 A 
ATOM     62  C   UNL A   1      43.699  32.663  33.597  1.00  0.00     0.012 A 
ATOM     63  C   UNL A   1      42.493  31.337  35.243  1.00  0.00     0.148 A 
ATOM     64  C   UNL A   1      43.707  33.753  34.466  1.00  0.00     0.002 A 
ATOM     65  C   UNL A   1      42.471  32.440  36.091  1.00  0.00     0.091 A 
ATOM     66  F   UNL A   1      41.960  30.160  35.601  1.00  0.00    -0.205 F 
ATOM     67  C   UNL A   1      43.084  33.644  35.707  1.00  0.00     0.022 A 
BRANCH  65  68
ATOM     68  S   UNL A   1      41.633  32.417  37.679  1.00  0.00     0.127 S 
ATOM     69  O   UNL A   1      42.398  31.405  38.402  1.00  0.00    -0.237 OA
ATOM     70  O   UNL A   1      41.830  33.787  38.155  1.00  0.00    -0.237 OA
ATOM     71  O   UNL A   1      40.247  32.073  37.391  1.00  0.00    -0.744 OA
ENDBRANCH  65  68
ENDBRANCH  47  61
BRANCH  48  72
ATOM     72  C   UNL A   1      42.758  24.158  27.154  1.00  0.00     0.023 A 
ATOM     73  C   UNL A   1      43.367  24.405  25.909  1.00  0.00     0.012 A 
ATOM     74  C   UNL A   1      42.171  22.900  27.393  1.00  0.00     0.148 A 
ATOM     75  C   UNL A   1      43.370  23.431  24.911  1.00  0.00     0.002 A 
ATOM     76  C   UNL A   1      42.223  21.915  26.413  1.00  0.00     0.091 A 
ATOM     77  F   UNL A   1      41.582  22.688  28.578  1.00  0.00    -0.205 F 
ATOM     78  C   UNL A   1      42.808  22.184  25.166  1.00  0.00     0.022 A 
BRANCH  76  79
ATOM     79  S   UNL A   1      41.641  20.241  26.709  1.00  0.00     0.127 S 
ATOM     80  O   UNL A   1      41.868  19.610  25.412  1.00  0.00    -0.237 OA
ATOM     81  O   UNL A   1      42.534  19.790  27.778  1.00  0.00    -0.237 OA
ATOM     82  O   UNL A   1      40.250  20.383  27.117  1.00  0.00    -0.744 OA
ENDBRANCH  76  79
ENDBRANCH  48  72
BRANCH  60  83
ATOM     83  C   UNL A   1      47.381  25.972  32.068  1.00  0.00     0.023 A 
ATOM     84  C   UNL A   1      48.538  26.413  31.398  1.00  0.00     0.012 A 
ATOM     85  C   UNL A   1      47.507  25.102  33.169  1.00  0.00     0.148 A 
ATOM     86  C   UNL A   1      49.800  25.983  31.805  1.00  0.00     0.002 A 
ATOM     87  C   UNL A   1      48.769  24.709  33.595  1.00  0.00     0.091 A 
ATOM     88  F   UNL A   1      46.389  24.678  33.779  1.00  0.00    -0.205 F 
ATOM     89  C   UNL A   1      49.916  25.142  32.910  1.00  0.00     0.022 A 
BRANCH  87  90
ATOM     90  S   UNL A   1      49.016  23.702  35.062  1.00  0.00     0.127 S 
ATOM     91  O   UNL A   1      48.578  22.387  34.599  1.00  0.00    -0.237 OA
ATOM     92  O   UNL A   1      50.459  23.820  35.284  1.00  0.00    -0.237 OA
ATOM     93  O   UNL A   1      48.197  24.306  36.104  1.00  0.00    -0.744 OA
ENDBRANCH  87  90
ENDBRANCH  60  83
ENDBRANCH  34  35
ENDBRANCH  26  29
ENDBRANCH  24  25
ENDBRANCH  23  24
ENDBRANCH   1  23
TORSDOF 18
ENDMDL
