MODEL 1
REMARK VINA RESULT:     -13.8      0.000      0.000
REMARK SMILES COc1ccc(/C=C2/C(=O)N(c3ccccc3)C(=O)[NH+]=C2NCCCCNC(=O)c2ccc(-c3c4nc(c(-c5cccc(S(=O)(=O)[O-])c5F)c5ccc([nH]5)c(-c5cccc(S(=O)(=O)[O-])c5F)c5nc(c(-c6cccc(S(=O)(=O)[O-])c6F)c6ccc3[nH]6)C=C5)C=C4)cc2)cc1C(=O)[O-]
REMARK SMILES IDX 25 1 24 2 23 3 22 4 7 5 8 6 9 7 21 8 10 9 11 10 20 11 18 12
REMARK SMILES IDX 19 15 6 16 3 17 4 18 94 19 5 20 93 21 2 22 1 23 95 24 96 25
REMARK SMILES IDX 97 26 12 27 13 28 17 29 14 30 16 31 15 32 26 33 27 34 28 35
REMARK SMILES IDX 29 37 30 38 31 39 92 40 32 41 91 42 33 43 34 44 35 45 85 46
REMARK SMILES IDX 36 47 90 48 84 49 86 50 37 51 89 52 83 53 82 54 38 56 70 57
REMARK SMILES IDX 50 58 69 59 51 60 54 61 68 62 87 63 52 64 53 65 67 67 88 68
REMARK SMILES IDX 55 69 39 70 40 71 48 72 41 73 43 74 49 75 42 76 44 77 45 78
REMARK SMILES IDX 46 79 47 80 71 81 72 82 80 83 73 84 75 85 81 86 74 87 76 88
REMARK SMILES IDX 77 89 78 90 79 91 56 92 57 93 65 94 58 95 60 96 66 97 59 98
REMARK SMILES IDX 61 99 62 100 63 101 64 102
REMARK H PARENT 20 13 22 14 27 36 86 55 54 66
REMARK Flexibility Score: inf
ROOT
ATOM      1  C   UNL A   1      31.916  27.771  27.094  1.00  0.00     0.024 C 
ENDROOT
BRANCH   1   2
ATOM      2  C   UNL A   1      31.354  26.257  26.299  1.00  0.00     0.039 C 
BRANCH   2   3
ATOM      3  C   UNL A   1      32.342  24.487  25.441  1.00  0.00     0.194 C 
BRANCH   3   4
ATOM      4  N   UNL A   1      31.704  23.029  25.039  1.00  0.00    -0.305 N 
ATOM      5  C   UNL A   1      34.619  22.712  24.295  1.00  0.00     0.030 C 
ATOM      6  C   UNL A   1      33.827  21.710  24.691  1.00  0.00     0.129 C 
ATOM      7  C   UNL A   1      34.360  20.388  25.051  1.00  0.00     0.328 C 
ATOM      8  C   UNL A   1      32.354  21.849  24.720  1.00  0.00     0.236 C 
ATOM      9  O   UNL A   1      35.452  20.275  25.602  1.00  0.00    -0.249 OA
ATOM     10  N   UNL A   1      33.490  19.372  24.711  1.00  0.00    -0.155 N 
ATOM     11  N   UNL A   1      31.645  20.811  24.377  1.00  0.00    -0.209 N 
ATOM     12  C   UNL A   1      32.315  19.653  24.016  1.00  0.00     0.448 C 
ATOM     13  H   UNL A   1      30.660  20.849  24.374  1.00  0.00     0.270 HD
ATOM     14  H   UNL A   1      30.720  22.986  25.022  1.00  0.00     0.256 HD
ATOM     15  O   UNL A   1      31.902  18.931  23.111  1.00  0.00    -0.212 OA
BRANCH   5  16
ATOM     16  C   UNL A   1      33.987  24.020  24.233  1.00  0.00    -0.024 A 
ATOM     17  C   UNL A   1      33.569  27.290  22.798  1.00  0.00     0.127 A 
ATOM     18  C   UNL A   1      34.443  27.117  24.388  1.00  0.00     0.048 A 
ATOM     19  C   UNL A   1      33.009  25.849  21.920  1.00  0.00     0.040 A 
ATOM     20  C   UNL A   1      34.572  25.469  25.169  1.00  0.00     0.012 A 
ATOM     21  C   UNL A   1      33.159  24.242  22.653  1.00  0.00     0.022 A 
BRANCH  17  22
ATOM     22  O   UNL A   1      33.133  28.532  22.401  1.00  0.00    -0.496 OA
ATOM     23  C   UNL A   1      32.178  29.091  23.346  1.00  0.00     0.278 C 
ENDBRANCH  17  22
BRANCH  19  24
ATOM     24  C   UNL A   1      32.474  25.936  20.556  1.00  0.00     0.075 C 
ATOM     25  O   UNL A   1      33.099  25.740  19.535  1.00  0.00    -0.545 OA
ATOM     26  O   UNL A   1      31.183  26.296  20.572  1.00  0.00    -0.545 OA
ENDBRANCH  19  24
ENDBRANCH   5  16
BRANCH  10  27
ATOM     27  C   UNL A   1      33.951  18.043  24.826  1.00  0.00     0.111 A 
ATOM     28  C   UNL A   1      35.277  17.714  24.529  1.00  0.00     0.044 A 
ATOM     29  C   UNL A   1      33.098  17.090  25.393  1.00  0.00     0.044 A 
ATOM     30  C   UNL A   1      35.748  16.431  24.807  1.00  0.00     0.004 A 
ATOM     31  C   UNL A   1      33.578  15.812  25.678  1.00  0.00     0.004 A 
ATOM     32  C   UNL A   1      34.903  15.485  25.389  1.00  0.00     0.000 A 
ENDBRANCH  10  27
ENDBRANCH   3   4
ENDBRANCH   2   3
ENDBRANCH   1   2
BRANCH   1  33
ATOM     33  C   UNL A   1      33.363  28.322  27.348  1.00  0.00     0.116 C 
BRANCH  33  34
ATOM     34  N   UNL A   1      33.523  29.760  27.223  1.00  0.00    -0.352 N 
ATOM     35  C   UNL A   1      34.433  30.654  27.688  1.00  0.00     0.251 C 
ATOM     36  H   UNL A   1      32.815  30.179  26.681  1.00  0.00     0.163 HD
ATOM     37  O   UNL A   1      34.286  31.865  27.571  1.00  0.00    -0.269 OA
BRANCH  35  38
ATOM     38  C   UNL A   1      35.671  30.153  28.224  1.00  0.00     0.039 A 
ATOM     39  C   UNL A   1      35.700  29.688  29.536  1.00  0.00     0.014 A 
ATOM     40  C   UNL A   1      36.804  30.272  27.419  1.00  0.00     0.014 A 
ATOM     41  C   UNL A   1      36.913  29.275  30.046  1.00  0.00     0.010 A 
ATOM     42  C   UNL A   1      38.002  29.819  27.911  1.00  0.00     0.010 A 
ATOM     43  C   UNL A   1      38.050  29.326  29.223  1.00  0.00    -0.014 A 
BRANCH  43  44
ATOM     44  C   UNL A   1      39.332  28.828  29.710  1.00  0.00     0.031 A 
ATOM     45  C   UNL A   1      40.025  29.577  30.797  1.00  0.00     0.074 A 
ATOM     46  C   UNL A   1      39.867  27.788  29.052  1.00  0.00     0.049 A 
ATOM     47  N   UNL A   1      41.200  29.362  31.312  1.00  0.00    -0.248 NA
ATOM     48  C   UNL A   1      39.322  30.750  31.354  1.00  0.00     0.031 C 
ATOM     49  C   UNL A   1      39.247  27.103  27.909  1.00  0.00     0.029 A 
ATOM     50  N   UNL A   1      41.055  27.145  29.221  1.00  0.00    -0.354 N 
ATOM     51  C   UNL A   1      41.394  30.384  32.231  1.00  0.00     0.074 A 
ATOM     52  C   UNL A   1      40.238  31.246  32.173  1.00  0.00     0.031 C 
ATOM     53  C   UNL A   1      40.065  26.130  27.484  1.00  0.00     0.029 A 
ATOM     54  C   UNL A   1      41.266  26.142  28.307  1.00  0.00     0.049 A 
ATOM     55  H   UNL A   1      41.699  27.376  29.929  1.00  0.00     0.167 HD
ATOM     56  C   UNL A   1      42.442  30.551  33.067  1.00  0.00     0.034 A 
ATOM     57  C   UNL A   1      42.327  25.330  28.169  1.00  0.00     0.034 A 
ATOM     58  C   UNL A   1      43.551  29.639  33.098  1.00  0.00     0.049 A 
ATOM     59  C   UNL A   1      43.439  25.491  29.167  1.00  0.00     0.074 A 
ATOM     60  C   UNL A   1      44.650  29.635  33.932  1.00  0.00     0.029 A 
ATOM     61  N   UNL A   1      43.689  28.551  32.240  1.00  0.00    -0.354 N 
ATOM     62  N   UNL A   1      43.554  26.374  30.133  1.00  0.00    -0.248 NA
ATOM     63  C   UNL A   1      44.539  24.527  29.092  1.00  0.00     0.031 C 
ATOM     64  C   UNL A   1      45.458  28.551  33.572  1.00  0.00     0.029 A 
ATOM     65  C   UNL A   1      44.851  27.865  32.528  1.00  0.00     0.049 A 
ATOM     66  H   UNL A   1      43.052  28.309  31.531  1.00  0.00     0.167 HD
ATOM     67  C   UNL A   1      44.722  26.052  30.806  1.00  0.00     0.074 A 
ATOM     68  C   UNL A   1      45.263  24.877  30.146  1.00  0.00     0.031 C 
ATOM     69  C   UNL A   1      45.311  26.672  31.859  1.00  0.00     0.034 A 
BRANCH  56  70
ATOM     70  C   UNL A   1      42.391  31.709  34.028  1.00  0.00     0.023 A 
ATOM     71  C   UNL A   1      42.834  32.981  33.607  1.00  0.00     0.012 A 
ATOM     72  C   UNL A   1      41.897  31.553  35.337  1.00  0.00     0.148 A 
ATOM     73  C   UNL A   1      42.827  34.066  34.481  1.00  0.00     0.002 A 
ATOM     74  C   UNL A   1      41.849  32.651  36.190  1.00  0.00     0.091 A 
ATOM     75  F   UNL A   1      41.506  30.333  35.732  1.00  0.00    -0.205 F 
ATOM     76  C   UNL A   1      42.326  33.904  35.769  1.00  0.00     0.022 A 
BRANCH  74  77
ATOM     77  S   UNL A   1      41.158  32.568  37.846  1.00  0.00     0.127 S 
ATOM     78  O   UNL A   1      41.305  33.951  38.297  1.00  0.00    -0.237 OA
ATOM     79  O   UNL A   1      39.779  32.157  37.580  1.00  0.00    -0.237 OA
ATOM     80  O   UNL A   1      41.957  31.590  38.569  1.00  0.00    -0.744 OA
ENDBRANCH  74  77
ENDBRANCH  56  70
BRANCH  57  81
ATOM     81  C   UNL A   1      42.320  24.261  27.135  1.00  0.00     0.023 A 
ATOM     82  C   UNL A   1      43.164  24.380  26.015  1.00  0.00     0.012 A 
ATOM     83  C   UNL A   1      41.539  23.097  27.284  1.00  0.00     0.148 A 
ATOM     84  C   UNL A   1      43.201  23.381  25.041  1.00  0.00     0.002 A 
ATOM     85  C   UNL A   1      41.621  22.082  26.337  1.00  0.00     0.091 A 
ATOM     86  F   UNL A   1      40.744  22.997  28.358  1.00  0.00    -0.205 F 
ATOM     87  C   UNL A   1      42.437  22.230  25.206  1.00  0.00     0.022 A 
BRANCH  85  88
ATOM     88  S   UNL A   1      40.778  20.509  26.548  1.00  0.00     0.127 S 
ATOM     89  O   UNL A   1      41.018  20.229  27.961  1.00  0.00    -0.237 OA
ATOM     90  O   UNL A   1      39.395  20.852  26.214  1.00  0.00    -0.237 OA
ATOM     91  O   UNL A   1      41.411  19.601  25.600  1.00  0.00    -0.744 OA
ENDBRANCH  85  88
ENDBRANCH  57  81
BRANCH  69  92
ATOM     92  C   UNL A   1      46.585  26.064  32.368  1.00  0.00     0.023 A 
ATOM     93  C   UNL A   1      47.822  26.524  31.876  1.00  0.00     0.012 A 
ATOM     94  C   UNL A   1      46.552  25.095  33.388  1.00  0.00     0.148 A 
ATOM     95  C   UNL A   1      49.013  26.000  32.372  1.00  0.00     0.002 A 
ATOM     96  C   UNL A   1      47.743  24.620  33.915  1.00  0.00     0.091 A 
ATOM     97  F   UNL A   1      45.359  24.663  33.822  1.00  0.00    -0.205 F 
ATOM     98  C   UNL A   1      48.973  25.060  33.400  1.00  0.00     0.022 A 
BRANCH  96  99
ATOM     99  S   UNL A   1      47.786  23.490  35.310  1.00  0.00     0.127 S 
ATOM    100  O   UNL A   1      49.224  23.332  35.517  1.00  0.00    -0.237 OA
ATOM    101  O   UNL A   1      47.100  24.257  36.349  1.00  0.00    -0.237 OA
ATOM    102  O   UNL A   1      47.080  22.292  34.877  1.00  0.00    -0.744 OA
ENDBRANCH  96  99
ENDBRANCH  69  92
ENDBRANCH  43  44
ENDBRANCH  35  38
ENDBRANCH  33  34
ENDBRANCH   1  33
TORSDOF 17
ENDMDL
MODEL 2
REMARK VINA RESULT:     -13.6      4.519     10.122
REMARK SMILES COc1ccc(/C=C2/C(=O)N(c3ccccc3)C(=O)[NH+]=C2NCCCCNC(=O)c2ccc(-c3c4nc(c(-c5cccc(S(=O)(=O)[O-])c5F)c5ccc([nH]5)c(-c5cccc(S(=O)(=O)[O-])c5F)c5nc(c(-c6cccc(S(=O)(=O)[O-])c6F)c6ccc3[nH]6)C=C5)C=C4)cc2)cc1C(=O)[O-]
REMARK SMILES IDX 25 1 24 2 23 3 22 4 7 5 8 6 9 7 21 8 10 9 11 10 20 11 18 12
REMARK SMILES IDX 19 15 6 16 3 17 4 18 94 19 5 20 93 21 2 22 1 23 95 24 96 25
REMARK SMILES IDX 97 26 12 27 13 28 17 29 14 30 16 31 15 32 26 33 27 34 28 35
REMARK SMILES IDX 29 37 30 38 31 39 92 40 32 41 91 42 33 43 34 44 35 45 85 46
REMARK SMILES IDX 36 47 90 48 84 49 86 50 37 51 89 52 83 53 82 54 38 56 70 57
REMARK SMILES IDX 50 58 69 59 51 60 54 61 68 62 87 63 52 64 53 65 67 67 88 68
REMARK SMILES IDX 55 69 39 70 40 71 48 72 41 73 43 74 49 75 42 76 44 77 45 78
REMARK SMILES IDX 46 79 47 80 71 81 72 82 80 83 73 84 75 85 81 86 74 87 76 88
REMARK SMILES IDX 77 89 78 90 79 91 56 92 57 93 65 94 58 95 60 96 66 97 59 98
REMARK SMILES IDX 61 99 62 100 63 101 64 102
REMARK H PARENT 20 13 22 14 27 36 86 55 54 66
REMARK Flexibility Score: inf
ROOT
ATOM      1  C   UNL A   1      44.610  23.943  25.111  1.00  0.00     0.024 C 
ENDROOT
BRANCH   1   2
ATOM      2  C   UNL A   1      42.994  24.731  25.039  1.00  0.00     0.039 C 
BRANCH   2   3
ATOM      3  C   UNL A   1      41.657  25.685  26.505  1.00  0.00     0.194 C 
BRANCH   3   4
ATOM      4  N   UNL A   1      40.829  27.098  26.396  1.00  0.00    -0.305 N 
ATOM      5  C   UNL A   1      40.070  26.088  29.144  1.00  0.00     0.030 C 
ATOM      6  C   UNL A   1      40.137  27.380  28.807  1.00  0.00     0.129 C 
ATOM      7  C   UNL A   1      40.095  28.453  29.810  1.00  0.00     0.328 C 
ATOM      8  C   UNL A   1      40.183  27.811  27.392  1.00  0.00     0.236 C 
ATOM      9  O   UNL A   1      40.604  28.304  30.918  1.00  0.00    -0.249 OA
ATOM     10  N   UNL A   1      39.454  29.578  29.334  1.00  0.00    -0.155 N 
ATOM     11  N   UNL A   1      39.535  28.896  27.073  1.00  0.00    -0.209 N 
ATOM     12  C   UNL A   1      38.857  29.570  28.076  1.00  0.00     0.448 C 
ATOM     13  H   UNL A   1      39.528  29.227  26.145  1.00  0.00     0.270 HD
ATOM     14  H   UNL A   1      40.785  27.496  25.497  1.00  0.00     0.256 HD
ATOM     15  O   UNL A   1      37.771  30.106  27.863  1.00  0.00    -0.212 OA
BRANCH   5  16
ATOM     16  C   UNL A   1      40.390  25.148  28.083  1.00  0.00    -0.024 A 
ATOM     17  C   UNL A   1      40.047  21.973  26.429  1.00  0.00     0.127 A 
ATOM     18  C   UNL A   1      41.548  22.314  27.406  1.00  0.00     0.048 A 
ATOM     19  C   UNL A   1      38.726  23.162  26.368  1.00  0.00     0.040 A 
ATOM     20  C   UNL A   1      41.770  23.961  28.168  1.00  0.00     0.012 A 
ATOM     21  C   UNL A   1      38.918  24.750  27.131  1.00  0.00     0.022 A 
BRANCH  17  22
ATOM     22  O   UNL A   1      40.041  20.914  25.552  1.00  0.00    -0.496 OA
ATOM     23  C   UNL A   1      40.352  19.661  26.223  1.00  0.00     0.278 C 
ENDBRANCH  17  22
BRANCH  19  24
ATOM     24  C   UNL A   1      37.433  22.846  25.752  1.00  0.00     0.075 C 
ATOM     25  O   UNL A   1      36.694  21.941  26.077  1.00  0.00    -0.545 OA
ATOM     26  O   UNL A   1      37.170  23.685  24.739  1.00  0.00    -0.545 OA
ENDBRANCH  19  24
ENDBRANCH   5  16
BRANCH  10  27
ATOM     27  C   UNL A   1      39.176  30.616  30.250  1.00  0.00     0.111 A 
ATOM     28  C   UNL A   1      39.740  31.885  30.090  1.00  0.00     0.044 A 
ATOM     29  C   UNL A   1      38.205  30.394  31.232  1.00  0.00     0.044 A 
ATOM     30  C   UNL A   1      39.322  32.934  30.910  1.00  0.00     0.004 A 
ATOM     31  C   UNL A   1      37.784  31.448  32.042  1.00  0.00     0.004 A 
ATOM     32  C   UNL A   1      38.340  32.717  31.877  1.00  0.00     0.000 A 
ENDBRANCH  10  27
ENDBRANCH   3   4
ENDBRANCH   2   3
ENDBRANCH   1   2
BRANCH   1  33
ATOM     33  C   UNL A   1      46.015  24.516  25.510  1.00  0.00     0.116 C 
BRANCH  33  34
ATOM     34  N   UNL A   1      46.489  25.637  24.716  1.00  0.00    -0.352 N 
ATOM     35  C   UNL A   1      46.289  26.979  24.761  1.00  0.00     0.251 C 
ATOM     36  H   UNL A   1      47.087  25.362  23.983  1.00  0.00     0.163 HD
ATOM     37  O   UNL A   1      46.688  27.735  23.882  1.00  0.00    -0.269 OA
BRANCH  35  38
ATOM     38  C   UNL A   1      45.698  27.543  25.946  1.00  0.00     0.039 A 
ATOM     39  C   UNL A   1      44.342  27.860  25.939  1.00  0.00     0.014 A 
ATOM     40  C   UNL A   1      46.558  27.843  27.002  1.00  0.00     0.014 A 
ATOM     41  C   UNL A   1      43.816  28.459  27.064  1.00  0.00     0.010 A 
ATOM     42  C   UNL A   1      46.025  28.398  28.138  1.00  0.00     0.010 A 
ATOM     43  C   UNL A   1      44.657  28.706  28.161  1.00  0.00    -0.014 A 
BRANCH  43  44
ATOM     44  C   UNL A   1      44.114  29.272  29.392  1.00  0.00     0.031 A 
ATOM     45  C   UNL A   1      43.812  30.731  29.436  1.00  0.00     0.074 A 
ATOM     46  C   UNL A   1      44.039  28.454  30.453  1.00  0.00     0.049 A 
ATOM     47  N   UNL A   1      43.411  31.449  30.445  1.00  0.00    -0.248 NA
ATOM     48  C   UNL A   1      44.029  31.497  28.193  1.00  0.00     0.031 C 
ATOM     49  C   UNL A   1      44.432  27.037  30.456  1.00  0.00     0.029 A 
ATOM     50  N   UNL A   1      43.642  28.692  31.733  1.00  0.00    -0.354 N 
ATOM     51  C   UNL A   1      43.353  32.752  29.973  1.00  0.00     0.074 A 
ATOM     52  C   UNL A   1      43.804  32.737  28.601  1.00  0.00     0.031 C 
ATOM     53  C   UNL A   1      44.249  26.534  31.685  1.00  0.00     0.029 A 
ATOM     54  C   UNL A   1      43.753  27.594  32.550  1.00  0.00     0.049 A 
ATOM     55  H   UNL A   1      43.308  29.565  32.041  1.00  0.00     0.167 HD
ATOM     56  C   UNL A   1      42.925  33.849  30.634  1.00  0.00     0.034 A 
ATOM     57  C   UNL A   1      43.475  27.480  33.860  1.00  0.00     0.034 A 
ATOM     58  C   UNL A   1      42.459  33.792  31.991  1.00  0.00     0.049 A 
ATOM     59  C   UNL A   1      42.925  28.700  34.544  1.00  0.00     0.074 A 
ATOM     60  C   UNL A   1      41.933  34.801  32.772  1.00  0.00     0.029 A 
ATOM     61  N   UNL A   1      42.466  32.638  32.769  1.00  0.00    -0.354 N 
ATOM     62  N   UNL A   1      42.735  29.903  34.053  1.00  0.00    -0.248 NA
ATOM     63  C   UNL A   1      42.508  28.542  35.940  1.00  0.00     0.031 C 
ATOM     64  C   UNL A   1      41.630  34.258  34.027  1.00  0.00     0.029 A 
ATOM     65  C   UNL A   1      41.947  32.906  34.020  1.00  0.00     0.049 A 
ATOM     66  H   UNL A   1      42.794  31.760  32.472  1.00  0.00     0.167 HD
ATOM     67  C   UNL A   1      42.144  30.641  35.066  1.00  0.00     0.074 A 
ATOM     68  C   UNL A   1      41.988  29.736  36.191  1.00  0.00     0.031 C 
ATOM     69  C   UNL A   1      41.777  31.947  35.084  1.00  0.00     0.034 A 
BRANCH  56  70
ATOM     70  C   UNL A   1      42.892  35.151  29.879  1.00  0.00     0.023 A 
ATOM     71  C   UNL A   1      41.805  35.430  29.022  1.00  0.00     0.012 A 
ATOM     72  C   UNL A   1      43.917  36.105  30.020  1.00  0.00     0.148 A 
ATOM     73  C   UNL A   1      41.760  36.613  28.287  1.00  0.00     0.002 A 
ATOM     74  C   UNL A   1      43.842  37.304  29.318  1.00  0.00     0.091 A 
ATOM     75  F   UNL A   1      44.956  35.815  30.815  1.00  0.00    -0.205 F 
ATOM     76  C   UNL A   1      42.773  37.554  28.442  1.00  0.00     0.022 A 
BRANCH  74  77
ATOM     77  S   UNL A   1      45.058  38.615  29.497  1.00  0.00     0.127 S 
ATOM     78  O   UNL A   1      44.528  39.635  28.593  1.00  0.00    -0.237 OA
ATOM     79  O   UNL A   1      44.944  38.942  30.919  1.00  0.00    -0.237 OA
ATOM     80  O   UNL A   1      46.335  38.038  29.105  1.00  0.00    -0.744 OA
ENDBRANCH  74  77
ENDBRANCH  56  70
BRANCH  57  81
ATOM     81  C   UNL A   1      43.613  26.166  34.541  1.00  0.00     0.023 A 
ATOM     82  C   UNL A   1      42.483  25.336  34.671  1.00  0.00     0.012 A 
ATOM     83  C   UNL A   1      44.862  25.700  34.997  1.00  0.00     0.148 A 
ATOM     84  C   UNL A   1      42.585  24.085  35.281  1.00  0.00     0.002 A 
ATOM     85  C   UNL A   1      44.966  24.430  35.556  1.00  0.00     0.091 A 
ATOM     86  F   UNL A   1      45.928  26.500  34.861  1.00  0.00    -0.205 F 
ATOM     87  C   UNL A   1      43.826  23.628  35.715  1.00  0.00     0.022 A 
BRANCH  85  88
ATOM     88  S   UNL A   1      46.550  23.714  36.009  1.00  0.00     0.127 S 
ATOM     89  O   UNL A   1      47.267  23.745  34.737  1.00  0.00    -0.237 OA
ATOM     90  O   UNL A   1      47.039  24.658  37.015  1.00  0.00    -0.237 OA
ATOM     91  O   UNL A   1      46.240  22.391  36.536  1.00  0.00    -0.744 OA
ENDBRANCH  85  88
ENDBRANCH  57  81
BRANCH  69  92
ATOM     92  C   UNL A   1      41.147  32.449  36.349  1.00  0.00     0.023 A 
ATOM     93  C   UNL A   1      41.905  33.232  37.241  1.00  0.00     0.012 A 
ATOM     94  C   UNL A   1      39.786  32.208  36.610  1.00  0.00     0.148 A 
ATOM     95  C   UNL A   1      41.321  33.743  38.397  1.00  0.00     0.002 A 
ATOM     96  C   UNL A   1      39.198  32.766  37.734  1.00  0.00     0.091 A 
ATOM     97  F   UNL A   1      39.096  31.441  35.753  1.00  0.00    -0.205 F 
ATOM     98  C   UNL A   1      39.966  33.522  38.635  1.00  0.00     0.022 A 
BRANCH  96  99
ATOM     99  S   UNL A   1      37.439  32.623  38.064  1.00  0.00     0.127 S 
ATOM    100  O   UNL A   1      37.261  31.173  38.095  1.00  0.00    -0.237 OA
ATOM    101  O   UNL A   1      37.314  33.282  39.363  1.00  0.00    -0.237 OA
ATOM    102  O   UNL A   1      36.769  33.312  36.970  1.00  0.00    -0.744 OA
ENDBRANCH  96  99
ENDBRANCH  69  92
ENDBRANCH  43  44
ENDBRANCH  35  38
ENDBRANCH  33  34
ENDBRANCH   1  33
TORSDOF 17
ENDMDL
MODEL 3
REMARK VINA RESULT:     -13.4      2.430      7.850
REMARK SMILES COc1ccc(/C=C2/C(=O)N(c3ccccc3)C(=O)[NH+]=C2NCCCCNC(=O)c2ccc(-c3c4nc(c(-c5cccc(S(=O)(=O)[O-])c5F)c5ccc([nH]5)c(-c5cccc(S(=O)(=O)[O-])c5F)c5nc(c(-c6cccc(S(=O)(=O)[O-])c6F)c6ccc3[nH]6)C=C5)C=C4)cc2)cc1C(=O)[O-]
REMARK SMILES IDX 25 1 24 2 23 3 22 4 7 5 8 6 9 7 21 8 10 9 11 10 20 11 18 12
REMARK SMILES IDX 19 15 6 16 3 17 4 18 94 19 5 20 93 21 2 22 1 23 95 24 96 25
REMARK SMILES IDX 97 26 12 27 13 28 17 29 14 30 16 31 15 32 26 33 27 34 28 35
REMARK SMILES IDX 29 37 30 38 31 39 92 40 32 41 91 42 33 43 34 44 35 45 85 46
REMARK SMILES IDX 36 47 90 48 84 49 86 50 37 51 89 52 83 53 82 54 38 56 70 57
REMARK SMILES IDX 50 58 69 59 51 60 54 61 68 62 87 63 52 64 53 65 67 67 88 68
REMARK SMILES IDX 55 69 39 70 40 71 48 72 41 73 43 74 49 75 42 76 44 77 45 78
REMARK SMILES IDX 46 79 47 80 71 81 72 82 80 83 73 84 75 85 81 86 74 87 76 88
REMARK SMILES IDX 77 89 78 90 79 91 56 92 57 93 65 94 58 95 60 96 66 97 59 98
REMARK SMILES IDX 61 99 62 100 63 101 64 102
REMARK H PARENT 20 13 22 14 27 36 86 55 54 66
REMARK Flexibility Score: inf
ROOT
ATOM      1  C   UNL A   1      31.459  27.924  26.965  1.00  0.00     0.024 C 
ENDROOT
BRANCH   1   2
ATOM      2  C   UNL A   1      31.000  26.405  26.115  1.00  0.00     0.039 C 
BRANCH   2   3
ATOM      3  C   UNL A   1      32.082  24.616  25.426  1.00  0.00     0.194 C 
BRANCH   3   4
ATOM      4  N   UNL A   1      31.492  23.158  24.955  1.00  0.00    -0.305 N 
ATOM      5  C   UNL A   1      34.473  22.835  24.556  1.00  0.00     0.030 C 
ATOM      6  C   UNL A   1      33.640  21.835  24.859  1.00  0.00     0.129 C 
ATOM      7  C   UNL A   1      34.125  20.514  25.281  1.00  0.00     0.328 C 
ATOM      8  C   UNL A   1      32.174  21.976  24.716  1.00  0.00     0.236 C 
ATOM      9  O   UNL A   1      35.145  20.399  25.955  1.00  0.00    -0.249 OA
ATOM     10  N   UNL A   1      33.299  19.498  24.843  1.00  0.00    -0.155 N 
ATOM     11  N   UNL A   1      31.507  20.939  24.295  1.00  0.00    -0.209 N 
ATOM     12  C   UNL A   1      32.213  19.779  24.017  1.00  0.00     0.448 C 
ATOM     13  H   UNL A   1      30.529  20.978  24.178  1.00  0.00     0.270 HD
ATOM     14  H   UNL A   1      30.517  23.116  24.825  1.00  0.00     0.256 HD
ATOM     15  O   UNL A   1      31.907  19.056  23.071  1.00  0.00    -0.212 OA
BRANCH   5  16
ATOM     16  C   UNL A   1      33.855  24.144  24.419  1.00  0.00    -0.024 A 
ATOM     17  C   UNL A   1      33.521  27.359  22.843  1.00  0.00     0.127 A 
ATOM     18  C   UNL A   1      34.330  27.242  24.473  1.00  0.00     0.048 A 
ATOM     19  C   UNL A   1      32.984  25.889  22.000  1.00  0.00     0.040 A 
ATOM     20  C   UNL A   1      34.414  25.624  25.320  1.00  0.00     0.012 A 
ATOM     21  C   UNL A   1      33.092  24.310  22.799  1.00  0.00     0.022 A 
BRANCH  17  22
ATOM     22  O   UNL A   1      33.111  28.588  22.382  1.00  0.00    -0.496 OA
ATOM     23  C   UNL A   1      31.802  28.947  22.907  1.00  0.00     0.278 C 
ENDBRANCH  17  22
BRANCH  19  24
ATOM     24  C   UNL A   1      32.504  25.927  20.614  1.00  0.00     0.075 C 
ATOM     25  O   UNL A   1      33.170  25.697  19.626  1.00  0.00    -0.545 OA
ATOM     26  O   UNL A   1      31.212  26.282  20.566  1.00  0.00    -0.545 OA
ENDBRANCH  19  24
ENDBRANCH   5  16
BRANCH  10  27
ATOM     27  C   UNL A   1      33.741  18.169  25.014  1.00  0.00     0.111 A 
ATOM     28  C   UNL A   1      33.006  17.260  25.781  1.00  0.00     0.044 A 
ATOM     29  C   UNL A   1      34.847  17.735  24.276  1.00  0.00     0.044 A 
ATOM     30  C   UNL A   1      33.376  15.915  25.800  1.00  0.00     0.004 A 
ATOM     31  C   UNL A   1      35.207  16.388  24.291  1.00  0.00     0.004 A 
ATOM     32  C   UNL A   1      34.468  15.479  25.049  1.00  0.00     0.000 A 
ENDBRANCH  10  27
ENDBRANCH   3   4
ENDBRANCH   2   3
ENDBRANCH   1   2
BRANCH   1  33
ATOM     33  C   UNL A   1      32.774  28.776  26.907  1.00  0.00     0.116 C 
BRANCH  33  34
ATOM     34  N   UNL A   1      32.593  30.210  26.759  1.00  0.00    -0.352 N 
ATOM     35  C   UNL A   1      33.216  31.300  27.277  1.00  0.00     0.251 C 
ATOM     36  H   UNL A   1      31.856  30.442  26.149  1.00  0.00     0.163 HD
ATOM     37  O   UNL A   1      32.791  32.439  27.117  1.00  0.00    -0.269 OA
BRANCH  35  38
ATOM     38  C   UNL A   1      34.486  31.117  27.929  1.00  0.00     0.039 A 
ATOM     39  C   UNL A   1      35.386  32.179  27.966  1.00  0.00     0.014 A 
ATOM     40  C   UNL A   1      34.782  29.834  28.390  1.00  0.00     0.014 A 
ATOM     41  C   UNL A   1      36.620  31.957  28.538  1.00  0.00     0.010 A 
ATOM     42  C   UNL A   1      35.993  29.627  29.000  1.00  0.00     0.010 A 
ATOM     43  C   UNL A   1      36.906  30.688  29.068  1.00  0.00    -0.014 A 
BRANCH  43  44
ATOM     44  C   UNL A   1      38.176  30.444  29.745  1.00  0.00     0.031 A 
ATOM     45  C   UNL A   1      39.162  29.525  29.107  1.00  0.00     0.074 A 
ATOM     46  C   UNL A   1      38.320  30.971  30.970  1.00  0.00     0.049 A 
ATOM     47  N   UNL A   1      40.302  29.105  29.572  1.00  0.00    -0.248 NA
ATOM     48  C   UNL A   1      38.803  28.971  27.786  1.00  0.00     0.031 C 
ATOM     49  C   UNL A   1      37.315  31.792  31.659  1.00  0.00     0.029 A 
ATOM     50  N   UNL A   1      39.342  30.875  31.865  1.00  0.00    -0.354 N 
ATOM     51  C   UNL A   1      40.785  28.217  28.622  1.00  0.00     0.074 A 
ATOM     52  C   UNL A   1      39.796  28.121  27.574  1.00  0.00     0.031 C 
ATOM     53  C   UNL A   1      37.779  32.127  32.872  1.00  0.00     0.029 A 
ATOM     54  C   UNL A   1      39.093  31.527  33.048  1.00  0.00     0.049 A 
ATOM     55  H   UNL A   1      40.176  30.386  31.681  1.00  0.00     0.167 HD
ATOM     56  C   UNL A   1      41.972  27.572  28.626  1.00  0.00     0.034 A 
ATOM     57  C   UNL A   1      39.863  31.618  34.144  1.00  0.00     0.034 A 
ATOM     58  C   UNL A   1      42.928  27.732  29.686  1.00  0.00     0.049 A 
ATOM     59  C   UNL A   1      41.210  30.955  34.083  1.00  0.00     0.074 A 
ATOM     60  C   UNL A   1      44.196  27.201  29.800  1.00  0.00     0.029 A 
ATOM     61  N   UNL A   1      42.704  28.499  30.826  1.00  0.00    -0.354 N 
ATOM     62  N   UNL A   1      41.726  30.229  33.117  1.00  0.00    -0.248 NA
ATOM     63  C   UNL A   1      42.098  31.155  35.231  1.00  0.00     0.031 C 
ATOM     64  C   UNL A   1      44.737  27.640  31.015  1.00  0.00     0.029 A 
ATOM     65  C   UNL A   1      43.814  28.462  31.647  1.00  0.00     0.049 A 
ATOM     66  H   UNL A   1      41.877  28.994  31.019  1.00  0.00     0.167 HD
ATOM     67  C   UNL A   1      43.013  29.914  33.523  1.00  0.00     0.074 A 
ATOM     68  C   UNL A   1      43.202  30.551  34.814  1.00  0.00     0.031 C 
ATOM     69  C   UNL A   1      43.953  29.157  32.904  1.00  0.00     0.034 A 
BRANCH  56  70
ATOM     70  C   UNL A   1      42.301  26.706  27.439  1.00  0.00     0.023 A 
ATOM     71  C   UNL A   1      42.881  27.291  26.292  1.00  0.00     0.012 A 
ATOM     72  C   UNL A   1      42.054  25.321  27.452  1.00  0.00     0.148 A 
ATOM     73  C   UNL A   1      43.169  26.523  25.166  1.00  0.00     0.002 A 
ATOM     74  C   UNL A   1      42.388  24.552  26.341  1.00  0.00     0.091 A 
ATOM     75  F   UNL A   1      41.478  24.784  28.537  1.00  0.00    -0.205 F 
ATOM     76  C   UNL A   1      42.932  25.152  25.194  1.00  0.00     0.022 A 
BRANCH  74  77
ATOM     77  S   UNL A   1      42.188  22.767  26.298  1.00  0.00     0.127 S 
ATOM     78  O   UNL A   1      43.072  22.345  27.385  1.00  0.00    -0.237 OA
ATOM     79  O   UNL A   1      40.761  22.614  26.579  1.00  0.00    -0.237 OA
ATOM     80  O   UNL A   1      42.596  22.347  24.966  1.00  0.00    -0.744 OA
ENDBRANCH  74  77
ENDBRANCH  56  70
BRANCH  57  81
ATOM     81  C   UNL A   1      39.418  32.435  35.304  1.00  0.00     0.023 A 
ATOM     82  C   UNL A   1      38.601  31.846  36.288  1.00  0.00     0.012 A 
ATOM     83  C   UNL A   1      39.851  33.764  35.478  1.00  0.00     0.148 A 
ATOM     84  C   UNL A   1      38.189  32.578  37.403  1.00  0.00     0.002 A 
ATOM     85  C   UNL A   1      39.479  34.470  36.617  1.00  0.00     0.091 A 
ATOM     86  F   UNL A   1      40.632  34.308  34.535  1.00  0.00    -0.205 F 
ATOM     87  C   UNL A   1      38.634  33.886  37.572  1.00  0.00     0.022 A 
BRANCH  85  88
ATOM     88  S   UNL A   1      40.126  36.108  36.979  1.00  0.00     0.127 S 
ATOM     89  O   UNL A   1      41.550  35.835  37.153  1.00  0.00    -0.237 OA
ATOM     90  O   UNL A   1      39.784  36.849  35.764  1.00  0.00    -0.237 OA
ATOM     91  O   UNL A   1      39.410  36.553  38.168  1.00  0.00    -0.744 OA
ENDBRANCH  85  88
ENDBRANCH  57  81
BRANCH  69  92
ATOM     92  C   UNL A   1      45.269  29.011  33.610  1.00  0.00     0.023 A 
ATOM     93  C   UNL A   1      45.472  27.929  34.489  1.00  0.00     0.012 A 
ATOM     94  C   UNL A   1      46.323  29.903  33.341  1.00  0.00     0.148 A 
ATOM     95  C   UNL A   1      46.702  27.756  35.116  1.00  0.00     0.002 A 
ATOM     96  C   UNL A   1      47.562  29.691  33.927  1.00  0.00     0.091 A 
ATOM     97  F   UNL A   1      46.093  30.936  32.516  1.00  0.00    -0.205 F 
ATOM     98  C   UNL A   1      47.749  28.628  34.825  1.00  0.00     0.022 A 
BRANCH  96  99
ATOM     99  S   UNL A   1      48.993  30.699  33.527  1.00  0.00     0.127 S 
ATOM    100  O   UNL A   1      50.026  30.091  34.361  1.00  0.00    -0.237 OA
ATOM    101  O   UNL A   1      49.146  30.461  32.092  1.00  0.00    -0.237 OA
ATOM    102  O   UNL A   1      48.630  32.066  33.876  1.00  0.00    -0.744 OA
ENDBRANCH  96  99
ENDBRANCH  69  92
ENDBRANCH  43  44
ENDBRANCH  35  38
ENDBRANCH  33  34
ENDBRANCH   1  33
TORSDOF 17
ENDMDL
