MODEL 1
REMARK VINA RESULT:     -10.4      0.000      0.000
REMARK SMILES O=C(/C=N\OCc1ccccc1)NCCCCNC(=O)c1ccc(-c2c3nc(c(-c4cccc(S(=O)(=O)[O-])c4F)c4ccc([nH]4)c(-c4cccc(S(=O)(=O)[O-])c4F)c4nc(c(-c5cccc(S(=O)(=O)[O-])c5F)c5ccc2[nH]5)C=C4)C=C3)cc1
REMARK SMILES IDX 15 1 14 2 13 3 1 4 2 5 3 7 4 8 5 9 6 10 7 11 8 12 12 13 9 14
REMARK SMILES IDX 11 15 10 16 16 17 17 18 18 19 19 20 20 22 21 23 22 24 83 25
REMARK SMILES IDX 23 26 82 27 24 28 25 29 26 30 76 31 27 32 81 33 75 34 77 35
REMARK SMILES IDX 28 36 80 37 74 38 73 39 29 41 61 42 41 43 60 44 42 45 45 46
REMARK SMILES IDX 59 47 78 48 43 49 44 50 58 52 79 53 46 54 30 55 31 56 39 57
REMARK SMILES IDX 32 58 34 59 40 60 33 61 35 62 36 63 37 64 38 65 62 66 63 67
REMARK SMILES IDX 71 68 64 69 66 70 72 71 65 72 67 73 68 74 69 75 70 76 47 77
REMARK SMILES IDX 48 78 56 79 49 80 51 81 57 82 50 83 52 84 53 85 54 86 55 87
REMARK H PARENT 13 6 18 21 77 40 45 51
REMARK Flexibility Score: inf
ROOT
ATOM      1  C   UNL A   1      32.896  34.891  28.747  1.00  0.00     0.023 C 
ENDROOT
BRANCH   1   2
ATOM      2  C   UNL A   1      33.368  36.135  29.496  1.00  0.00     0.116 C 
BRANCH   2   3
ATOM      3  N   UNL A   1      33.668  35.870  30.881  1.00  0.00    -0.351 N 
ATOM      4  O   UNL A   1      32.903  37.857  31.773  1.00  0.00    -0.268 OA
ATOM      5  C   UNL A   1      33.408  36.749  31.901  1.00  0.00     0.265 C 
ATOM      6  H   UNL A   1      34.084  35.007  31.109  1.00  0.00     0.163 HD
BRANCH   5   7
ATOM      7  C   UNL A   1      33.695  36.265  33.305  1.00  0.00     0.225 C 
ATOM      8  N   UNL A   1      34.781  35.733  33.783  1.00  0.00    -0.089 NA
BRANCH   8   9
ATOM      9  O   UNL A   1      35.844  35.688  32.869  1.00  0.00    -0.391 OA
BRANCH   9  10
ATOM     10  C   UNL A   1      36.478  34.401  32.932  1.00  0.00     0.299 C 
BRANCH  10  11
ATOM     11  C   UNL A   1      37.382  34.178  31.747  1.00  0.00    -0.008 A 
ATOM     12  C   UNL A   1      36.894  33.544  30.594  1.00  0.00     0.007 A 
ATOM     13  C   UNL A   1      38.725  34.577  31.784  1.00  0.00     0.007 A 
ATOM     14  C   UNL A   1      37.726  33.327  29.497  1.00  0.00     0.000 A 
ATOM     15  C   UNL A   1      39.556  34.364  30.683  1.00  0.00     0.000 A 
ATOM     16  C   UNL A   1      39.056  33.739  29.540  1.00  0.00     0.000 A 
ENDBRANCH  10  11
ENDBRANCH   9  10
ENDBRANCH   8   9
ENDBRANCH   5   7
ENDBRANCH   2   3
ENDBRANCH   1   2
BRANCH   1  17
ATOM     17  C   UNL A   1      33.992  34.117  28.010  1.00  0.00     0.023 C 
BRANCH  17  18
ATOM     18  C   UNL A   1      34.343  32.748  28.585  1.00  0.00     0.116 C 
BRANCH  18  19
ATOM     19  N   UNL A   1      33.833  31.644  27.786  1.00  0.00    -0.352 N 
ATOM     20  C   UNL A   1      34.438  30.459  27.442  1.00  0.00     0.251 C 
ATOM     21  H   UNL A   1      32.919  31.765  27.440  1.00  0.00     0.163 HD
ATOM     22  O   UNL A   1      33.884  29.704  26.646  1.00  0.00    -0.269 OA
BRANCH  20  23
ATOM     23  C   UNL A   1      35.763  30.098  27.999  1.00  0.00     0.039 A 
ATOM     24  C   UNL A   1      35.831  29.597  29.303  1.00  0.00     0.014 A 
ATOM     25  C   UNL A   1      36.935  30.255  27.253  1.00  0.00     0.014 A 
ATOM     26  C   UNL A   1      37.061  29.192  29.832  1.00  0.00     0.010 A 
ATOM     27  C   UNL A   1      38.148  29.787  27.756  1.00  0.00     0.010 A 
ATOM     28  C   UNL A   1      38.226  29.248  29.050  1.00  0.00    -0.014 A 
BRANCH  28  29
ATOM     29  C   UNL A   1      39.523  28.725  29.556  1.00  0.00     0.031 A 
ATOM     30  C   UNL A   1      40.256  29.434  30.664  1.00  0.00     0.074 A 
ATOM     31  C   UNL A   1      40.092  27.660  28.955  1.00  0.00     0.049 A 
ATOM     32  N   UNL A   1      41.427  29.165  31.182  1.00  0.00    -0.248 NA
ATOM     33  C   UNL A   1      39.599  30.615  31.248  1.00  0.00     0.031 C 
ATOM     34  C   UNL A   1      39.524  26.928  27.820  1.00  0.00     0.029 A 
ATOM     35  N   UNL A   1      41.287  27.026  29.194  1.00  0.00    -0.354 N 
ATOM     36  C   UNL A   1      41.663  30.159  32.126  1.00  0.00     0.074 A 
ATOM     37  C   UNL A   1      40.528  31.053  32.087  1.00  0.00     0.031 C 
ATOM     38  C   UNL A   1      40.371  25.951  27.458  1.00  0.00     0.029 A 
ATOM     39  C   UNL A   1      41.552  26.001  28.314  1.00  0.00     0.049 A 
ATOM     40  H   UNL A   1      41.895  27.281  29.924  1.00  0.00     0.167 HD
ATOM     41  C   UNL A   1      42.714  30.296  32.971  1.00  0.00     0.034 A 
ATOM     42  C   UNL A   1      42.630  25.198  28.200  1.00  0.00     0.034 A 
ATOM     43  C   UNL A   1      43.822  29.382  33.040  1.00  0.00     0.049 A 
ATOM     44  C   UNL A   1      43.764  25.347  29.178  1.00  0.00     0.074 A 
ATOM     45  C   UNL A   1      44.891  29.392  33.921  1.00  0.00     0.029 A 
ATOM     46  N   UNL A   1      44.010  28.297  32.198  1.00  0.00    -0.354 N 
ATOM     47  N   UNL A   1      43.893  26.196  30.168  1.00  0.00    -0.248 NA
ATOM     48  C   UNL A   1      44.885  24.404  29.048  1.00  0.00     0.031 C 
ATOM     49  C   UNL A   1      45.735  28.324  33.597  1.00  0.00     0.029 A 
ATOM     50  C   UNL A   1      45.179  27.635  32.531  1.00  0.00     0.049 A 
ATOM     51  H   UNL A   1      43.401  28.037  31.469  1.00  0.00     0.167 HD
ATOM     52  C   UNL A   1      45.087  25.867  30.799  1.00  0.00     0.074 A 
ATOM     53  C   UNL A   1      45.633  24.727  30.093  1.00  0.00     0.031 C 
ATOM     54  C   UNL A   1      45.686  26.466  31.859  1.00  0.00     0.034 A 
BRANCH  41  55
ATOM     55  C   UNL A   1      42.689  31.454  33.936  1.00  0.00     0.023 A 
ATOM     56  C   UNL A   1      43.275  32.680  33.561  1.00  0.00     0.012 A 
ATOM     57  C   UNL A   1      42.033  31.353  35.179  1.00  0.00     0.148 A 
ATOM     58  C   UNL A   1      43.238  33.778  34.420  1.00  0.00     0.002 A 
ATOM     59  C   UNL A   1      41.963  32.464  36.012  1.00  0.00     0.091 A 
ATOM     60  F   UNL A   1      41.498  30.174  35.527  1.00  0.00    -0.205 F 
ATOM     61  C   UNL A   1      42.574  33.672  35.639  1.00  0.00     0.022 A 
BRANCH  59  62
ATOM     62  S   UNL A   1      41.063  32.455  37.567  1.00  0.00     0.127 S 
ATOM     63  O   UNL A   1      41.902  31.581  38.386  1.00  0.00    -0.237 OA
ATOM     64  O   UNL A   1      41.097  33.867  37.951  1.00  0.00    -0.237 OA
ATOM     65  O   UNL A   1      39.736  31.941  37.260  1.00  0.00    -0.744 OA
ENDBRANCH  59  62
ENDBRANCH  41  55
BRANCH  42  66
ATOM     66  C   UNL A   1      42.657  24.135  27.155  1.00  0.00     0.023 A 
ATOM     67  C   UNL A   1      43.358  24.363  25.955  1.00  0.00     0.012 A 
ATOM     68  C   UNL A   1      42.019  22.895  27.353  1.00  0.00     0.148 A 
ATOM     69  C   UNL A   1      43.396  23.389  24.957  1.00  0.00     0.002 A 
ATOM     70  C   UNL A   1      42.108  21.908  26.379  1.00  0.00     0.091 A 
ATOM     71  F   UNL A   1      41.344  22.703  28.495  1.00  0.00    -0.205 F 
ATOM     72  C   UNL A   1      42.780  22.158  25.173  1.00  0.00     0.022 A 
BRANCH  70  73
ATOM     73  S   UNL A   1      41.464  20.251  26.631  1.00  0.00     0.127 S 
ATOM     74  O   UNL A   1      40.032  20.502  26.769  1.00  0.00    -0.237 OA
ATOM     75  O   UNL A   1      41.856  19.579  25.390  1.00  0.00    -0.237 OA
ATOM     76  O   UNL A   1      42.139  19.746  27.819  1.00  0.00    -0.744 OA
ENDBRANCH  70  73
ENDBRANCH  42  66
BRANCH  54  77
ATOM     77  C   UNL A   1      46.986  25.885  32.351  1.00  0.00     0.023 A 
ATOM     78  C   UNL A   1      48.203  26.306  31.779  1.00  0.00     0.012 A 
ATOM     79  C   UNL A   1      47.006  24.980  33.430  1.00  0.00     0.148 A 
ATOM     80  C   UNL A   1      49.418  25.810  32.253  1.00  0.00     0.002 A 
ATOM     81  C   UNL A   1      48.222  24.528  33.928  1.00  0.00     0.091 A 
ATOM     82  F   UNL A   1      45.837  24.576  33.949  1.00  0.00    -0.205 F 
ATOM     83  C   UNL A   1      49.428  24.932  33.333  1.00  0.00     0.022 A 
BRANCH  81  84
ATOM     84  S   UNL A   1      48.337  23.469  35.376  1.00  0.00     0.127 S 
ATOM     85  O   UNL A   1      47.454  22.363  35.008  1.00  0.00    -0.237 OA
ATOM     86  O   UNL A   1      49.760  23.131  35.403  1.00  0.00    -0.237 OA
ATOM     87  O   UNL A   1      47.889  24.280  36.500  1.00  0.00    -0.744 OA
ENDBRANCH  81  84
ENDBRANCH  54  77
ENDBRANCH  28  29
ENDBRANCH  20  23
ENDBRANCH  18  19
ENDBRANCH  17  18
ENDBRANCH   1  17
TORSDOF 17
ENDMDL
MODEL 2
REMARK VINA RESULT:     -10.2      1.754      2.205
REMARK SMILES O=C(/C=N\OCc1ccccc1)NCCCCNC(=O)c1ccc(-c2c3nc(c(-c4cccc(S(=O)(=O)[O-])c4F)c4ccc([nH]4)c(-c4cccc(S(=O)(=O)[O-])c4F)c4nc(c(-c5cccc(S(=O)(=O)[O-])c5F)c5ccc2[nH]5)C=C4)C=C3)cc1
REMARK SMILES IDX 15 1 14 2 13 3 1 4 2 5 3 7 4 8 5 9 6 10 7 11 8 12 12 13 9 14
REMARK SMILES IDX 11 15 10 16 16 17 17 18 18 19 19 20 20 22 21 23 22 24 83 25
REMARK SMILES IDX 23 26 82 27 24 28 25 29 26 30 76 31 27 32 81 33 75 34 77 35
REMARK SMILES IDX 28 36 80 37 74 38 73 39 29 41 61 42 41 43 60 44 42 45 45 46
REMARK SMILES IDX 59 47 78 48 43 49 44 50 58 52 79 53 46 54 30 55 31 56 39 57
REMARK SMILES IDX 32 58 34 59 40 60 33 61 35 62 36 63 37 64 38 65 62 66 63 67
REMARK SMILES IDX 71 68 64 69 66 70 72 71 65 72 67 73 68 74 69 75 70 76 47 77
REMARK SMILES IDX 48 78 56 79 49 80 51 81 57 82 50 83 52 84 53 85 54 86 55 87
REMARK H PARENT 13 6 18 21 77 40 45 51
REMARK Flexibility Score: inf
ROOT
ATOM      1  C   UNL A   1      34.003  34.812  28.460  1.00  0.00     0.023 C 
ENDROOT
BRANCH   1   2
ATOM      2  C   UNL A   1      33.230  36.070  28.848  1.00  0.00     0.116 C 
BRANCH   2   3
ATOM      3  N   UNL A   1      33.738  36.686  30.049  1.00  0.00    -0.351 N 
ATOM      4  O   UNL A   1      31.856  36.450  31.366  1.00  0.00    -0.268 OA
ATOM      5  C   UNL A   1      33.012  36.821  31.205  1.00  0.00     0.265 C 
ATOM      6  H   UNL A   1      34.660  37.031  30.040  1.00  0.00     0.163 HD
BRANCH   5   7
ATOM      7  C   UNL A   1      33.736  37.401  32.398  1.00  0.00     0.225 C 
ATOM      8  N   UNL A   1      34.643  36.853  33.153  1.00  0.00    -0.089 NA
BRANCH   8   9
ATOM      9  O   UNL A   1      35.044  35.578  32.727  1.00  0.00    -0.391 OA
BRANCH   9  10
ATOM     10  C   UNL A   1      34.612  34.596  33.681  1.00  0.00     0.299 C 
BRANCH  10  11
ATOM     11  C   UNL A   1      35.693  33.580  33.950  1.00  0.00    -0.008 A 
ATOM     12  C   UNL A   1      36.569  33.749  35.033  1.00  0.00     0.007 A 
ATOM     13  C   UNL A   1      35.856  32.468  33.113  1.00  0.00     0.007 A 
ATOM     14  C   UNL A   1      37.577  32.818  35.283  1.00  0.00     0.000 A 
ATOM     15  C   UNL A   1      36.862  31.534  33.368  1.00  0.00     0.000 A 
ATOM     16  C   UNL A   1      37.721  31.709  34.452  1.00  0.00     0.000 A 
ENDBRANCH  10  11
ENDBRANCH   9  10
ENDBRANCH   8   9
ENDBRANCH   5   7
ENDBRANCH   2   3
ENDBRANCH   1   2
BRANCH   1  17
ATOM     17  C   UNL A   1      34.902  34.233  29.556  1.00  0.00     0.023 C 
BRANCH  17  18
ATOM     18  C   UNL A   1      34.720  32.747  29.852  1.00  0.00     0.116 C 
BRANCH  18  19
ATOM     19  N   UNL A   1      34.117  32.015  28.749  1.00  0.00    -0.352 N 
ATOM     20  C   UNL A   1      34.611  30.954  28.028  1.00  0.00     0.251 C 
ATOM     21  H   UNL A   1      33.222  32.326  28.480  1.00  0.00     0.163 HD
ATOM     22  O   UNL A   1      33.998  30.553  27.041  1.00  0.00    -0.269 OA
BRANCH  20  23
ATOM     23  C   UNL A   1      35.890  30.311  28.411  1.00  0.00     0.039 A 
ATOM     24  C   UNL A   1      37.014  30.512  27.603  1.00  0.00     0.014 A 
ATOM     25  C   UNL A   1      35.990  29.508  29.551  1.00  0.00     0.014 A 
ATOM     26  C   UNL A   1      38.247  29.968  27.974  1.00  0.00     0.010 A 
ATOM     27  C   UNL A   1      37.233  29.023  29.955  1.00  0.00     0.010 A 
ATOM     28  C   UNL A   1      38.377  29.249  29.173  1.00  0.00    -0.014 A 
BRANCH  28  29
ATOM     29  C   UNL A   1      39.700  28.752  29.638  1.00  0.00     0.031 A 
ATOM     30  C   UNL A   1      40.450  29.471  30.728  1.00  0.00     0.074 A 
ATOM     31  C   UNL A   1      40.273  27.702  29.015  1.00  0.00     0.049 A 
ATOM     32  N   UNL A   1      41.640  29.226  31.210  1.00  0.00    -0.248 NA
ATOM     33  C   UNL A   1      39.785  30.635  31.338  1.00  0.00     0.031 C 
ATOM     34  C   UNL A   1      39.688  26.963  27.893  1.00  0.00     0.029 A 
ATOM     35  N   UNL A   1      41.488  27.093  29.215  1.00  0.00    -0.354 N 
ATOM     36  C   UNL A   1      41.884  30.219  32.152  1.00  0.00     0.074 A 
ATOM     37  C   UNL A   1      40.729  31.090  32.151  1.00  0.00     0.031 C 
ATOM     38  C   UNL A   1      40.544  26.006  27.502  1.00  0.00     0.029 A 
ATOM     39  C   UNL A   1      41.749  26.078  28.323  1.00  0.00     0.049 A 
ATOM     40  H   UNL A   1      42.112  27.357  29.929  1.00  0.00     0.167 HD
ATOM     41  C   UNL A   1      42.955  30.376  32.966  1.00  0.00     0.034 A 
ATOM     42  C   UNL A   1      42.840  25.299  28.173  1.00  0.00     0.034 A 
ATOM     43  C   UNL A   1      44.085  29.485  32.998  1.00  0.00     0.049 A 
ATOM     44  C   UNL A   1      43.999  25.468  29.118  1.00  0.00     0.074 A 
ATOM     45  C   UNL A   1      45.179  29.514  33.847  1.00  0.00     0.029 A 
ATOM     46  N   UNL A   1      44.271  28.409  32.145  1.00  0.00    -0.354 N 
ATOM     47  N   UNL A   1      44.139  26.315  30.109  1.00  0.00    -0.248 NA
ATOM     48  C   UNL A   1      45.135  24.550  28.950  1.00  0.00     0.031 C 
ATOM     49  C   UNL A   1      46.035  28.466  33.493  1.00  0.00     0.029 A 
ATOM     50  C   UNL A   1      45.463  27.770  32.440  1.00  0.00     0.049 A 
ATOM     51  H   UNL A   1      43.646  28.139  31.433  1.00  0.00     0.167 HD
ATOM     52  C   UNL A   1      45.358  26.009  30.702  1.00  0.00     0.074 A 
ATOM     53  C   UNL A   1      45.907  24.884  29.975  1.00  0.00     0.031 C 
ATOM     54  C   UNL A   1      45.975  26.616  31.747  1.00  0.00     0.034 A 
BRANCH  41  55
ATOM     55  C   UNL A   1      42.934  31.528  33.938  1.00  0.00     0.023 A 
ATOM     56  C   UNL A   1      43.412  32.789  33.527  1.00  0.00     0.012 A 
ATOM     57  C   UNL A   1      42.384  31.384  35.227  1.00  0.00     0.148 A 
ATOM     58  C   UNL A   1      43.375  33.881  34.393  1.00  0.00     0.002 A 
ATOM     59  C   UNL A   1      42.310  32.488  36.070  1.00  0.00     0.091 A 
ATOM     60  F   UNL A   1      41.952  30.174  35.608  1.00  0.00    -0.205 F 
ATOM     61  C   UNL A   1      42.816  33.732  35.659  1.00  0.00     0.022 A 
BRANCH  59  62
ATOM     62  S   UNL A   1      41.537  32.421  37.690  1.00  0.00     0.127 S 
ATOM     63  O   UNL A   1      42.371  31.433  38.374  1.00  0.00    -0.237 OA
ATOM     64  O   UNL A   1      41.702  33.794  38.169  1.00  0.00    -0.237 OA
ATOM     65  O   UNL A   1      40.156  32.021  37.460  1.00  0.00    -0.744 OA
ENDBRANCH  59  62
ENDBRANCH  41  55
BRANCH  42  66
ATOM     66  C   UNL A   1      42.859  24.242  27.122  1.00  0.00     0.023 A 
ATOM     67  C   UNL A   1      43.563  24.471  25.924  1.00  0.00     0.012 A 
ATOM     68  C   UNL A   1      42.209  23.007  27.312  1.00  0.00     0.148 A 
ATOM     69  C   UNL A   1      43.593  23.502  24.920  1.00  0.00     0.002 A 
ATOM     70  C   UNL A   1      42.291  22.024  26.332  1.00  0.00     0.091 A 
ATOM     71  F   UNL A   1      41.532  22.813  28.453  1.00  0.00    -0.205 F 
ATOM     72  C   UNL A   1      42.967  22.276  25.129  1.00  0.00     0.022 A 
BRANCH  70  73
ATOM     73  S   UNL A   1      41.632  20.371  26.575  1.00  0.00     0.127 S 
ATOM     74  O   UNL A   1      40.195  20.625  26.627  1.00  0.00    -0.237 OA
ATOM     75  O   UNL A   1      42.094  19.680  25.370  1.00  0.00    -0.237 OA
ATOM     76  O   UNL A   1      42.238  19.886  27.808  1.00  0.00    -0.744 OA
ENDBRANCH  70  73
ENDBRANCH  42  66
BRANCH  54  77
ATOM     77  C   UNL A   1      47.300  26.061  32.198  1.00  0.00     0.023 A 
ATOM     78  C   UNL A   1      47.350  25.142  33.265  1.00  0.00     0.012 A 
ATOM     79  C   UNL A   1      48.488  26.393  31.516  1.00  0.00     0.148 A 
ATOM     80  C   UNL A   1      48.565  24.586  33.666  1.00  0.00     0.002 A 
ATOM     81  C   UNL A   1      49.687  25.797  31.890  1.00  0.00     0.091 A 
ATOM     82  F   UNL A   1      48.424  27.284  30.515  1.00  0.00    -0.205 F 
ATOM     83  C   UNL A   1      49.729  24.904  32.972  1.00  0.00     0.022 A 
BRANCH  81  84
ATOM     84  S   UNL A   1      51.220  26.074  30.994  1.00  0.00     0.127 S 
ATOM     85  O   UNL A   1      51.395  27.518  31.141  1.00  0.00    -0.237 OA
ATOM     86  O   UNL A   1      52.175  25.263  31.752  1.00  0.00    -0.237 OA
ATOM     87  O   UNL A   1      50.979  25.609  29.635  1.00  0.00    -0.744 OA
ENDBRANCH  81  84
ENDBRANCH  54  77
ENDBRANCH  28  29
ENDBRANCH  20  23
ENDBRANCH  18  19
ENDBRANCH  17  18
ENDBRANCH   1  17
TORSDOF 17
ENDMDL
MODEL 3
REMARK VINA RESULT:     -10.0      4.028     10.251
REMARK SMILES O=C(/C=N\OCc1ccccc1)NCCCCNC(=O)c1ccc(-c2c3nc(c(-c4cccc(S(=O)(=O)[O-])c4F)c4ccc([nH]4)c(-c4cccc(S(=O)(=O)[O-])c4F)c4nc(c(-c5cccc(S(=O)(=O)[O-])c5F)c5ccc2[nH]5)C=C4)C=C3)cc1
REMARK SMILES IDX 15 1 14 2 13 3 1 4 2 5 3 7 4 8 5 9 6 10 7 11 8 12 12 13 9 14
REMARK SMILES IDX 11 15 10 16 16 17 17 18 18 19 19 20 20 22 21 23 22 24 83 25
REMARK SMILES IDX 23 26 82 27 24 28 25 29 26 30 76 31 27 32 81 33 75 34 77 35
REMARK SMILES IDX 28 36 80 37 74 38 73 39 29 41 61 42 41 43 60 44 42 45 45 46
REMARK SMILES IDX 59 47 78 48 43 49 44 50 58 52 79 53 46 54 30 55 31 56 39 57
REMARK SMILES IDX 32 58 34 59 40 60 33 61 35 62 36 63 37 64 38 65 62 66 63 67
REMARK SMILES IDX 71 68 64 69 66 70 72 71 65 72 67 73 68 74 69 75 70 76 47 77
REMARK SMILES IDX 48 78 56 79 49 80 51 81 57 82 50 83 52 84 53 85 54 86 55 87
REMARK H PARENT 13 6 18 21 77 40 45 51
REMARK Flexibility Score: inf
ROOT
ATOM      1  C   UNL A   1      31.715  30.665  25.924  1.00  0.00     0.023 C 
ENDROOT
BRANCH   1   2
ATOM      2  C   UNL A   1      32.894  29.796  26.353  1.00  0.00     0.116 C 
BRANCH   2   3
ATOM      3  N   UNL A   1      32.669  28.392  26.112  1.00  0.00    -0.351 N 
ATOM      4  O   UNL A   1      31.263  27.970  27.894  1.00  0.00    -0.268 OA
ATOM      5  C   UNL A   1      31.872  27.600  26.898  1.00  0.00     0.265 C 
ATOM      6  H   UNL A   1      33.113  27.977  25.337  1.00  0.00     0.163 HD
BRANCH   5   7
ATOM      7  C   UNL A   1      31.668  26.174  26.439  1.00  0.00     0.225 C 
ATOM      8  N   UNL A   1      31.239  25.735  25.292  1.00  0.00    -0.089 NA
BRANCH   8   9
ATOM      9  O   UNL A   1      31.021  26.743  24.341  1.00  0.00    -0.391 OA
BRANCH   9  10
ATOM     10  C   UNL A   1      29.641  26.740  23.946  1.00  0.00     0.299 C 
BRANCH  10  11
ATOM     11  C   UNL A   1      29.271  28.018  23.238  1.00  0.00    -0.008 A 
ATOM     12  C   UNL A   1      27.931  28.431  23.176  1.00  0.00     0.007 A 
ATOM     13  C   UNL A   1      30.252  28.801  22.613  1.00  0.00     0.007 A 
ATOM     14  C   UNL A   1      27.581  29.608  22.516  1.00  0.00     0.000 A 
ATOM     15  C   UNL A   1      29.900  29.982  21.956  1.00  0.00     0.000 A 
ATOM     16  C   UNL A   1      28.566  30.385  21.908  1.00  0.00     0.000 A 
ENDBRANCH  10  11
ENDBRANCH   9  10
ENDBRANCH   8   9
ENDBRANCH   5   7
ENDBRANCH   2   3
ENDBRANCH   1   2
BRANCH   1  17
ATOM     17  C   UNL A   1      31.440  31.880  26.813  1.00  0.00     0.023 C 
BRANCH  17  18
ATOM     18  C   UNL A   1      32.670  32.616  27.336  1.00  0.00     0.116 C 
BRANCH  18  19
ATOM     19  N   UNL A   1      32.405  34.008  27.667  1.00  0.00    -0.352 N 
ATOM     20  C   UNL A   1      33.016  34.819  28.594  1.00  0.00     0.251 C 
ATOM     21  H   UNL A   1      31.681  34.431  27.151  1.00  0.00     0.163 HD
ATOM     22  O   UNL A   1      32.559  35.938  28.815  1.00  0.00    -0.269 OA
BRANCH  20  23
ATOM     23  C   UNL A   1      34.200  34.345  29.349  1.00  0.00     0.039 A 
ATOM     24  C   UNL A   1      34.005  33.731  30.590  1.00  0.00     0.014 A 
ATOM     25  C   UNL A   1      35.495  34.507  28.850  1.00  0.00     0.014 A 
ATOM     26  C   UNL A   1      35.099  33.220  31.296  1.00  0.00     0.010 A 
ATOM     27  C   UNL A   1      36.577  33.937  29.521  1.00  0.00     0.010 A 
ATOM     28  C   UNL A   1      36.391  33.285  30.750  1.00  0.00    -0.014 A 
BRANCH  28  29
ATOM     29  C   UNL A   1      37.553  32.655  31.435  1.00  0.00     0.031 A 
ATOM     30  C   UNL A   1      38.269  31.486  30.810  1.00  0.00     0.074 A 
ATOM     31  C   UNL A   1      37.908  33.075  32.666  1.00  0.00     0.049 A 
ATOM     32  N   UNL A   1      39.251  30.769  31.292  1.00  0.00    -0.248 NA
ATOM     33  C   UNL A   1      37.804  31.051  29.483  1.00  0.00     0.031 C 
ATOM     34  C   UNL A   1      37.248  34.146  33.416  1.00  0.00     0.029 A 
ATOM     35  N   UNL A   1      38.892  32.633  33.516  1.00  0.00    -0.354 N 
ATOM     36  C   UNL A   1      39.499  29.779  30.347  1.00  0.00     0.074 A 
ATOM     37  C   UNL A   1      38.544  29.970  29.279  1.00  0.00     0.031 C 
ATOM     38  C   UNL A   1      37.840  34.274  34.614  1.00  0.00     0.029 A 
ATOM     39  C   UNL A   1      38.903  33.280  34.731  1.00  0.00     0.049 A 
ATOM     40  H   UNL A   1      39.529  31.921  33.279  1.00  0.00     0.167 HD
ATOM     41  C   UNL A   1      40.455  28.818  30.353  1.00  0.00     0.034 A 
ATOM     42  C   UNL A   1      39.672  33.088  35.822  1.00  0.00     0.034 A 
ATOM     43  C   UNL A   1      41.433  28.656  31.394  1.00  0.00     0.049 A 
ATOM     44  C   UNL A   1      40.752  32.042  35.785  1.00  0.00     0.074 A 
ATOM     45  C   UNL A   1      42.493  27.765  31.447  1.00  0.00     0.029 A 
ATOM     46  N   UNL A   1      41.474  29.393  32.567  1.00  0.00    -0.354 N 
ATOM     47  N   UNL A   1      41.073  31.221  34.814  1.00  0.00    -0.248 NA
ATOM     48  C   UNL A   1      41.603  31.919  36.978  1.00  0.00     0.031 C 
ATOM     49  C   UNL A   1      43.162  27.953  32.662  1.00  0.00     0.029 A 
ATOM     50  C   UNL A   1      42.534  28.976  33.354  1.00  0.00     0.049 A 
ATOM     51  H   UNL A   1      40.841  30.109  32.805  1.00  0.00     0.167 HD
ATOM     52  C   UNL A   1      42.181  30.512  35.264  1.00  0.00     0.074 A 
ATOM     53  C   UNL A   1      42.490  31.015  36.586  1.00  0.00     0.031 C 
ATOM     54  C   UNL A   1      42.870  29.522  34.644  1.00  0.00     0.034 A 
BRANCH  41  55
ATOM     55  C   UNL A   1      40.528  27.897  29.161  1.00  0.00     0.023 A 
ATOM     56  C   UNL A   1      39.629  26.815  29.068  1.00  0.00     0.012 A 
ATOM     57  C   UNL A   1      41.434  28.136  28.110  1.00  0.00     0.148 A 
ATOM     58  C   UNL A   1      39.652  25.965  27.962  1.00  0.00     0.002 A 
ATOM     59  C   UNL A   1      41.422  27.311  26.990  1.00  0.00     0.091 A 
ATOM     60  F   UNL A   1      42.294  29.158  28.224  1.00  0.00    -0.205 F 
ATOM     61  C   UNL A   1      40.540  26.220  26.921  1.00  0.00     0.022 A 
BRANCH  59  62
ATOM     62  S   UNL A   1      42.470  27.600  25.561  1.00  0.00     0.127 S 
ATOM     63  O   UNL A   1      43.800  27.608  26.169  1.00  0.00    -0.237 OA
ATOM     64  O   UNL A   1      42.188  26.429  24.729  1.00  0.00    -0.237 OA
ATOM     65  O   UNL A   1      42.035  28.867  24.992  1.00  0.00    -0.744 OA
ENDBRANCH  59  62
ENDBRANCH  41  55
BRANCH  42  66
ATOM     66  C   UNL A   1      39.488  33.954  37.021  1.00  0.00     0.023 A 
ATOM     67  C   UNL A   1      39.892  35.302  36.971  1.00  0.00     0.012 A 
ATOM     68  C   UNL A   1      38.894  33.459  38.199  1.00  0.00     0.148 A 
ATOM     69  C   UNL A   1      39.737  36.134  38.079  1.00  0.00     0.002 A 
ATOM     70  C   UNL A   1      38.691  34.308  39.281  1.00  0.00     0.091 A 
ATOM     71  F   UNL A   1      38.529  32.170  38.234  1.00  0.00    -0.205 F 
ATOM     72  C   UNL A   1      39.128  35.640  39.230  1.00  0.00     0.022 A 
BRANCH  70  73
ATOM     73  S   UNL A   1      37.791  33.794  40.748  1.00  0.00     0.127 S 
ATOM     74  O   UNL A   1      36.591  33.195  40.170  1.00  0.00    -0.237 OA
ATOM     75  O   UNL A   1      38.723  32.844  41.359  1.00  0.00    -0.237 OA
ATOM     76  O   UNL A   1      37.586  35.008  41.526  1.00  0.00    -0.744 OA
ENDBRANCH  70  73
ENDBRANCH  42  66
BRANCH  54  77
ATOM     77  C   UNL A   1      44.053  28.932  35.366  1.00  0.00     0.023 A 
ATOM     78  C   UNL A   1      45.335  29.487  35.181  1.00  0.00     0.012 A 
ATOM     79  C   UNL A   1      43.882  27.876  36.283  1.00  0.00     0.148 A 
ATOM     80  C   UNL A   1      46.433  28.981  35.876  1.00  0.00     0.002 A 
ATOM     81  C   UNL A   1      44.973  27.409  37.007  1.00  0.00     0.091 A 
ATOM     82  F   UNL A   1      42.658  27.348  36.431  1.00  0.00    -0.205 F 
ATOM     83  C   UNL A   1      46.251  27.951  36.796  1.00  0.00     0.022 A 
BRANCH  81  84
ATOM     84  S   UNL A   1      44.816  26.151  38.281  1.00  0.00     0.127 S 
ATOM     85  O   UNL A   1      44.703  24.931  37.483  1.00  0.00    -0.237 OA
ATOM     86  O   UNL A   1      46.077  26.288  39.011  1.00  0.00    -0.237 OA
ATOM     87  O   UNL A   1      43.633  26.508  39.051  1.00  0.00    -0.744 OA
ENDBRANCH  81  84
ENDBRANCH  54  77
ENDBRANCH  28  29
ENDBRANCH  20  23
ENDBRANCH  18  19
ENDBRANCH  17  18
ENDBRANCH   1  17
TORSDOF 17
ENDMDL
