MODEL 1
REMARK VINA RESULT:     -12.2      0.000      0.000
REMARK SMILES C/C(=N\[NH+]=C1\NC(=O)[C@H](CC(=O)NCCCCNC(=O)c2ccc(-c3c4nc(c(-c5cccc(S(=O)(=O)[O-])c5F)c5ccc([nH]5)c(-c5cccc(S(=O)(=O)[O-])c5F)c5nc(c(-c6cccc(S(=O)(=O)[O-])c6F)c6ccc3[nH]6)C=C5)C=C4)cc2)S1)c1ccc([N+](=O)[O-])cc1
REMARK SMILES IDX 15 1 14 2 13 3 11 4 12 5 10 7 9 8 4 9 5 10 6 12 84 13 7 14
REMARK SMILES IDX 8 16 3 17 1 18 2 19 85 20 86 21 93 22 87 23 92 24 88 25
REMARK SMILES IDX 89 26 90 27 91 28 16 29 17 30 18 31 19 32 20 34 21 35 22 36
REMARK SMILES IDX 83 37 23 38 82 39 24 40 25 41 26 42 76 43 27 44 81 45 75 46
REMARK SMILES IDX 77 47 28 48 80 49 74 50 73 51 29 53 61 54 41 55 60 56 42 57
REMARK SMILES IDX 45 58 59 59 78 60 43 61 44 62 58 64 79 65 46 66 30 67 31 68
REMARK SMILES IDX 39 69 32 70 34 71 40 72 33 73 35 74 36 75 37 76 38 77 62 78
REMARK SMILES IDX 63 79 71 80 64 81 66 82 72 83 65 84 67 85 68 86 69 87 70 88
REMARK SMILES IDX 47 89 48 90 56 91 49 92 51 93 57 94 50 95 52 96 53 97 54 98
REMARK SMILES IDX 55 99
REMARK H PARENT 13 6 4 11 6 15 18 33 77 52 45 63
REMARK Flexibility Score: inf
ROOT
ATOM      1  C   UNL A   1      36.877  20.716  24.348  1.00  0.00     0.023 C 
ENDROOT
BRANCH   1   2
ATOM      2  C   UNL A   1      35.678  21.142  25.193  1.00  0.00     0.116 C 
BRANCH   2   3
ATOM      3  N   UNL A   1      34.761  20.040  25.429  1.00  0.00    -0.356 N 
ATOM      4  C   UNL A   1      33.411  19.974  25.249  1.00  0.00     0.221 C 
ATOM      5  O   UNL A   1      32.799  18.958  25.576  1.00  0.00    -0.275 OA
ATOM      6  H   UNL A   1      35.178  19.215  25.770  1.00  0.00     0.163 HD
BRANCH   4   7
ATOM      7  C   UNL A   1      32.681  21.156  24.662  1.00  0.00     0.127 C 
BRANCH   7   8
ATOM      8  C   UNL A   1      32.082  22.037  25.744  1.00  0.00     0.183 C 
ATOM      9  N   UNL A   1      32.786  25.798  26.206  1.00  0.00    -0.142 N 
ATOM     10  C   UNL A   1      32.717  24.528  25.983  1.00  0.00     0.337 C 
ATOM     11  H   UNL A   1      33.535  26.206  26.697  1.00  0.00     0.343 HD
ATOM     12  N   UNL A   1      33.512  23.700  26.689  1.00  0.00    -0.202 N 
ATOM     13  S   UNL A   1      31.569  23.638  25.022  1.00  0.00    -0.020 SA
ATOM     14  C   UNL A   1      33.055  22.428  26.835  1.00  0.00     0.322 C 
ATOM     15  H   UNL A   1      34.368  23.996  27.074  1.00  0.00     0.316 HD
ATOM     16  O   UNL A   1      33.336  21.729  27.799  1.00  0.00    -0.246 OA
BRANCH   9  17
ATOM     17  N   UNL A   1      31.726  26.547  25.704  1.00  0.00    -0.090 NA
ATOM     18  C   UNL A   1      33.515  27.704  24.391  1.00  0.00     0.071 C 
ATOM     19  C   UNL A   1      32.072  27.437  24.811  1.00  0.00     0.088 C 
BRANCH  19  20
ATOM     20  C   UNL A   1      31.010  28.321  24.237  1.00  0.00    -0.000 A 
ATOM     21  C   UNL A   1      30.058  27.768  23.366  1.00  0.00     0.017 A 
ATOM     22  C   UNL A   1      30.932  29.682  24.564  1.00  0.00     0.017 A 
ATOM     23  C   UNL A   1      29.038  28.560  22.831  1.00  0.00     0.086 A 
ATOM     24  C   UNL A   1      29.919  30.482  24.030  1.00  0.00     0.086 A 
ATOM     25  C   UNL A   1      28.974  29.918  23.166  1.00  0.00     0.269 A 
BRANCH  25  26
ATOM     26  N   UNL A   1      27.910  30.761  22.609  1.00  0.00     0.062 N 
ATOM     27  O   UNL A   1      27.719  30.718  21.386  1.00  0.00    -0.258 OA
ATOM     28  O   UNL A   1      27.265  31.467  23.397  1.00  0.00    -0.258 OA
ENDBRANCH  25  26
ENDBRANCH  19  20
ENDBRANCH   9  17
ENDBRANCH   7   8
ENDBRANCH   4   7
ENDBRANCH   2   3
ENDBRANCH   1   2
BRANCH   1  29
ATOM     29  C   UNL A   1      37.773  19.664  24.994  1.00  0.00     0.023 C 
BRANCH  29  30
ATOM     30  C   UNL A   1      38.978  20.232  25.726  1.00  0.00     0.116 C 
BRANCH  30  31
ATOM     31  N   UNL A   1      40.009  19.234  25.970  1.00  0.00    -0.352 N 
ATOM     32  C   UNL A   1      41.346  19.416  26.237  1.00  0.00     0.251 C 
ATOM     33  H   UNL A   1      39.708  18.298  25.939  1.00  0.00     0.163 HD
ATOM     34  O   UNL A   1      42.099  18.456  26.261  1.00  0.00    -0.269 OA
BRANCH  32  35
ATOM     35  C   UNL A   1      41.858  20.785  26.470  1.00  0.00     0.039 A 
ATOM     36  C   UNL A   1      42.238  21.555  25.370  1.00  0.00     0.014 A 
ATOM     37  C   UNL A   1      41.942  21.307  27.763  1.00  0.00     0.014 A 
ATOM     38  C   UNL A   1      42.657  22.871  25.568  1.00  0.00     0.010 A 
ATOM     39  C   UNL A   1      42.265  22.646  27.948  1.00  0.00     0.010 A 
ATOM     40  C   UNL A   1      42.646  23.435  26.856  1.00  0.00    -0.014 A 
BRANCH  40  41
ATOM     41  C   UNL A   1      43.035  24.851  27.067  1.00  0.00     0.031 A 
ATOM     42  C   UNL A   1      42.077  25.817  27.709  1.00  0.00     0.074 A 
ATOM     43  C   UNL A   1      44.234  25.278  26.625  1.00  0.00     0.049 A 
ATOM     44  N   UNL A   1      42.258  27.077  28.012  1.00  0.00    -0.248 NA
ATOM     45  C   UNL A   1      40.727  25.319  28.024  1.00  0.00     0.031 C 
ATOM     46  C   UNL A   1      45.201  24.465  25.883  1.00  0.00     0.029 A 
ATOM     47  N   UNL A   1      44.840  26.504  26.725  1.00  0.00    -0.354 N 
ATOM     48  C   UNL A   1      41.045  27.525  28.520  1.00  0.00     0.074 A 
ATOM     49  C   UNL A   1      40.118  26.419  28.440  1.00  0.00     0.031 C 
ATOM     50  C   UNL A   1      46.288  25.207  25.618  1.00  0.00     0.029 A 
ATOM     51  C   UNL A   1      46.093  26.547  26.159  1.00  0.00     0.049 A 
ATOM     52  H   UNL A   1      44.419  27.280  27.161  1.00  0.00     0.167 HD
ATOM     53  C   UNL A   1      40.740  28.736  29.045  1.00  0.00     0.034 A 
ATOM     54  C   UNL A   1      46.989  27.551  26.101  1.00  0.00     0.034 A 
ATOM     55  C   UNL A   1      41.684  29.813  29.171  1.00  0.00     0.049 A 
ATOM     56  C   UNL A   1      46.662  28.853  26.780  1.00  0.00     0.074 A 
ATOM     57  C   UNL A   1      41.509  31.046  29.774  1.00  0.00     0.029 A 
ATOM     58  N   UNL A   1      42.981  29.786  28.684  1.00  0.00    -0.354 N 
ATOM     59  N   UNL A   1      45.572  29.198  27.422  1.00  0.00    -0.248 NA
ATOM     60  C   UNL A   1      47.707  29.886  26.770  1.00  0.00     0.031 C 
ATOM     61  C   UNL A   1      42.701  31.769  29.640  1.00  0.00     0.029 A 
ATOM     62  C   UNL A   1      43.622  30.978  28.971  1.00  0.00     0.049 A 
ATOM     63  H   UNL A   1      43.388  29.028  28.204  1.00  0.00     0.167 HD
ATOM     64  C   UNL A   1      45.811  30.474  27.919  1.00  0.00     0.074 A 
ATOM     65  C   UNL A   1      47.161  30.826  27.529  1.00  0.00     0.031 C 
ATOM     66  C   UNL A   1      44.982  31.292  28.616  1.00  0.00     0.034 A 
BRANCH  53  67
ATOM     67  C   UNL A   1      39.347  28.930  29.588  1.00  0.00     0.023 A 
ATOM     68  C   UNL A   1      39.047  28.499  30.896  1.00  0.00     0.012 A 
ATOM     69  C   UNL A   1      38.353  29.578  28.829  1.00  0.00     0.148 A 
ATOM     70  C   UNL A   1      37.771  28.674  31.429  1.00  0.00     0.002 A 
ATOM     71  C   UNL A   1      37.095  29.789  29.384  1.00  0.00     0.091 A 
ATOM     72  F   UNL A   1      38.647  29.960  27.579  1.00  0.00    -0.205 F 
ATOM     73  C   UNL A   1      36.799  29.328  30.678  1.00  0.00     0.022 A 
BRANCH  71  74
ATOM     74  S   UNL A   1      35.797  30.690  28.529  1.00  0.00     0.127 S 
ATOM     75  O   UNL A   1      34.950  31.115  29.642  1.00  0.00    -0.237 OA
ATOM     76  O   UNL A   1      36.544  31.770  27.884  1.00  0.00    -0.237 OA
ATOM     77  O   UNL A   1      35.190  29.739  27.607  1.00  0.00    -0.744 OA
ENDBRANCH  71  74
ENDBRANCH  53  67
BRANCH  54  78
ATOM     78  C   UNL A   1      48.319  27.323  25.470  1.00  0.00     0.023 A 
ATOM     79  C   UNL A   1      49.395  26.878  26.265  1.00  0.00     0.012 A 
ATOM     80  C   UNL A   1      48.518  27.507  24.089  1.00  0.00     0.148 A 
ATOM     81  C   UNL A   1      50.652  26.653  25.703  1.00  0.00     0.002 A 
ATOM     82  C   UNL A   1      49.758  27.226  23.525  1.00  0.00     0.091 A 
ATOM     83  F   UNL A   1      47.486  27.939  23.350  1.00  0.00    -0.205 F 
ATOM     84  C   UNL A   1      50.830  26.817  24.332  1.00  0.00     0.022 A 
BRANCH  82  85
ATOM     85  S   UNL A   1      50.038  27.276  21.750  1.00  0.00     0.127 S 
ATOM     86  O   UNL A   1      48.993  26.383  21.258  1.00  0.00    -0.237 OA
ATOM     87  O   UNL A   1      49.831  28.694  21.450  1.00  0.00    -0.237 OA
ATOM     88  O   UNL A   1      51.408  26.821  21.561  1.00  0.00    -0.744 OA
ENDBRANCH  82  85
ENDBRANCH  54  78
BRANCH  66  89
ATOM     89  C   UNL A   1      45.521  32.637  29.021  1.00  0.00     0.023 A 
ATOM     90  C   UNL A   1      46.168  32.784  30.265  1.00  0.00     0.012 A 
ATOM     91  C   UNL A   1      45.430  33.743  28.156  1.00  0.00     0.148 A 
ATOM     92  C   UNL A   1      46.676  34.021  30.658  1.00  0.00     0.002 A 
ATOM     93  C   UNL A   1      45.983  34.961  28.533  1.00  0.00     0.091 A 
ATOM     94  F   UNL A   1      44.793  33.591  26.985  1.00  0.00    -0.205 F 
ATOM     95  C   UNL A   1      46.593  35.106  29.789  1.00  0.00     0.022 A 
BRANCH  93  96
ATOM     96  S   UNL A   1      46.002  36.379  27.430  1.00  0.00     0.127 S 
ATOM     97  O   UNL A   1      44.576  36.676  27.300  1.00  0.00    -0.237 OA
ATOM     98  O   UNL A   1      46.762  37.366  28.197  1.00  0.00    -0.237 OA
ATOM     99  O   UNL A   1      46.666  35.924  26.216  1.00  0.00    -0.744 OA
ENDBRANCH  93  96
ENDBRANCH  66  89
ENDBRANCH  40  41
ENDBRANCH  32  35
ENDBRANCH  30  31
ENDBRANCH  29  30
ENDBRANCH   1  29
TORSDOF 18
ENDMDL
MODEL 2
REMARK VINA RESULT:     -12.1      1.885      7.619
REMARK SMILES C/C(=N\[NH+]=C1\NC(=O)[C@H](CC(=O)NCCCCNC(=O)c2ccc(-c3c4nc(c(-c5cccc(S(=O)(=O)[O-])c5F)c5ccc([nH]5)c(-c5cccc(S(=O)(=O)[O-])c5F)c5nc(c(-c6cccc(S(=O)(=O)[O-])c6F)c6ccc3[nH]6)C=C5)C=C4)cc2)S1)c1ccc([N+](=O)[O-])cc1
REMARK SMILES IDX 15 1 14 2 13 3 11 4 12 5 10 7 9 8 4 9 5 10 6 12 84 13 7 14
REMARK SMILES IDX 8 16 3 17 1 18 2 19 85 20 86 21 93 22 87 23 92 24 88 25
REMARK SMILES IDX 89 26 90 27 91 28 16 29 17 30 18 31 19 32 20 34 21 35 22 36
REMARK SMILES IDX 83 37 23 38 82 39 24 40 25 41 26 42 76 43 27 44 81 45 75 46
REMARK SMILES IDX 77 47 28 48 80 49 74 50 73 51 29 53 61 54 41 55 60 56 42 57
REMARK SMILES IDX 45 58 59 59 78 60 43 61 44 62 58 64 79 65 46 66 30 67 31 68
REMARK SMILES IDX 39 69 32 70 34 71 40 72 33 73 35 74 36 75 37 76 38 77 62 78
REMARK SMILES IDX 63 79 71 80 64 81 66 82 72 83 65 84 67 85 68 86 69 87 70 88
REMARK SMILES IDX 47 89 48 90 56 91 49 92 51 93 57 94 50 95 52 96 53 97 54 98
REMARK SMILES IDX 55 99
REMARK H PARENT 13 6 4 11 6 15 18 33 77 52 45 63
REMARK Flexibility Score: inf
ROOT
ATOM      1  C   UNL A   1      39.238  22.242  26.432  1.00  0.00     0.023 C 
ENDROOT
BRANCH   1   2
ATOM      2  C   UNL A   1      37.895  22.850  26.031  1.00  0.00     0.116 C 
BRANCH   2   3
ATOM      3  N   UNL A   1      37.738  22.916  24.588  1.00  0.00    -0.356 N 
ATOM      4  C   UNL A   1      36.606  23.029  23.837  1.00  0.00     0.221 C 
ATOM      5  O   UNL A   1      36.680  23.000  22.610  1.00  0.00    -0.275 OA
ATOM      6  H   UNL A   1      38.578  22.873  24.074  1.00  0.00     0.163 HD
BRANCH   4   7
ATOM      7  C   UNL A   1      35.271  23.176  24.523  1.00  0.00     0.127 C 
BRANCH   7   8
ATOM      8  C   UNL A   1      34.119  22.911  23.570  1.00  0.00     0.183 C 
ATOM      9  N   UNL A   1      30.439  23.878  24.187  1.00  0.00    -0.142 N 
ATOM     10  C   UNL A   1      31.685  23.539  24.159  1.00  0.00     0.337 C 
ATOM     11  H   UNL A   1      29.764  23.360  24.682  1.00  0.00     0.343 HD
ATOM     12  N   UNL A   1      32.031  22.298  24.553  1.00  0.00    -0.202 N 
ATOM     13  S   UNL A   1      33.044  24.388  23.475  1.00  0.00    -0.020 SA
ATOM     14  C   UNL A   1      33.183  21.810  24.019  1.00  0.00     0.322 C 
ATOM     15  H   UNL A   1      31.484  21.777  25.184  1.00  0.00     0.316 HD
ATOM     16  O   UNL A   1      33.378  20.616  23.844  1.00  0.00    -0.246 OA
BRANCH   9  17
ATOM     17  N   UNL A   1      30.120  25.023  23.465  1.00  0.00    -0.090 NA
ATOM     18  C   UNL A   1      29.923  26.072  25.729  1.00  0.00     0.071 C 
ATOM     19  C   UNL A   1      29.905  26.081  24.203  1.00  0.00     0.088 C 
BRANCH  19  20
ATOM     20  C   UNL A   1      29.517  27.357  23.525  1.00  0.00    -0.000 A 
ATOM     21  C   UNL A   1      30.518  28.159  22.952  1.00  0.00     0.017 A 
ATOM     22  C   UNL A   1      28.178  27.760  23.429  1.00  0.00     0.017 A 
ATOM     23  C   UNL A   1      30.187  29.345  22.290  1.00  0.00     0.086 A 
ATOM     24  C   UNL A   1      27.839  28.946  22.773  1.00  0.00     0.086 A 
ATOM     25  C   UNL A   1      28.846  29.734  22.204  1.00  0.00     0.269 A 
BRANCH  25  26
ATOM     26  N   UNL A   1      28.486  30.979  21.514  1.00  0.00     0.062 N 
ATOM     27  O   UNL A   1      28.996  32.032  21.919  1.00  0.00    -0.258 OA
ATOM     28  O   UNL A   1      27.692  30.900  20.566  1.00  0.00    -0.258 OA
ENDBRANCH  25  26
ENDBRANCH  19  20
ENDBRANCH   9  17
ENDBRANCH   7   8
ENDBRANCH   4   7
ENDBRANCH   2   3
ENDBRANCH   1   2
BRANCH   1  29
ATOM     29  C   UNL A   1      39.517  20.864  25.844  1.00  0.00     0.023 C 
BRANCH  29  30
ATOM     30  C   UNL A   1      40.402  19.981  26.708  1.00  0.00     0.116 C 
BRANCH  30  31
ATOM     31  N   UNL A   1      41.631  19.586  26.033  1.00  0.00    -0.352 N 
ATOM     32  C   UNL A   1      42.730  20.349  25.714  1.00  0.00     0.251 C 
ATOM     33  H   UNL A   1      41.682  18.639  25.769  1.00  0.00     0.163 HD
ATOM     34  O   UNL A   1      43.609  19.886  25.006  1.00  0.00    -0.269 OA
BRANCH  32  35
ATOM     35  C   UNL A   1      42.817  21.737  26.218  1.00  0.00     0.039 A 
ATOM     36  C   UNL A   1      42.964  21.945  27.590  1.00  0.00     0.014 A 
ATOM     37  C   UNL A   1      42.773  22.823  25.339  1.00  0.00     0.014 A 
ATOM     38  C   UNL A   1      43.116  23.244  28.074  1.00  0.00     0.010 A 
ATOM     39  C   UNL A   1      43.023  24.105  25.811  1.00  0.00     0.010 A 
ATOM     40  C   UNL A   1      43.175  24.332  27.185  1.00  0.00    -0.014 A 
BRANCH  40  41
ATOM     41  C   UNL A   1      43.394  25.711  27.686  1.00  0.00     0.031 A 
ATOM     42  C   UNL A   1      44.775  26.310  27.692  1.00  0.00     0.074 A 
ATOM     43  C   UNL A   1      42.354  26.402  28.191  1.00  0.00     0.049 A 
ATOM     44  N   UNL A   1      45.149  27.510  28.051  1.00  0.00    -0.248 NA
ATOM     45  C   UNL A   1      45.888  25.441  27.271  1.00  0.00     0.031 C 
ATOM     46  C   UNL A   1      40.991  25.886  28.348  1.00  0.00     0.029 A 
ATOM     47  N   UNL A   1      42.280  27.682  28.677  1.00  0.00    -0.354 N 
ATOM     48  C   UNL A   1      46.533  27.530  27.931  1.00  0.00     0.074 A 
ATOM     49  C   UNL A   1      46.941  26.208  27.513  1.00  0.00     0.031 C 
ATOM     50  C   UNL A   1      40.213  26.848  28.867  1.00  0.00     0.029 A 
ATOM     51  C   UNL A   1      41.019  28.043  29.091  1.00  0.00     0.049 A 
ATOM     52  H   UNL A   1      43.056  28.286  28.723  1.00  0.00     0.167 HD
ATOM     53  C   UNL A   1      47.386  28.566  28.111  1.00  0.00     0.034 A 
ATOM     54  C   UNL A   1      40.564  29.213  29.578  1.00  0.00     0.034 A 
ATOM     55  C   UNL A   1      46.966  29.893  28.473  1.00  0.00     0.049 A 
ATOM     56  C   UNL A   1      41.512  30.376  29.674  1.00  0.00     0.074 A 
ATOM     57  C   UNL A   1      47.734  31.038  28.588  1.00  0.00     0.029 A 
ATOM     58  N   UNL A   1      45.664  30.252  28.781  1.00  0.00    -0.354 N 
ATOM     59  N   UNL A   1      42.789  30.427  29.377  1.00  0.00    -0.248 NA
ATOM     60  C   UNL A   1      40.949  31.656  30.124  1.00  0.00     0.031 C 
ATOM     61  C   UNL A   1      46.894  32.089  28.977  1.00  0.00     0.029 A 
ATOM     62  C   UNL A   1      45.601  31.600  29.086  1.00  0.00     0.049 A 
ATOM     63  H   UNL A   1      44.895  29.637  28.782  1.00  0.00     0.167 HD
ATOM     64  C   UNL A   1      43.174  31.748  29.573  1.00  0.00     0.074 A 
ATOM     65  C   UNL A   1      41.987  32.470  29.984  1.00  0.00     0.031 C 
ATOM     66  C   UNL A   1      44.402  32.311  29.447  1.00  0.00     0.034 A 
BRANCH  53  67
ATOM     67  C   UNL A   1      48.849  28.320  27.847  1.00  0.00     0.023 A 
ATOM     68  C   UNL A   1      49.716  28.065  28.930  1.00  0.00     0.012 A 
ATOM     69  C   UNL A   1      49.359  28.294  26.534  1.00  0.00     0.148 A 
ATOM     70  C   UNL A   1      51.071  27.823  28.716  1.00  0.00     0.002 A 
ATOM     71  C   UNL A   1      50.704  28.008  26.326  1.00  0.00     0.091 A 
ATOM     72  F   UNL A   1      48.527  28.563  25.518  1.00  0.00    -0.205 F 
ATOM     73  C   UNL A   1      51.564  27.785  27.414  1.00  0.00     0.022 A 
BRANCH  71  74
ATOM     74  S   UNL A   1      51.420  27.857  24.684  1.00  0.00     0.127 S 
ATOM     75  O   UNL A   1      51.309  29.228  24.187  1.00  0.00    -0.237 OA
ATOM     76  O   UNL A   1      52.786  27.426  24.983  1.00  0.00    -0.237 OA
ATOM     77  O   UNL A   1      50.612  26.869  23.984  1.00  0.00    -0.744 OA
ENDBRANCH  71  74
ENDBRANCH  53  67
BRANCH  54  78
ATOM     78  C   UNL A   1      39.118  29.368  29.907  1.00  0.00     0.023 A 
ATOM     79  C   UNL A   1      38.668  29.060  31.206  1.00  0.00     0.012 A 
ATOM     80  C   UNL A   1      38.197  29.849  28.958  1.00  0.00     0.148 A 
ATOM     81  C   UNL A   1      37.322  29.196  31.545  1.00  0.00     0.002 A 
ATOM     82  C   UNL A   1      36.867  30.037  29.319  1.00  0.00     0.091 A 
ATOM     83  F   UNL A   1      38.642  30.127  27.724  1.00  0.00    -0.205 F 
ATOM     84  C   UNL A   1      36.424  29.695  30.606  1.00  0.00     0.022 A 
BRANCH  82  85
ATOM     85  S   UNL A   1      35.674  30.803  28.215  1.00  0.00     0.127 S 
ATOM     86  O   UNL A   1      34.579  31.116  29.129  1.00  0.00    -0.237 OA
ATOM     87  O   UNL A   1      36.417  31.964  27.722  1.00  0.00    -0.237 OA
ATOM     88  O   UNL A   1      35.388  29.802  27.197  1.00  0.00    -0.744 OA
ENDBRANCH  82  85
ENDBRANCH  54  78
BRANCH  66  89
ATOM     89  C   UNL A   1      44.518  33.784  29.735  1.00  0.00     0.023 A 
ATOM     90  C   UNL A   1      44.851  34.217  31.034  1.00  0.00     0.012 A 
ATOM     91  C   UNL A   1      44.343  34.736  28.713  1.00  0.00     0.148 A 
ATOM     92  C   UNL A   1      44.964  35.577  31.321  1.00  0.00     0.002 A 
ATOM     93  C   UNL A   1      44.507  36.086  28.994  1.00  0.00     0.091 A 
ATOM     94  F   UNL A   1      44.006  34.307  27.487  1.00  0.00    -0.205 F 
ATOM     95  C   UNL A   1      44.803  36.510  30.300  1.00  0.00     0.022 A 
BRANCH  93  96
ATOM     96  S   UNL A   1      44.411  37.342  27.713  1.00  0.00     0.127 S 
ATOM     97  O   UNL A   1      44.549  38.573  28.490  1.00  0.00    -0.237 OA
ATOM     98  O   UNL A   1      45.563  37.022  26.870  1.00  0.00    -0.237 OA
ATOM     99  O   UNL A   1      43.122  37.145  27.065  1.00  0.00    -0.744 OA
ENDBRANCH  93  96
ENDBRANCH  66  89
ENDBRANCH  40  41
ENDBRANCH  32  35
ENDBRANCH  30  31
ENDBRANCH  29  30
ENDBRANCH   1  29
TORSDOF 18
ENDMDL
MODEL 3
REMARK VINA RESULT:     -11.8      2.457      3.194
REMARK SMILES C/C(=N\[NH+]=C1\NC(=O)[C@H](CC(=O)NCCCCNC(=O)c2ccc(-c3c4nc(c(-c5cccc(S(=O)(=O)[O-])c5F)c5ccc([nH]5)c(-c5cccc(S(=O)(=O)[O-])c5F)c5nc(c(-c6cccc(S(=O)(=O)[O-])c6F)c6ccc3[nH]6)C=C5)C=C4)cc2)S1)c1ccc([N+](=O)[O-])cc1
REMARK SMILES IDX 15 1 14 2 13 3 11 4 12 5 10 7 9 8 4 9 5 10 6 12 84 13 7 14
REMARK SMILES IDX 8 16 3 17 1 18 2 19 85 20 86 21 93 22 87 23 92 24 88 25
REMARK SMILES IDX 89 26 90 27 91 28 16 29 17 30 18 31 19 32 20 34 21 35 22 36
REMARK SMILES IDX 83 37 23 38 82 39 24 40 25 41 26 42 76 43 27 44 81 45 75 46
REMARK SMILES IDX 77 47 28 48 80 49 74 50 73 51 29 53 61 54 41 55 60 56 42 57
REMARK SMILES IDX 45 58 59 59 78 60 43 61 44 62 58 64 79 65 46 66 30 67 31 68
REMARK SMILES IDX 39 69 32 70 34 71 40 72 33 73 35 74 36 75 37 76 38 77 62 78
REMARK SMILES IDX 63 79 71 80 64 81 66 82 72 83 65 84 67 85 68 86 69 87 70 88
REMARK SMILES IDX 47 89 48 90 56 91 49 92 51 93 57 94 50 95 52 96 53 97 54 98
REMARK SMILES IDX 55 99
REMARK H PARENT 13 6 4 11 6 15 18 33 77 52 45 63
REMARK Flexibility Score: inf
ROOT
ATOM      1  C   UNL A   1      37.545  20.916  24.790  1.00  0.00     0.023 C 
ENDROOT
BRANCH   1   2
ATOM      2  C   UNL A   1      36.183  20.879  25.480  1.00  0.00     0.116 C 
BRANCH   2   3
ATOM      3  N   UNL A   1      35.309  19.871  24.904  1.00  0.00    -0.356 N 
ATOM      4  C   UNL A   1      33.948  19.790  24.907  1.00  0.00     0.221 C 
ATOM      5  O   UNL A   1      33.392  18.809  24.416  1.00  0.00    -0.275 OA
ATOM      6  H   UNL A   1      35.771  19.134  24.439  1.00  0.00     0.163 HD
BRANCH   4   7
ATOM      7  C   UNL A   1      33.139  20.902  25.527  1.00  0.00     0.127 C 
BRANCH   7   8
ATOM      8  C   UNL A   1      33.257  22.190  24.731  1.00  0.00     0.183 C 
ATOM      9  N   UNL A   1      31.120  25.352  25.266  1.00  0.00    -0.142 N 
ATOM     10  C   UNL A   1      31.692  24.201  25.146  1.00  0.00     0.337 C 
ATOM     11  H   UNL A   1      30.232  25.541  24.884  1.00  0.00     0.343 HD
ATOM     12  N   UNL A   1      31.221  23.333  24.229  1.00  0.00    -0.202 N 
ATOM     13  S   UNL A   1      33.172  23.625  25.862  1.00  0.00    -0.020 SA
ATOM     14  C   UNL A   1      32.120  22.426  23.760  1.00  0.00     0.322 C 
ATOM     15  H   UNL A   1      30.288  23.354  23.917  1.00  0.00     0.316 HD
ATOM     16  O   UNL A   1      32.049  21.940  22.640  1.00  0.00    -0.246 OA
BRANCH   9  17
ATOM     17  N   UNL A   1      31.847  26.305  25.971  1.00  0.00    -0.090 NA
ATOM     18  C   UNL A   1      30.757  27.915  24.395  1.00  0.00     0.071 C 
ATOM     19  C   UNL A   1      31.648  27.535  25.575  1.00  0.00     0.088 C 
BRANCH  19  20
ATOM     20  C   UNL A   1      32.413  28.633  26.245  1.00  0.00    -0.000 A 
ATOM     21  C   UNL A   1      33.704  28.369  26.730  1.00  0.00     0.017 A 
ATOM     22  C   UNL A   1      31.880  29.923  26.379  1.00  0.00     0.017 A 
ATOM     23  C   UNL A   1      34.455  29.378  27.339  1.00  0.00     0.086 A 
ATOM     24  C   UNL A   1      32.622  30.936  26.991  1.00  0.00     0.086 A 
ATOM     25  C   UNL A   1      33.909  30.660  27.468  1.00  0.00     0.269 A 
BRANCH  25  26
ATOM     26  N   UNL A   1      34.686  31.728  28.107  1.00  0.00     0.062 N 
ATOM     27  O   UNL A   1      34.429  32.003  29.288  1.00  0.00    -0.258 OA
ATOM     28  O   UNL A   1      35.555  32.293  27.426  1.00  0.00    -0.258 OA
ENDBRANCH  25  26
ENDBRANCH  19  20
ENDBRANCH   9  17
ENDBRANCH   7   8
ENDBRANCH   4   7
ENDBRANCH   2   3
ENDBRANCH   1   2
BRANCH   1  29
ATOM     29  C   UNL A   1      38.474  19.760  25.148  1.00  0.00     0.023 C 
BRANCH  29  30
ATOM     30  C   UNL A   1      39.466  20.075  26.254  1.00  0.00     0.116 C 
BRANCH  30  31
ATOM     31  N   UNL A   1      40.671  19.261  26.177  1.00  0.00    -0.352 N 
ATOM     32  C   UNL A   1      41.988  19.659  26.144  1.00  0.00     0.251 C 
ATOM     33  H   UNL A   1      40.523  18.288  26.144  1.00  0.00     0.163 HD
ATOM     34  O   UNL A   1      42.866  18.844  25.920  1.00  0.00    -0.269 OA
BRANCH  32  35
ATOM     35  C   UNL A   1      42.316  21.086  26.360  1.00  0.00     0.039 A 
ATOM     36  C   UNL A   1      42.708  21.499  27.634  1.00  0.00     0.014 A 
ATOM     37  C   UNL A   1      42.255  22.002  25.306  1.00  0.00     0.014 A 
ATOM     38  C   UNL A   1      43.087  22.827  27.836  1.00  0.00     0.010 A 
ATOM     39  C   UNL A   1      42.724  23.297  25.488  1.00  0.00     0.010 A 
ATOM     40  C   UNL A   1      43.125  23.728  26.758  1.00  0.00    -0.014 A 
BRANCH  40  41
ATOM     41  C   UNL A   1      43.581  25.126  26.954  1.00  0.00     0.031 A 
ATOM     42  C   UNL A   1      42.664  26.149  27.569  1.00  0.00     0.074 A 
ATOM     43  C   UNL A   1      44.806  25.487  26.523  1.00  0.00     0.049 A 
ATOM     44  N   UNL A   1      42.904  27.402  27.856  1.00  0.00    -0.248 NA
ATOM     45  C   UNL A   1      41.287  25.722  27.873  1.00  0.00     0.031 C 
ATOM     46  C   UNL A   1      45.741  24.616  25.805  1.00  0.00     0.029 A 
ATOM     47  N   UNL A   1      45.471  26.682  26.613  1.00  0.00    -0.354 N 
ATOM     48  C   UNL A   1      41.709  27.917  28.342  1.00  0.00     0.074 A 
ATOM     49  C   UNL A   1      40.729  26.858  28.265  1.00  0.00     0.031 C 
ATOM     50  C   UNL A   1      46.867  25.298  25.545  1.00  0.00     0.029 A 
ATOM     51  C   UNL A   1      46.732  26.655  26.064  1.00  0.00     0.049 A 
ATOM     52  H   UNL A   1      45.083  27.484  27.032  1.00  0.00     0.167 HD
ATOM     53  C   UNL A   1      41.458  29.149  28.845  1.00  0.00     0.034 A 
ATOM     54  C   UNL A   1      47.677  27.612  26.004  1.00  0.00     0.034 A 
ATOM     55  C   UNL A   1      42.453  30.180  28.968  1.00  0.00     0.049 A 
ATOM     56  C   UNL A   1      47.407  28.938  26.659  1.00  0.00     0.074 A 
ATOM     57  C   UNL A   1      42.332  31.429  29.551  1.00  0.00     0.029 A 
ATOM     58  N   UNL A   1      43.753  30.081  28.500  1.00  0.00    -0.354 N 
ATOM     59  N   UNL A   1      46.327  29.347  27.282  1.00  0.00    -0.248 NA
ATOM     60  C   UNL A   1      48.502  29.918  26.648  1.00  0.00     0.031 C 
ATOM     61  C   UNL A   1      43.560  32.090  29.423  1.00  0.00     0.029 A 
ATOM     62  C   UNL A   1      44.449  31.245  28.778  1.00  0.00     0.049 A 
ATOM     63  H   UNL A   1      44.128  29.297  28.036  1.00  0.00     0.167 HD
ATOM     64  C   UNL A   1      46.623  30.617  27.763  1.00  0.00     0.074 A 
ATOM     65  C   UNL A   1      47.994  30.895  27.387  1.00  0.00     0.031 C 
ATOM     66  C   UNL A   1      45.827  31.485  28.437  1.00  0.00     0.034 A 
BRANCH  53  67
ATOM     67  C   UNL A   1      40.070  29.421  29.366  1.00  0.00     0.023 A 
ATOM     68  C   UNL A   1      39.070  29.862  28.475  1.00  0.00     0.012 A 
ATOM     69  C   UNL A   1      39.741  29.198  30.717  1.00  0.00     0.148 A 
ATOM     70  C   UNL A   1      37.775  30.112  28.925  1.00  0.00     0.002 A 
ATOM     71  C   UNL A   1      38.436  29.406  31.149  1.00  0.00     0.091 A 
ATOM     72  F   UNL A   1      40.709  28.802  31.555  1.00  0.00    -0.205 F 
ATOM     73  C   UNL A   1      37.455  29.875  30.259  1.00  0.00     0.022 A 
BRANCH  71  74
ATOM     74  S   UNL A   1      37.903  29.055  32.829  1.00  0.00     0.127 S 
ATOM     75  O   UNL A   1      38.942  29.721  33.613  1.00  0.00    -0.237 OA
ATOM     76  O   UNL A   1      36.592  29.703  32.878  1.00  0.00    -0.237 OA
ATOM     77  O   UNL A   1      37.866  27.604  32.942  1.00  0.00    -0.744 OA
ENDBRANCH  71  74
ENDBRANCH  53  67
BRANCH  54  78
ATOM     78  C   UNL A   1      49.003  27.308  25.394  1.00  0.00     0.023 A 
ATOM     79  C   UNL A   1      49.179  27.474  24.005  1.00  0.00     0.012 A 
ATOM     80  C   UNL A   1      50.095  26.894  26.179  1.00  0.00     0.148 A 
ATOM     81  C   UNL A   1      50.408  27.200  23.405  1.00  0.00     0.002 A 
ATOM     82  C   UNL A   1      51.332  26.678  25.583  1.00  0.00     0.091 A 
ATOM     83  F   UNL A   1      49.906  26.732  27.496  1.00  0.00    -0.205 F 
ATOM     84  C   UNL A   1      51.487  26.813  24.195  1.00  0.00     0.022 A 
BRANCH  82  85
ATOM     85  S   UNL A   1      52.807  26.311  26.542  1.00  0.00     0.127 S 
ATOM     86  O   UNL A   1      52.513  24.972  27.044  1.00  0.00    -0.237 OA
ATOM     87  O   UNL A   1      53.856  26.372  25.523  1.00  0.00    -0.237 OA
ATOM     88  O   UNL A   1      52.889  27.364  27.545  1.00  0.00    -0.744 OA
ENDBRANCH  82  85
ENDBRANCH  54  78
BRANCH  66  89
ATOM     89  C   UNL A   1      46.428  32.808  28.831  1.00  0.00     0.023 A 
ATOM     90  C   UNL A   1      47.117  32.925  30.055  1.00  0.00     0.012 A 
ATOM     91  C   UNL A   1      46.352  33.920  27.972  1.00  0.00     0.148 A 
ATOM     92  C   UNL A   1      47.681  34.141  30.437  1.00  0.00     0.002 A 
ATOM     93  C   UNL A   1      46.960  35.115  28.336  1.00  0.00     0.091 A 
ATOM     94  F   UNL A   1      45.674  33.797  26.820  1.00  0.00    -0.205 F 
ATOM     95  C   UNL A   1      47.612  35.232  29.574  1.00  0.00     0.022 A 
BRANCH  93  96
ATOM     96  S   UNL A   1      46.998  36.536  27.238  1.00  0.00     0.127 S 
ATOM     97  O   UNL A   1      47.782  37.494  28.015  1.00  0.00    -0.237 OA
ATOM     98  O   UNL A   1      47.681  36.005  26.058  1.00  0.00    -0.237 OA
ATOM     99  O   UNL A   1      45.605  36.894  27.011  1.00  0.00    -0.744 OA
ENDBRANCH  93  96
ENDBRANCH  66  89
ENDBRANCH  40  41
ENDBRANCH  32  35
ENDBRANCH  30  31
ENDBRANCH  29  30
ENDBRANCH   1  29
TORSDOF 18
ENDMDL
