MODEL 1
REMARK VINA RESULT:     -12.3      0.000      0.000
REMARK SMILES Cc1cc2c(c(C)c1Cl)C=C(C(=O)NCCCCNC(=O)c1ccc(-c3c4nc(c(-c5cccc(S(=O)(=O)[O-])c5F)c5ccc([nH]5)c(-c5cccc(S(=O)(=O)[O-])c5F)c5nc(c(-c6cccc(S(=O)(=O)[O-])c6F)c6ccc3[nH]6)C=C5)C=C4)cc1)[C@@H](C(F)(F)F)O2
REMARK SMILES IDX 17 1 16 2 15 3 14 4 12 5 13 6 11 8 1 9 2 10 3 11 8 12 4 13
REMARK SMILES IDX 6 14 9 15 5 16 90 17 7 18 10 19 85 20 86 21 87 22 88 23
REMARK SMILES IDX 89 24 18 25 19 26 20 27 21 29 22 30 23 31 84 32 24 33 83 34
REMARK SMILES IDX 25 35 26 36 27 37 77 38 28 39 82 40 76 41 78 42 29 43 81 44
REMARK SMILES IDX 75 45 74 46 30 48 62 49 42 50 61 51 43 52 46 53 60 54 79 55
REMARK SMILES IDX 44 56 45 57 59 59 80 60 47 61 31 62 32 63 40 64 33 65 35 66
REMARK SMILES IDX 41 67 34 68 36 69 37 70 38 71 39 72 63 73 64 74 72 75 65 76
REMARK SMILES IDX 67 77 73 78 66 79 68 80 69 81 70 82 71 83 48 84 49 85 57 86
REMARK SMILES IDX 50 87 52 88 58 89 51 90 53 91 54 92 55 93 56 94
REMARK H PARENT 14 7 19 28 78 47 46 58
REMARK Flexibility Score: inf
ROOT
ATOM      1  C   UNL A   1      32.222  31.011  26.650  1.00  0.00     0.023 C 
ENDROOT
BRANCH   1   2
ATOM      2  C   UNL A   1      32.009  29.638  27.294  1.00  0.00     0.023 C 
BRANCH   2   3
ATOM      3  C   UNL A   1      33.112  28.627  26.993  1.00  0.00     0.116 C 
BRANCH   3   4
ATOM      4  N   UNL A   1      33.654  28.794  25.656  1.00  0.00    -0.352 N 
ATOM      5  C   UNL A   1      33.816  28.031  24.550  1.00  0.00     0.251 C 
ATOM      6  O   UNL A   1      34.343  28.599  23.588  1.00  0.00    -0.270 OA
ATOM      7  H   UNL A   1      33.996  29.706  25.516  1.00  0.00     0.163 HD
BRANCH   5   8
ATOM      8  C   UNL A   1      33.410  26.598  24.417  1.00  0.00     0.067 C 
ATOM      9  C   UNL A   1      32.897  20.103  24.338  1.00  0.00     0.046 C 
ATOM     10  C   UNL A   1      33.338  21.537  24.446  1.00  0.00    -0.028 A 
ATOM     11  C   UNL A   1      32.382  22.545  24.292  1.00  0.00     0.052 A 
ATOM     12  C   UNL A   1      34.674  21.902  24.715  1.00  0.00     0.047 A 
ATOM     13  C   UNL A   1      32.744  23.884  24.385  1.00  0.00     0.128 A 
ATOM     14  C   UNL A   1      35.056  23.262  24.816  1.00  0.00    -0.021 A 
ATOM     15  Cl  UNL A   1      35.843  20.634  24.937  1.00  0.00    -0.084 Cl
ATOM     16  C   UNL A   1      34.064  24.260  24.651  1.00  0.00     0.022 A 
ATOM     17  O   UNL A   1      31.723  24.779  24.247  1.00  0.00    -0.475 OA
ATOM     18  C   UNL A   1      36.482  23.672  25.104  1.00  0.00     0.047 C 
ATOM     19  C   UNL A   1      34.339  25.694  24.785  1.00  0.00     0.026 C 
ATOM     20  C   UNL A   1      32.091  26.136  23.876  1.00  0.00     0.314 C 
BRANCH  20  21
ATOM     21  C   UNL A   1      31.983  26.289  22.348  1.00  0.00     0.429 C 
ATOM     22  F   UNL A   1      31.256  25.271  21.822  1.00  0.00    -0.167 F 
ATOM     23  F   UNL A   1      31.365  27.433  21.979  1.00  0.00    -0.167 F 
ATOM     24  F   UNL A   1      33.191  26.277  21.737  1.00  0.00    -0.167 F 
ENDBRANCH  20  21
ENDBRANCH   5   8
ENDBRANCH   3   4
ENDBRANCH   2   3
ENDBRANCH   1   2
BRANCH   1  25
ATOM     25  C   UNL A   1      33.222  31.924  27.359  1.00  0.00     0.116 C 
BRANCH  25  26
ATOM     26  N   UNL A   1      32.737  33.282  27.566  1.00  0.00    -0.352 N 
ATOM     27  C   UNL A   1      33.186  34.211  28.476  1.00  0.00     0.251 C 
ATOM     28  H   UNL A   1      31.995  33.571  26.985  1.00  0.00     0.163 HD
ATOM     29  O   UNL A   1      32.626  35.296  28.592  1.00  0.00    -0.269 OA
BRANCH  27  30
ATOM     30  C   UNL A   1      34.330  33.860  29.339  1.00  0.00     0.039 A 
ATOM     31  C   UNL A   1      34.114  33.028  30.440  1.00  0.00     0.014 A 
ATOM     32  C   UNL A   1      35.617  34.294  29.011  1.00  0.00     0.014 A 
ATOM     33  C   UNL A   1      35.208  32.562  31.171  1.00  0.00     0.010 A 
ATOM     34  C   UNL A   1      36.707  33.784  29.707  1.00  0.00     0.010 A 
ATOM     35  C   UNL A   1      36.513  32.906  30.784  1.00  0.00    -0.014 A 
BRANCH  35  36
ATOM     36  C   UNL A   1      37.700  32.336  31.468  1.00  0.00     0.031 A 
ATOM     37  C   UNL A   1      38.445  31.191  30.846  1.00  0.00     0.074 A 
ATOM     38  C   UNL A   1      38.035  32.783  32.694  1.00  0.00     0.049 A 
ATOM     39  N   UNL A   1      39.433  30.491  31.337  1.00  0.00    -0.248 NA
ATOM     40  C   UNL A   1      38.004  30.761  29.509  1.00  0.00     0.031 C 
ATOM     41  C   UNL A   1      37.344  33.848  33.423  1.00  0.00     0.029 A 
ATOM     42  N   UNL A   1      39.023  32.378  33.555  1.00  0.00    -0.354 N 
ATOM     43  C   UNL A   1      39.714  29.519  30.385  1.00  0.00     0.074 A 
ATOM     44  C   UNL A   1      38.772  29.700  29.302  1.00  0.00     0.031 C 
ATOM     45  C   UNL A   1      37.931  34.016  34.618  1.00  0.00     0.029 A 
ATOM     46  C   UNL A   1      39.020  33.052  34.754  1.00  0.00     0.049 A 
ATOM     47  H   UNL A   1      39.673  31.673  33.336  1.00  0.00     0.167 HD
ATOM     48  C   UNL A   1      40.691  28.582  30.397  1.00  0.00     0.034 A 
ATOM     49  C   UNL A   1      39.804  32.908  35.841  1.00  0.00     0.034 A 
ATOM     50  C   UNL A   1      41.652  28.436  31.457  1.00  0.00     0.049 A 
ATOM     51  C   UNL A   1      40.905  31.883  35.814  1.00  0.00     0.074 A 
ATOM     52  C   UNL A   1      42.714  27.554  31.537  1.00  0.00     0.029 A 
ATOM     53  N   UNL A   1      41.673  29.195  32.617  1.00  0.00    -0.354 N 
ATOM     54  N   UNL A   1      41.235  31.054  34.854  1.00  0.00    -0.248 NA
ATOM     55  C   UNL A   1      41.763  31.794  37.005  1.00  0.00     0.031 C 
ATOM     56  C   UNL A   1      43.376  27.778  32.749  1.00  0.00     0.029 A 
ATOM     57  C   UNL A   1      42.733  28.807  33.417  1.00  0.00     0.049 A 
ATOM     58  H   UNL A   1      41.028  29.905  32.838  1.00  0.00     0.167 HD
ATOM     59  C   UNL A   1      42.355  30.368  35.308  1.00  0.00     0.074 A 
ATOM     60  C   UNL A   1      42.660  30.893  36.623  1.00  0.00     0.031 C 
ATOM     61  C   UNL A   1      43.056  29.379  34.699  1.00  0.00     0.034 A 
BRANCH  48  62
ATOM     62  C   UNL A   1      40.815  27.689  29.191  1.00  0.00     0.023 A 
ATOM     63  C   UNL A   1      39.997  26.545  29.100  1.00  0.00     0.012 A 
ATOM     64  C   UNL A   1      41.683  28.006  28.129  1.00  0.00     0.148 A 
ATOM     65  C   UNL A   1      40.060  25.712  27.983  1.00  0.00     0.002 A 
ATOM     66  C   UNL A   1      41.711  27.194  27.000  1.00  0.00     0.091 A 
ATOM     67  F   UNL A   1      42.472  29.084  28.246  1.00  0.00    -0.205 F 
ATOM     68  C   UNL A   1      40.908  26.044  26.930  1.00  0.00     0.022 A 
BRANCH  66  69
ATOM     69  S   UNL A   1      42.712  27.577  25.558  1.00  0.00     0.127 S 
ATOM     70  O   UNL A   1      42.477  26.404  24.717  1.00  0.00    -0.237 OA
ATOM     71  O   UNL A   1      42.093  28.810  25.070  1.00  0.00    -0.237 OA
ATOM     72  O   UNL A   1      44.074  27.735  26.048  1.00  0.00    -0.744 OA
ENDBRANCH  66  69
ENDBRANCH  48  62
BRANCH  49  73
ATOM     73  C   UNL A   1      39.631  33.829  37.000  1.00  0.00     0.023 A 
ATOM     74  C   UNL A   1      40.005  35.180  36.860  1.00  0.00     0.012 A 
ATOM     75  C   UNL A   1      39.036  33.403  38.204  1.00  0.00     0.148 A 
ATOM     76  C   UNL A   1      39.809  36.085  37.903  1.00  0.00     0.002 A 
ATOM     77  C   UNL A   1      38.793  34.323  39.219  1.00  0.00     0.091 A 
ATOM     78  F   UNL A   1      38.697  32.111  38.323  1.00  0.00    -0.205 F 
ATOM     79  C   UNL A   1      39.191  35.661  39.076  1.00  0.00     0.022 A 
BRANCH  77  80
ATOM     80  S   UNL A   1      37.873  33.900  40.704  1.00  0.00     0.127 S 
ATOM     81  O   UNL A   1      36.673  33.281  40.148  1.00  0.00    -0.237 OA
ATOM     82  O   UNL A   1      38.789  32.977  41.375  1.00  0.00    -0.237 OA
ATOM     83  O   UNL A   1      37.669  35.158  41.410  1.00  0.00    -0.744 OA
ENDBRANCH  77  80
ENDBRANCH  49  73
BRANCH  61  84
ATOM     84  C   UNL A   1      44.239  28.803  35.432  1.00  0.00     0.023 A 
ATOM     85  C   UNL A   1      45.515  29.369  35.242  1.00  0.00     0.012 A 
ATOM     86  C   UNL A   1      44.070  27.776  36.382  1.00  0.00     0.148 A 
ATOM     87  C   UNL A   1      46.609  28.908  35.972  1.00  0.00     0.002 A 
ATOM     88  C   UNL A   1      45.157  27.353  37.138  1.00  0.00     0.091 A 
ATOM     89  F   UNL A   1      42.853  27.235  36.532  1.00  0.00    -0.205 F 
ATOM     90  C   UNL A   1      46.428  27.912  36.929  1.00  0.00     0.022 A 
BRANCH  88  91
ATOM     91  S   UNL A   1      44.989  26.146  38.458  1.00  0.00     0.127 S 
ATOM     92  O   UNL A   1      44.615  24.943  37.717  1.00  0.00    -0.237 OA
ATOM     93  O   UNL A   1      46.334  26.116  39.032  1.00  0.00    -0.237 OA
ATOM     94  O   UNL A   1      43.967  26.678  39.351  1.00  0.00    -0.744 OA
ENDBRANCH  88  91
ENDBRANCH  61  84
ENDBRANCH  35  36
ENDBRANCH  27  30
ENDBRANCH  25  26
ENDBRANCH   1  25
TORSDOF 15
ENDMDL
MODEL 2
REMARK VINA RESULT:     -12.3      5.930     10.830
REMARK SMILES Cc1cc2c(c(C)c1Cl)C=C(C(=O)NCCCCNC(=O)c1ccc(-c3c4nc(c(-c5cccc(S(=O)(=O)[O-])c5F)c5ccc([nH]5)c(-c5cccc(S(=O)(=O)[O-])c5F)c5nc(c(-c6cccc(S(=O)(=O)[O-])c6F)c6ccc3[nH]6)C=C5)C=C4)cc1)[C@@H](C(F)(F)F)O2
REMARK SMILES IDX 17 1 16 2 15 3 14 4 12 5 13 6 11 8 1 9 2 10 3 11 8 12 4 13
REMARK SMILES IDX 6 14 9 15 5 16 90 17 7 18 10 19 85 20 86 21 87 22 88 23
REMARK SMILES IDX 89 24 18 25 19 26 20 27 21 29 22 30 23 31 84 32 24 33 83 34
REMARK SMILES IDX 25 35 26 36 27 37 77 38 28 39 82 40 76 41 78 42 29 43 81 44
REMARK SMILES IDX 75 45 74 46 30 48 62 49 42 50 61 51 43 52 46 53 60 54 79 55
REMARK SMILES IDX 44 56 45 57 59 59 80 60 47 61 31 62 32 63 40 64 33 65 35 66
REMARK SMILES IDX 41 67 34 68 36 69 37 70 38 71 39 72 63 73 64 74 72 75 65 76
REMARK SMILES IDX 67 77 73 78 66 79 68 80 69 81 70 82 71 83 48 84 49 85 57 86
REMARK SMILES IDX 50 87 52 88 58 89 51 90 53 91 54 92 55 93 56 94
REMARK H PARENT 14 7 19 28 78 47 46 58
REMARK Flexibility Score: inf
ROOT
ATOM      1  C   UNL A   1      35.305  21.569  25.043  1.00  0.00     0.023 C 
ENDROOT
BRANCH   1   2
ATOM      2  C   UNL A   1      34.290  20.799  25.893  1.00  0.00     0.023 C 
BRANCH   2   3
ATOM      3  C   UNL A   1      34.078  21.375  27.290  1.00  0.00     0.116 C 
BRANCH   3   4
ATOM      4  N   UNL A   1      32.710  21.821  27.494  1.00  0.00    -0.352 N 
ATOM      5  C   UNL A   1      31.921  22.830  27.057  1.00  0.00     0.251 C 
ATOM      6  O   UNL A   1      30.769  22.830  27.501  1.00  0.00    -0.270 OA
ATOM      7  H   UNL A   1      32.228  21.232  28.118  1.00  0.00     0.163 HD
BRANCH   5   8
ATOM      8  C   UNL A   1      32.335  23.904  26.103  1.00  0.00     0.067 C 
ATOM      9  C   UNL A   1      33.861  29.427  23.000  1.00  0.00     0.046 C 
ATOM     10  C   UNL A   1      33.407  28.364  23.964  1.00  0.00    -0.028 A 
ATOM     11  C   UNL A   1      33.635  27.024  23.638  1.00  0.00     0.052 A 
ATOM     12  C   UNL A   1      32.778  28.670  25.189  1.00  0.00     0.047 A 
ATOM     13  C   UNL A   1      33.233  26.009  24.499  1.00  0.00     0.128 A 
ATOM     14  C   UNL A   1      32.368  27.645  26.077  1.00  0.00    -0.021 A 
ATOM     15  Cl  UNL A   1      32.534  30.343  25.592  1.00  0.00    -0.084 Cl
ATOM     16  C   UNL A   1      32.609  26.296  25.716  1.00  0.00     0.022 A 
ATOM     17  O   UNL A   1      33.533  24.741  24.091  1.00  0.00    -0.475 OA
ATOM     18  C   UNL A   1      31.693  27.953  27.394  1.00  0.00     0.047 C 
ATOM     19  C   UNL A   1      32.271  25.162  26.582  1.00  0.00     0.026 C 
ATOM     20  C   UNL A   1      32.757  23.665  24.685  1.00  0.00     0.314 C 
BRANCH  20  21
ATOM     21  C   UNL A   1      31.577  23.322  23.758  1.00  0.00     0.429 C 
ATOM     22  F   UNL A   1      30.413  23.771  24.290  1.00  0.00    -0.167 F 
ATOM     23  F   UNL A   1      31.687  23.894  22.538  1.00  0.00    -0.167 F 
ATOM     24  F   UNL A   1      31.441  21.990  23.560  1.00  0.00    -0.167 F 
ENDBRANCH  20  21
ENDBRANCH   5   8
ENDBRANCH   3   4
ENDBRANCH   2   3
ENDBRANCH   1   2
BRANCH   1  25
ATOM     25  C   UNL A   1      36.619  21.919  25.741  1.00  0.00     0.116 C 
BRANCH  25  26
ATOM     26  N   UNL A   1      37.634  20.879  25.645  1.00  0.00    -0.352 N 
ATOM     27  C   UNL A   1      38.967  20.966  25.972  1.00  0.00     0.251 C 
ATOM     28  H   UNL A   1      37.329  20.007  25.302  1.00  0.00     0.163 HD
ATOM     29  O   UNL A   1      39.726  20.025  25.762  1.00  0.00    -0.269 OA
BRANCH  27  30
ATOM     30  C   UNL A   1      39.475  22.229  26.541  1.00  0.00     0.039 A 
ATOM     31  C   UNL A   1      40.489  22.177  27.500  1.00  0.00     0.014 A 
ATOM     32  C   UNL A   1      39.000  23.454  26.067  1.00  0.00     0.014 A 
ATOM     33  C   UNL A   1      41.086  23.364  27.929  1.00  0.00     0.010 A 
ATOM     34  C   UNL A   1      39.634  24.629  26.454  1.00  0.00     0.010 A 
ATOM     35  C   UNL A   1      40.689  24.593  27.379  1.00  0.00    -0.014 A 
BRANCH  35  36
ATOM     36  C   UNL A   1      41.380  25.858  27.728  1.00  0.00     0.031 A 
ATOM     37  C   UNL A   1      40.646  26.930  28.479  1.00  0.00     0.074 A 
ATOM     38  C   UNL A   1      42.629  26.076  27.273  1.00  0.00     0.049 A 
ATOM     39  N   UNL A   1      41.040  28.140  28.779  1.00  0.00    -0.248 NA
ATOM     40  C   UNL A   1      39.282  26.610  28.929  1.00  0.00     0.031 C 
ATOM     41  C   UNL A   1      43.417  25.131  26.479  1.00  0.00     0.029 A 
ATOM     42  N   UNL A   1      43.445  27.173  27.389  1.00  0.00    -0.354 N 
ATOM     43  C   UNL A   1      39.965  28.736  29.426  1.00  0.00     0.074 A 
ATOM     44  C   UNL A   1      38.891  27.766  29.446  1.00  0.00     0.031 C 
ATOM     45  C   UNL A   1      44.602  25.686  26.183  1.00  0.00     0.029 A 
ATOM     46  C   UNL A   1      44.650  27.035  26.739  1.00  0.00     0.049 A 
ATOM     47  H   UNL A   1      43.193  27.981  27.890  1.00  0.00     0.167 HD
ATOM     48  C   UNL A   1      39.891  29.968  29.982  1.00  0.00     0.034 A 
ATOM     49  C   UNL A   1      45.676  27.899  26.605  1.00  0.00     0.034 A 
ATOM     50  C   UNL A   1      40.977  30.910  29.996  1.00  0.00     0.049 A 
ATOM     51  C   UNL A   1      45.582  29.249  27.263  1.00  0.00     0.074 A 
ATOM     52  C   UNL A   1      41.020  32.162  30.583  1.00  0.00     0.029 A 
ATOM     53  N   UNL A   1      42.214  30.702  29.405  1.00  0.00    -0.354 N 
ATOM     54  N   UNL A   1      44.603  29.751  27.977  1.00  0.00    -0.248 NA
ATOM     55  C   UNL A   1      46.744  30.140  27.127  1.00  0.00     0.031 C 
ATOM     56  C   UNL A   1      42.283  32.713  30.342  1.00  0.00     0.029 A 
ATOM     57  C   UNL A   1      43.030  31.799  29.616  1.00  0.00     0.049 A 
ATOM     58  H   UNL A   1      42.473  29.892  28.907  1.00  0.00     0.167 HD
ATOM     59  C   UNL A   1      45.041  31.000  28.402  1.00  0.00     0.074 A 
ATOM     60  C   UNL A   1      46.381  31.170  27.881  1.00  0.00     0.031 C 
ATOM     61  C   UNL A   1      44.383  31.929  29.140  1.00  0.00     0.034 A 
BRANCH  48  62
ATOM     62  C   UNL A   1      38.614  30.338  30.687  1.00  0.00     0.023 A 
ATOM     63  C   UNL A   1      38.453  29.988  32.043  1.00  0.00     0.012 A 
ATOM     64  C   UNL A   1      37.606  31.080  30.040  1.00  0.00     0.148 A 
ATOM     65  C   UNL A   1      37.297  30.344  32.737  1.00  0.00     0.002 A 
ATOM     66  C   UNL A   1      36.475  31.466  30.750  1.00  0.00     0.091 A 
ATOM     67  F   UNL A   1      37.765  31.381  28.743  1.00  0.00    -0.205 F 
ATOM     68  C   UNL A   1      36.316  31.092  32.095  1.00  0.00     0.022 A 
BRANCH  66  69
ATOM     69  S   UNL A   1      35.189  32.497  30.034  1.00  0.00     0.127 S 
ATOM     70  O   UNL A   1      34.282  32.665  31.168  1.00  0.00    -0.237 OA
ATOM     71  O   UNL A   1      35.930  33.703  29.663  1.00  0.00    -0.237 OA
ATOM     72  O   UNL A   1      34.654  31.743  28.909  1.00  0.00    -0.744 OA
ENDBRANCH  66  69
ENDBRANCH  48  62
BRANCH  49  73
ATOM     73  C   UNL A   1      46.914  27.467  25.897  1.00  0.00     0.023 A 
ATOM     74  C   UNL A   1      47.840  26.654  26.579  1.00  0.00     0.012 A 
ATOM     75  C   UNL A   1      47.147  27.788  24.545  1.00  0.00     0.148 A 
ATOM     76  C   UNL A   1      48.985  26.183  25.935  1.00  0.00     0.002 A 
ATOM     77  C   UNL A   1      48.261  27.270  23.894  1.00  0.00     0.091 A 
ATOM     78  F   UNL A   1      46.260  28.573  23.917  1.00  0.00    -0.205 F 
ATOM     79  C   UNL A   1      49.188  26.479  24.591  1.00  0.00     0.022 A 
BRANCH  77  80
ATOM     80  S   UNL A   1      48.530  27.477  22.129  1.00  0.00     0.127 S 
ATOM     81  O   UNL A   1      49.754  28.275  22.104  1.00  0.00    -0.237 OA
ATOM     82  O   UNL A   1      48.687  26.093  21.682  1.00  0.00    -0.237 OA
ATOM     83  O   UNL A   1      47.334  28.137  21.625  1.00  0.00    -0.744 OA
ENDBRANCH  77  80
ENDBRANCH  49  73
BRANCH  61  84
ATOM     84  C   UNL A   1      45.103  33.215  29.453  1.00  0.00     0.023 A 
ATOM     85  C   UNL A   1      45.914  33.292  30.602  1.00  0.00     0.012 A 
ATOM     86  C   UNL A   1      45.061  34.303  28.559  1.00  0.00     0.148 A 
ATOM     87  C   UNL A   1      46.656  34.442  30.868  1.00  0.00     0.002 A 
ATOM     88  C   UNL A   1      45.838  35.428  28.807  1.00  0.00     0.091 A 
ATOM     89  F   UNL A   1      44.266  34.218  27.482  1.00  0.00    -0.205 F 
ATOM     90  C   UNL A   1      46.629  35.503  29.965  1.00  0.00     0.022 A 
BRANCH  88  91
ATOM     91  S   UNL A   1      45.937  36.794  27.645  1.00  0.00     0.127 S 
ATOM     92  O   UNL A   1      46.416  36.126  26.437  1.00  0.00    -0.237 OA
ATOM     93  O   UNL A   1      44.549  37.254  27.579  1.00  0.00    -0.237 OA
ATOM     94  O   UNL A   1      46.858  37.754  28.241  1.00  0.00    -0.744 OA
ENDBRANCH  88  91
ENDBRANCH  61  84
ENDBRANCH  35  36
ENDBRANCH  27  30
ENDBRANCH  25  26
ENDBRANCH   1  25
TORSDOF 15
ENDMDL
MODEL 3
REMARK VINA RESULT:     -12.1      6.136     10.055
REMARK SMILES Cc1cc2c(c(C)c1Cl)C=C(C(=O)NCCCCNC(=O)c1ccc(-c3c4nc(c(-c5cccc(S(=O)(=O)[O-])c5F)c5ccc([nH]5)c(-c5cccc(S(=O)(=O)[O-])c5F)c5nc(c(-c6cccc(S(=O)(=O)[O-])c6F)c6ccc3[nH]6)C=C5)C=C4)cc1)[C@@H](C(F)(F)F)O2
REMARK SMILES IDX 17 1 16 2 15 3 14 4 12 5 13 6 11 8 1 9 2 10 3 11 8 12 4 13
REMARK SMILES IDX 6 14 9 15 5 16 90 17 7 18 10 19 85 20 86 21 87 22 88 23
REMARK SMILES IDX 89 24 18 25 19 26 20 27 21 29 22 30 23 31 84 32 24 33 83 34
REMARK SMILES IDX 25 35 26 36 27 37 77 38 28 39 82 40 76 41 78 42 29 43 81 44
REMARK SMILES IDX 75 45 74 46 30 48 62 49 42 50 61 51 43 52 46 53 60 54 79 55
REMARK SMILES IDX 44 56 45 57 59 59 80 60 47 61 31 62 32 63 40 64 33 65 35 66
REMARK SMILES IDX 41 67 34 68 36 69 37 70 38 71 39 72 63 73 64 74 72 75 65 76
REMARK SMILES IDX 67 77 73 78 66 79 68 80 69 81 70 82 71 83 48 84 49 85 57 86
REMARK SMILES IDX 50 87 52 88 58 89 51 90 53 91 54 92 55 93 56 94
REMARK H PARENT 14 7 19 28 78 47 46 58
REMARK Flexibility Score: inf
ROOT
ATOM      1  C   UNL A   1      39.543  21.418  25.840  1.00  0.00     0.023 C 
ENDROOT
BRANCH   1   2
ATOM      2  C   UNL A   1      39.297  22.791  26.473  1.00  0.00     0.023 C 
BRANCH   2   3
ATOM      3  C   UNL A   1      37.984  23.447  26.054  1.00  0.00     0.116 C 
BRANCH   3   4
ATOM      4  N   UNL A   1      37.714  23.270  24.638  1.00  0.00    -0.352 N 
ATOM      5  C   UNL A   1      36.625  23.210  23.837  1.00  0.00     0.251 C 
ATOM      6  O   UNL A   1      36.861  23.044  22.636  1.00  0.00    -0.270 OA
ATOM      7  H   UNL A   1      38.546  23.165  24.122  1.00  0.00     0.163 HD
BRANCH   5   8
ATOM      8  C   UNL A   1      35.206  23.332  24.290  1.00  0.00     0.067 C 
ATOM      9  C   UNL A   1      29.336  25.190  26.423  1.00  0.00     0.046 C 
ATOM     10  C   UNL A   1      30.777  25.083  26.004  1.00  0.00    -0.028 A 
ATOM     11  C   UNL A   1      31.214  23.898  25.406  1.00  0.00     0.052 A 
ATOM     12  C   UNL A   1      31.697  26.139  26.173  1.00  0.00     0.047 A 
ATOM     13  C   UNL A   1      32.537  23.755  25.003  1.00  0.00     0.128 A 
ATOM     14  C   UNL A   1      33.047  26.009  25.763  1.00  0.00    -0.021 A 
ATOM     15  Cl  UNL A   1      31.126  27.619  26.887  1.00  0.00    -0.084 Cl
ATOM     16  C   UNL A   1      33.459  24.792  25.165  1.00  0.00     0.022 A 
ATOM     17  O   UNL A   1      32.843  22.566  24.406  1.00  0.00    -0.475 OA
ATOM     18  C   UNL A   1      34.046  27.129  25.936  1.00  0.00     0.047 C 
ATOM     19  C   UNL A   1      34.818  24.568  24.659  1.00  0.00     0.026 C 
ATOM     20  C   UNL A   1      34.246  22.186  24.393  1.00  0.00     0.314 C 
BRANCH  20  21
ATOM     21  C   UNL A   1      34.533  21.270  25.597  1.00  0.00     0.429 C 
ATOM     22  F   UNL A   1      35.091  21.981  26.609  1.00  0.00    -0.167 F 
ATOM     23  F   UNL A   1      33.414  20.700  26.099  1.00  0.00    -0.167 F 
ATOM     24  F   UNL A   1      35.387  20.264  25.294  1.00  0.00    -0.167 F 
ENDBRANCH  20  21
ENDBRANCH   5   8
ENDBRANCH   3   4
ENDBRANCH   2   3
ENDBRANCH   1   2
BRANCH   1  25
ATOM     25  C   UNL A   1      39.987  20.318  26.804  1.00  0.00     0.116 C 
BRANCH  25  26
ATOM     26  N   UNL A   1      40.888  19.340  26.209  1.00  0.00    -0.352 N 
ATOM     27  C   UNL A   1      42.202  19.516  25.842  1.00  0.00     0.251 C 
ATOM     28  H   UNL A   1      40.511  18.444  26.050  1.00  0.00     0.163 HD
ATOM     29  O   UNL A   1      42.818  18.620  25.274  1.00  0.00    -0.269 OA
BRANCH  27  30
ATOM     30  C   UNL A   1      42.842  20.820  26.104  1.00  0.00     0.039 A 
ATOM     31  C   UNL A   1      43.185  21.632  25.021  1.00  0.00     0.014 A 
ATOM     32  C   UNL A   1      43.028  21.259  27.417  1.00  0.00     0.014 A 
ATOM     33  C   UNL A   1      43.645  22.929  25.257  1.00  0.00     0.010 A 
ATOM     34  C   UNL A   1      43.433  22.569  27.647  1.00  0.00     0.010 A 
ATOM     35  C   UNL A   1      43.734  23.418  26.571  1.00  0.00    -0.014 A 
BRANCH  35  36
ATOM     36  C   UNL A   1      44.108  24.825  26.850  1.00  0.00     0.031 A 
ATOM     37  C   UNL A   1      45.531  25.270  26.680  1.00  0.00     0.074 A 
ATOM     38  C   UNL A   1      43.186  25.666  27.357  1.00  0.00     0.049 A 
ATOM     39  N   UNL A   1      46.073  26.422  26.976  1.00  0.00    -0.248 NA
ATOM     40  C   UNL A   1      46.474  24.282  26.130  1.00  0.00     0.031 C 
ATOM     41  C   UNL A   1      41.787  25.326  27.625  1.00  0.00     0.029 A 
ATOM     42  N   UNL A   1      43.294  26.972  27.765  1.00  0.00    -0.354 N 
ATOM     43  C   UNL A   1      47.423  26.290  26.677  1.00  0.00     0.074 A 
ATOM     44  C   UNL A   1      47.624  24.937  26.207  1.00  0.00     0.031 C 
ATOM     45  C   UNL A   1      41.166  26.395  28.147  1.00  0.00     0.029 A 
ATOM     46  C   UNL A   1      42.126  27.487  28.281  1.00  0.00     0.049 A 
ATOM     47  H   UNL A   1      44.127  27.491  27.696  1.00  0.00     0.167 HD
ATOM     48  C   UNL A   1      48.401  27.223  26.755  1.00  0.00     0.034 A 
ATOM     49  C   UNL A   1      41.861  28.701  28.803  1.00  0.00     0.034 A 
ATOM     50  C   UNL A   1      48.186  28.580  27.182  1.00  0.00     0.049 A 
ATOM     51  C   UNL A   1      42.957  29.731  28.846  1.00  0.00     0.074 A 
ATOM     52  C   UNL A   1      49.100  29.616  27.244  1.00  0.00     0.029 A 
ATOM     53  N   UNL A   1      46.971  29.091  27.613  1.00  0.00    -0.354 N 
ATOM     54  N   UNL A   1      44.201  29.627  28.444  1.00  0.00    -0.248 NA
ATOM     55  C   UNL A   1      42.608  31.055  29.383  1.00  0.00     0.031 C 
ATOM     56  C   UNL A   1      48.438  30.754  27.716  1.00  0.00     0.029 A 
ATOM     57  C   UNL A   1      47.109  30.429  27.937  1.00  0.00     0.049 A 
ATOM     58  H   UNL A   1      46.134  28.576  27.679  1.00  0.00     0.167 HD
ATOM     59  C   UNL A   1      44.774  30.877  28.648  1.00  0.00     0.074 A 
ATOM     60  C   UNL A   1      43.736  31.728  29.191  1.00  0.00     0.031 C 
ATOM     61  C   UNL A   1      46.051  31.277  28.423  1.00  0.00     0.034 A 
BRANCH  48  62
ATOM     62  C   UNL A   1      49.780  26.828  26.299  1.00  0.00     0.023 A 
ATOM     63  C   UNL A   1      50.590  26.056  27.156  1.00  0.00     0.012 A 
ATOM     64  C   UNL A   1      50.251  27.159  25.014  1.00  0.00     0.148 A 
ATOM     65  C   UNL A   1      51.859  25.643  26.754  1.00  0.00     0.002 A 
ATOM     66  C   UNL A   1      51.502  26.709  24.605  1.00  0.00     0.091 A 
ATOM     67  F   UNL A   1      49.477  27.916  24.223  1.00  0.00    -0.205 F 
ATOM     68  C   UNL A   1      52.309  25.959  25.476  1.00  0.00     0.022 A 
BRANCH  66  69
ATOM     69  S   UNL A   1      52.140  26.999  22.950  1.00  0.00     0.127 S 
ATOM     70  O   UNL A   1      52.608  28.380  23.053  1.00  0.00    -0.237 OA
ATOM     71  O   UNL A   1      53.207  26.001  22.851  1.00  0.00    -0.237 OA
ATOM     72  O   UNL A   1      51.020  26.780  22.046  1.00  0.00    -0.744 OA
ENDBRANCH  66  69
ENDBRANCH  48  62
BRANCH  49  73
ATOM     73  C   UNL A   1      40.472  29.029  29.233  1.00  0.00     0.023 A 
ATOM     74  C   UNL A   1      39.524  29.389  28.256  1.00  0.00     0.012 A 
ATOM     75  C   UNL A   1      40.065  28.918  30.577  1.00  0.00     0.148 A 
ATOM     76  C   UNL A   1      38.200  29.651  28.611  1.00  0.00     0.002 A 
ATOM     77  C   UNL A   1      38.732  29.126  30.915  1.00  0.00     0.091 A 
ATOM     78  F   UNL A   1      40.985  28.585  31.494  1.00  0.00    -0.205 F 
ATOM     79  C   UNL A   1      37.801  29.506  29.936  1.00  0.00     0.022 A 
BRANCH  77  80
ATOM     80  S   UNL A   1      38.098  28.822  32.569  1.00  0.00     0.127 S 
ATOM     81  O   UNL A   1      38.972  29.661  33.384  1.00  0.00    -0.237 OA
ATOM     82  O   UNL A   1      36.718  29.297  32.456  1.00  0.00    -0.237 OA
ATOM     83  O   UNL A   1      38.220  27.386  32.779  1.00  0.00    -0.744 OA
ENDBRANCH  77  80
ENDBRANCH  49  73
BRANCH  61  84
ATOM     84  C   UNL A   1      46.406  32.705  28.744  1.00  0.00     0.023 A 
ATOM     85  C   UNL A   1      47.001  33.009  29.984  1.00  0.00     0.012 A 
ATOM     86  C   UNL A   1      46.250  33.722  27.782  1.00  0.00     0.148 A 
ATOM     87  C   UNL A   1      47.416  34.309  30.270  1.00  0.00     0.002 A 
ATOM     88  C   UNL A   1      46.707  35.006  28.056  1.00  0.00     0.091 A 
ATOM     89  F   UNL A   1      45.661  33.418  26.616  1.00  0.00    -0.205 F 
ATOM     90  C   UNL A   1      47.282  35.303  29.302  1.00  0.00     0.022 A 
BRANCH  88  91
ATOM     91  S   UNL A   1      46.662  36.317  26.829  1.00  0.00     0.127 S 
ATOM     92  O   UNL A   1      47.409  35.719  25.725  1.00  0.00    -0.237 OA
ATOM     93  O   UNL A   1      45.229  36.471  26.584  1.00  0.00    -0.237 OA
ATOM     94  O   UNL A   1      47.289  37.471  27.461  1.00  0.00    -0.744 OA
ENDBRANCH  88  91
ENDBRANCH  61  84
ENDBRANCH  35  36
ENDBRANCH  27  30
ENDBRANCH  25  26
ENDBRANCH   1  25
TORSDOF 15
ENDMDL
