MODEL 1
REMARK VINA RESULT:     -11.8      0.000      0.000
REMARK SMILES CCCC[C@H]1C[NH2+]CCN1c1ccc(C(=O)NCCCCNC(=O)c2ccc(-c3c4nc(c(-c5cccc(S(=O)(=O)[O-])c5F)c5ccc([nH]5)c(-c5cccc(S(=O)(=O)[O-])c5F)c5nc(c(-c6cccc(S(=O)(=O)[O-])c6F)c6ccc3[nH]6)C=C5)C=C4)cc2)cc1
REMARK SMILES IDX 19 1 18 2 17 3 15 4 16 5 14 7 11 8 12 9 89 10 13 11 88 12
REMARK SMILES IDX 10 13 5 14 6 15 7 16 9 17 8 18 4 21 3 22 2 23 1 24 20 25
REMARK SMILES IDX 21 26 22 27 23 28 24 30 25 31 26 32 87 33 27 34 86 35 28 36
REMARK SMILES IDX 29 37 30 38 80 39 31 40 85 41 79 42 81 43 32 44 84 45 78 46
REMARK SMILES IDX 77 47 33 49 65 50 45 51 64 52 46 53 49 54 63 55 82 56 47 57
REMARK SMILES IDX 48 58 62 60 83 61 50 62 34 63 35 64 43 65 36 66 38 67 44 68
REMARK SMILES IDX 37 69 39 70 40 71 41 72 42 73 66 74 67 75 75 76 68 77 70 78
REMARK SMILES IDX 76 79 69 80 71 81 72 82 73 83 74 84 51 85 52 86 60 87 53 88
REMARK SMILES IDX 55 89 61 90 54 91 56 92 57 93 58 94 59 95
REMARK H PARENT 17 6 7 19 7 20 22 29 81 48 49 59
REMARK Flexibility Score: inf
ROOT
ATOM      1  C   UNL A   1      34.921  20.267  25.026  1.00  0.00     0.023 C 
ENDROOT
BRANCH   1   2
ATOM      2  C   UNL A   1      33.453  20.560  25.353  1.00  0.00     0.116 C 
BRANCH   2   3
ATOM      3  N   UNL A   1      33.301  21.015  26.722  1.00  0.00    -0.352 N 
ATOM      4  C   UNL A   1      33.094  22.265  27.252  1.00  0.00     0.251 C 
ATOM      5  O   UNL A   1      32.907  22.356  28.465  1.00  0.00    -0.269 OA
ATOM      6  H   UNL A   1      33.357  20.297  27.393  1.00  0.00     0.163 HD
BRANCH   4   7
ATOM      7  C   UNL A   1      33.053  23.505  26.428  1.00  0.00     0.039 A 
ATOM      8  C   UNL A   1      32.810  25.884  24.907  1.00  0.00     0.037 A 
ATOM      9  C   UNL A   1      31.681  25.128  25.232  1.00  0.00     0.027 A 
ATOM     10  C   UNL A   1      34.054  25.440  25.360  1.00  0.00     0.027 A 
ATOM     11  C   UNL A   1      31.800  23.950  25.982  1.00  0.00     0.016 A 
ATOM     12  C   UNL A   1      34.170  24.284  26.135  1.00  0.00     0.016 A 
BRANCH   8  13
ATOM     13  N   UNL A   1      32.664  27.074  24.189  1.00  0.00    -0.357 N 
ATOM     14  C   UNL A   1      31.475  27.889  24.520  1.00  0.00     0.137 C 
ATOM     15  C   UNL A   1      30.335  27.723  23.473  1.00  0.00     0.285 C 
ATOM     16  N   UNL A   1      30.711  27.710  22.051  1.00  0.00    -0.343 N 
ATOM     17  C   UNL A   1      33.042  26.971  22.769  1.00  0.00     0.178 C 
ATOM     18  C   UNL A   1      31.826  26.769  21.839  1.00  0.00     0.282 C 
ATOM     19  H   UNL A   1      31.000  28.646  21.769  1.00  0.00     0.346 HD
ATOM     20  H   UNL A   1      29.910  27.415  21.493  1.00  0.00     0.346 HD
BRANCH  14  21
ATOM     21  C   UNL A   1      31.843  29.348  24.880  1.00  0.00     0.031 C 
BRANCH  21  22
ATOM     22  C   UNL A   1      31.870  29.844  26.331  1.00  0.00     0.002 C 
BRANCH  22  23
ATOM     23  C   UNL A   1      32.608  29.017  27.383  1.00  0.00    -0.003 C 
ATOM     24  C   UNL A   1      34.085  28.796  27.098  1.00  0.00     0.004 C 
ENDBRANCH  22  23
ENDBRANCH  21  22
ENDBRANCH  14  21
ENDBRANCH   8  13
ENDBRANCH   4   7
ENDBRANCH   2   3
ENDBRANCH   1   2
BRANCH   1  25
ATOM     25  C   UNL A   1      35.722  21.480  24.547  1.00  0.00     0.023 C 
BRANCH  25  26
ATOM     26  C   UNL A   1      36.870  21.888  25.461  1.00  0.00     0.116 C 
BRANCH  26  27
ATOM     27  N   UNL A   1      37.865  20.840  25.639  1.00  0.00    -0.352 N 
ATOM     28  C   UNL A   1      39.156  20.971  26.102  1.00  0.00     0.251 C 
ATOM     29  H   UNL A   1      37.582  19.929  25.400  1.00  0.00     0.163 HD
ATOM     30  O   UNL A   1      39.918  20.013  26.105  1.00  0.00    -0.269 OA
BRANCH  28  31
ATOM     31  C   UNL A   1      39.616  22.302  26.553  1.00  0.00     0.039 A 
ATOM     32  C   UNL A   1      40.642  22.377  27.499  1.00  0.00     0.014 A 
ATOM     33  C   UNL A   1      39.070  23.462  26.001  1.00  0.00     0.014 A 
ATOM     34  C   UNL A   1      41.169  23.623  27.842  1.00  0.00     0.010 A 
ATOM     35  C   UNL A   1      39.641  24.695  26.294  1.00  0.00     0.010 A 
ATOM     36  C   UNL A   1      40.693  24.787  27.218  1.00  0.00    -0.014 A 
BRANCH  36  37
ATOM     37  C   UNL A   1      41.272  26.122  27.510  1.00  0.00     0.031 A 
ATOM     38  C   UNL A   1      42.673  26.439  27.069  1.00  0.00     0.074 A 
ATOM     39  C   UNL A   1      40.582  26.999  28.265  1.00  0.00     0.049 A 
ATOM     40  N   UNL A   1      43.400  27.494  27.324  1.00  0.00    -0.248 NA
ATOM     41  C   UNL A   1      43.360  25.416  26.262  1.00  0.00     0.031 C 
ATOM     42  C   UNL A   1      39.244  26.775  28.815  1.00  0.00     0.029 A 
ATOM     43  N   UNL A   1      40.928  28.243  28.730  1.00  0.00    -0.354 N 
ATOM     44  C   UNL A   1      44.641  27.246  26.751  1.00  0.00     0.074 A 
ATOM     45  C   UNL A   1      44.579  25.927  26.160  1.00  0.00     0.031 C 
ATOM     46  C   UNL A   1      38.883  27.844  29.543  1.00  0.00     0.029 A 
ATOM     47  C   UNL A   1      39.971  28.817  29.534  1.00  0.00     0.049 A 
ATOM     48  H   UNL A   1      41.781  28.682  28.510  1.00  0.00     0.167 HD
ATOM     49  C   UNL A   1      45.725  28.055  26.692  1.00  0.00     0.034 A 
ATOM     50  C   UNL A   1      39.973  29.994  30.192  1.00  0.00     0.034 A 
ATOM     51  C   UNL A   1      45.760  29.388  27.227  1.00  0.00     0.049 A 
ATOM     52  C   UNL A   1      41.169  30.900  30.060  1.00  0.00     0.074 A 
ATOM     53  C   UNL A   1      46.778  30.322  27.145  1.00  0.00     0.029 A 
ATOM     54  N   UNL A   1      44.729  29.980  27.939  1.00  0.00    -0.354 N 
ATOM     55  N   UNL A   1      42.277  30.711  29.387  1.00  0.00    -0.248 NA
ATOM     56  C   UNL A   1      41.098  32.198  30.748  1.00  0.00     0.031 C 
ATOM     57  C   UNL A   1      46.361  31.480  27.812  1.00  0.00     0.029 A 
ATOM     58  C   UNL A   1      45.082  31.268  28.299  1.00  0.00     0.049 A 
ATOM     59  H   UNL A   1      43.872  29.548  28.155  1.00  0.00     0.167 HD
ATOM     60  C   UNL A   1      43.018  31.877  29.536  1.00  0.00     0.074 A 
ATOM     61  C   UNL A   1      42.227  32.774  30.352  1.00  0.00     0.031 C 
ATOM     62  C   UNL A   1      44.250  32.173  29.052  1.00  0.00     0.034 A 
BRANCH  49  63
ATOM     63  C   UNL A   1      46.937  27.540  25.963  1.00  0.00     0.023 A 
ATOM     64  C   UNL A   1      47.865  26.732  26.652  1.00  0.00     0.012 A 
ATOM     65  C   UNL A   1      47.144  27.820  24.598  1.00  0.00     0.148 A 
ATOM     66  C   UNL A   1      48.999  26.243  26.006  1.00  0.00     0.002 A 
ATOM     67  C   UNL A   1      48.256  27.293  23.950  1.00  0.00     0.091 A 
ATOM     68  F   UNL A   1      46.267  28.611  23.965  1.00  0.00    -0.205 F 
ATOM     69  C   UNL A   1      49.190  26.514  24.655  1.00  0.00     0.022 A 
BRANCH  67  70
ATOM     70  S   UNL A   1      48.544  27.527  22.193  1.00  0.00     0.127 S 
ATOM     71  O   UNL A   1      48.805  26.158  21.751  1.00  0.00    -0.237 OA
ATOM     72  O   UNL A   1      47.268  28.081  21.738  1.00  0.00    -0.237 OA
ATOM     73  O   UNL A   1      49.669  28.446  22.095  1.00  0.00    -0.744 OA
ENDBRANCH  67  70
ENDBRANCH  49  63
BRANCH  50  74
ATOM     74  C   UNL A   1      38.768  30.420  30.955  1.00  0.00     0.023 A 
ATOM     75  C   UNL A   1      38.708  30.161  32.339  1.00  0.00     0.012 A 
ATOM     76  C   UNL A   1      37.705  31.108  30.339  1.00  0.00     0.148 A 
ATOM     77  C   UNL A   1      37.602  30.556  33.091  1.00  0.00     0.002 A 
ATOM     78  C   UNL A   1      36.627  31.543  31.104  1.00  0.00     0.091 A 
ATOM     79  F   UNL A   1      37.773  31.334  29.019  1.00  0.00    -0.205 F 
ATOM     80  C   UNL A   1      36.567  31.255  32.477  1.00  0.00     0.022 A 
BRANCH  78  81
ATOM     81  S   UNL A   1      35.310  32.558  30.423  1.00  0.00     0.127 S 
ATOM     82  O   UNL A   1      34.904  31.779  29.257  1.00  0.00    -0.237 OA
ATOM     83  O   UNL A   1      34.343  32.576  31.520  1.00  0.00    -0.237 OA
ATOM     84  O   UNL A   1      35.920  33.852  30.143  1.00  0.00    -0.744 OA
ENDBRANCH  78  81
ENDBRANCH  50  74
BRANCH  62  85
ATOM     85  C   UNL A   1      44.811  33.537  29.351  1.00  0.00     0.023 A 
ATOM     86  C   UNL A   1      45.568  33.739  30.520  1.00  0.00     0.012 A 
ATOM     87  C   UNL A   1      44.670  34.589  28.424  1.00  0.00     0.148 A 
ATOM     88  C   UNL A   1      46.157  34.977  30.777  1.00  0.00     0.002 A 
ATOM     89  C   UNL A   1      45.297  35.806  28.665  1.00  0.00     0.091 A 
ATOM     90  F   UNL A   1      43.927  34.382  27.327  1.00  0.00    -0.205 F 
ATOM     91  C   UNL A   1      46.034  36.004  29.844  1.00  0.00     0.022 A 
BRANCH  89  92
ATOM     92  S   UNL A   1      45.267  37.151  27.475  1.00  0.00     0.127 S 
ATOM     93  O   UNL A   1      46.071  36.605  26.384  1.00  0.00    -0.237 OA
ATOM     94  O   UNL A   1      43.839  37.275  27.178  1.00  0.00    -0.237 OA
ATOM     95  O   UNL A   1      45.839  38.304  28.160  1.00  0.00    -0.744 OA
ENDBRANCH  89  92
ENDBRANCH  62  85
ENDBRANCH  36  37
ENDBRANCH  28  31
ENDBRANCH  26  27
ENDBRANCH  25  26
ENDBRANCH   1  25
TORSDOF 18
ENDMDL
MODEL 2
REMARK VINA RESULT:     -11.8      0.946      7.691
REMARK SMILES CCCC[C@H]1C[NH2+]CCN1c1ccc(C(=O)NCCCCNC(=O)c2ccc(-c3c4nc(c(-c5cccc(S(=O)(=O)[O-])c5F)c5ccc([nH]5)c(-c5cccc(S(=O)(=O)[O-])c5F)c5nc(c(-c6cccc(S(=O)(=O)[O-])c6F)c6ccc3[nH]6)C=C5)C=C4)cc2)cc1
REMARK SMILES IDX 19 1 18 2 17 3 15 4 16 5 14 7 11 8 12 9 89 10 13 11 88 12
REMARK SMILES IDX 10 13 5 14 6 15 7 16 9 17 8 18 4 21 3 22 2 23 1 24 20 25
REMARK SMILES IDX 21 26 22 27 23 28 24 30 25 31 26 32 87 33 27 34 86 35 28 36
REMARK SMILES IDX 29 37 30 38 80 39 31 40 85 41 79 42 81 43 32 44 84 45 78 46
REMARK SMILES IDX 77 47 33 49 65 50 45 51 64 52 46 53 49 54 63 55 82 56 47 57
REMARK SMILES IDX 48 58 62 60 83 61 50 62 34 63 35 64 43 65 36 66 38 67 44 68
REMARK SMILES IDX 37 69 39 70 40 71 41 72 42 73 66 74 67 75 75 76 68 77 70 78
REMARK SMILES IDX 76 79 69 80 71 81 72 82 73 83 74 84 51 85 52 86 60 87 53 88
REMARK SMILES IDX 55 89 61 90 54 91 56 92 57 93 58 94 59 95
REMARK H PARENT 17 6 7 19 7 20 22 29 81 48 49 59
REMARK Flexibility Score: inf
ROOT
ATOM      1  C   UNL A   1      34.439  20.830  24.664  1.00  0.00     0.023 C 
ENDROOT
BRANCH   1   2
ATOM      2  C   UNL A   1      32.996  21.038  25.134  1.00  0.00     0.116 C 
BRANCH   2   3
ATOM      3  N   UNL A   1      32.942  21.330  26.553  1.00  0.00    -0.352 N 
ATOM      4  C   UNL A   1      32.657  22.484  27.240  1.00  0.00     0.251 C 
ATOM      5  O   UNL A   1      32.592  22.427  28.468  1.00  0.00    -0.269 OA
ATOM      6  H   UNL A   1      33.149  20.559  27.130  1.00  0.00     0.163 HD
BRANCH   4   7
ATOM      7  C   UNL A   1      32.390  23.788  26.570  1.00  0.00     0.039 A 
ATOM      8  C   UNL A   1      31.727  26.268  25.370  1.00  0.00     0.037 A 
ATOM      9  C   UNL A   1      30.725  25.387  25.785  1.00  0.00     0.027 A 
ATOM     10  C   UNL A   1      33.058  25.896  25.572  1.00  0.00     0.027 A 
ATOM     11  C   UNL A   1      31.052  24.159  26.376  1.00  0.00     0.016 A 
ATOM     12  C   UNL A   1      33.384  24.687  26.191  1.00  0.00     0.016 A 
BRANCH   8  13
ATOM     13  N   UNL A   1      31.378  27.502  24.816  1.00  0.00    -0.357 N 
ATOM     14  C   UNL A   1      31.599  27.644  23.360  1.00  0.00     0.137 C 
ATOM     15  C   UNL A   1      32.893  28.447  23.035  1.00  0.00     0.285 C 
ATOM     16  N   UNL A   1      33.166  29.652  23.832  1.00  0.00    -0.343 N 
ATOM     17  C   UNL A   1      31.703  28.659  25.668  1.00  0.00     0.178 C 
ATOM     18  C   UNL A   1      33.029  29.343  25.267  1.00  0.00     0.282 C 
ATOM     19  H   UNL A   1      32.502  30.384  23.578  1.00  0.00     0.346 HD
ATOM     20  H   UNL A   1      34.116  29.972  23.645  1.00  0.00     0.346 HD
BRANCH  14  21
ATOM     21  C   UNL A   1      30.324  28.101  22.613  1.00  0.00     0.031 C 
BRANCH  21  22
ATOM     22  C   UNL A   1      29.495  29.303  23.083  1.00  0.00     0.002 C 
BRANCH  22  23
ATOM     23  C   UNL A   1      28.095  29.507  22.507  1.00  0.00    -0.003 C 
ATOM     24  C   UNL A   1      28.038  30.389  21.270  1.00  0.00     0.004 C 
ENDBRANCH  22  23
ENDBRANCH  21  22
ENDBRANCH  14  21
ENDBRANCH   8  13
ENDBRANCH   4   7
ENDBRANCH   2   3
ENDBRANCH   1   2
BRANCH   1  25
ATOM     25  C   UNL A   1      35.262  22.114  24.545  1.00  0.00     0.023 C 
BRANCH  25  26
ATOM     26  C   UNL A   1      36.424  22.220  25.524  1.00  0.00     0.116 C 
BRANCH  26  27
ATOM     27  N   UNL A   1      37.318  21.072  25.486  1.00  0.00    -0.352 N 
ATOM     28  C   UNL A   1      38.651  21.026  25.830  1.00  0.00     0.251 C 
ATOM     29  H   UNL A   1      36.922  20.226  25.175  1.00  0.00     0.163 HD
ATOM     30  O   UNL A   1      39.306  20.009  25.652  1.00  0.00    -0.269 OA
BRANCH  28  31
ATOM     31  C   UNL A   1      39.282  22.244  26.380  1.00  0.00     0.039 A 
ATOM     32  C   UNL A   1      40.347  22.108  27.275  1.00  0.00     0.014 A 
ATOM     33  C   UNL A   1      38.858  23.508  25.966  1.00  0.00     0.014 A 
ATOM     34  C   UNL A   1      41.032  23.246  27.705  1.00  0.00     0.010 A 
ATOM     35  C   UNL A   1      39.582  24.632  26.343  1.00  0.00     0.010 A 
ATOM     36  C   UNL A   1      40.674  24.512  27.217  1.00  0.00    -0.014 A 
BRANCH  36  37
ATOM     37  C   UNL A   1      41.418  25.736  27.602  1.00  0.00     0.031 A 
ATOM     38  C   UNL A   1      40.732  26.802  28.411  1.00  0.00     0.074 A 
ATOM     39  C   UNL A   1      42.664  25.938  27.132  1.00  0.00     0.049 A 
ATOM     40  N   UNL A   1      41.164  27.988  28.749  1.00  0.00    -0.248 NA
ATOM     41  C   UNL A   1      39.364  26.506  28.870  1.00  0.00     0.031 C 
ATOM     42  C   UNL A   1      43.407  25.010  26.276  1.00  0.00     0.029 A 
ATOM     43  N   UNL A   1      43.513  27.006  27.279  1.00  0.00    -0.354 N 
ATOM     44  C   UNL A   1      40.110  28.596  29.419  1.00  0.00     0.074 A 
ATOM     45  C   UNL A   1      39.006  27.661  29.414  1.00  0.00     0.031 C 
ATOM     46  C   UNL A   1      44.599  25.549  25.974  1.00  0.00     0.029 A 
ATOM     47  C   UNL A   1      44.696  26.869  26.590  1.00  0.00     0.049 A 
ATOM     48  H   UNL A   1      43.296  27.795  27.825  1.00  0.00     0.167 HD
ATOM     49  C   UNL A   1      40.073  29.812  30.015  1.00  0.00     0.034 A 
ATOM     50  C   UNL A   1      45.739  27.715  26.468  1.00  0.00     0.034 A 
ATOM     51  C   UNL A   1      41.191  30.712  30.070  1.00  0.00     0.049 A 
ATOM     52  C   UNL A   1      45.695  29.035  27.190  1.00  0.00     0.074 A 
ATOM     53  C   UNL A   1      41.285  31.928  30.723  1.00  0.00     0.029 A 
ATOM     54  N   UNL A   1      42.413  30.490  29.456  1.00  0.00    -0.354 N 
ATOM     55  N   UNL A   1      44.746  29.531  27.945  1.00  0.00    -0.248 NA
ATOM     56  C   UNL A   1      46.881  29.897  27.073  1.00  0.00     0.031 C 
ATOM     57  C   UNL A   1      42.567  32.444  30.498  1.00  0.00     0.029 A 
ATOM     58  C   UNL A   1      43.271  31.544  29.716  1.00  0.00     0.049 A 
ATOM     59  H   UNL A   1      42.638  29.699  28.915  1.00  0.00     0.167 HD
ATOM     60  C   UNL A   1      45.233  30.741  28.426  1.00  0.00     0.074 A 
ATOM     61  C   UNL A   1      46.568  30.897  27.887  1.00  0.00     0.031 C 
ATOM     62  C   UNL A   1      44.623  31.648  29.229  1.00  0.00     0.034 A 
BRANCH  49  63
ATOM     63  C   UNL A   1      38.797  30.205  30.713  1.00  0.00     0.023 A 
ATOM     64  C   UNL A   1      38.599  29.819  32.054  1.00  0.00     0.012 A 
ATOM     65  C   UNL A   1      37.816  30.979  30.063  1.00  0.00     0.148 A 
ATOM     66  C   UNL A   1      37.428  30.164  32.727  1.00  0.00     0.002 A 
ATOM     67  C   UNL A   1      36.670  31.355  30.755  1.00  0.00     0.091 A 
ATOM     68  F   UNL A   1      38.009  31.314  28.780  1.00  0.00    -0.205 F 
ATOM     69  C   UNL A   1      36.469  30.939  32.082  1.00  0.00     0.022 A 
BRANCH  67  70
ATOM     70  S   UNL A   1      35.415  32.415  30.029  1.00  0.00     0.127 S 
ATOM     71  O   UNL A   1      34.421  32.473  31.100  1.00  0.00    -0.237 OA
ATOM     72  O   UNL A   1      36.148  33.664  29.812  1.00  0.00    -0.237 OA
ATOM     73  O   UNL A   1      34.989  31.747  28.809  1.00  0.00    -0.744 OA
ENDBRANCH  67  70
ENDBRANCH  49  63
BRANCH  50  74
ATOM     74  C   UNL A   1      46.948  27.296  25.705  1.00  0.00     0.023 A 
ATOM     75  C   UNL A   1      47.877  26.432  26.318  1.00  0.00     0.012 A 
ATOM     76  C   UNL A   1      47.167  27.710  24.377  1.00  0.00     0.148 A 
ATOM     77  C   UNL A   1      49.015  26.007  25.632  1.00  0.00     0.002 A 
ATOM     78  C   UNL A   1      48.278  27.242  23.683  1.00  0.00     0.091 A 
ATOM     79  F   UNL A   1      46.279  28.542  23.815  1.00  0.00    -0.205 F 
ATOM     80  C   UNL A   1      49.210  26.403  24.313  1.00  0.00     0.022 A 
BRANCH  78  81
ATOM     81  S   UNL A   1      48.545  27.599  21.942  1.00  0.00     0.127 S 
ATOM     82  O   UNL A   1      48.933  26.290  21.424  1.00  0.00    -0.237 OA
ATOM     83  O   UNL A   1      47.224  28.062  21.520  1.00  0.00    -0.237 OA
ATOM     84  O   UNL A   1      49.578  28.627  21.908  1.00  0.00    -0.744 OA
ENDBRANCH  78  81
ENDBRANCH  50  74
BRANCH  62  85
ATOM     85  C   UNL A   1      45.402  32.876  29.616  1.00  0.00     0.023 A 
ATOM     86  C   UNL A   1      46.250  32.839  30.739  1.00  0.00     0.012 A 
ATOM     87  C   UNL A   1      45.368  34.031  28.810  1.00  0.00     0.148 A 
ATOM     88  C   UNL A   1      47.036  33.942  31.070  1.00  0.00     0.002 A 
ATOM     89  C   UNL A   1      46.187  35.111  29.120  1.00  0.00     0.091 A 
ATOM     90  F   UNL A   1      44.538  34.054  27.757  1.00  0.00    -0.205 F 
ATOM     91  C   UNL A   1      47.015  35.071  30.253  1.00  0.00     0.022 A 
BRANCH  89  92
ATOM     92  S   UNL A   1      46.291  36.566  28.072  1.00  0.00     0.127 S 
ATOM     93  O   UNL A   1      44.965  37.156  28.246  1.00  0.00    -0.237 OA
ATOM     94  O   UNL A   1      47.381  37.321  28.692  1.00  0.00    -0.237 OA
ATOM     95  O   UNL A   1      46.588  36.073  26.733  1.00  0.00    -0.744 OA
ENDBRANCH  89  92
ENDBRANCH  62  85
ENDBRANCH  36  37
ENDBRANCH  28  31
ENDBRANCH  26  27
ENDBRANCH  25  26
ENDBRANCH   1  25
TORSDOF 18
ENDMDL
MODEL 3
REMARK VINA RESULT:     -11.7      1.503      2.138
REMARK SMILES CCCC[C@H]1C[NH2+]CCN1c1ccc(C(=O)NCCCCNC(=O)c2ccc(-c3c4nc(c(-c5cccc(S(=O)(=O)[O-])c5F)c5ccc([nH]5)c(-c5cccc(S(=O)(=O)[O-])c5F)c5nc(c(-c6cccc(S(=O)(=O)[O-])c6F)c6ccc3[nH]6)C=C5)C=C4)cc2)cc1
REMARK SMILES IDX 19 1 18 2 17 3 15 4 16 5 14 7 11 8 12 9 89 10 13 11 88 12
REMARK SMILES IDX 10 13 5 14 6 15 7 16 9 17 8 18 4 21 3 22 2 23 1 24 20 25
REMARK SMILES IDX 21 26 22 27 23 28 24 30 25 31 26 32 87 33 27 34 86 35 28 36
REMARK SMILES IDX 29 37 30 38 80 39 31 40 85 41 79 42 81 43 32 44 84 45 78 46
REMARK SMILES IDX 77 47 33 49 65 50 45 51 64 52 46 53 49 54 63 55 82 56 47 57
REMARK SMILES IDX 48 58 62 60 83 61 50 62 34 63 35 64 43 65 36 66 38 67 44 68
REMARK SMILES IDX 37 69 39 70 40 71 41 72 42 73 66 74 67 75 75 76 68 77 70 78
REMARK SMILES IDX 76 79 69 80 71 81 72 82 73 83 74 84 51 85 52 86 60 87 53 88
REMARK SMILES IDX 55 89 61 90 54 91 56 92 57 93 58 94 59 95
REMARK H PARENT 17 6 7 19 7 20 22 29 81 48 49 59
REMARK Flexibility Score: inf
ROOT
ATOM      1  C   UNL A   1      34.549  20.871  24.553  1.00  0.00     0.023 C 
ENDROOT
BRANCH   1   2
ATOM      2  C   UNL A   1      33.141  21.323  24.953  1.00  0.00     0.116 C 
BRANCH   2   3
ATOM      3  N   UNL A   1      33.031  21.490  26.389  1.00  0.00    -0.352 N 
ATOM      4  C   UNL A   1      32.615  22.549  27.158  1.00  0.00     0.251 C 
ATOM      5  O   UNL A   1      32.534  22.385  28.375  1.00  0.00    -0.269 OA
ATOM      6  H   UNL A   1      33.306  20.700  26.908  1.00  0.00     0.163 HD
BRANCH   4   7
ATOM      7  C   UNL A   1      32.227  23.870  26.587  1.00  0.00     0.039 A 
ATOM      8  C   UNL A   1      31.641  26.384  25.418  1.00  0.00     0.037 A 
ATOM      9  C   UNL A   1      32.963  25.957  25.563  1.00  0.00     0.027 A 
ATOM     10  C   UNL A   1      30.622  25.535  25.855  1.00  0.00     0.027 A 
ATOM     11  C   UNL A   1      33.255  24.715  26.144  1.00  0.00     0.016 A 
ATOM     12  C   UNL A   1      30.910  24.283  26.404  1.00  0.00     0.016 A 
BRANCH   8  13
ATOM     13  N   UNL A   1      31.372  27.610  24.804  1.00  0.00    -0.357 N 
ATOM     14  C   UNL A   1      31.395  27.613  23.326  1.00  0.00     0.137 C 
ATOM     15  C   UNL A   1      32.717  28.206  22.757  1.00  0.00     0.285 C 
ATOM     16  N   UNL A   1      33.251  29.419  23.396  1.00  0.00    -0.343 N 
ATOM     17  C   UNL A   1      31.959  28.771  25.495  1.00  0.00     0.178 C 
ATOM     18  C   UNL A   1      33.287  29.237  24.858  1.00  0.00     0.282 C 
ATOM     19  H   UNL A   1      32.653  30.213  23.168  1.00  0.00     0.346 HD
ATOM     20  H   UNL A   1      34.197  29.592  23.054  1.00  0.00     0.346 HD
BRANCH  14  21
ATOM     21  C   UNL A   1      30.091  28.184  22.718  1.00  0.00     0.031 C 
BRANCH  21  22
ATOM     22  C   UNL A   1      30.052  29.547  22.016  1.00  0.00     0.002 C 
BRANCH  22  23
ATOM     23  C   UNL A   1      28.807  30.420  22.164  1.00  0.00    -0.003 C 
ATOM     24  C   UNL A   1      27.645  29.756  22.885  1.00  0.00     0.004 C 
ENDBRANCH  22  23
ENDBRANCH  21  22
ENDBRANCH  14  21
ENDBRANCH   8  13
ENDBRANCH   4   7
ENDBRANCH   2   3
ENDBRANCH   1   2
BRANCH   1  25
ATOM     25  C   UNL A   1      35.592  21.990  24.517  1.00  0.00     0.023 C 
BRANCH  25  26
ATOM     26  C   UNL A   1      36.506  22.049  25.735  1.00  0.00     0.116 C 
BRANCH  26  27
ATOM     27  N   UNL A   1      37.532  21.017  25.737  1.00  0.00    -0.352 N 
ATOM     28  C   UNL A   1      38.868  21.155  26.043  1.00  0.00     0.251 C 
ATOM     29  H   UNL A   1      37.237  20.112  25.488  1.00  0.00     0.163 HD
ATOM     30  O   UNL A   1      39.640  20.215  25.905  1.00  0.00    -0.269 OA
BRANCH  28  31
ATOM     31  C   UNL A   1      39.358  22.472  26.502  1.00  0.00     0.039 A 
ATOM     32  C   UNL A   1      40.403  22.519  27.428  1.00  0.00     0.014 A 
ATOM     33  C   UNL A   1      38.822  23.647  25.973  1.00  0.00     0.014 A 
ATOM     34  C   UNL A   1      40.957  23.752  27.776  1.00  0.00     0.010 A 
ATOM     35  C   UNL A   1      39.419  24.867  26.270  1.00  0.00     0.010 A 
ATOM     36  C   UNL A   1      40.489  24.931  27.175  1.00  0.00    -0.014 A 
BRANCH  36  37
ATOM     37  C   UNL A   1      41.095  26.252  27.472  1.00  0.00     0.031 A 
ATOM     38  C   UNL A   1      42.508  26.537  27.045  1.00  0.00     0.074 A 
ATOM     39  C   UNL A   1      40.418  27.147  28.218  1.00  0.00     0.049 A 
ATOM     40  N   UNL A   1      43.256  27.575  27.307  1.00  0.00    -0.248 NA
ATOM     41  C   UNL A   1      43.180  25.497  26.247  1.00  0.00     0.031 C 
ATOM     42  C   UNL A   1      39.069  26.955  28.753  1.00  0.00     0.029 A 
ATOM     43  N   UNL A   1      40.787  28.383  28.685  1.00  0.00    -0.354 N 
ATOM     44  C   UNL A   1      44.497  27.298  26.747  1.00  0.00     0.074 A 
ATOM     45  C   UNL A   1      44.412  25.980  26.157  1.00  0.00     0.031 C 
ATOM     46  C   UNL A   1      38.724  28.033  29.476  1.00  0.00     0.029 A 
ATOM     47  C   UNL A   1      39.835  28.980  29.478  1.00  0.00     0.049 A 
ATOM     48  H   UNL A   1      41.652  28.802  28.474  1.00  0.00     0.167 HD
ATOM     49  C   UNL A   1      45.600  28.081  26.700  1.00  0.00     0.034 A 
ATOM     50  C   UNL A   1      39.858  30.158  30.134  1.00  0.00     0.034 A 
ATOM     51  C   UNL A   1      45.661  29.413  27.233  1.00  0.00     0.049 A 
ATOM     52  C   UNL A   1      41.075  31.036  30.014  1.00  0.00     0.074 A 
ATOM     53  C   UNL A   1      46.700  30.324  27.161  1.00  0.00     0.029 A 
ATOM     54  N   UNL A   1      44.636  30.031  27.933  1.00  0.00    -0.354 N 
ATOM     55  N   UNL A   1      42.186  30.820  29.354  1.00  0.00    -0.248 NA
ATOM     56  C   UNL A   1      41.027  32.336  30.699  1.00  0.00     0.031 C 
ATOM     57  C   UNL A   1      46.303  31.492  27.822  1.00  0.00     0.029 A 
ATOM     58  C   UNL A   1      45.014  31.311  28.295  1.00  0.00     0.049 A 
ATOM     59  H   UNL A   1      43.766  29.618  28.141  1.00  0.00     0.167 HD
ATOM     60  C   UNL A   1      42.952  31.969  29.509  1.00  0.00     0.074 A 
ATOM     61  C   UNL A   1      42.173  32.885  30.315  1.00  0.00     0.031 C 
ATOM     62  C   UNL A   1      44.196  32.236  29.038  1.00  0.00     0.034 A 
BRANCH  49  63
ATOM     63  C   UNL A   1      46.808  27.537  25.984  1.00  0.00     0.023 A 
ATOM     64  C   UNL A   1      46.915  27.701  24.588  1.00  0.00     0.012 A 
ATOM     65  C   UNL A   1      47.849  26.900  26.687  1.00  0.00     0.148 A 
ATOM     66  C   UNL A   1      48.019  27.205  23.896  1.00  0.00     0.002 A 
ATOM     67  C   UNL A   1      48.967  26.446  25.995  1.00  0.00     0.091 A 
ATOM     68  F   UNL A   1      47.720  26.728  28.010  1.00  0.00    -0.205 F 
ATOM     69  C   UNL A   1      49.048  26.587  24.600  1.00  0.00     0.022 A 
BRANCH  67  70
ATOM     70  S   UNL A   1      50.376  25.705  26.827  1.00  0.00     0.127 S 
ATOM     71  O   UNL A   1      49.794  24.470  27.351  1.00  0.00    -0.237 OA
ATOM     72  O   UNL A   1      51.322  25.512  25.727  1.00  0.00    -0.237 OA
ATOM     73  O   UNL A   1      50.802  26.675  27.825  1.00  0.00    -0.744 OA
ENDBRANCH  67  70
ENDBRANCH  49  63
BRANCH  50  74
ATOM     74  C   UNL A   1      38.654  30.613  30.884  1.00  0.00     0.023 A 
ATOM     75  C   UNL A   1      38.583  30.377  32.271  1.00  0.00     0.012 A 
ATOM     76  C   UNL A   1      37.604  31.305  30.251  1.00  0.00     0.148 A 
ATOM     77  C   UNL A   1      37.478  30.800  33.010  1.00  0.00     0.002 A 
ATOM     78  C   UNL A   1      36.529  31.767  31.003  1.00  0.00     0.091 A 
ATOM     79  F   UNL A   1      37.683  31.509  28.928  1.00  0.00    -0.205 F 
ATOM     80  C   UNL A   1      36.457  31.503  32.379  1.00  0.00     0.022 A 
BRANCH  78  81
ATOM     81  S   UNL A   1      35.230  32.790  30.298  1.00  0.00     0.127 S 
ATOM     82  O   UNL A   1      34.787  31.976  29.169  1.00  0.00    -0.237 OA
ATOM     83  O   UNL A   1      34.278  32.878  31.405  1.00  0.00    -0.237 OA
ATOM     84  O   UNL A   1      35.870  34.054  29.958  1.00  0.00    -0.744 OA
ENDBRANCH  78  81
ENDBRANCH  50  74
BRANCH  62  85
ATOM     85  C   UNL A   1      44.785  33.587  29.342  1.00  0.00     0.023 A 
ATOM     86  C   UNL A   1      45.529  33.775  30.521  1.00  0.00     0.012 A 
ATOM     87  C   UNL A   1      44.682  34.639  28.410  1.00  0.00     0.148 A 
ATOM     88  C   UNL A   1      46.145  34.999  30.782  1.00  0.00     0.002 A 
ATOM     89  C   UNL A   1      45.335  35.842  28.657  1.00  0.00     0.091 A 
ATOM     90  F   UNL A   1      43.950  34.447  27.303  1.00  0.00    -0.205 F 
ATOM     91  C   UNL A   1      46.059  36.026  29.845  1.00  0.00     0.022 A 
BRANCH  89  92
ATOM     92  S   UNL A   1      45.353  37.184  27.462  1.00  0.00     0.127 S 
ATOM     93  O   UNL A   1      46.014  36.558  26.319  1.00  0.00    -0.237 OA
ATOM     94  O   UNL A   1      43.927  37.453  27.272  1.00  0.00    -0.237 OA
ATOM     95  O   UNL A   1      46.090  38.271  28.096  1.00  0.00    -0.744 OA
ENDBRANCH  89  92
ENDBRANCH  62  85
ENDBRANCH  36  37
ENDBRANCH  28  31
ENDBRANCH  26  27
ENDBRANCH  25  26
ENDBRANCH   1  25
TORSDOF 18
ENDMDL
