MODEL 1
REMARK VINA RESULT:     -11.4      0.000      0.000
REMARK SMILES Cc1cc(C(=O)N[C@@H](C)C(=O)NCCCCNC(=O)c2ccc(-c3c4nc(c(-c5cccc(S(=O)(=O)[O-])c5F)c5ccc([nH]5)c(-c5cccc(S(=O)(=O)[O-])c5F)c5nc(c(-c6cccc(S(=O)(=O)[O-])c6F)c6ccc3[nH]6)C=C5)C=C4)cc2)cc(C)c1OC(F)F
REMARK SMILES IDX 14 1 13 2 12 3 10 4 11 5 8 7 9 8 7 9 5 10 6 11 4 13 1 14
REMARK SMILES IDX 2 15 3 16 86 17 84 18 83 19 85 20 87 21 88 22 89 23 90 24
REMARK SMILES IDX 15 25 16 26 17 27 18 28 19 30 20 31 21 32 82 33 22 34 81 35
REMARK SMILES IDX 23 36 24 37 25 38 75 39 26 40 80 41 74 42 76 43 27 44 79 45
REMARK SMILES IDX 73 46 72 47 28 49 60 50 40 51 59 52 41 53 44 54 58 55 77 56
REMARK SMILES IDX 42 57 43 58 57 60 78 61 45 62 29 63 30 64 38 65 31 66 33 67
REMARK SMILES IDX 39 68 32 69 34 70 35 71 36 72 37 73 61 74 62 75 70 76 63 77
REMARK SMILES IDX 65 78 71 79 64 80 66 81 67 82 68 83 69 84 46 85 47 86 55 87
REMARK SMILES IDX 48 88 50 89 56 90 49 91 51 92 52 93 53 94 54 95
REMARK H PARENT 12 6 7 12 17 29 76 48 44 59
REMARK Flexibility Score: inf
ROOT
ATOM      1  C   UNL A   1      37.422  21.145  24.658  1.00  0.00     0.023 C 
ENDROOT
BRANCH   1   2
ATOM      2  C   UNL A   1      36.140  21.207  25.482  1.00  0.00     0.116 C 
BRANCH   2   3
ATOM      3  N   UNL A   1      35.181  20.175  25.137  1.00  0.00    -0.354 N 
ATOM      4  C   UNL A   1      33.884  20.275  24.716  1.00  0.00     0.242 C 
ATOM      5  O   UNL A   1      33.317  19.247  24.333  1.00  0.00    -0.273 OA
ATOM      6  H   UNL A   1      35.519  19.254  25.219  1.00  0.00     0.163 HD
BRANCH   4   7
ATOM      7  C   UNL A   1      33.136  21.623  24.703  1.00  0.00     0.168 C 
ATOM      8  C   UNL A   1      31.716  21.530  25.249  1.00  0.00     0.041 C 
BRANCH   7   9
ATOM      9  N   UNL A   1      33.222  22.194  23.359  1.00  0.00    -0.341 N 
ATOM     10  C   UNL A   1      33.045  23.467  22.875  1.00  0.00     0.251 C 
ATOM     11  O   UNL A   1      33.353  23.666  21.698  1.00  0.00    -0.269 OA
ATOM     12  H   UNL A   1      33.452  21.535  22.664  1.00  0.00     0.164 HD
BRANCH  10  13
ATOM     13  C   UNL A   1      32.388  24.561  23.642  1.00  0.00     0.040 A 
ATOM     14  C   UNL A   1      33.816  27.243  25.891  1.00  0.00     0.048 C 
ATOM     15  C   UNL A   1      32.757  26.526  25.102  1.00  0.00    -0.008 A 
ATOM     16  C   UNL A   1      33.215  25.359  24.444  1.00  0.00     0.021 A 
ATOM     17  C   UNL A   1      31.432  26.933  24.874  1.00  0.00     0.131 A 
ATOM     18  C   UNL A   1      30.564  26.076  24.151  1.00  0.00    -0.008 A 
ATOM     19  C   UNL A   1      31.039  24.870  23.601  1.00  0.00     0.021 A 
ATOM     20  C   UNL A   1      29.133  26.445  23.847  1.00  0.00     0.048 C 
BRANCH  17  21
ATOM     21  O   UNL A   1      30.869  28.144  25.151  1.00  0.00    -0.434 OA
BRANCH  21  22
ATOM     22  C   UNL A   1      31.239  29.324  24.468  1.00  0.00     0.542 C 
ATOM     23  F   UNL A   1      32.145  30.042  25.169  1.00  0.00    -0.167 F 
ATOM     24  F   UNL A   1      31.763  28.997  23.262  1.00  0.00    -0.167 F 
ENDBRANCH  21  22
ENDBRANCH  17  21
ENDBRANCH  10  13
ENDBRANCH   7   9
ENDBRANCH   4   7
ENDBRANCH   2   3
ENDBRANCH   1   2
BRANCH   1  25
ATOM     25  C   UNL A   1      38.249  19.872  24.824  1.00  0.00     0.023 C 
BRANCH  25  26
ATOM     26  C   UNL A   1      39.104  19.796  26.085  1.00  0.00     0.116 C 
BRANCH  26  27
ATOM     27  N   UNL A   1      40.360  19.082  25.898  1.00  0.00    -0.352 N 
ATOM     28  C   UNL A   1      41.647  19.557  26.025  1.00  0.00     0.251 C 
ATOM     29  H   UNL A   1      40.278  18.133  25.647  1.00  0.00     0.163 HD
ATOM     30  O   UNL A   1      42.602  18.844  25.753  1.00  0.00    -0.269 OA
BRANCH  28  31
ATOM     31  C   UNL A   1      41.854  20.954  26.459  1.00  0.00     0.039 A 
ATOM     32  C   UNL A   1      42.142  21.211  27.803  1.00  0.00     0.014 A 
ATOM     33  C   UNL A   1      41.830  21.993  25.527  1.00  0.00     0.014 A 
ATOM     34  C   UNL A   1      42.491  22.504  28.198  1.00  0.00     0.010 A 
ATOM     35  C   UNL A   1      42.244  23.264  25.909  1.00  0.00     0.010 A 
ATOM     36  C   UNL A   1      42.587  23.530  27.245  1.00  0.00    -0.014 A 
BRANCH  36  37
ATOM     37  C   UNL A   1      43.065  24.890  27.599  1.00  0.00     0.031 A 
ATOM     38  C   UNL A   1      42.108  25.886  28.191  1.00  0.00     0.074 A 
ATOM     39  C   UNL A   1      44.308  25.272  27.248  1.00  0.00     0.049 A 
ATOM     40  N   UNL A   1      42.281  27.162  28.417  1.00  0.00    -0.248 NA
ATOM     41  C   UNL A   1      40.765  25.390  28.537  1.00  0.00     0.031 C 
ATOM     42  C   UNL A   1      45.299  24.423  26.584  1.00  0.00     0.029 A 
ATOM     43  N   UNL A   1      44.933  26.491  27.352  1.00  0.00    -0.354 N 
ATOM     44  C   UNL A   1      41.056  27.633  28.871  1.00  0.00     0.074 A 
ATOM     45  C   UNL A   1      40.144  26.510  28.874  1.00  0.00     0.031 C 
ATOM     46  C   UNL A   1      46.396  25.150  26.321  1.00  0.00     0.029 A 
ATOM     47  C   UNL A   1      46.178  26.522  26.769  1.00  0.00     0.049 A 
ATOM     48  H   UNL A   1      44.528  27.268  27.801  1.00  0.00     0.167 HD
ATOM     49  C   UNL A   1      40.727  28.883  29.272  1.00  0.00     0.034 A 
ATOM     50  C   UNL A   1      47.042  27.544  26.595  1.00  0.00     0.034 A 
ATOM     51  C   UNL A   1      41.656  29.976  29.337  1.00  0.00     0.049 A 
ATOM     52  C   UNL A   1      46.684  28.904  27.128  1.00  0.00     0.074 A 
ATOM     53  C   UNL A   1      41.457  31.244  29.855  1.00  0.00     0.029 A 
ATOM     54  N   UNL A   1      42.959  29.935  28.866  1.00  0.00    -0.354 N 
ATOM     55  N   UNL A   1      45.582  29.290  27.724  1.00  0.00    -0.248 NA
ATOM     56  C   UNL A   1      47.696  29.963  26.997  1.00  0.00     0.031 C 
ATOM     57  C   UNL A   1      42.638  31.973  29.685  1.00  0.00     0.029 A 
ATOM     58  C   UNL A   1      43.576  31.155  29.073  1.00  0.00     0.049 A 
ATOM     59  H   UNL A   1      43.383  29.152  28.446  1.00  0.00     0.167 HD
ATOM     60  C   UNL A   1      45.780  30.621  28.071  1.00  0.00     0.074 A 
ATOM     61  C   UNL A   1      47.113  30.974  27.629  1.00  0.00     0.031 C 
ATOM     62  C   UNL A   1      44.927  31.476  28.686  1.00  0.00     0.034 A 
BRANCH  49  63
ATOM     63  C   UNL A   1      39.313  29.119  29.730  1.00  0.00     0.023 A 
ATOM     64  C   UNL A   1      38.936  28.758  31.040  1.00  0.00     0.012 A 
ATOM     65  C   UNL A   1      38.369  29.734  28.884  1.00  0.00     0.148 A 
ATOM     66  C   UNL A   1      37.634  28.969  31.488  1.00  0.00     0.002 A 
ATOM     67  C   UNL A   1      37.083  29.979  29.353  1.00  0.00     0.091 A 
ATOM     68  F   UNL A   1      38.735  30.046  27.633  1.00  0.00    -0.205 F 
ATOM     69  C   UNL A   1      36.710  29.588  30.649  1.00  0.00     0.022 A 
BRANCH  67  70
ATOM     70  S   UNL A   1      35.855  30.841  28.365  1.00  0.00     0.127 S 
ATOM     71  O   UNL A   1      36.559  32.077  28.030  1.00  0.00    -0.237 OA
ATOM     72  O   UNL A   1      35.661  29.927  27.238  1.00  0.00    -0.237 OA
ATOM     73  O   UNL A   1      34.690  30.987  29.227  1.00  0.00    -0.744 OA
ENDBRANCH  67  70
ENDBRANCH  49  63
BRANCH  50  74
ATOM     74  C   UNL A   1      48.356  27.288  25.942  1.00  0.00     0.023 A 
ATOM     75  C   UNL A   1      49.416  26.768  26.708  1.00  0.00     0.012 A 
ATOM     76  C   UNL A   1      48.540  27.491  24.560  1.00  0.00     0.148 A 
ATOM     77  C   UNL A   1      50.643  26.470  26.114  1.00  0.00     0.002 A 
ATOM     78  C   UNL A   1      49.748  27.143  23.965  1.00  0.00     0.091 A 
ATOM     79  F   UNL A   1      47.521  27.997  23.852  1.00  0.00    -0.205 F 
ATOM     80  C   UNL A   1      50.805  26.645  24.742  1.00  0.00     0.022 A 
BRANCH  78  81
ATOM     81  S   UNL A   1      50.001  27.206  22.187  1.00  0.00     0.127 S 
ATOM     82  O   UNL A   1      48.926  26.344  21.702  1.00  0.00    -0.237 OA
ATOM     83  O   UNL A   1      49.823  28.632  21.907  1.00  0.00    -0.237 OA
ATOM     84  O   UNL A   1      51.355  26.716  21.966  1.00  0.00    -0.744 OA
ENDBRANCH  78  81
ENDBRANCH  50  74
BRANCH  62  85
ATOM     85  C   UNL A   1      45.402  32.876  28.961  1.00  0.00     0.023 A 
ATOM     86  C   UNL A   1      46.160  33.140  30.118  1.00  0.00     0.012 A 
ATOM     87  C   UNL A   1      45.205  33.899  28.013  1.00  0.00     0.148 A 
ATOM     88  C   UNL A   1      46.706  34.405  30.333  1.00  0.00     0.002 A 
ATOM     89  C   UNL A   1      45.787  35.146  28.212  1.00  0.00     0.091 A 
ATOM     90  F   UNL A   1      44.465  33.630  26.927  1.00  0.00    -0.205 F 
ATOM     91  C   UNL A   1      46.532  35.402  29.375  1.00  0.00     0.022 A 
BRANCH  89  92
ATOM     92  S   UNL A   1      45.698  36.458  26.989  1.00  0.00     0.127 S 
ATOM     93  O   UNL A   1      46.545  37.486  27.593  1.00  0.00    -0.237 OA
ATOM     94  O   UNL A   1      46.269  35.818  25.804  1.00  0.00    -0.237 OA
ATOM     95  O   UNL A   1      44.288  36.804  26.871  1.00  0.00    -0.744 OA
ENDBRANCH  89  92
ENDBRANCH  62  85
ENDBRANCH  36  37
ENDBRANCH  28  31
ENDBRANCH  26  27
ENDBRANCH  25  26
ENDBRANCH   1  25
TORSDOF 18
ENDMDL
MODEL 2
REMARK VINA RESULT:     -11.3      3.632      8.427
REMARK SMILES Cc1cc(C(=O)N[C@@H](C)C(=O)NCCCCNC(=O)c2ccc(-c3c4nc(c(-c5cccc(S(=O)(=O)[O-])c5F)c5ccc([nH]5)c(-c5cccc(S(=O)(=O)[O-])c5F)c5nc(c(-c6cccc(S(=O)(=O)[O-])c6F)c6ccc3[nH]6)C=C5)C=C4)cc2)cc(C)c1OC(F)F
REMARK SMILES IDX 14 1 13 2 12 3 10 4 11 5 8 7 9 8 7 9 5 10 6 11 4 13 1 14
REMARK SMILES IDX 2 15 3 16 86 17 84 18 83 19 85 20 87 21 88 22 89 23 90 24
REMARK SMILES IDX 15 25 16 26 17 27 18 28 19 30 20 31 21 32 82 33 22 34 81 35
REMARK SMILES IDX 23 36 24 37 25 38 75 39 26 40 80 41 74 42 76 43 27 44 79 45
REMARK SMILES IDX 73 46 72 47 28 49 60 50 40 51 59 52 41 53 44 54 58 55 77 56
REMARK SMILES IDX 42 57 43 58 57 60 78 61 45 62 29 63 30 64 38 65 31 66 33 67
REMARK SMILES IDX 39 68 32 69 34 70 35 71 36 72 37 73 61 74 62 75 70 76 63 77
REMARK SMILES IDX 65 78 71 79 64 80 66 81 67 82 68 83 69 84 46 85 47 86 55 87
REMARK SMILES IDX 48 88 50 89 56 90 49 91 51 92 52 93 53 94 54 95
REMARK H PARENT 12 6 7 12 17 29 76 48 44 59
REMARK Flexibility Score: inf
ROOT
ATOM      1  C   UNL A   1      35.534  23.058  23.548  1.00  0.00     0.023 C 
ENDROOT
BRANCH   1   2
ATOM      2  C   UNL A   1      34.024  23.164  23.732  1.00  0.00     0.116 C 
BRANCH   2   3
ATOM      3  N   UNL A   1      33.393  21.901  24.065  1.00  0.00    -0.354 N 
ATOM      4  C   UNL A   1      32.860  21.458  25.243  1.00  0.00     0.242 C 
ATOM      5  O   UNL A   1      32.234  20.394  25.235  1.00  0.00    -0.273 OA
ATOM      6  H   UNL A   1      33.339  21.259  23.321  1.00  0.00     0.163 HD
BRANCH   4   7
ATOM      7  C   UNL A   1      33.016  22.255  26.555  1.00  0.00     0.168 C 
ATOM      8  C   UNL A   1      34.017  21.634  27.521  1.00  0.00     0.041 C 
BRANCH   7   9
ATOM      9  N   UNL A   1      31.689  22.476  27.130  1.00  0.00    -0.341 N 
ATOM     10  C   UNL A   1      30.688  23.370  26.844  1.00  0.00     0.251 C 
ATOM     11  O   UNL A   1      29.604  23.196  27.405  1.00  0.00    -0.269 OA
ATOM     12  H   UNL A   1      31.471  21.861  27.868  1.00  0.00     0.164 HD
BRANCH  10  13
ATOM     13  C   UNL A   1      30.880  24.591  26.013  1.00  0.00     0.040 A 
ATOM     14  C   UNL A   1      31.900  28.110  26.943  1.00  0.00     0.048 C 
ATOM     15  C   UNL A   1      31.568  26.969  26.023  1.00  0.00    -0.008 A 
ATOM     16  C   UNL A   1      31.205  25.773  26.691  1.00  0.00     0.021 A 
ATOM     17  C   UNL A   1      31.674  26.935  24.623  1.00  0.00     0.131 A 
ATOM     18  C   UNL A   1      31.244  25.775  23.929  1.00  0.00    -0.008 A 
ATOM     19  C   UNL A   1      30.792  24.643  24.633  1.00  0.00     0.021 A 
ATOM     20  C   UNL A   1      31.341  25.650  22.428  1.00  0.00     0.048 C 
BRANCH  17  21
ATOM     21  O   UNL A   1      32.273  27.848  23.806  1.00  0.00    -0.434 OA
BRANCH  21  22
ATOM     22  C   UNL A   1      33.678  27.960  23.700  1.00  0.00     0.542 C 
ATOM     23  F   UNL A   1      34.159  28.953  24.480  1.00  0.00    -0.167 F 
ATOM     24  F   UNL A   1      34.248  26.786  24.065  1.00  0.00    -0.167 F 
ENDBRANCH  21  22
ENDBRANCH  17  21
ENDBRANCH  10  13
ENDBRANCH   7   9
ENDBRANCH   4   7
ENDBRANCH   2   3
ENDBRANCH   1   2
BRANCH   1  25
ATOM     25  C   UNL A   1      36.254  22.140  24.534  1.00  0.00     0.023 C 
BRANCH  25  26
ATOM     26  C   UNL A   1      37.107  22.838  25.587  1.00  0.00     0.116 C 
BRANCH  26  27
ATOM     27  N   UNL A   1      38.237  22.041  26.045  1.00  0.00    -0.352 N 
ATOM     28  C   UNL A   1      39.400  22.464  26.651  1.00  0.00     0.251 C 
ATOM     29  H   UNL A   1      38.161  21.070  25.902  1.00  0.00     0.163 HD
ATOM     30  O   UNL A   1      40.294  21.670  26.905  1.00  0.00    -0.269 OA
BRANCH  28  31
ATOM     31  C   UNL A   1      39.564  23.901  26.957  1.00  0.00     0.039 A 
ATOM     32  C   UNL A   1      39.265  24.359  28.244  1.00  0.00     0.014 A 
ATOM     33  C   UNL A   1      40.076  24.773  25.995  1.00  0.00     0.014 A 
ATOM     34  C   UNL A   1      39.561  25.679  28.591  1.00  0.00     0.010 A 
ATOM     35  C   UNL A   1      40.432  26.065  26.363  1.00  0.00     0.010 A 
ATOM     36  C   UNL A   1      40.186  26.529  27.665  1.00  0.00    -0.014 A 
BRANCH  36  37
ATOM     37  C   UNL A   1      40.623  27.901  28.027  1.00  0.00     0.031 A 
ATOM     38  C   UNL A   1      42.089  28.227  28.076  1.00  0.00     0.074 A 
ATOM     39  C   UNL A   1      39.715  28.798  28.456  1.00  0.00     0.049 A 
ATOM     40  N   UNL A   1      42.678  29.305  28.521  1.00  0.00    -0.248 NA
ATOM     41  C   UNL A   1      43.015  27.187  27.598  1.00  0.00     0.031 C 
ATOM     42  C   UNL A   1      38.272  28.568  28.542  1.00  0.00     0.029 A 
ATOM     43  N   UNL A   1      39.877  30.068  28.952  1.00  0.00    -0.354 N 
ATOM     44  C   UNL A   1      44.042  29.051  28.435  1.00  0.00     0.074 A 
ATOM     45  C   UNL A   1      44.191  27.711  27.911  1.00  0.00     0.031 C 
ATOM     46  C   UNL A   1      37.684  29.648  29.079  1.00  0.00     0.029 A 
ATOM     47  C   UNL A   1      38.709  30.637  29.403  1.00  0.00     0.049 A 
ATOM     48  H   UNL A   1      40.747  30.528  28.983  1.00  0.00     0.167 HD
ATOM     49  C   UNL A   1      45.075  29.869  28.743  1.00  0.00     0.034 A 
ATOM     50  C   UNL A   1      38.486  31.813  30.025  1.00  0.00     0.034 A 
ATOM     51  C   UNL A   1      44.920  31.224  29.193  1.00  0.00     0.049 A 
ATOM     52  C   UNL A   1      39.644  32.739  30.278  1.00  0.00     0.074 A 
ATOM     53  C   UNL A   1      45.901  32.177  29.403  1.00  0.00     0.029 A 
ATOM     54  N   UNL A   1      43.708  31.819  29.507  1.00  0.00    -0.354 N 
ATOM     55  N   UNL A   1      40.916  32.553  30.020  1.00  0.00    -0.248 NA
ATOM     56  C   UNL A   1      39.338  34.047  30.873  1.00  0.00     0.031 C 
ATOM     57  C   UNL A   1      45.282  33.346  29.856  1.00  0.00     0.029 A 
ATOM     58  C   UNL A   1      43.914  33.123  29.916  1.00  0.00     0.049 A 
ATOM     59  H   UNL A   1      42.831  31.377  29.448  1.00  0.00     0.167 HD
ATOM     60  C   UNL A   1      41.557  33.730  30.388  1.00  0.00     0.074 A 
ATOM     61  C   UNL A   1      40.532  34.629  30.876  1.00  0.00     0.031 C 
ATOM     62  C   UNL A   1      42.878  34.031  30.339  1.00  0.00     0.034 A 
BRANCH  49  63
ATOM     63  C   UNL A   1      46.469  29.335  28.546  1.00  0.00     0.023 A 
ATOM     64  C   UNL A   1      47.142  29.582  27.332  1.00  0.00     0.012 A 
ATOM     65  C   UNL A   1      47.128  28.630  29.571  1.00  0.00     0.148 A 
ATOM     66  C   UNL A   1      48.434  29.102  27.126  1.00  0.00     0.002 A 
ATOM     67  C   UNL A   1      48.433  28.190  29.374  1.00  0.00     0.091 A 
ATOM     68  F   UNL A   1      46.464  28.380  30.708  1.00  0.00    -0.205 F 
ATOM     69  C   UNL A   1      49.083  28.416  28.149  1.00  0.00     0.022 A 
BRANCH  67  70
ATOM     70  S   UNL A   1      49.368  27.365  30.666  1.00  0.00     0.127 S 
ATOM     71  O   UNL A   1      49.290  28.338  31.754  1.00  0.00    -0.237 OA
ATOM     72  O   UNL A   1      48.591  26.144  30.885  1.00  0.00    -0.237 OA
ATOM     73  O   UNL A   1      50.695  27.142  30.109  1.00  0.00    -0.744 OA
ENDBRANCH  67  70
ENDBRANCH  49  63
BRANCH  50  74
ATOM     74  C   UNL A   1      37.093  32.198  30.386  1.00  0.00     0.023 A 
ATOM     75  C   UNL A   1      36.641  31.992  31.704  1.00  0.00     0.012 A 
ATOM     76  C   UNL A   1      36.241  32.826  29.457  1.00  0.00     0.148 A 
ATOM     77  C   UNL A   1      35.360  32.389  32.086  1.00  0.00     0.002 A 
ATOM     78  C   UNL A   1      34.985  33.266  29.858  1.00  0.00     0.091 A 
ATOM     79  F   UNL A   1      36.687  33.003  28.205  1.00  0.00    -0.205 F 
ATOM     80  C   UNL A   1      34.537  33.037  31.168  1.00  0.00     0.022 A 
BRANCH  78  81
ATOM     81  S   UNL A   1      33.912  34.229  28.785  1.00  0.00     0.127 S 
ATOM     82  O   UNL A   1      33.483  33.226  27.814  1.00  0.00    -0.237 OA
ATOM     83  O   UNL A   1      32.872  34.671  29.716  1.00  0.00    -0.237 OA
ATOM     84  O   UNL A   1      34.743  35.304  28.261  1.00  0.00    -0.744 OA
ENDBRANCH  78  81
ENDBRANCH  50  74
BRANCH  62  85
ATOM     85  C   UNL A   1      43.310  35.400  30.789  1.00  0.00     0.023 A 
ATOM     86  C   UNL A   1      43.525  36.411  29.833  1.00  0.00     0.012 A 
ATOM     87  C   UNL A   1      43.379  35.715  32.161  1.00  0.00     0.148 A 
ATOM     88  C   UNL A   1      43.815  37.715  30.236  1.00  0.00     0.002 A 
ATOM     89  C   UNL A   1      43.626  37.024  32.556  1.00  0.00     0.091 A 
ATOM     90  F   UNL A   1      43.188  34.731  33.053  1.00  0.00    -0.205 F 
ATOM     91  C   UNL A   1      43.851  38.024  31.595  1.00  0.00     0.022 A 
BRANCH  89  92
ATOM     92  S   UNL A   1      43.596  37.535  34.278  1.00  0.00     0.127 S 
ATOM     93  O   UNL A   1      42.167  37.462  34.584  1.00  0.00    -0.237 OA
ATOM     94  O   UNL A   1      44.410  36.504  34.922  1.00  0.00    -0.237 OA
ATOM     95  O   UNL A   1      44.173  38.871  34.312  1.00  0.00    -0.744 OA
ENDBRANCH  89  92
ENDBRANCH  62  85
ENDBRANCH  36  37
ENDBRANCH  28  31
ENDBRANCH  26  27
ENDBRANCH  25  26
ENDBRANCH   1  25
TORSDOF 18
ENDMDL
MODEL 3
REMARK VINA RESULT:     -11.3      2.069      7.847
REMARK SMILES Cc1cc(C(=O)N[C@@H](C)C(=O)NCCCCNC(=O)c2ccc(-c3c4nc(c(-c5cccc(S(=O)(=O)[O-])c5F)c5ccc([nH]5)c(-c5cccc(S(=O)(=O)[O-])c5F)c5nc(c(-c6cccc(S(=O)(=O)[O-])c6F)c6ccc3[nH]6)C=C5)C=C4)cc2)cc(C)c1OC(F)F
REMARK SMILES IDX 14 1 13 2 12 3 10 4 11 5 8 7 9 8 7 9 5 10 6 11 4 13 1 14
REMARK SMILES IDX 2 15 3 16 86 17 84 18 83 19 85 20 87 21 88 22 89 23 90 24
REMARK SMILES IDX 15 25 16 26 17 27 18 28 19 30 20 31 21 32 82 33 22 34 81 35
REMARK SMILES IDX 23 36 24 37 25 38 75 39 26 40 80 41 74 42 76 43 27 44 79 45
REMARK SMILES IDX 73 46 72 47 28 49 60 50 40 51 59 52 41 53 44 54 58 55 77 56
REMARK SMILES IDX 42 57 43 58 57 60 78 61 45 62 29 63 30 64 38 65 31 66 33 67
REMARK SMILES IDX 39 68 32 69 34 70 35 71 36 72 37 73 61 74 62 75 70 76 63 77
REMARK SMILES IDX 65 78 71 79 64 80 66 81 67 82 68 83 69 84 46 85 47 86 55 87
REMARK SMILES IDX 48 88 50 89 56 90 49 91 51 92 52 93 53 94 54 95
REMARK H PARENT 12 6 7 12 17 29 76 48 44 59
REMARK Flexibility Score: inf
ROOT
ATOM      1  C   UNL A   1      35.826  23.010  23.757  1.00  0.00     0.023 C 
ENDROOT
BRANCH   1   2
ATOM      2  C   UNL A   1      34.303  23.082  23.769  1.00  0.00     0.116 C 
BRANCH   2   3
ATOM      3  N   UNL A   1      33.668  21.829  24.130  1.00  0.00    -0.354 N 
ATOM      4  C   UNL A   1      33.070  21.441  25.297  1.00  0.00     0.242 C 
ATOM      5  O   UNL A   1      32.459  20.368  25.307  1.00  0.00    -0.273 OA
ATOM      6  H   UNL A   1      33.668  21.148  23.419  1.00  0.00     0.163 HD
BRANCH   4   7
ATOM      7  C   UNL A   1      33.137  22.307  26.570  1.00  0.00     0.168 C 
ATOM      8  C   UNL A   1      34.107  21.770  27.615  1.00  0.00     0.041 C 
BRANCH   7   9
ATOM      9  N   UNL A   1      31.776  22.512  27.069  1.00  0.00    -0.341 N 
ATOM     10  C   UNL A   1      30.827  23.470  26.816  1.00  0.00     0.251 C 
ATOM     11  O   UNL A   1      29.699  23.275  27.273  1.00  0.00    -0.269 OA
ATOM     12  H   UNL A   1      31.485  21.828  27.715  1.00  0.00     0.164 HD
BRANCH  10  13
ATOM     13  C   UNL A   1      31.117  24.769  26.147  1.00  0.00     0.040 A 
ATOM     14  C   UNL A   1      29.044  26.891  23.805  1.00  0.00     0.048 C 
ATOM     15  C   UNL A   1      30.209  26.554  24.692  1.00  0.00    -0.008 A 
ATOM     16  C   UNL A   1      30.140  25.264  25.274  1.00  0.00     0.021 A 
ATOM     17  C   UNL A   1      31.270  27.392  25.072  1.00  0.00     0.131 A 
ATOM     18  C   UNL A   1      32.315  26.859  25.870  1.00  0.00    -0.008 A 
ATOM     19  C   UNL A   1      32.254  25.534  26.341  1.00  0.00     0.021 A 
ATOM     20  C   UNL A   1      33.481  27.695  26.337  1.00  0.00     0.048 C 
BRANCH  17  21
ATOM     21  O   UNL A   1      31.384  28.737  24.882  1.00  0.00    -0.434 OA
BRANCH  21  22
ATOM     22  C   UNL A   1      31.916  29.291  23.695  1.00  0.00     0.542 C 
ATOM     23  F   UNL A   1      33.219  29.621  23.840  1.00  0.00    -0.167 F 
ATOM     24  F   UNL A   1      31.790  28.394  22.688  1.00  0.00    -0.167 F 
ENDBRANCH  21  22
ENDBRANCH  17  21
ENDBRANCH  10  13
ENDBRANCH   7   9
ENDBRANCH   4   7
ENDBRANCH   2   3
ENDBRANCH   1   2
BRANCH   1  25
ATOM     25  C   UNL A   1      36.423  21.654  24.127  1.00  0.00     0.023 C 
BRANCH  25  26
ATOM     26  C   UNL A   1      36.960  21.532  25.549  1.00  0.00     0.116 C 
BRANCH  26  27
ATOM     27  N   UNL A   1      38.049  20.573  25.681  1.00  0.00    -0.352 N 
ATOM     28  C   UNL A   1      39.339  20.789  26.116  1.00  0.00     0.251 C 
ATOM     29  H   UNL A   1      37.835  19.646  25.426  1.00  0.00     0.163 HD
ATOM     30  O   UNL A   1      40.163  19.886  26.093  1.00  0.00    -0.269 OA
BRANCH  28  31
ATOM     31  C   UNL A   1      39.721  22.140  26.577  1.00  0.00     0.039 A 
ATOM     32  C   UNL A   1      40.755  22.272  27.508  1.00  0.00     0.014 A 
ATOM     33  C   UNL A   1      39.103  23.270  26.037  1.00  0.00     0.014 A 
ATOM     34  C   UNL A   1      41.229  23.545  27.835  1.00  0.00     0.010 A 
ATOM     35  C   UNL A   1      39.621  24.530  26.312  1.00  0.00     0.010 A 
ATOM     36  C   UNL A   1      40.694  24.680  27.206  1.00  0.00    -0.014 A 
BRANCH  36  37
ATOM     37  C   UNL A   1      41.244  26.039  27.436  1.00  0.00     0.031 A 
ATOM     38  C   UNL A   1      42.648  26.357  27.006  1.00  0.00     0.074 A 
ATOM     39  C   UNL A   1      40.541  26.929  28.164  1.00  0.00     0.049 A 
ATOM     40  N   UNL A   1      43.366  27.420  27.257  1.00  0.00    -0.248 NA
ATOM     41  C   UNL A   1      43.351  25.327  26.224  1.00  0.00     0.031 C 
ATOM     42  C   UNL A   1      39.205  26.702  28.717  1.00  0.00     0.029 A 
ATOM     43  N   UNL A   1      40.876  28.184  28.610  1.00  0.00    -0.354 N 
ATOM     44  C   UNL A   1      44.621  27.162  26.720  1.00  0.00     0.074 A 
ATOM     45  C   UNL A   1      44.571  25.837  26.142  1.00  0.00     0.031 C 
ATOM     46  C   UNL A   1      38.842  27.770  29.444  1.00  0.00     0.029 A 
ATOM     47  C   UNL A   1      39.929  28.745  29.435  1.00  0.00     0.049 A 
ATOM     48  H   UNL A   1      41.713  28.639  28.362  1.00  0.00     0.167 HD
ATOM     49  C   UNL A   1      45.709  27.966  26.688  1.00  0.00     0.034 A 
ATOM     50  C   UNL A   1      39.941  29.904  30.124  1.00  0.00     0.034 A 
ATOM     51  C   UNL A   1      45.730  29.309  27.197  1.00  0.00     0.049 A 
ATOM     52  C   UNL A   1      41.129  30.818  30.002  1.00  0.00     0.074 A 
ATOM     53  C   UNL A   1      46.738  30.251  27.094  1.00  0.00     0.029 A 
ATOM     54  N   UNL A   1      44.698  29.901  27.909  1.00  0.00    -0.354 N 
ATOM     55  N   UNL A   1      42.242  30.634  29.334  1.00  0.00    -0.248 NA
ATOM     56  C   UNL A   1      41.055  32.111  30.698  1.00  0.00     0.031 C 
ATOM     57  C   UNL A   1      46.319  31.411  27.755  1.00  0.00     0.029 A 
ATOM     58  C   UNL A   1      45.045  31.193  28.258  1.00  0.00     0.049 A 
ATOM     59  H   UNL A   1      43.844  29.465  28.132  1.00  0.00     0.167 HD
ATOM     60  C   UNL A   1      42.985  31.797  29.499  1.00  0.00     0.074 A 
ATOM     61  C   UNL A   1      42.190  32.687  30.320  1.00  0.00     0.031 C 
ATOM     62  C   UNL A   1      44.219  32.093  29.023  1.00  0.00     0.034 A 
BRANCH  49  63
ATOM     63  C   UNL A   1      46.952  27.432  26.028  1.00  0.00     0.023 A 
ATOM     64  C   UNL A   1      47.150  27.640  24.648  1.00  0.00     0.012 A 
ATOM     65  C   UNL A   1      47.941  26.765  26.775  1.00  0.00     0.148 A 
ATOM     66  C   UNL A   1      48.293  27.159  24.014  1.00  0.00     0.002 A 
ATOM     67  C   UNL A   1      49.100  26.324  26.144  1.00  0.00     0.091 A 
ATOM     68  F   UNL A   1      47.725  26.552  28.081  1.00  0.00    -0.205 F 
ATOM     69  C   UNL A   1      49.273  26.510  24.763  1.00  0.00     0.022 A 
BRANCH  67  70
ATOM     70  S   UNL A   1      50.444  25.548  27.048  1.00  0.00     0.127 S 
ATOM     71  O   UNL A   1      51.389  25.250  25.973  1.00  0.00    -0.237 OA
ATOM     72  O   UNL A   1      50.870  26.616  27.954  1.00  0.00    -0.237 OA
ATOM     73  O   UNL A   1      49.855  24.394  27.713  1.00  0.00    -0.744 OA
ENDBRANCH  67  70
ENDBRANCH  49  63
BRANCH  50  74
ATOM     74  C   UNL A   1      38.750  30.285  30.935  1.00  0.00     0.023 A 
ATOM     75  C   UNL A   1      38.720  29.965  32.306  1.00  0.00     0.012 A 
ATOM     76  C   UNL A   1      37.687  31.020  30.376  1.00  0.00     0.148 A 
ATOM     77  C   UNL A   1      37.643  30.354  33.102  1.00  0.00     0.002 A 
ATOM     78  C   UNL A   1      36.641  31.449  31.187  1.00  0.00     0.091 A 
ATOM     79  F   UNL A   1      37.731  31.306  29.068  1.00  0.00    -0.205 F 
ATOM     80  C   UNL A   1      36.610  31.106  32.547  1.00  0.00     0.022 A 
BRANCH  78  81
ATOM     81  S   UNL A   1      35.340  32.535  30.589  1.00  0.00     0.127 S 
ATOM     82  O   UNL A   1      36.085  33.756  30.289  1.00  0.00    -0.237 OA
ATOM     83  O   UNL A   1      34.852  31.806  29.418  1.00  0.00    -0.237 OA
ATOM     84  O   UNL A   1      34.379  32.632  31.679  1.00  0.00    -0.744 OA
ENDBRANCH  78  81
ENDBRANCH  50  74
BRANCH  62  85
ATOM     85  C   UNL A   1      44.793  33.447  29.338  1.00  0.00     0.023 A 
ATOM     86  C   UNL A   1      45.556  33.624  30.509  1.00  0.00     0.012 A 
ATOM     87  C   UNL A   1      44.683  34.506  28.416  1.00  0.00     0.148 A 
ATOM     88  C   UNL A   1      46.192  34.839  30.762  1.00  0.00     0.002 A 
ATOM     89  C   UNL A   1      45.353  35.700  28.653  1.00  0.00     0.091 A 
ATOM     90  F   UNL A   1      43.936  34.320  27.316  1.00  0.00    -0.205 F 
ATOM     91  C   UNL A   1      46.102  35.870  29.829  1.00  0.00     0.022 A 
BRANCH  89  92
ATOM     92  S   UNL A   1      45.375  37.047  27.464  1.00  0.00     0.127 S 
ATOM     93  O   UNL A   1      46.132  38.069  28.187  1.00  0.00    -0.237 OA
ATOM     94  O   UNL A   1      46.084  36.450  26.332  1.00  0.00    -0.237 OA
ATOM     95  O   UNL A   1      43.980  37.374  27.201  1.00  0.00    -0.744 OA
ENDBRANCH  89  92
ENDBRANCH  62  85
ENDBRANCH  36  37
ENDBRANCH  28  31
ENDBRANCH  26  27
ENDBRANCH  25  26
ENDBRANCH   1  25
TORSDOF 18
ENDMDL
