MODEL 1
REMARK VINA RESULT:      -9.5      0.000      0.000
REMARK SMILES CCN1C(=O)C[C@H](C(=O)Nc2cccc(C(=O)NCCCCNC(=O)c3ccc(-c4c5nc(c(-c6cccc(S(=O)(=O)[O-])c6F)c6ccc([nH]6)c(-c6cccc(S(=O)(=O)[O-])c6F)c6nc(c(-c7cccc(S(=O)(=O)[O-])c7F)c7ccc4[nH]7)C=C6)C=C5)cc3)c2)S/C1=[NH+]/c1cccc(C(F)(F)F)c1
REMARK SMILES IDX 20 1 19 2 18 3 16 4 17 5 15 7 11 8 12 9 89 10 13 11 14 12
REMARK SMILES IDX 10 13 8 14 9 15 7 17 3 18 4 19 91 20 5 21 6 22 90 23 92 24
REMARK SMILES IDX 2 26 1 27 93 28 94 29 102 30 95 31 97 32 96 33 98 34 99 35
REMARK SMILES IDX 100 36 101 37 21 38 22 39 23 40 24 41 25 43 26 44 27 45
REMARK SMILES IDX 88 46 28 47 87 48 29 49 30 50 31 51 81 52 32 53 86 54 80 55
REMARK SMILES IDX 82 56 33 57 85 58 79 59 78 60 34 62 66 63 46 64 65 65 47 66
REMARK SMILES IDX 50 67 64 68 83 69 48 70 49 71 63 73 84 74 51 75 35 76 36 77
REMARK SMILES IDX 44 78 37 79 39 80 45 81 38 82 40 83 41 84 42 85 43 86 67 87
REMARK SMILES IDX 68 88 76 89 69 90 71 91 77 92 70 93 72 94 73 95 74 96 75 97
REMARK SMILES IDX 52 98 53 99 61 100 54 101 56 102 62 103 55 104 57 105 58 106
REMARK SMILES IDX 59 107 60 108
REMARK H PARENT 18 6 10 16 92 25 23 42 82 61 50 72
REMARK Flexibility Score: inf
ROOT
ATOM      1  C   UNL A   1      35.300  32.723  31.428  1.00  0.00     0.023 C 
ENDROOT
BRANCH   1   2
ATOM      2  C   UNL A   1      35.759  33.813  32.394  1.00  0.00     0.116 C 
BRANCH   2   3
ATOM      3  N   UNL A   1      37.149  34.152  32.177  1.00  0.00    -0.352 N 
ATOM      4  C   UNL A   1      38.282  34.057  32.944  1.00  0.00     0.251 C 
ATOM      5  O   UNL A   1      39.327  34.470  32.438  1.00  0.00    -0.269 OA
ATOM      6  H   UNL A   1      37.318  34.534  31.286  1.00  0.00     0.163 HD
BRANCH   4   7
ATOM      7  C   UNL A   1      38.345  33.431  34.301  1.00  0.00     0.041 A 
ATOM      8  C   UNL A   1      38.863  31.654  35.863  1.00  0.00     0.041 A 
ATOM      9  C   UNL A   1      38.666  32.513  36.943  1.00  0.00     0.026 A 
ATOM     10  C   UNL A   1      38.578  32.078  34.563  1.00  0.00     0.040 A 
ATOM     11  C   UNL A   1      38.357  33.848  36.707  1.00  0.00     0.003 A 
ATOM     12  C   UNL A   1      38.234  34.308  35.395  1.00  0.00     0.014 A 
BRANCH   8  13
ATOM     13  N   UNL A   1      39.402  30.396  36.141  1.00  0.00    -0.325 N 
ATOM     14  C   UNL A   1      40.661  29.894  35.973  1.00  0.00     0.238 C 
ATOM     15  O   UNL A   1      40.773  28.680  36.190  1.00  0.00    -0.273 OA
ATOM     16  H   UNL A   1      38.759  29.758  36.528  1.00  0.00     0.169 HD
BRANCH  14  17
ATOM     17  C   UNL A   1      41.884  30.750  35.555  1.00  0.00     0.160 C 
ATOM     18  N   UNL A   1      43.966  28.619  35.567  1.00  0.00    -0.191 N 
ATOM     19  C   UNL A   1      43.672  29.393  36.679  1.00  0.00     0.311 C 
ATOM     20  C   UNL A   1      43.144  28.615  34.448  1.00  0.00     0.319 C 
ATOM     21  O   UNL A   1      43.923  29.031  37.827  1.00  0.00    -0.247 OA
ATOM     22  C   UNL A   1      43.139  30.763  36.396  1.00  0.00     0.153 C 
ATOM     23  S   UNL A   1      42.526  30.180  33.928  1.00  0.00    -0.024 SA
ATOM     24  N   UNL A   1      42.718  27.607  33.763  1.00  0.00    -0.235 N 
ATOM     25  H   UNL A   1      42.281  27.781  32.898  1.00  0.00     0.313 HD
BRANCH  18  26
ATOM     26  C   UNL A   1      45.373  28.207  35.546  1.00  0.00     0.243 C 
ATOM     27  C   UNL A   1      46.443  29.164  35.079  1.00  0.00     0.054 C 
ENDBRANCH  18  26
BRANCH  24  28
ATOM     28  C   UNL A   1      42.845  26.284  34.188  1.00  0.00     0.126 A 
ATOM     29  C   UNL A   1      41.989  25.809  35.183  1.00  0.00     0.052 A 
ATOM     30  C   UNL A   1      43.854  25.445  33.702  1.00  0.00     0.064 A 
ATOM     31  C   UNL A   1      42.071  24.488  35.620  1.00  0.00     0.005 A 
ATOM     32  C   UNL A   1      43.953  24.113  34.131  1.00  0.00     0.060 A 
ATOM     33  C   UNL A   1      43.040  23.640  35.087  1.00  0.00     0.013 A 
BRANCH  32  34
ATOM     34  C   UNL A   1      45.001  23.194  33.562  1.00  0.00     0.416 C 
ATOM     35  F   UNL A   1      44.782  21.887  33.881  1.00  0.00    -0.166 F 
ATOM     36  F   UNL A   1      45.048  23.240  32.202  1.00  0.00    -0.166 F 
ATOM     37  F   UNL A   1      46.266  23.472  33.988  1.00  0.00    -0.166 F 
ENDBRANCH  32  34
ENDBRANCH  24  28
ENDBRANCH  14  17
ENDBRANCH   8  13
ENDBRANCH   4   7
ENDBRANCH   2   3
ENDBRANCH   1   2
BRANCH   1  38
ATOM     38  C   UNL A   1      34.466  33.258  30.263  1.00  0.00     0.023 C 
BRANCH  38  39
ATOM     39  C   UNL A   1      34.921  32.787  28.885  1.00  0.00     0.116 C 
BRANCH  39  40
ATOM     40  N   UNL A   1      34.058  31.766  28.308  1.00  0.00    -0.352 N 
ATOM     41  C   UNL A   1      34.390  30.480  27.956  1.00  0.00     0.251 C 
ATOM     42  H   UNL A   1      33.122  32.028  28.151  1.00  0.00     0.163 HD
ATOM     43  O   UNL A   1      33.578  29.761  27.382  1.00  0.00    -0.269 OA
BRANCH  41  44
ATOM     44  C   UNL A   1      35.756  29.994  28.241  1.00  0.00     0.039 A 
ATOM     45  C   UNL A   1      36.723  30.075  27.238  1.00  0.00     0.014 A 
ATOM     46  C   UNL A   1      36.087  29.535  29.517  1.00  0.00     0.014 A 
ATOM     47  C   UNL A   1      38.049  29.758  27.538  1.00  0.00     0.010 A 
ATOM     48  C   UNL A   1      37.418  29.289  29.833  1.00  0.00     0.010 A 
ATOM     49  C   UNL A   1      38.412  29.399  28.847  1.00  0.00    -0.014 A 
BRANCH  49  50
ATOM     50  C   UNL A   1      39.829  29.151  29.212  1.00  0.00     0.031 A 
ATOM     51  C   UNL A   1      40.665  30.260  29.786  1.00  0.00     0.074 A 
ATOM     52  C   UNL A   1      40.387  27.956  28.934  1.00  0.00     0.049 A 
ATOM     53  N   UNL A   1      41.931  30.252  30.113  1.00  0.00    -0.248 NA
ATOM     54  C   UNL A   1      40.001  31.559  29.992  1.00  0.00     0.031 C 
ATOM     55  C   UNL A   1      39.702  26.829  28.295  1.00  0.00     0.029 A 
ATOM     56  N   UNL A   1      41.666  27.498  29.130  1.00  0.00    -0.354 N 
ATOM     57  C   UNL A   1      42.223  31.545  30.528  1.00  0.00     0.074 A 
ATOM     58  C   UNL A   1      41.013  32.323  30.375  1.00  0.00     0.031 C 
ATOM     59  C   UNL A   1      40.566  25.811  28.159  1.00  0.00     0.029 A 
ATOM     60  C   UNL A   1      41.869  26.216  28.675  1.00  0.00     0.049 A 
ATOM     61  H   UNL A   1      42.371  28.037  29.556  1.00  0.00     0.167 HD
ATOM     62  C   UNL A   1      43.384  32.036  31.023  1.00  0.00     0.034 A 
ATOM     63  C   UNL A   1      42.982  25.455  28.672  1.00  0.00     0.034 A 
ATOM     64  C   UNL A   1      44.570  31.246  31.221  1.00  0.00     0.049 A 
ATOM     65  C   UNL A   1      44.245  26.007  29.274  1.00  0.00     0.074 A 
ATOM     66  C   UNL A   1      45.765  31.622  31.807  1.00  0.00     0.029 A 
ATOM     67  N   UNL A   1      44.712  29.923  30.833  1.00  0.00    -0.354 N 
ATOM     68  N   UNL A   1      44.454  27.180  29.821  1.00  0.00    -0.248 NA
ATOM     69  C   UNL A   1      45.415  25.118  29.295  1.00  0.00     0.031 C 
ATOM     70  C   UNL A   1      46.637  30.530  31.757  1.00  0.00     0.029 A 
ATOM     71  C   UNL A   1      45.979  29.468  31.158  1.00  0.00     0.049 A 
ATOM     72  H   UNL A   1      44.016  29.387  30.391  1.00  0.00     0.167 HD
ATOM     73  C   UNL A   1      45.766  27.160  30.278  1.00  0.00     0.074 A 
ATOM     74  C   UNL A   1      46.297  25.848  29.966  1.00  0.00     0.031 C 
ATOM     75  C   UNL A   1      46.475  28.143  30.888  1.00  0.00     0.034 A 
BRANCH  62  76
ATOM     76  C   UNL A   1      43.406  33.481  31.445  1.00  0.00     0.023 A 
ATOM     77  C   UNL A   1      43.105  33.817  32.783  1.00  0.00     0.012 A 
ATOM     78  C   UNL A   1      43.763  34.499  30.542  1.00  0.00     0.148 A 
ATOM     79  C   UNL A   1      43.123  35.145  33.203  1.00  0.00     0.002 A 
ATOM     80  C   UNL A   1      43.822  35.818  30.980  1.00  0.00     0.091 A 
ATOM     81  F   UNL A   1      44.022  34.165  29.269  1.00  0.00    -0.205 F 
ATOM     82  C   UNL A   1      43.492  36.143  32.306  1.00  0.00     0.022 A 
BRANCH  80  83
ATOM     83  S   UNL A   1      44.358  37.166  29.920  1.00  0.00     0.127 S 
ATOM     84  O   UNL A   1      44.012  38.332  30.730  1.00  0.00    -0.237 OA
ATOM     85  O   UNL A   1      45.795  36.912  29.801  1.00  0.00    -0.237 OA
ATOM     86  O   UNL A   1      43.611  37.020  28.679  1.00  0.00    -0.744 OA
ENDBRANCH  80  83
ENDBRANCH  62  76
BRANCH  63  87
ATOM     87  C   UNL A   1      42.925  24.060  28.151  1.00  0.00     0.023 A 
ATOM     88  C   UNL A   1      42.120  23.111  28.812  1.00  0.00     0.012 A 
ATOM     89  C   UNL A   1      43.630  23.676  26.995  1.00  0.00     0.148 A 
ATOM     90  C   UNL A   1      42.041  21.798  28.348  1.00  0.00     0.002 A 
ATOM     91  C   UNL A   1      43.505  22.380  26.507  1.00  0.00     0.091 A 
ATOM     92  F   UNL A   1      44.399  24.590  26.387  1.00  0.00    -0.205 F 
ATOM     93  C   UNL A   1      42.725  21.435  27.191  1.00  0.00     0.022 A 
BRANCH  91  94
ATOM     94  S   UNL A   1      44.242  21.861  24.953  1.00  0.00     0.127 S 
ATOM     95  O   UNL A   1      43.657  22.812  24.012  1.00  0.00    -0.237 OA
ATOM     96  O   UNL A   1      45.669  22.053  25.217  1.00  0.00    -0.237 OA
ATOM     97  O   UNL A   1      43.849  20.470  24.777  1.00  0.00    -0.744 OA
ENDBRANCH  91  94
ENDBRANCH  63  87
BRANCH  75  98
ATOM     98  C   UNL A   1      47.894  27.838  31.285  1.00  0.00     0.023 A 
ATOM     99  C   UNL A   1      48.960  28.364  30.528  1.00  0.00     0.012 A 
ATOM    100  C   UNL A   1      48.174  27.096  32.450  1.00  0.00     0.148 A 
ATOM    101  C   UNL A   1      50.282  28.133  30.910  1.00  0.00     0.002 A 
ATOM    102  C   UNL A   1      49.491  26.911  32.850  1.00  0.00     0.091 A 
ATOM    103  F   UNL A   1      47.146  26.587  33.145  1.00  0.00    -0.205 F 
ATOM    104  C   UNL A   1      50.546  27.419  32.075  1.00  0.00     0.022 A 
BRANCH 102 105
ATOM    105  S   UNL A   1      49.923  26.086  34.387  1.00  0.00     0.127 S 
ATOM    106  O   UNL A   1      51.340  25.792  34.180  1.00  0.00    -0.237 OA
ATOM    107  O   UNL A   1      49.654  27.125  35.382  1.00  0.00    -0.237 OA
ATOM    108  O   UNL A   1      49.048  24.925  34.477  1.00  0.00    -0.744 OA
ENDBRANCH 102 105
ENDBRANCH  75  98
ENDBRANCH  49  50
ENDBRANCH  41  44
ENDBRANCH  39  40
ENDBRANCH  38  39
ENDBRANCH   1  38
TORSDOF 19
ENDMDL
MODEL 2
REMARK VINA RESULT:      -9.4      5.535     11.740
REMARK SMILES CCN1C(=O)C[C@H](C(=O)Nc2cccc(C(=O)NCCCCNC(=O)c3ccc(-c4c5nc(c(-c6cccc(S(=O)(=O)[O-])c6F)c6ccc([nH]6)c(-c6cccc(S(=O)(=O)[O-])c6F)c6nc(c(-c7cccc(S(=O)(=O)[O-])c7F)c7ccc4[nH]7)C=C6)C=C5)cc3)c2)S/C1=[NH+]/c1cccc(C(F)(F)F)c1
REMARK SMILES IDX 20 1 19 2 18 3 16 4 17 5 15 7 11 8 12 9 89 10 13 11 14 12
REMARK SMILES IDX 10 13 8 14 9 15 7 17 3 18 4 19 91 20 5 21 6 22 90 23 92 24
REMARK SMILES IDX 2 26 1 27 93 28 94 29 102 30 95 31 97 32 96 33 98 34 99 35
REMARK SMILES IDX 100 36 101 37 21 38 22 39 23 40 24 41 25 43 26 44 27 45
REMARK SMILES IDX 88 46 28 47 87 48 29 49 30 50 31 51 81 52 32 53 86 54 80 55
REMARK SMILES IDX 82 56 33 57 85 58 79 59 78 60 34 62 66 63 46 64 65 65 47 66
REMARK SMILES IDX 50 67 64 68 83 69 48 70 49 71 63 73 84 74 51 75 35 76 36 77
REMARK SMILES IDX 44 78 37 79 39 80 45 81 38 82 40 83 41 84 42 85 43 86 67 87
REMARK SMILES IDX 68 88 76 89 69 90 71 91 77 92 70 93 72 94 73 95 74 96 75 97
REMARK SMILES IDX 52 98 53 99 61 100 54 101 56 102 62 103 55 104 57 105 58 106
REMARK SMILES IDX 59 107 60 108
REMARK H PARENT 18 6 10 16 92 25 23 42 82 61 50 72
REMARK Flexibility Score: inf
ROOT
ATOM      1  C   UNL A   1      34.743  33.444  31.839  1.00  0.00     0.023 C 
ENDROOT
BRANCH   1   2
ATOM      2  C   UNL A   1      34.723  32.385  30.739  1.00  0.00     0.116 C 
BRANCH   2   3
ATOM      3  N   UNL A   1      35.336  32.881  29.525  1.00  0.00    -0.352 N 
ATOM      4  C   UNL A   1      35.063  32.727  28.190  1.00  0.00     0.251 C 
ATOM      5  O   UNL A   1      35.825  33.290  27.403  1.00  0.00    -0.269 OA
ATOM      6  H   UNL A   1      36.120  33.452  29.695  1.00  0.00     0.163 HD
BRANCH   4   7
ATOM      7  C   UNL A   1      33.883  31.993  27.639  1.00  0.00     0.041 A 
ATOM      8  C   UNL A   1      32.514  30.031  27.261  1.00  0.00     0.041 A 
ATOM      9  C   UNL A   1      31.468  30.821  26.788  1.00  0.00     0.026 A 
ATOM     10  C   UNL A   1      33.752  30.604  27.560  1.00  0.00     0.040 A 
ATOM     11  C   UNL A   1      31.605  32.205  26.784  1.00  0.00     0.003 A 
ATOM     12  C   UNL A   1      32.789  32.784  27.240  1.00  0.00     0.014 A 
BRANCH   8  13
ATOM     13  N   UNL A   1      32.244  28.676  27.469  1.00  0.00    -0.325 N 
ATOM     14  C   UNL A   1      31.591  27.756  26.701  1.00  0.00     0.238 C 
ATOM     15  O   UNL A   1      31.396  26.662  27.247  1.00  0.00    -0.273 OA
ATOM     16  H   UNL A   1      32.586  28.322  28.322  1.00  0.00     0.169 HD
BRANCH  14  17
ATOM     17  C   UNL A   1      31.123  28.020  25.246  1.00  0.00     0.160 C 
ATOM     18  N   UNL A   1      32.392  25.674  23.919  1.00  0.00    -0.191 N 
ATOM     19  C   UNL A   1      33.025  26.901  24.049  1.00  0.00     0.311 C 
ATOM     20  C   UNL A   1      31.225  25.382  24.612  1.00  0.00     0.319 C 
ATOM     21  O   UNL A   1      34.248  27.026  24.012  1.00  0.00    -0.247 OA
ATOM     22  C   UNL A   1      32.123  28.095  24.117  1.00  0.00     0.153 C 
ATOM     23  S   UNL A   1      30.017  26.662  24.682  1.00  0.00    -0.024 SA
ATOM     24  N   UNL A   1      30.922  24.313  25.270  1.00  0.00    -0.235 N 
ATOM     25  H   UNL A   1      29.991  24.192  25.564  1.00  0.00     0.313 HD
BRANCH  18  26
ATOM     26  C   UNL A   1      32.817  24.968  22.706  1.00  0.00     0.243 C 
ATOM     27  C   UNL A   1      32.560  25.563  21.343  1.00  0.00     0.054 C 
ENDBRANCH  18  26
BRANCH  24  28
ATOM     28  C   UNL A   1      31.851  23.320  25.585  1.00  0.00     0.126 A 
ATOM     29  C   UNL A   1      32.781  23.562  26.598  1.00  0.00     0.052 A 
ATOM     30  C   UNL A   1      31.927  22.122  24.864  1.00  0.00     0.064 A 
ATOM     31  C   UNL A   1      33.712  22.587  26.955  1.00  0.00     0.005 A 
ATOM     32  C   UNL A   1      32.858  21.131  25.209  1.00  0.00     0.060 A 
ATOM     33  C   UNL A   1      33.741  21.372  26.273  1.00  0.00     0.013 A 
BRANCH  32  34
ATOM     34  C   UNL A   1      32.898  19.819  24.471  1.00  0.00     0.416 C 
ATOM     35  F   UNL A   1      32.154  18.853  25.079  1.00  0.00    -0.166 F 
ATOM     36  F   UNL A   1      32.407  19.922  23.205  1.00  0.00    -0.166 F 
ATOM     37  F   UNL A   1      34.150  19.297  24.344  1.00  0.00    -0.166 F 
ENDBRANCH  32  34
ENDBRANCH  24  28
ENDBRANCH  14  17
ENDBRANCH   8  13
ENDBRANCH   4   7
ENDBRANCH   2   3
ENDBRANCH   1   2
BRANCH   1  38
ATOM     38  C   UNL A   1      35.572  33.036  33.057  1.00  0.00     0.023 C 
BRANCH  38  39
ATOM     39  C   UNL A   1      36.849  32.268  32.731  1.00  0.00     0.116 C 
BRANCH  39  40
ATOM     40  N   UNL A   1      36.772  30.851  33.058  1.00  0.00    -0.352 N 
ATOM     41  C   UNL A   1      37.674  29.863  32.747  1.00  0.00     0.251 C 
ATOM     42  H   UNL A   1      35.976  30.566  33.563  1.00  0.00     0.163 HD
ATOM     43  O   UNL A   1      37.425  28.688  33.001  1.00  0.00    -0.269 OA
BRANCH  41  44
ATOM     44  C   UNL A   1      38.929  30.234  32.062  1.00  0.00     0.039 A 
ATOM     45  C   UNL A   1      38.938  30.319  30.669  1.00  0.00     0.014 A 
ATOM     46  C   UNL A   1      40.064  30.568  32.805  1.00  0.00     0.014 A 
ATOM     47  C   UNL A   1      40.072  30.810  30.020  1.00  0.00     0.010 A 
ATOM     48  C   UNL A   1      41.164  31.124  32.163  1.00  0.00     0.010 A 
ATOM     49  C   UNL A   1      41.179  31.251  30.764  1.00  0.00    -0.014 A 
BRANCH  49  50
ATOM     50  C   UNL A   1      42.356  31.866  30.103  1.00  0.00     0.031 A 
ATOM     51  C   UNL A   1      43.543  31.020  29.737  1.00  0.00     0.074 A 
ATOM     52  C   UNL A   1      42.394  33.200  29.921  1.00  0.00     0.049 A 
ATOM     53  N   UNL A   1      44.682  31.383  29.207  1.00  0.00    -0.248 NA
ATOM     54  C   UNL A   1      43.454  29.580  30.035  1.00  0.00     0.031 C 
ATOM     55  C   UNL A   1      41.340  34.140  30.315  1.00  0.00     0.029 A 
ATOM     56  N   UNL A   1      43.367  34.003  29.381  1.00  0.00    -0.354 N 
ATOM     57  C   UNL A   1      45.454  30.231  29.141  1.00  0.00     0.074 A 
ATOM     58  C   UNL A   1      44.671  29.162  29.720  1.00  0.00     0.031 C 
ATOM     59  C   UNL A   1      41.722  35.387  29.999  1.00  0.00     0.029 A 
ATOM     60  C   UNL A   1      43.053  35.342  29.403  1.00  0.00     0.049 A 
ATOM     61  H   UNL A   1      44.210  33.653  29.013  1.00  0.00     0.167 HD
ATOM     62  C   UNL A   1      46.691  30.068  28.614  1.00  0.00     0.034 A 
ATOM     63  C   UNL A   1      43.762  36.413  28.992  1.00  0.00     0.034 A 
ATOM     64  C   UNL A   1      47.445  31.123  27.993  1.00  0.00     0.049 A 
ATOM     65  C   UNL A   1      45.112  36.199  28.365  1.00  0.00     0.074 A 
ATOM     66  C   UNL A   1      48.663  31.041  27.342  1.00  0.00     0.029 A 
ATOM     67  N   UNL A   1      47.056  32.453  27.950  1.00  0.00    -0.354 N 
ATOM     68  N   UNL A   1      45.754  35.075  28.154  1.00  0.00    -0.248 NA
ATOM     69  C   UNL A   1      45.820  37.393  27.884  1.00  0.00     0.031 C 
ATOM     70  C   UNL A   1      49.019  32.327  26.921  1.00  0.00     0.029 A 
ATOM     71  C   UNL A   1      48.015  33.205  27.292  1.00  0.00     0.049 A 
ATOM     72  H   UNL A   1      46.223  32.809  28.332  1.00  0.00     0.167 HD
ATOM     73  C   UNL A   1      46.924  35.423  27.489  1.00  0.00     0.074 A 
ATOM     74  C   UNL A   1      46.891  36.861  27.311  1.00  0.00     0.031 C 
ATOM     75  C   UNL A   1      47.942  34.628  27.076  1.00  0.00     0.034 A 
BRANCH  62  76
ATOM     76  C   UNL A   1      47.278  28.681  28.631  1.00  0.00     0.023 A 
ATOM     77  C   UNL A   1      48.102  28.291  29.708  1.00  0.00     0.012 A 
ATOM     78  C   UNL A   1      46.985  27.752  27.615  1.00  0.00     0.148 A 
ATOM     79  C   UNL A   1      48.655  27.013  29.753  1.00  0.00     0.002 A 
ATOM     80  C   UNL A   1      47.504  26.465  27.690  1.00  0.00     0.091 A 
ATOM     81  F   UNL A   1      46.219  28.147  26.587  1.00  0.00    -0.205 F 
ATOM     82  C   UNL A   1      48.348  26.097  28.751  1.00  0.00     0.022 A 
BRANCH  80  83
ATOM     83  S   UNL A   1      47.106  25.190  26.488  1.00  0.00     0.127 S 
ATOM     84  O   UNL A   1      47.792  24.029  27.051  1.00  0.00    -0.237 OA
ATOM     85  O   UNL A   1      45.646  25.133  26.570  1.00  0.00    -0.237 OA
ATOM     86  O   UNL A   1      47.624  25.667  25.213  1.00  0.00    -0.744 OA
ENDBRANCH  80  83
ENDBRANCH  62  76
BRANCH  63  87
ATOM     87  C   UNL A   1      43.168  37.777  29.088  1.00  0.00     0.023 A 
ATOM     88  C   UNL A   1      42.265  38.206  28.095  1.00  0.00     0.012 A 
ATOM     89  C   UNL A   1      43.460  38.634  30.166  1.00  0.00     0.148 A 
ATOM     90  C   UNL A   1      41.688  39.474  28.157  1.00  0.00     0.002 A 
ATOM     91  C   UNL A   1      42.841  39.876  30.250  1.00  0.00     0.091 A 
ATOM     92  F   UNL A   1      44.330  38.212  31.094  1.00  0.00    -0.205 F 
ATOM     93  C   UNL A   1      41.967  40.305  29.239  1.00  0.00     0.022 A 
BRANCH  91  94
ATOM     94  S   UNL A   1      43.039  40.955  31.672  1.00  0.00     0.127 S 
ATOM     95  O   UNL A   1      44.450  41.315  31.580  1.00  0.00    -0.237 OA
ATOM     96  O   UNL A   1      42.104  42.038  31.361  1.00  0.00    -0.237 OA
ATOM     97  O   UNL A   1      42.662  40.154  32.829  1.00  0.00    -0.744 OA
ENDBRANCH  91  94
ENDBRANCH  63  87
BRANCH  75  98
ATOM     98  C   UNL A   1      49.097  35.283  26.367  1.00  0.00     0.023 A 
ATOM     99  C   UNL A   1      49.012  35.540  24.984  1.00  0.00     0.012 A 
ATOM    100  C   UNL A   1      50.233  35.713  27.082  1.00  0.00     0.148 A 
ATOM    101  C   UNL A   1      50.052  36.189  24.319  1.00  0.00     0.002 A 
ATOM    102  C   UNL A   1      51.242  36.402  26.421  1.00  0.00     0.091 A 
ATOM    103  F   UNL A   1      50.303  35.441  28.393  1.00  0.00    -0.205 F 
ATOM    104  C   UNL A   1      51.159  36.630  25.039  1.00  0.00     0.022 A 
BRANCH 102 105
ATOM    105  S   UNL A   1      52.659  37.091  27.285  1.00  0.00     0.127 S 
ATOM    106  O   UNL A   1      52.020  38.034  28.202  1.00  0.00    -0.237 OA
ATOM    107  O   UNL A   1      53.235  35.910  27.929  1.00  0.00    -0.237 OA
ATOM    108  O   UNL A   1      53.502  37.688  26.258  1.00  0.00    -0.744 OA
ENDBRANCH 102 105
ENDBRANCH  75  98
ENDBRANCH  49  50
ENDBRANCH  41  44
ENDBRANCH  39  40
ENDBRANCH  38  39
ENDBRANCH   1  38
TORSDOF 19
ENDMDL
MODEL 3
REMARK VINA RESULT:      -9.2      5.718     12.180
REMARK SMILES CCN1C(=O)C[C@H](C(=O)Nc2cccc(C(=O)NCCCCNC(=O)c3ccc(-c4c5nc(c(-c6cccc(S(=O)(=O)[O-])c6F)c6ccc([nH]6)c(-c6cccc(S(=O)(=O)[O-])c6F)c6nc(c(-c7cccc(S(=O)(=O)[O-])c7F)c7ccc4[nH]7)C=C6)C=C5)cc3)c2)S/C1=[NH+]/c1cccc(C(F)(F)F)c1
REMARK SMILES IDX 20 1 19 2 18 3 16 4 17 5 15 7 11 8 12 9 89 10 13 11 14 12
REMARK SMILES IDX 10 13 8 14 9 15 7 17 3 18 4 19 91 20 5 21 6 22 90 23 92 24
REMARK SMILES IDX 2 26 1 27 93 28 94 29 102 30 95 31 97 32 96 33 98 34 99 35
REMARK SMILES IDX 100 36 101 37 21 38 22 39 23 40 24 41 25 43 26 44 27 45
REMARK SMILES IDX 88 46 28 47 87 48 29 49 30 50 31 51 81 52 32 53 86 54 80 55
REMARK SMILES IDX 82 56 33 57 85 58 79 59 78 60 34 62 66 63 46 64 65 65 47 66
REMARK SMILES IDX 50 67 64 68 83 69 48 70 49 71 63 73 84 74 51 75 35 76 36 77
REMARK SMILES IDX 44 78 37 79 39 80 45 81 38 82 40 83 41 84 42 85 43 86 67 87
REMARK SMILES IDX 68 88 76 89 69 90 71 91 77 92 70 93 72 94 73 95 74 96 75 97
REMARK SMILES IDX 52 98 53 99 61 100 54 101 56 102 62 103 55 104 57 105 58 106
REMARK SMILES IDX 59 107 60 108
REMARK H PARENT 18 6 10 16 92 25 23 42 82 61 50 72
REMARK Flexibility Score: inf
ROOT
ATOM      1  C   UNL A   1      41.588  24.015  28.240  1.00  0.00     0.023 C 
ENDROOT
BRANCH   1   2
ATOM      2  C   UNL A   1      41.156  22.560  28.398  1.00  0.00     0.116 C 
BRANCH   2   3
ATOM      3  N   UNL A   1      41.734  21.728  27.363  1.00  0.00    -0.352 N 
ATOM      4  C   UNL A   1      41.211  21.009  26.319  1.00  0.00     0.251 C 
ATOM      5  O   UNL A   1      42.013  20.381  25.626  1.00  0.00    -0.269 OA
ATOM      6  H   UNL A   1      42.714  21.665  27.422  1.00  0.00     0.163 HD
BRANCH   4   7
ATOM      7  C   UNL A   1      39.767  20.995  25.930  1.00  0.00     0.041 A 
ATOM      8  C   UNL A   1      37.667  22.022  25.296  1.00  0.00     0.041 A 
ATOM      9  C   UNL A   1      37.145  20.783  24.928  1.00  0.00     0.026 A 
ATOM     10  C   UNL A   1      38.918  22.105  25.911  1.00  0.00     0.040 A 
ATOM     11  C   UNL A   1      37.946  19.651  25.011  1.00  0.00     0.003 A 
ATOM     12  C   UNL A   1      39.258  19.765  25.474  1.00  0.00     0.014 A 
BRANCH   8  13
ATOM     13  N   UNL A   1      36.913  23.152  24.971  1.00  0.00    -0.325 N 
ATOM     14  C   UNL A   1      35.604  23.293  24.608  1.00  0.00     0.238 C 
ATOM     15  O   UNL A   1      35.282  24.431  24.244  1.00  0.00    -0.273 OA
ATOM     16  H   UNL A   1      37.415  23.999  25.013  1.00  0.00     0.169 HD
BRANCH  14  17
ATOM     17  C   UNL A   1      34.568  22.140  24.648  1.00  0.00     0.160 C 
ATOM     18  N   UNL A   1      32.207  23.674  25.624  1.00  0.00    -0.191 N 
ATOM     19  C   UNL A   1      33.100  23.040  26.475  1.00  0.00     0.311 C 
ATOM     20  C   UNL A   1      32.488  23.844  24.275  1.00  0.00     0.319 C 
ATOM     21  O   UNL A   1      33.246  23.369  27.651  1.00  0.00    -0.247 OA
ATOM     22  C   UNL A   1      33.797  21.840  25.912  1.00  0.00     0.153 C 
ATOM     23  S   UNL A   1      33.213  22.469  23.448  1.00  0.00    -0.024 SA
ATOM     24  N   UNL A   1      32.343  24.901  23.547  1.00  0.00    -0.235 N 
ATOM     25  H   UNL A   1      32.428  24.813  22.571  1.00  0.00     0.313 HD
BRANCH  18  26
ATOM     26  C   UNL A   1      30.854  23.715  26.186  1.00  0.00     0.243 C 
ATOM     27  C   UNL A   1      30.117  22.435  26.501  1.00  0.00     0.054 C 
ENDBRANCH  18  26
BRANCH  24  28
ATOM     28  C   UNL A   1      32.074  26.164  24.077  1.00  0.00     0.126 A 
ATOM     29  C   UNL A   1      30.972  26.876  23.599  1.00  0.00     0.052 A 
ATOM     30  C   UNL A   1      32.919  26.767  25.017  1.00  0.00     0.064 A 
ATOM     31  C   UNL A   1      30.659  28.132  24.118  1.00  0.00     0.005 A 
ATOM     32  C   UNL A   1      32.619  28.030  25.549  1.00  0.00     0.060 A 
ATOM     33  C   UNL A   1      31.471  28.700  25.098  1.00  0.00     0.013 A 
BRANCH  32  34
ATOM     34  C   UNL A   1      33.496  28.651  26.604  1.00  0.00     0.416 C 
ATOM     35  F   UNL A   1      34.775  28.183  26.564  1.00  0.00    -0.166 F 
ATOM     36  F   UNL A   1      33.592  30.003  26.468  1.00  0.00    -0.166 F 
ATOM     37  F   UNL A   1      33.062  28.435  27.878  1.00  0.00    -0.166 F 
ENDBRANCH  32  34
ENDBRANCH  24  28
ENDBRANCH  14  17
ENDBRANCH   8  13
ENDBRANCH   4   7
ENDBRANCH   2   3
ENDBRANCH   1   2
BRANCH   1  38
ATOM     38  C   UNL A   1      40.419  24.971  27.997  1.00  0.00     0.023 C 
BRANCH  38  39
ATOM     39  C   UNL A   1      40.352  25.550  26.587  1.00  0.00     0.116 C 
BRANCH  39  40
ATOM     40  N   UNL A   1      41.430  25.091  25.721  1.00  0.00    -0.352 N 
ATOM     41  C   UNL A   1      42.638  25.701  25.482  1.00  0.00     0.251 C 
ATOM     42  H   UNL A   1      41.275  24.241  25.250  1.00  0.00     0.163 HD
ATOM     43  O   UNL A   1      43.411  25.247  24.644  1.00  0.00    -0.269 OA
BRANCH  41  44
ATOM     44  C   UNL A   1      42.969  26.938  26.219  1.00  0.00     0.039 A 
ATOM     45  C   UNL A   1      42.442  28.150  25.773  1.00  0.00     0.014 A 
ATOM     46  C   UNL A   1      43.735  26.878  27.386  1.00  0.00     0.014 A 
ATOM     47  C   UNL A   1      42.626  29.301  26.543  1.00  0.00     0.010 A 
ATOM     48  C   UNL A   1      43.856  28.008  28.185  1.00  0.00     0.010 A 
ATOM     49  C   UNL A   1      43.302  29.230  27.772  1.00  0.00    -0.014 A 
BRANCH  49  50
ATOM     50  C   UNL A   1      43.426  30.419  28.652  1.00  0.00     0.031 A 
ATOM     51  C   UNL A   1      42.278  30.831  29.530  1.00  0.00     0.074 A 
ATOM     52  C   UNL A   1      44.535  31.181  28.585  1.00  0.00     0.049 A 
ATOM     53  N   UNL A   1      42.176  31.867  30.321  1.00  0.00    -0.248 NA
ATOM     54  C   UNL A   1      41.071  29.986  29.491  1.00  0.00     0.031 C 
ATOM     55  C   UNL A   1      45.681  30.935  27.706  1.00  0.00     0.029 A 
ATOM     56  N   UNL A   1      44.870  32.334  29.251  1.00  0.00    -0.354 N 
ATOM     57  C   UNL A   1      40.891  31.819  30.845  1.00  0.00     0.074 A 
ATOM     58  C   UNL A   1      40.234  30.675  30.253  1.00  0.00     0.031 C 
ATOM     59  C   UNL A   1      46.593  31.902  27.892  1.00  0.00     0.029 A 
ATOM     60  C   UNL A   1      46.091  32.849  28.882  1.00  0.00     0.049 A 
ATOM     61  H   UNL A   1      44.292  32.751  29.929  1.00  0.00     0.167 HD
ATOM     62  C   UNL A   1      40.318  32.634  31.763  1.00  0.00     0.034 A 
ATOM     63  C   UNL A   1      46.731  33.962  29.293  1.00  0.00     0.034 A 
ATOM     64  C   UNL A   1      40.992  33.740  32.387  1.00  0.00     0.049 A 
ATOM     65  C   UNL A   1      46.093  34.823  30.349  1.00  0.00     0.074 A 
ATOM     66  C   UNL A   1      40.535  34.565  33.398  1.00  0.00     0.029 A 
ATOM     67  N   UNL A   1      42.264  34.179  32.054  1.00  0.00    -0.354 N 
ATOM     68  N   UNL A   1      44.944  34.663  30.960  1.00  0.00    -0.248 NA
ATOM     69  C   UNL A   1      46.856  35.994  30.802  1.00  0.00     0.031 C 
ATOM     70  C   UNL A   1      41.525  35.517  33.665  1.00  0.00     0.029 A 
ATOM     71  C   UNL A   1      42.606  35.271  32.834  1.00  0.00     0.049 A 
ATOM     72  H   UNL A   1      42.838  33.776  31.365  1.00  0.00     0.167 HD
ATOM     73  C   UNL A   1      44.860  35.693  31.890  1.00  0.00     0.074 A 
ATOM     74  C   UNL A   1      46.086  36.457  31.778  1.00  0.00     0.031 C 
ATOM     75  C   UNL A   1      43.853  35.990  32.748  1.00  0.00     0.034 A 
BRANCH  62  76
ATOM     76  C   UNL A   1      38.910  32.317  32.193  1.00  0.00     0.023 A 
ATOM     77  C   UNL A   1      38.694  31.364  33.211  1.00  0.00     0.012 A 
ATOM     78  C   UNL A   1      37.807  32.985  31.628  1.00  0.00     0.148 A 
ATOM     79  C   UNL A   1      37.403  31.055  33.633  1.00  0.00     0.002 A 
ATOM     80  C   UNL A   1      36.525  32.703  32.085  1.00  0.00     0.091 A 
ATOM     81  F   UNL A   1      38.028  33.870  30.644  1.00  0.00    -0.205 F 
ATOM     82  C   UNL A   1      36.320  31.731  33.079  1.00  0.00     0.022 A 
BRANCH  80  83
ATOM     83  S   UNL A   1      35.071  33.575  31.488  1.00  0.00     0.127 S 
ATOM     84  O   UNL A   1      33.992  32.776  32.064  1.00  0.00    -0.237 OA
ATOM     85  O   UNL A   1      35.237  34.899  32.088  1.00  0.00    -0.237 OA
ATOM     86  O   UNL A   1      35.162  33.552  30.035  1.00  0.00    -0.744 OA
ENDBRANCH  80  83
ENDBRANCH  62  76
BRANCH  63  87
ATOM     87  C   UNL A   1      48.086  34.279  28.760  1.00  0.00     0.023 A 
ATOM     88  C   UNL A   1      49.220  33.732  29.393  1.00  0.00     0.012 A 
ATOM     89  C   UNL A   1      48.259  35.083  27.617  1.00  0.00     0.148 A 
ATOM     90  C   UNL A   1      50.502  34.005  28.917  1.00  0.00     0.002 A 
ATOM     91  C   UNL A   1      49.537  35.307  27.116  1.00  0.00     0.091 A 
ATOM     92  F   UNL A   1      47.169  35.603  27.036  1.00  0.00    -0.205 F 
ATOM     93  C   UNL A   1      50.661  34.783  27.774  1.00  0.00     0.022 A 
BRANCH  91  94
ATOM     94  S   UNL A   1      49.826  36.186  25.577  1.00  0.00     0.127 S 
ATOM     95  O   UNL A   1      49.065  35.382  24.625  1.00  0.00    -0.237 OA
ATOM     96  O   UNL A   1      49.254  37.502  25.868  1.00  0.00    -0.237 OA
ATOM     97  O   UNL A   1      51.271  36.190  25.392  1.00  0.00    -0.744 OA
ENDBRANCH  91  94
ENDBRANCH  63  87
BRANCH  75  98
ATOM     98  C   UNL A   1      44.035  37.175  33.657  1.00  0.00     0.023 A 
ATOM     99  C   UNL A   1      44.659  37.006  34.909  1.00  0.00     0.012 A 
ATOM    100  C   UNL A   1      43.661  38.468  33.240  1.00  0.00     0.148 A 
ATOM    101  C   UNL A   1      44.881  38.100  35.744  1.00  0.00     0.002 A 
ATOM    102  C   UNL A   1      43.929  39.560  34.057  1.00  0.00     0.091 A 
ATOM    103  F   UNL A   1      43.050  38.606  32.054  1.00  0.00    -0.205 F 
ATOM    104  C   UNL A   1      44.528  39.376  35.313  1.00  0.00     0.022 A 
BRANCH 102 105
ATOM    105  S   UNL A   1      43.596  41.249  33.543  1.00  0.00     0.127 S 
ATOM    106  O   UNL A   1      44.120  42.014  34.674  1.00  0.00    -0.237 OA
ATOM    107  O   UNL A   1      44.383  41.361  32.315  1.00  0.00    -0.237 OA
ATOM    108  O   UNL A   1      42.156  41.331  33.345  1.00  0.00    -0.744 OA
ENDBRANCH 102 105
ENDBRANCH  75  98
ENDBRANCH  49  50
ENDBRANCH  41  44
ENDBRANCH  39  40
ENDBRANCH  38  39
ENDBRANCH   1  38
TORSDOF 19
ENDMDL
