MODEL 1
REMARK VINA RESULT:     -12.7      0.000      0.000
REMARK SMILES [NH3+][C@H]1CN(C(=O)OCC2c3ccccc3-c3ccccc32)C[C@@H]1C(=O)NCCCCNC(=O)c1ccc(-c2c3nc(c(-c4cccc(S(=O)(=O)[O-])c4F)c4ccc([nH]4)c(-c4cccc(S(=O)(=O)[O-])c4F)c4nc(c(-c5cccc(S(=O)(=O)[O-])c5F)c5ccc2[nH]5)C=C4)C=C3)cc1
REMARK SMILES IDX 28 1 27 2 26 3 24 4 25 5 23 7 2 8 3 9 4 10 22 11 1 12 5 16
REMARK SMILES IDX 6 17 7 18 8 19 9 20 10 21 21 22 11 23 15 24 16 25 20 26
REMARK SMILES IDX 12 27 14 28 17 29 19 30 13 31 18 32 29 33 30 34 31 35 32 36
REMARK SMILES IDX 33 38 34 39 35 40 96 41 36 42 95 43 37 44 38 45 39 46 89 47
REMARK SMILES IDX 40 48 94 49 88 50 90 51 41 52 93 53 87 54 86 55 42 57 74 58
REMARK SMILES IDX 54 59 73 60 55 61 58 62 72 63 91 64 56 65 57 66 71 68 92 69
REMARK SMILES IDX 59 70 43 71 44 72 52 73 45 74 47 75 53 76 46 77 48 78 49 79
REMARK SMILES IDX 50 80 51 81 75 82 76 83 84 84 77 85 79 86 85 87 78 88 80 89
REMARK SMILES IDX 81 90 82 91 83 92 60 93 61 94 69 95 62 96 64 97 70 98 63 99
REMARK SMILES IDX 65 100 66 101 67 102 68 103
REMARK H PARENT 26 6 1 13 1 14 1 15 31 37 90 56 58 67
REMARK Flexibility Score: inf
ROOT
ATOM      1  C   UNL A   1      32.111  30.794  27.140  1.00  0.00     0.023 C 
ENDROOT
BRANCH   1   2
ATOM      2  C   UNL A   1      31.918  29.933  25.890  1.00  0.00     0.116 C 
BRANCH   2   3
ATOM      3  N   UNL A   1      32.937  28.899  25.820  1.00  0.00    -0.356 N 
ATOM      4  C   UNL A   1      33.377  28.180  24.747  1.00  0.00     0.231 C 
ATOM      5  O   UNL A   1      34.042  27.165  24.952  1.00  0.00    -0.274 OA
ATOM      6  H   UNL A   1      33.374  28.684  26.676  1.00  0.00     0.163 HD
BRANCH   4   7
ATOM      7  C   UNL A   1      33.107  28.698  23.349  1.00  0.00     0.158 C 
ATOM      8  C   UNL A   1      31.634  28.548  22.936  1.00  0.00     0.215 C 
ATOM      9  C   UNL A   1      31.552  27.134  22.322  1.00  0.00     0.188 C 
ATOM     10  N   UNL A   1      32.918  26.753  22.032  1.00  0.00    -0.301 N 
ATOM     11  C   UNL A   1      33.859  27.798  22.378  1.00  0.00     0.143 C 
BRANCH   8  12
ATOM     12  N   UNL A   1      31.277  29.589  21.948  1.00  0.00    -0.353 N 
ATOM     13  H   UNL A   1      30.272  29.566  21.776  1.00  0.00     0.344 HD
ATOM     14  H   UNL A   1      31.776  29.415  21.075  1.00  0.00     0.344 HD
ATOM     15  H   UNL A   1      31.538  30.507  22.311  1.00  0.00     0.344 HD
ENDBRANCH   8  12
BRANCH  10  16
ATOM     16  C   UNL A   1      33.309  25.482  21.704  1.00  0.00     0.410 C 
ATOM     17  O   UNL A   1      32.999  24.928  20.662  1.00  0.00    -0.224 OA
BRANCH  16  18
ATOM     18  O   UNL A   1      33.969  24.882  22.735  1.00  0.00    -0.448 OA
BRANCH  18  19
ATOM     19  C   UNL A   1      33.917  23.441  22.746  1.00  0.00     0.248 C 
BRANCH  19  20
ATOM     20  C   UNL A   1      33.963  22.865  24.180  1.00  0.00     0.088 C 
ATOM     21  C   UNL A   1      33.610  21.379  24.272  1.00  0.00    -0.029 A 
ATOM     22  C   UNL A   1      35.397  22.855  24.716  1.00  0.00    -0.029 A 
ATOM     23  C   UNL A   1      32.388  20.758  24.059  1.00  0.00     0.005 A 
ATOM     24  C   UNL A   1      34.744  20.624  24.630  1.00  0.00    -0.014 A 
ATOM     25  C   UNL A   1      35.825  21.529  24.947  1.00  0.00    -0.014 A 
ATOM     26  C   UNL A   1      36.228  23.932  24.988  1.00  0.00     0.005 A 
ATOM     27  C   UNL A   1      32.337  19.363  24.067  1.00  0.00     0.000 A 
ATOM     28  C   UNL A   1      34.693  19.239  24.657  1.00  0.00     0.009 A 
ATOM     29  C   UNL A   1      37.086  21.271  25.459  1.00  0.00     0.009 A 
ATOM     30  C   UNL A   1      37.500  23.670  25.505  1.00  0.00     0.000 A 
ATOM     31  C   UNL A   1      33.485  18.609  24.345  1.00  0.00     0.001 A 
ATOM     32  C   UNL A   1      37.925  22.352  25.740  1.00  0.00     0.001 A 
ENDBRANCH  19  20
ENDBRANCH  18  19
ENDBRANCH  16  18
ENDBRANCH  10  16
ENDBRANCH   4   7
ENDBRANCH   2   3
ENDBRANCH   1   2
BRANCH   1  33
ATOM     33  C   UNL A   1      31.683  32.256  26.967  1.00  0.00     0.023 C 
BRANCH  33  34
ATOM     34  C   UNL A   1      32.825  33.266  26.967  1.00  0.00     0.116 C 
BRANCH  34  35
ATOM     35  N   UNL A   1      32.524  34.456  27.748  1.00  0.00    -0.352 N 
ATOM     36  C   UNL A   1      33.074  34.871  28.938  1.00  0.00     0.251 C 
ATOM     37  H   UNL A   1      31.829  35.044  27.374  1.00  0.00     0.163 HD
ATOM     38  O   UNL A   1      32.587  35.826  29.535  1.00  0.00    -0.269 OA
BRANCH  36  39
ATOM     39  C   UNL A   1      34.233  34.148  29.504  1.00  0.00     0.039 A 
ATOM     40  C   UNL A   1      35.521  34.516  29.105  1.00  0.00     0.014 A 
ATOM     41  C   UNL A   1      34.054  33.123  30.438  1.00  0.00     0.014 A 
ATOM     42  C   UNL A   1      36.629  33.896  29.686  1.00  0.00     0.010 A 
ATOM     43  C   UNL A   1      35.159  32.568  31.076  1.00  0.00     0.010 A 
ATOM     44  C   UNL A   1      36.458  32.939  30.701  1.00  0.00    -0.014 A 
BRANCH  44  45
ATOM     45  C   UNL A   1      37.626  32.321  31.382  1.00  0.00     0.031 A 
ATOM     46  C   UNL A   1      38.369  31.183  30.733  1.00  0.00     0.074 A 
ATOM     47  C   UNL A   1      37.972  32.728  32.619  1.00  0.00     0.049 A 
ATOM     48  N   UNL A   1      39.377  30.487  31.191  1.00  0.00    -0.248 NA
ATOM     49  C   UNL A   1      37.900  30.752  29.405  1.00  0.00     0.031 C 
ATOM     50  C   UNL A   1      37.288  33.769  33.389  1.00  0.00     0.029 A 
ATOM     51  N   UNL A   1      38.970  32.298  33.459  1.00  0.00    -0.354 N 
ATOM     52  C   UNL A   1      39.639  29.517  30.232  1.00  0.00     0.074 A 
ATOM     53  C   UNL A   1      38.659  29.689  29.182  1.00  0.00     0.031 C 
ATOM     54  C   UNL A   1      37.889  33.901  34.582  1.00  0.00     0.029 A 
ATOM     55  C   UNL A   1      38.976  32.932  34.680  1.00  0.00     0.049 A 
ATOM     56  H   UNL A   1      39.621  31.601  33.210  1.00  0.00     0.167 HD
ATOM     57  C   UNL A   1      40.621  28.585  30.209  1.00  0.00     0.034 A 
ATOM     58  C   UNL A   1      39.759  32.747  35.760  1.00  0.00     0.034 A 
ATOM     59  C   UNL A   1      41.611  28.434  31.242  1.00  0.00     0.049 A 
ATOM     60  C   UNL A   1      40.858  31.721  35.703  1.00  0.00     0.074 A 
ATOM     61  C   UNL A   1      42.696  27.577  31.274  1.00  0.00     0.029 A 
ATOM     62  N   UNL A   1      41.628  29.144  32.432  1.00  0.00    -0.354 N 
ATOM     63  N   UNL A   1      41.185  30.915  34.721  1.00  0.00    -0.248 NA
ATOM     64  C   UNL A   1      41.719  31.602  36.889  1.00  0.00     0.031 C 
ATOM     65  C   UNL A   1      43.346  27.739  32.501  1.00  0.00     0.029 A 
ATOM     66  C   UNL A   1      42.695  28.734  33.213  1.00  0.00     0.049 A 
ATOM     67  H   UNL A   1      40.978  29.837  32.685  1.00  0.00     0.167 HD
ATOM     68  C   UNL A   1      42.312  30.225  35.153  1.00  0.00     0.074 A 
ATOM     69  C   UNL A   1      42.620  30.720  36.480  1.00  0.00     0.031 C 
ATOM     70  C   UNL A   1      43.022  29.263  34.513  1.00  0.00     0.034 A 
BRANCH  57  71
ATOM     71  C   UNL A   1      40.692  27.675  29.008  1.00  0.00     0.023 A 
ATOM     72  C   UNL A   1      39.792  26.596  28.891  1.00  0.00     0.012 A 
ATOM     73  C   UNL A   1      41.620  27.913  27.975  1.00  0.00     0.148 A 
ATOM     74  C   UNL A   1      39.844  25.740  27.792  1.00  0.00     0.002 A 
ATOM     75  C   UNL A   1      41.631  27.087  26.857  1.00  0.00     0.091 A 
ATOM     76  F   UNL A   1      42.481  28.932  28.109  1.00  0.00    -0.205 F 
ATOM     77  C   UNL A   1      40.755  25.992  26.771  1.00  0.00     0.022 A 
BRANCH  75  78
ATOM     78  S   UNL A   1      42.708  27.377  25.449  1.00  0.00     0.127 S 
ATOM     79  O   UNL A   1      42.544  26.136  24.692  1.00  0.00    -0.237 OA
ATOM     80  O   UNL A   1      42.094  28.553  24.831  1.00  0.00    -0.237 OA
ATOM     81  O   UNL A   1      44.037  27.603  25.998  1.00  0.00    -0.744 OA
ENDBRANCH  75  78
ENDBRANCH  57  71
BRANCH  58  82
ATOM     82  C   UNL A   1      39.564  33.592  36.973  1.00  0.00     0.023 A 
ATOM     83  C   UNL A   1      40.049  34.915  36.984  1.00  0.00     0.012 A 
ATOM     84  C   UNL A   1      38.879  33.102  38.101  1.00  0.00     0.148 A 
ATOM     85  C   UNL A   1      39.886  35.722  38.110  1.00  0.00     0.002 A 
ATOM     86  C   UNL A   1      38.668  33.932  39.196  1.00  0.00     0.091 A 
ATOM     87  F   UNL A   1      38.430  31.840  38.071  1.00  0.00    -0.205 F 
ATOM     88  C   UNL A   1      39.187  35.235  39.211  1.00  0.00     0.022 A 
BRANCH  86  89
ATOM     89  S   UNL A   1      37.669  33.436  40.605  1.00  0.00     0.127 S 
ATOM     90  O   UNL A   1      38.462  32.342  41.163  1.00  0.00    -0.237 OA
ATOM     91  O   UNL A   1      37.657  34.660  41.406  1.00  0.00    -0.237 OA
ATOM     92  O   UNL A   1      36.373  33.060  40.059  1.00  0.00    -0.744 OA
ENDBRANCH  86  89
ENDBRANCH  58  82
BRANCH  70  93
ATOM     93  C   UNL A   1      44.239  28.709  35.209  1.00  0.00     0.023 A 
ATOM     94  C   UNL A   1      45.512  29.254  34.955  1.00  0.00     0.012 A 
ATOM     95  C   UNL A   1      44.104  27.689  36.172  1.00  0.00     0.148 A 
ATOM     96  C   UNL A   1      46.637  28.767  35.620  1.00  0.00     0.002 A 
ATOM     97  C   UNL A   1      45.219  27.247  36.871  1.00  0.00     0.091 A 
ATOM     98  F   UNL A   1      42.886  27.170  36.387  1.00  0.00    -0.205 F 
ATOM     99  C   UNL A   1      46.489  27.774  36.586  1.00  0.00     0.022 A 
BRANCH  97 100
ATOM    100  S   UNL A   1      45.111  26.045  38.201  1.00  0.00     0.127 S 
ATOM    101  O   UNL A   1      44.287  26.755  39.179  1.00  0.00    -0.237 OA
ATOM    102  O   UNL A   1      44.445  24.919  37.546  1.00  0.00    -0.237 OA
ATOM    103  O   UNL A   1      46.482  25.778  38.618  1.00  0.00    -0.744 OA
ENDBRANCH  97 100
ENDBRANCH  70  93
ENDBRANCH  44  45
ENDBRANCH  36  39
ENDBRANCH  34  35
ENDBRANCH  33  34
ENDBRANCH   1  33
TORSDOF 19
ENDMDL
MODEL 2
REMARK VINA RESULT:     -12.6      0.895      2.005
REMARK SMILES [NH3+][C@H]1CN(C(=O)OCC2c3ccccc3-c3ccccc32)C[C@@H]1C(=O)NCCCCNC(=O)c1ccc(-c2c3nc(c(-c4cccc(S(=O)(=O)[O-])c4F)c4ccc([nH]4)c(-c4cccc(S(=O)(=O)[O-])c4F)c4nc(c(-c5cccc(S(=O)(=O)[O-])c5F)c5ccc2[nH]5)C=C4)C=C3)cc1
REMARK SMILES IDX 28 1 27 2 26 3 24 4 25 5 23 7 2 8 3 9 4 10 22 11 1 12 5 16
REMARK SMILES IDX 6 17 7 18 8 19 9 20 10 21 21 22 11 23 15 24 16 25 20 26
REMARK SMILES IDX 12 27 14 28 17 29 19 30 13 31 18 32 29 33 30 34 31 35 32 36
REMARK SMILES IDX 33 38 34 39 35 40 96 41 36 42 95 43 37 44 38 45 39 46 89 47
REMARK SMILES IDX 40 48 94 49 88 50 90 51 41 52 93 53 87 54 86 55 42 57 74 58
REMARK SMILES IDX 54 59 73 60 55 61 58 62 72 63 91 64 56 65 57 66 71 68 92 69
REMARK SMILES IDX 59 70 43 71 44 72 52 73 45 74 47 75 53 76 46 77 48 78 49 79
REMARK SMILES IDX 50 80 51 81 75 82 76 83 84 84 77 85 79 86 85 87 78 88 80 89
REMARK SMILES IDX 81 90 82 91 83 92 60 93 61 94 69 95 62 96 64 97 70 98 63 99
REMARK SMILES IDX 65 100 66 101 67 102 68 103
REMARK H PARENT 26 6 1 13 1 14 1 15 31 37 90 56 58 67
REMARK Flexibility Score: inf
ROOT
ATOM      1  C   UNL A   1      32.146  30.258  27.162  1.00  0.00     0.023 C 
ENDROOT
BRANCH   1   2
ATOM      2  C   UNL A   1      31.817  29.407  25.934  1.00  0.00     0.116 C 
BRANCH   2   3
ATOM      3  N   UNL A   1      32.839  28.396  25.725  1.00  0.00    -0.356 N 
ATOM      4  C   UNL A   1      33.269  27.816  24.567  1.00  0.00     0.231 C 
ATOM      5  O   UNL A   1      33.941  26.787  24.637  1.00  0.00    -0.274 OA
ATOM      6  H   UNL A   1      33.289  28.081  26.542  1.00  0.00     0.163 HD
BRANCH   4   7
ATOM      7  C   UNL A   1      32.977  28.499  23.246  1.00  0.00     0.158 C 
ATOM      8  C   UNL A   1      31.479  28.514  22.904  1.00  0.00     0.215 C 
ATOM      9  C   UNL A   1      31.245  27.184  22.155  1.00  0.00     0.188 C 
ATOM     10  N   UNL A   1      32.558  26.725  21.751  1.00  0.00    -0.301 N 
ATOM     11  C   UNL A   1      33.601  27.649  22.147  1.00  0.00     0.143 C 
BRANCH   8  12
ATOM     12  N   UNL A   1      31.166  29.679  22.048  1.00  0.00    -0.353 N 
ATOM     13  H   UNL A   1      31.981  30.289  21.992  1.00  0.00     0.344 HD
ATOM     14  H   UNL A   1      30.382  30.194  22.449  1.00  0.00     0.344 HD
ATOM     15  H   UNL A   1      30.918  29.356  21.112  1.00  0.00     0.344 HD
ENDBRANCH   8  12
BRANCH  10  16
ATOM     16  C   UNL A   1      32.822  25.469  21.275  1.00  0.00     0.410 C 
ATOM     17  O   UNL A   1      32.991  25.218  20.092  1.00  0.00    -0.224 OA
BRANCH  16  18
ATOM     18  O   UNL A   1      32.741  24.534  22.263  1.00  0.00    -0.448 OA
BRANCH  18  19
ATOM     19  C   UNL A   1      33.500  23.329  22.037  1.00  0.00     0.248 C 
BRANCH  19  20
ATOM     20  C   UNL A   1      33.703  22.514  23.335  1.00  0.00     0.088 C 
ATOM     21  C   UNL A   1      35.034  22.780  24.041  1.00  0.00    -0.029 A 
ATOM     22  C   UNL A   1      32.710  22.955  24.414  1.00  0.00    -0.029 A 
ATOM     23  C   UNL A   1      36.319  22.454  23.633  1.00  0.00     0.005 A 
ATOM     24  C   UNL A   1      34.819  23.446  25.264  1.00  0.00    -0.014 A 
ATOM     25  C   UNL A   1      33.398  23.512  25.515  1.00  0.00    -0.014 A 
ATOM     26  C   UNL A   1      31.327  22.846  24.415  1.00  0.00     0.005 A 
ATOM     27  C   UNL A   1      37.398  22.924  24.384  1.00  0.00     0.000 A 
ATOM     28  C   UNL A   1      35.888  23.898  26.023  1.00  0.00     0.009 A 
ATOM     29  C   UNL A   1      32.706  23.959  26.629  1.00  0.00     0.009 A 
ATOM     30  C   UNL A   1      30.631  23.297  25.540  1.00  0.00     0.000 A 
ATOM     31  C   UNL A   1      37.185  23.656  25.560  1.00  0.00     0.001 A 
ATOM     32  C   UNL A   1      31.313  23.847  26.637  1.00  0.00     0.001 A 
ENDBRANCH  19  20
ENDBRANCH  18  19
ENDBRANCH  16  18
ENDBRANCH  10  16
ENDBRANCH   4   7
ENDBRANCH   2   3
ENDBRANCH   1   2
BRANCH   1  33
ATOM     33  C   UNL A   1      31.854  31.753  26.985  1.00  0.00     0.023 C 
BRANCH  33  34
ATOM     34  C   UNL A   1      33.052  32.672  27.196  1.00  0.00     0.116 C 
BRANCH  34  35
ATOM     35  N   UNL A   1      32.668  34.004  27.639  1.00  0.00    -0.352 N 
ATOM     36  C   UNL A   1      33.137  34.727  28.711  1.00  0.00     0.251 C 
ATOM     37  H   UNL A   1      31.976  34.448  27.098  1.00  0.00     0.163 HD
ATOM     38  O   UNL A   1      32.586  35.777  29.026  1.00  0.00    -0.269 OA
BRANCH  36  39
ATOM     39  C   UNL A   1      34.286  34.222  29.493  1.00  0.00     0.039 A 
ATOM     40  C   UNL A   1      34.045  33.370  30.575  1.00  0.00     0.014 A 
ATOM     41  C   UNL A   1      35.595  34.573  29.155  1.00  0.00     0.014 A 
ATOM     42  C   UNL A   1      35.121  32.824  31.278  1.00  0.00     0.010 A 
ATOM     43  C   UNL A   1      36.665  33.962  29.802  1.00  0.00     0.010 A 
ATOM     44  C   UNL A   1      36.441  33.089  30.876  1.00  0.00    -0.014 A 
BRANCH  44  45
ATOM     45  C   UNL A   1      37.598  32.460  31.567  1.00  0.00     0.031 A 
ATOM     46  C   UNL A   1      38.337  31.317  30.924  1.00  0.00     0.074 A 
ATOM     47  C   UNL A   1      37.936  32.864  32.808  1.00  0.00     0.049 A 
ATOM     48  N   UNL A   1      39.334  30.612  31.391  1.00  0.00    -0.248 NA
ATOM     49  C   UNL A   1      37.876  30.891  29.592  1.00  0.00     0.031 C 
ATOM     50  C   UNL A   1      37.254  33.909  33.573  1.00  0.00     0.029 A 
ATOM     51  N   UNL A   1      38.923  32.424  33.656  1.00  0.00    -0.354 N 
ATOM     52  C   UNL A   1      39.597  29.640  30.433  1.00  0.00     0.074 A 
ATOM     53  C   UNL A   1      38.628  29.821  29.374  1.00  0.00     0.031 C 
ATOM     54  C   UNL A   1      37.846  34.036  34.771  1.00  0.00     0.029 A 
ATOM     55  C   UNL A   1      38.924  33.057  34.878  1.00  0.00     0.049 A 
ATOM     56  H   UNL A   1      39.569  31.722  33.413  1.00  0.00     0.167 HD
ATOM     57  C   UNL A   1      40.572  28.700  30.418  1.00  0.00     0.034 A 
ATOM     58  C   UNL A   1      39.695  32.864  35.965  1.00  0.00     0.034 A 
ATOM     59  C   UNL A   1      41.551  28.540  31.460  1.00  0.00     0.049 A 
ATOM     60  C   UNL A   1      40.785  31.829  35.917  1.00  0.00     0.074 A 
ATOM     61  C   UNL A   1      42.628  27.673  31.500  1.00  0.00     0.029 A 
ATOM     62  N   UNL A   1      41.563  29.248  32.650  1.00  0.00    -0.354 N 
ATOM     63  N   UNL A   1      41.115  31.021  34.937  1.00  0.00    -0.248 NA
ATOM     64  C   UNL A   1      41.635  31.702  37.110  1.00  0.00     0.031 C 
ATOM     65  C   UNL A   1      43.268  27.829  32.734  1.00  0.00     0.029 A 
ATOM     66  C   UNL A   1      42.619  28.828  33.441  1.00  0.00     0.049 A 
ATOM     67  H   UNL A   1      40.916  29.947  32.899  1.00  0.00     0.167 HD
ATOM     68  C   UNL A   1      42.231  30.321  35.379  1.00  0.00     0.074 A 
ATOM     69  C   UNL A   1      42.532  30.812  36.709  1.00  0.00     0.031 C 
ATOM     70  C   UNL A   1      42.939  29.354  34.744  1.00  0.00     0.034 A 
BRANCH  57  71
ATOM     71  C   UNL A   1      40.645  27.790  29.217  1.00  0.00     0.023 A 
ATOM     72  C   UNL A   1      39.798  26.667  29.135  1.00  0.00     0.012 A 
ATOM     73  C   UNL A   1      41.522  28.071  28.150  1.00  0.00     0.148 A 
ATOM     74  C   UNL A   1      39.853  25.811  28.036  1.00  0.00     0.002 A 
ATOM     75  C   UNL A   1      41.534  27.243  27.034  1.00  0.00     0.091 A 
ATOM     76  F   UNL A   1      42.334  29.133  28.251  1.00  0.00    -0.205 F 
ATOM     77  C   UNL A   1      40.713  26.105  26.982  1.00  0.00     0.022 A 
BRANCH  75  78
ATOM     78  S   UNL A   1      42.544  27.582  25.588  1.00  0.00     0.127 S 
ATOM     79  O   UNL A   1      41.991  28.858  25.135  1.00  0.00    -0.237 OA
ATOM     80  O   UNL A   1      43.885  27.670  26.165  1.00  0.00    -0.237 OA
ATOM     81  O   UNL A   1      42.343  26.459  24.684  1.00  0.00    -0.744 OA
ENDBRANCH  75  78
ENDBRANCH  57  71
BRANCH  58  82
ATOM     82  C   UNL A   1      39.496  33.710  37.177  1.00  0.00     0.023 A 
ATOM     83  C   UNL A   1      40.004  35.024  37.198  1.00  0.00     0.012 A 
ATOM     84  C   UNL A   1      38.785  33.229  38.293  1.00  0.00     0.148 A 
ATOM     85  C   UNL A   1      39.837  35.832  38.323  1.00  0.00     0.002 A 
ATOM     86  C   UNL A   1      38.572  34.060  39.387  1.00  0.00     0.091 A 
ATOM     87  F   UNL A   1      38.316  31.976  38.253  1.00  0.00    -0.205 F 
ATOM     88  C   UNL A   1      39.113  35.355  39.412  1.00  0.00     0.022 A 
BRANCH  86  89
ATOM     89  S   UNL A   1      37.544  33.579  40.779  1.00  0.00     0.127 S 
ATOM     90  O   UNL A   1      36.411  32.946  40.109  1.00  0.00    -0.237 OA
ATOM     91  O   UNL A   1      38.429  32.659  41.497  1.00  0.00    -0.237 OA
ATOM     92  O   UNL A   1      37.246  34.810  41.496  1.00  0.00    -0.744 OA
ENDBRANCH  86  89
ENDBRANCH  58  82
BRANCH  70  93
ATOM     93  C   UNL A   1      44.145  28.789  35.450  1.00  0.00     0.023 A 
ATOM     94  C   UNL A   1      45.418  29.353  35.244  1.00  0.00     0.012 A 
ATOM     95  C   UNL A   1      43.997  27.737  36.378  1.00  0.00     0.148 A 
ATOM     96  C   UNL A   1      46.532  28.854  35.919  1.00  0.00     0.002 A 
ATOM     97  C   UNL A   1      45.101  27.284  37.089  1.00  0.00     0.091 A 
ATOM     98  F   UNL A   1      42.779  27.201  36.548  1.00  0.00    -0.205 F 
ATOM     99  C   UNL A   1      46.372  27.830  36.850  1.00  0.00     0.022 A 
BRANCH  97 100
ATOM    100  S   UNL A   1      44.973  26.039  38.377  1.00  0.00     0.127 S 
ATOM    101  O   UNL A   1      46.330  26.034  38.922  1.00  0.00    -0.237 OA
ATOM    102  O   UNL A   1      43.962  26.616  39.264  1.00  0.00    -0.237 OA
ATOM    103  O   UNL A   1      44.564  24.809  37.711  1.00  0.00    -0.744 OA
ENDBRANCH  97 100
ENDBRANCH  70  93
ENDBRANCH  44  45
ENDBRANCH  36  39
ENDBRANCH  34  35
ENDBRANCH  33  34
ENDBRANCH   1  33
TORSDOF 19
ENDMDL
MODEL 3
REMARK VINA RESULT:     -12.6      5.721     11.818
REMARK SMILES [NH3+][C@H]1CN(C(=O)OCC2c3ccccc3-c3ccccc32)C[C@@H]1C(=O)NCCCCNC(=O)c1ccc(-c2c3nc(c(-c4cccc(S(=O)(=O)[O-])c4F)c4ccc([nH]4)c(-c4cccc(S(=O)(=O)[O-])c4F)c4nc(c(-c5cccc(S(=O)(=O)[O-])c5F)c5ccc2[nH]5)C=C4)C=C3)cc1
REMARK SMILES IDX 28 1 27 2 26 3 24 4 25 5 23 7 2 8 3 9 4 10 22 11 1 12 5 16
REMARK SMILES IDX 6 17 7 18 8 19 9 20 10 21 21 22 11 23 15 24 16 25 20 26
REMARK SMILES IDX 12 27 14 28 17 29 19 30 13 31 18 32 29 33 30 34 31 35 32 36
REMARK SMILES IDX 33 38 34 39 35 40 96 41 36 42 95 43 37 44 38 45 39 46 89 47
REMARK SMILES IDX 40 48 94 49 88 50 90 51 41 52 93 53 87 54 86 55 42 57 74 58
REMARK SMILES IDX 54 59 73 60 55 61 58 62 72 63 91 64 56 65 57 66 71 68 92 69
REMARK SMILES IDX 59 70 43 71 44 72 52 73 45 74 47 75 53 76 46 77 48 78 49 79
REMARK SMILES IDX 50 80 51 81 75 82 76 83 84 84 77 85 79 86 85 87 78 88 80 89
REMARK SMILES IDX 81 90 82 91 83 92 60 93 61 94 69 95 62 96 64 97 70 98 63 99
REMARK SMILES IDX 65 100 66 101 67 102 68 103
REMARK H PARENT 26 6 1 13 1 14 1 15 31 37 90 56 58 67
REMARK Flexibility Score: inf
ROOT
ATOM      1  C   UNL A   1      37.444  21.305  24.569  1.00  0.00     0.023 C 
ENDROOT
BRANCH   1   2
ATOM      2  C   UNL A   1      37.040  22.315  25.645  1.00  0.00     0.116 C 
BRANCH   2   3
ATOM      3  N   UNL A   1      35.985  23.186  25.157  1.00  0.00    -0.356 N 
ATOM      4  C   UNL A   1      34.630  23.030  25.213  1.00  0.00     0.231 C 
ATOM      5  O   UNL A   1      33.926  23.742  24.497  1.00  0.00    -0.274 OA
ATOM      6  H   UNL A   1      36.293  24.013  24.720  1.00  0.00     0.163 HD
BRANCH   4   7
ATOM      7  C   UNL A   1      34.039  22.053  26.208  1.00  0.00     0.158 C 
ATOM      8  C   UNL A   1      33.157  20.986  25.540  1.00  0.00     0.215 C 
ATOM      9  C   UNL A   1      31.754  21.628  25.487  1.00  0.00     0.188 C 
ATOM     10  N   UNL A   1      31.792  22.729  26.427  1.00  0.00    -0.301 N 
ATOM     11  C   UNL A   1      33.074  22.831  27.092  1.00  0.00     0.143 C 
BRANCH   8  12
ATOM     12  N   UNL A   1      33.156  19.749  26.351  1.00  0.00    -0.353 N 
ATOM     13  H   UNL A   1      33.847  19.098  25.979  1.00  0.00     0.344 HD
ATOM     14  H   UNL A   1      32.231  19.321  26.316  1.00  0.00     0.344 HD
ATOM     15  H   UNL A   1      33.389  19.976  27.318  1.00  0.00     0.344 HD
ENDBRANCH   8  12
BRANCH  10  16
ATOM     16  C   UNL A   1      30.834  23.704  26.509  1.00  0.00     0.410 C 
ATOM     17  O   UNL A   1      29.901  23.669  27.295  1.00  0.00    -0.224 OA
BRANCH  16  18
ATOM     18  O   UNL A   1      30.984  24.635  25.525  1.00  0.00    -0.448 OA
BRANCH  18  19
ATOM     19  C   UNL A   1      30.942  26.008  25.962  1.00  0.00     0.248 C 
BRANCH  19  20
ATOM     20  C   UNL A   1      31.717  26.948  25.009  1.00  0.00     0.088 C 
ATOM     21  C   UNL A   1      30.826  27.881  24.186  1.00  0.00    -0.029 A 
ATOM     22  C   UNL A   1      32.544  27.964  25.803  1.00  0.00    -0.029 A 
ATOM     23  C   UNL A   1      29.944  27.567  23.163  1.00  0.00     0.005 A 
ATOM     24  C   UNL A   1      30.999  29.218  24.597  1.00  0.00    -0.014 A 
ATOM     25  C   UNL A   1      32.082  29.275  25.552  1.00  0.00    -0.014 A 
ATOM     26  C   UNL A   1      33.618  27.734  26.649  1.00  0.00     0.005 A 
ATOM     27  C   UNL A   1      29.131  28.578  22.647  1.00  0.00     0.000 A 
ATOM     28  C   UNL A   1      30.207  30.228  24.074  1.00  0.00     0.009 A 
ATOM     29  C   UNL A   1      32.697  30.367  26.142  1.00  0.00     0.009 A 
ATOM     30  C   UNL A   1      34.237  28.836  27.244  1.00  0.00     0.000 A 
ATOM     31  C   UNL A   1      29.249  29.895  23.112  1.00  0.00     0.001 A 
ATOM     32  C   UNL A   1      33.783  30.141  26.992  1.00  0.00     0.001 A 
ENDBRANCH  19  20
ENDBRANCH  18  19
ENDBRANCH  16  18
ENDBRANCH  10  16
ENDBRANCH   4   7
ENDBRANCH   2   3
ENDBRANCH   1   2
BRANCH   1  33
ATOM     33  C   UNL A   1      38.167  20.067  25.111  1.00  0.00     0.023 C 
BRANCH  33  34
ATOM     34  C   UNL A   1      39.350  20.361  26.027  1.00  0.00     0.116 C 
BRANCH  34  35
ATOM     35  N   UNL A   1      40.339  19.294  26.028  1.00  0.00    -0.352 N 
ATOM     36  C   UNL A   1      41.708  19.384  26.122  1.00  0.00     0.251 C 
ATOM     37  H   UNL A   1      39.979  18.381  25.948  1.00  0.00     0.163 HD
ATOM     38  O   UNL A   1      42.399  18.385  25.950  1.00  0.00    -0.269 OA
BRANCH  36  39
ATOM     39  C   UNL A   1      42.341  20.690  26.405  1.00  0.00     0.039 A 
ATOM     40  C   UNL A   1      42.676  21.525  25.336  1.00  0.00     0.014 A 
ATOM     41  C   UNL A   1      42.591  21.098  27.719  1.00  0.00     0.014 A 
ATOM     42  C   UNL A   1      43.205  22.793  25.587  1.00  0.00     0.010 A 
ATOM     43  C   UNL A   1      43.038  22.392  27.968  1.00  0.00     0.010 A 
ATOM     44  C   UNL A   1      43.360  23.250  26.907  1.00  0.00    -0.014 A 
BRANCH  44  45
ATOM     45  C   UNL A   1      43.854  24.623  27.193  1.00  0.00     0.031 A 
ATOM     46  C   UNL A   1      42.910  25.678  27.708  1.00  0.00     0.074 A 
ATOM     47  C   UNL A   1      45.133  24.945  26.917  1.00  0.00     0.049 A 
ATOM     48  N   UNL A   1      43.144  26.938  27.968  1.00  0.00    -0.248 NA
ATOM     49  C   UNL A   1      41.514  25.270  27.932  1.00  0.00     0.031 C 
ATOM     50  C   UNL A   1      46.130  24.037  26.346  1.00  0.00     0.029 A 
ATOM     51  N   UNL A   1      45.809  26.133  27.055  1.00  0.00    -0.354 N 
ATOM     52  C   UNL A   1      41.924  27.482  28.351  1.00  0.00     0.074 A 
ATOM     53  C   UNL A   1      40.943  26.424  28.250  1.00  0.00     0.031 C 
ATOM     54  C   UNL A   1      47.288  24.696  26.189  1.00  0.00     0.029 A 
ATOM     55  C   UNL A   1      47.111  26.082  26.612  1.00  0.00     0.049 A 
ATOM     56  H   UNL A   1      45.400  26.944  27.435  1.00  0.00     0.167 HD
ATOM     57  C   UNL A   1      41.646  28.738  28.774  1.00  0.00     0.034 A 
ATOM     58  C   UNL A   1      48.051  27.044  26.541  1.00  0.00     0.034 A 
ATOM     59  C   UNL A   1      42.629  29.781  28.898  1.00  0.00     0.049 A 
ATOM     60  C   UNL A   1      47.726  28.426  27.037  1.00  0.00     0.074 A 
ATOM     61  C   UNL A   1      42.465  31.061  29.395  1.00  0.00     0.029 A 
ATOM     62  N   UNL A   1      43.954  29.671  28.507  1.00  0.00    -0.354 N 
ATOM     63  N   UNL A   1      46.602  28.880  27.540  1.00  0.00    -0.248 NA
ATOM     64  C   UNL A   1      48.807  29.421  26.992  1.00  0.00     0.031 C 
ATOM     65  C   UNL A   1      43.681  31.739  29.266  1.00  0.00     0.029 A 
ATOM     66  C   UNL A   1      44.616  30.865  28.736  1.00  0.00     0.049 A 
ATOM     67  H   UNL A   1      44.364  28.863  28.123  1.00  0.00     0.167 HD
ATOM     68  C   UNL A   1      46.853  30.197  27.906  1.00  0.00     0.074 A 
ATOM     69  C   UNL A   1      48.240  30.463  27.584  1.00  0.00     0.031 C 
ATOM     70  C   UNL A   1      46.008  31.106  28.454  1.00  0.00     0.034 A 
BRANCH  57  71
ATOM     71  C   UNL A   1      40.222  29.043  29.165  1.00  0.00     0.023 A 
ATOM     72  C   UNL A   1      39.275  29.369  28.173  1.00  0.00     0.012 A 
ATOM     73  C   UNL A   1      39.810  28.964  30.511  1.00  0.00     0.148 A 
ATOM     74  C   UNL A   1      37.955  29.660  28.514  1.00  0.00     0.002 A 
ATOM     75  C   UNL A   1      38.480  29.203  30.838  1.00  0.00     0.091 A 
ATOM     76  F   UNL A   1      40.725  28.670  31.445  1.00  0.00    -0.205 F 
ATOM     77  C   UNL A   1      37.556  29.566  29.844  1.00  0.00     0.022 A 
BRANCH  75  78
ATOM     78  S   UNL A   1      37.846  29.025  32.509  1.00  0.00     0.127 S 
ATOM     79  O   UNL A   1      36.466  29.481  32.350  1.00  0.00    -0.237 OA
ATOM     80  O   UNL A   1      37.991  27.588  32.739  1.00  0.00    -0.237 OA
ATOM     81  O   UNL A   1      38.688  29.863  33.350  1.00  0.00    -0.744 OA
ENDBRANCH  75  78
ENDBRANCH  57  71
BRANCH  58  82
ATOM     82  C   UNL A   1      49.412  26.717  26.025  1.00  0.00     0.023 A 
ATOM     83  C   UNL A   1      50.282  25.935  26.810  1.00  0.00     0.012 A 
ATOM     84  C   UNL A   1      49.834  27.152  24.755  1.00  0.00     0.148 A 
ATOM     85  C   UNL A   1      51.563  25.622  26.352  1.00  0.00     0.002 A 
ATOM     86  C   UNL A   1      51.089  26.787  24.281  1.00  0.00     0.091 A 
ATOM     87  F   UNL A   1      48.992  27.899  24.028  1.00  0.00    -0.205 F 
ATOM     88  C   UNL A   1      51.962  26.039  25.086  1.00  0.00     0.022 A 
BRANCH  86  89
ATOM     89  S   UNL A   1      51.639  27.168  22.615  1.00  0.00     0.127 S 
ATOM     90  O   UNL A   1      51.978  28.585  22.727  1.00  0.00    -0.237 OA
ATOM     91  O   UNL A   1      52.786  26.269  22.468  1.00  0.00    -0.237 OA
ATOM     92  O   UNL A   1      50.514  26.855  21.744  1.00  0.00    -0.744 OA
ENDBRANCH  86  89
ENDBRANCH  58  82
BRANCH  70  93
ATOM     93  C   UNL A   1      46.565  32.466  28.792  1.00  0.00     0.023 A 
ATOM     94  C   UNL A   1      47.149  32.702  30.052  1.00  0.00     0.012 A 
ATOM     95  C   UNL A   1      46.570  33.492  27.825  1.00  0.00     0.148 A 
ATOM     96  C   UNL A   1      47.694  33.948  30.358  1.00  0.00     0.002 A 
ATOM     97  C   UNL A   1      47.165  34.713  28.118  1.00  0.00     0.091 A 
ATOM     98  F   UNL A   1      45.994  33.255  26.638  1.00  0.00    -0.205 F 
ATOM     99  C   UNL A   1      47.714  34.948  29.389  1.00  0.00     0.022 A 
BRANCH  97 100
ATOM    100  S   UNL A   1      47.327  36.023  26.900  1.00  0.00     0.127 S 
ATOM    101  O   UNL A   1      48.123  37.010  27.628  1.00  0.00    -0.237 OA
ATOM    102  O   UNL A   1      48.038  35.349  25.813  1.00  0.00    -0.237 OA
ATOM    103  O   UNL A   1      45.970  36.438  26.571  1.00  0.00    -0.744 OA
ENDBRANCH  97 100
ENDBRANCH  70  93
ENDBRANCH  44  45
ENDBRANCH  36  39
ENDBRANCH  34  35
ENDBRANCH  33  34
ENDBRANCH   1  33
TORSDOF 19
ENDMDL
