MODEL 1
REMARK VINA RESULT:     -11.5      0.000      0.000
REMARK SMILES CN(CC(N)=O)S(=O)(=O)c1ccc(C(=O)NCCCCNC(=O)c2ccc(-c3c4nc(c(-c5cccc(S(=O)(=O)[O-])c5F)c5ccc([nH]5)c(-c5cccc(S(=O)(=O)[O-])c5F)c5nc(c(-c6cccc(S(=O)(=O)[O-])c6F)c6ccc3[nH]6)C=C5)C=C4)cc2)cc1Br
REMARK SMILES IDX 18 1 17 2 16 3 14 4 15 5 13 7 10 8 11 9 88 10 12 11 87 12
REMARK SMILES IDX 89 13 7 14 8 15 9 16 2 17 1 18 3 19 4 20 5 21 6 22 19 25
REMARK SMILES IDX 20 26 21 27 22 28 23 30 24 31 25 32 86 33 26 34 85 35 27 36
REMARK SMILES IDX 28 37 29 38 79 39 30 40 84 41 78 42 80 43 31 44 83 45 77 46
REMARK SMILES IDX 76 47 32 49 64 50 44 51 63 52 45 53 48 54 62 55 81 56 46 57
REMARK SMILES IDX 47 58 61 60 82 61 49 62 33 63 34 64 42 65 35 66 37 67 43 68
REMARK SMILES IDX 36 69 38 70 39 71 40 72 41 73 65 74 66 75 74 76 67 77 69 78
REMARK SMILES IDX 75 79 68 80 70 81 71 82 72 83 73 84 50 85 51 86 59 87 52 88
REMARK SMILES IDX 54 89 60 90 53 91 55 92 56 93 57 94 58 95
REMARK H PARENT 16 6 5 23 5 24 21 29 80 48 48 59
REMARK Flexibility Score: inf
ROOT
ATOM      1  C   UNL A   1      36.237  20.668  24.856  1.00  0.00     0.023 C 
ENDROOT
BRANCH   1   2
ATOM      2  C   UNL A   1      34.732  20.460  25.045  1.00  0.00     0.116 C 
BRANCH   2   3
ATOM      3  N   UNL A   1      34.301  20.839  26.376  1.00  0.00    -0.352 N 
ATOM      4  C   UNL A   1      33.688  21.959  26.877  1.00  0.00     0.251 C 
ATOM      5  O   UNL A   1      33.343  21.934  28.060  1.00  0.00    -0.269 OA
ATOM      6  H   UNL A   1      34.486  20.154  27.058  1.00  0.00     0.163 HD
BRANCH   4   7
ATOM      7  C   UNL A   1      33.389  23.190  26.082  1.00  0.00     0.041 A 
ATOM      8  C   UNL A   1      33.030  25.564  24.576  1.00  0.00     0.096 A 
ATOM      9  C   UNL A   1      34.131  25.420  25.434  1.00  0.00     0.024 A 
ATOM     10  C   UNL A   1      32.123  24.513  24.450  1.00  0.00     0.038 A 
ATOM     11  C   UNL A   1      34.301  24.251  26.182  1.00  0.00     0.015 A 
ATOM     12  C   UNL A   1      32.323  23.335  25.194  1.00  0.00     0.031 A 
ATOM     13  Br  UNL A   1      30.605  24.478  23.311  1.00  0.00    -0.049 Br
BRANCH   8  14
ATOM     14  S   UNL A   1      32.920  27.089  23.672  1.00  0.00     0.244 S 
ATOM     15  O   UNL A   1      32.698  26.847  22.273  1.00  0.00    -0.207 OA
ATOM     16  O   UNL A   1      34.033  27.908  24.121  1.00  0.00    -0.207 OA
BRANCH  14  17
ATOM     17  N   UNL A   1      31.484  27.808  24.275  1.00  0.00    -0.192 NA
ATOM     18  C   UNL A   1      31.424  27.762  25.760  1.00  0.00     0.125 C 
BRANCH  17  19
ATOM     19  C   UNL A   1      31.150  29.161  23.749  1.00  0.00     0.201 C 
BRANCH  19  20
ATOM     20  C   UNL A   1      30.343  29.211  22.463  1.00  0.00     0.232 C 
ATOM     21  N   UNL A   1      30.793  30.079  21.509  1.00  0.00    -0.369 N 
ATOM     22  O   UNL A   1      29.359  28.505  22.258  1.00  0.00    -0.274 OA
ATOM     23  H   UNL A   1      31.582  30.639  21.686  1.00  0.00     0.159 HD
ATOM     24  H   UNL A   1      30.326  30.145  20.645  1.00  0.00     0.159 HD
ENDBRANCH  19  20
ENDBRANCH  17  19
ENDBRANCH  14  17
ENDBRANCH   8  14
ENDBRANCH   4   7
ENDBRANCH   2   3
ENDBRANCH   1   2
BRANCH   1  25
ATOM     25  C   UNL A   1      36.641  22.073  24.402  1.00  0.00     0.023 C 
BRANCH  25  26
ATOM     26  C   UNL A   1      37.504  22.848  25.390  1.00  0.00     0.116 C 
BRANCH  26  27
ATOM     27  N   UNL A   1      38.560  22.048  25.999  1.00  0.00    -0.352 N 
ATOM     28  C   UNL A   1      39.619  22.498  26.755  1.00  0.00     0.251 C 
ATOM     29  H   UNL A   1      38.511  21.076  25.853  1.00  0.00     0.163 HD
ATOM     30  O   UNL A   1      40.487  21.725  27.145  1.00  0.00    -0.269 OA
BRANCH  28  31
ATOM     31  C   UNL A   1      39.711  23.943  27.042  1.00  0.00     0.039 A 
ATOM     32  C   UNL A   1      39.397  24.401  28.324  1.00  0.00     0.014 A 
ATOM     33  C   UNL A   1      40.203  24.817  26.071  1.00  0.00     0.014 A 
ATOM     34  C   UNL A   1      39.658  25.731  28.661  1.00  0.00     0.010 A 
ATOM     35  C   UNL A   1      40.519  26.122  26.426  1.00  0.00     0.010 A 
ATOM     36  C   UNL A   1      40.262  26.588  27.726  1.00  0.00    -0.014 A 
BRANCH  36  37
ATOM     37  C   UNL A   1      40.665  27.974  28.074  1.00  0.00     0.031 A 
ATOM     38  C   UNL A   1      42.120  28.343  28.088  1.00  0.00     0.074 A 
ATOM     39  C   UNL A   1      39.737  28.847  28.514  1.00  0.00     0.049 A 
ATOM     40  N   UNL A   1      42.692  29.432  28.526  1.00  0.00    -0.248 NA
ATOM     41  C   UNL A   1      43.063  27.334  27.573  1.00  0.00     0.031 C 
ATOM     42  C   UNL A   1      38.301  28.580  28.616  1.00  0.00     0.029 A 
ATOM     43  N   UNL A   1      39.870  30.124  29.000  1.00  0.00    -0.354 N 
ATOM     44  C   UNL A   1      44.058  29.224  28.390  1.00  0.00     0.074 A 
ATOM     45  C   UNL A   1      44.233  27.895  27.846  1.00  0.00     0.031 C 
ATOM     46  C   UNL A   1      37.689  29.654  29.141  1.00  0.00     0.029 A 
ATOM     47  C   UNL A   1      38.689  30.673  29.442  1.00  0.00     0.049 A 
ATOM     48  H   UNL A   1      40.731  30.603  29.028  1.00  0.00     0.167 HD
ATOM     49  C   UNL A   1      45.075  30.072  28.670  1.00  0.00     0.034 A 
ATOM     50  C   UNL A   1      38.442  31.857  30.037  1.00  0.00     0.034 A 
ATOM     51  C   UNL A   1      44.892  31.415  29.148  1.00  0.00     0.049 A 
ATOM     52  C   UNL A   1      39.585  32.808  30.273  1.00  0.00     0.074 A 
ATOM     53  C   UNL A   1      45.852  32.383  29.379  1.00  0.00     0.029 A 
ATOM     54  N   UNL A   1      43.667  31.982  29.461  1.00  0.00    -0.354 N 
ATOM     55  N   UNL A   1      40.858  32.647  30.005  1.00  0.00    -0.248 NA
ATOM     56  C   UNL A   1      39.256  34.116  30.859  1.00  0.00     0.031 C 
ATOM     57  C   UNL A   1      45.206  33.538  29.833  1.00  0.00     0.029 A 
ATOM     58  C   UNL A   1      43.843  33.289  29.874  1.00  0.00     0.049 A 
ATOM     59  H   UNL A   1      42.798  31.521  29.397  1.00  0.00     0.167 HD
ATOM     60  C   UNL A   1      41.474  33.845  30.348  1.00  0.00     0.074 A 
ATOM     61  C   UNL A   1      40.433  34.727  30.834  1.00  0.00     0.031 C 
ATOM     62  C   UNL A   1      42.786  34.179  30.279  1.00  0.00     0.034 A 
BRANCH  49  63
ATOM     63  C   UNL A   1      46.477  29.594  28.403  1.00  0.00     0.023 A 
ATOM     64  C   UNL A   1      47.086  29.902  27.169  1.00  0.00     0.012 A 
ATOM     65  C   UNL A   1      47.207  28.895  29.382  1.00  0.00     0.148 A 
ATOM     66  C   UNL A   1      48.391  29.490  26.902  1.00  0.00     0.002 A 
ATOM     67  C   UNL A   1      48.522  28.523  29.123  1.00  0.00     0.091 A 
ATOM     68  F   UNL A   1      46.601  28.589  30.538  1.00  0.00    -0.205 F 
ATOM     69  C   UNL A   1      49.111  28.811  27.880  1.00  0.00     0.022 A 
BRANCH  67  70
ATOM     70  S   UNL A   1      49.552  27.711  30.349  1.00  0.00     0.127 S 
ATOM     71  O   UNL A   1      50.861  27.732  29.697  1.00  0.00    -0.237 OA
ATOM     72  O   UNL A   1      49.431  28.605  31.500  1.00  0.00    -0.237 OA
ATOM     73  O   UNL A   1      48.969  26.391  30.546  1.00  0.00    -0.744 OA
ENDBRANCH  67  70
ENDBRANCH  49  63
BRANCH  50  74
ATOM     74  C   UNL A   1      37.043  32.241  30.377  1.00  0.00     0.023 A 
ATOM     75  C   UNL A   1      36.566  32.005  31.682  1.00  0.00     0.012 A 
ATOM     76  C   UNL A   1      36.199  32.869  29.441  1.00  0.00     0.148 A 
ATOM     77  C   UNL A   1      35.266  32.361  32.040  1.00  0.00     0.002 A 
ATOM     78  C   UNL A   1      34.921  33.268  29.820  1.00  0.00     0.091 A 
ATOM     79  F   UNL A   1      36.665  33.073  28.201  1.00  0.00    -0.205 F 
ATOM     80  C   UNL A   1      34.447  33.001  31.114  1.00  0.00     0.022 A 
BRANCH  78  81
ATOM     81  S   UNL A   1      33.851  34.215  28.730  1.00  0.00     0.127 S 
ATOM     82  O   UNL A   1      32.802  34.651  29.646  1.00  0.00    -0.237 OA
ATOM     83  O   UNL A   1      34.747  35.276  28.268  1.00  0.00    -0.237 OA
ATOM     84  O   UNL A   1      33.442  33.284  27.687  1.00  0.00    -0.744 OA
ENDBRANCH  78  81
ENDBRANCH  50  74
BRANCH  62  85
ATOM     85  C   UNL A   1      43.181  35.572  30.683  1.00  0.00     0.023 A 
ATOM     86  C   UNL A   1      43.573  35.830  32.011  1.00  0.00     0.012 A 
ATOM     87  C   UNL A   1      43.272  36.597  29.720  1.00  0.00     0.148 A 
ATOM     88  C   UNL A   1      44.038  37.092  32.378  1.00  0.00     0.002 A 
ATOM     89  C   UNL A   1      43.776  37.840  30.083  1.00  0.00     0.091 A 
ATOM     90  F   UNL A   1      42.873  36.334  28.467  1.00  0.00    -0.205 F 
ATOM     91  C   UNL A   1      44.152  38.092  31.412  1.00  0.00     0.022 A 
BRANCH  89  92
ATOM     92  S   UNL A   1      44.047  39.153  28.888  1.00  0.00     0.127 S 
ATOM     93  O   UNL A   1      42.684  39.431  28.437  1.00  0.00    -0.237 OA
ATOM     94  O   UNL A   1      44.643  40.206  29.711  1.00  0.00    -0.237 OA
ATOM     95  O   UNL A   1      44.939  38.599  27.879  1.00  0.00    -0.744 OA
ENDBRANCH  89  92
ENDBRANCH  62  85
ENDBRANCH  36  37
ENDBRANCH  28  31
ENDBRANCH  26  27
ENDBRANCH  25  26
ENDBRANCH   1  25
TORSDOF 18
ENDMDL
MODEL 2
REMARK VINA RESULT:     -11.2      2.730      3.366
REMARK SMILES CN(CC(N)=O)S(=O)(=O)c1ccc(C(=O)NCCCCNC(=O)c2ccc(-c3c4nc(c(-c5cccc(S(=O)(=O)[O-])c5F)c5ccc([nH]5)c(-c5cccc(S(=O)(=O)[O-])c5F)c5nc(c(-c6cccc(S(=O)(=O)[O-])c6F)c6ccc3[nH]6)C=C5)C=C4)cc2)cc1Br
REMARK SMILES IDX 18 1 17 2 16 3 14 4 15 5 13 7 10 8 11 9 88 10 12 11 87 12
REMARK SMILES IDX 89 13 7 14 8 15 9 16 2 17 1 18 3 19 4 20 5 21 6 22 19 25
REMARK SMILES IDX 20 26 21 27 22 28 23 30 24 31 25 32 86 33 26 34 85 35 27 36
REMARK SMILES IDX 28 37 29 38 79 39 30 40 84 41 78 42 80 43 31 44 83 45 77 46
REMARK SMILES IDX 76 47 32 49 64 50 44 51 63 52 45 53 48 54 62 55 81 56 46 57
REMARK SMILES IDX 47 58 61 60 82 61 49 62 33 63 34 64 42 65 35 66 37 67 43 68
REMARK SMILES IDX 36 69 38 70 39 71 40 72 41 73 65 74 66 75 74 76 67 77 69 78
REMARK SMILES IDX 75 79 68 80 70 81 71 82 72 83 73 84 50 85 51 86 59 87 52 88
REMARK SMILES IDX 54 89 60 90 53 91 55 92 56 93 57 94 58 95
REMARK H PARENT 16 6 5 23 5 24 21 29 80 48 48 59
REMARK Flexibility Score: inf
ROOT
ATOM      1  C   UNL A   1      34.068  20.945  25.863  1.00  0.00     0.023 C 
ENDROOT
BRANCH   1   2
ATOM      2  C   UNL A   1      34.057  21.673  27.211  1.00  0.00     0.116 C 
BRANCH   2   3
ATOM      3  N   UNL A   1      32.722  22.104  27.576  1.00  0.00    -0.352 N 
ATOM      4  C   UNL A   1      31.923  23.135  27.154  1.00  0.00     0.251 C 
ATOM      5  O   UNL A   1      30.770  23.172  27.585  1.00  0.00    -0.269 OA
ATOM      6  H   UNL A   1      32.303  21.541  28.268  1.00  0.00     0.163 HD
BRANCH   4   7
ATOM      7  C   UNL A   1      32.349  24.198  26.192  1.00  0.00     0.041 A 
ATOM      8  C   UNL A   1      33.047  26.111  24.220  1.00  0.00     0.096 A 
ATOM      9  C   UNL A   1      32.730  24.793  23.859  1.00  0.00     0.024 A 
ATOM     10  C   UNL A   1      32.991  26.481  25.563  1.00  0.00     0.038 A 
ATOM     11  C   UNL A   1      32.394  23.849  24.834  1.00  0.00     0.015 A 
ATOM     12  C   UNL A   1      32.629  25.523  26.529  1.00  0.00     0.031 A 
ATOM     13  Br  UNL A   1      33.325  28.215  26.260  1.00  0.00    -0.049 Br
BRANCH   8  14
ATOM     14  S   UNL A   1      33.453  27.224  22.897  1.00  0.00     0.244 S 
ATOM     15  O   UNL A   1      34.011  26.516  21.778  1.00  0.00    -0.207 OA
ATOM     16  O   UNL A   1      34.161  28.337  23.504  1.00  0.00    -0.207 OA
BRANCH  14  17
ATOM     17  N   UNL A   1      31.924  27.812  22.386  1.00  0.00    -0.192 NA
ATOM     18  C   UNL A   1      31.042  26.715  21.908  1.00  0.00     0.125 C 
BRANCH  17  19
ATOM     19  C   UNL A   1      31.215  28.721  23.330  1.00  0.00     0.201 C 
BRANCH  19  20
ATOM     20  C   UNL A   1      30.125  29.598  22.740  1.00  0.00     0.232 C 
ATOM     21  N   UNL A   1      30.440  30.240  21.576  1.00  0.00    -0.369 N 
ATOM     22  O   UNL A   1      29.011  29.719  23.244  1.00  0.00    -0.274 OA
ATOM     23  H   UNL A   1      31.335  30.135  21.182  1.00  0.00     0.159 HD
ATOM     24  H   UNL A   1      29.770  30.809  21.131  1.00  0.00     0.159 HD
ENDBRANCH  19  20
ENDBRANCH  17  19
ENDBRANCH  14  17
ENDBRANCH   8  14
ENDBRANCH   4   7
ENDBRANCH   2   3
ENDBRANCH   1   2
BRANCH   1  25
ATOM     25  C   UNL A   1      35.281  21.245  24.980  1.00  0.00     0.023 C 
BRANCH  25  26
ATOM     26  C   UNL A   1      36.538  21.666  25.731  1.00  0.00     0.116 C 
BRANCH  26  27
ATOM     27  N   UNL A   1      37.622  20.695  25.650  1.00  0.00    -0.352 N 
ATOM     28  C   UNL A   1      38.951  20.898  25.949  1.00  0.00     0.251 C 
ATOM     29  H   UNL A   1      37.377  19.791  25.347  1.00  0.00     0.163 HD
ATOM     30  O   UNL A   1      39.780  20.015  25.762  1.00  0.00    -0.269 OA
BRANCH  28  31
ATOM     31  C   UNL A   1      39.361  22.224  26.452  1.00  0.00     0.039 A 
ATOM     32  C   UNL A   1      40.427  22.308  27.352  1.00  0.00     0.014 A 
ATOM     33  C   UNL A   1      38.754  23.377  25.954  1.00  0.00     0.014 A 
ATOM     34  C   UNL A   1      40.943  23.561  27.689  1.00  0.00     0.010 A 
ATOM     35  C   UNL A   1      39.308  24.618  26.242  1.00  0.00     0.010 A 
ATOM     36  C   UNL A   1      40.414  24.721  27.101  1.00  0.00    -0.014 A 
BRANCH  36  37
ATOM     37  C   UNL A   1      41.005  26.063  27.337  1.00  0.00     0.031 A 
ATOM     38  C   UNL A   1      42.415  26.341  26.901  1.00  0.00     0.074 A 
ATOM     39  C   UNL A   1      40.325  26.971  28.066  1.00  0.00     0.049 A 
ATOM     40  N   UNL A   1      43.171  27.373  27.163  1.00  0.00    -0.248 NA
ATOM     41  C   UNL A   1      43.075  25.301  26.093  1.00  0.00     0.031 C 
ATOM     42  C   UNL A   1      38.977  26.788  28.607  1.00  0.00     0.029 A 
ATOM     43  N   UNL A   1      40.695  28.214  28.515  1.00  0.00    -0.354 N 
ATOM     44  C   UNL A   1      44.408  27.087  26.600  1.00  0.00     0.074 A 
ATOM     45  C   UNL A   1      44.308  25.776  25.998  1.00  0.00     0.031 C 
ATOM     46  C   UNL A   1      38.639  27.873  29.323  1.00  0.00     0.029 A 
ATOM     47  C   UNL A   1      39.753  28.814  29.319  1.00  0.00     0.049 A 
ATOM     48  H   UNL A   1      41.554  28.637  28.283  1.00  0.00     0.167 HD
ATOM     49  C   UNL A   1      45.520  27.859  26.567  1.00  0.00     0.034 A 
ATOM     50  C   UNL A   1      39.790  29.983  29.989  1.00  0.00     0.034 A 
ATOM     51  C   UNL A   1      45.592  29.187  27.109  1.00  0.00     0.049 A 
ATOM     52  C   UNL A   1      41.015  30.851  29.876  1.00  0.00     0.074 A 
ATOM     53  C   UNL A   1      46.644  30.084  27.049  1.00  0.00     0.029 A 
ATOM     54  N   UNL A   1      44.570  29.813  27.804  1.00  0.00    -0.354 N 
ATOM     55  N   UNL A   1      42.127  30.624  29.218  1.00  0.00    -0.248 NA
ATOM     56  C   UNL A   1      40.981  32.149  30.566  1.00  0.00     0.031 C 
ATOM     57  C   UNL A   1      46.256  31.254  27.710  1.00  0.00     0.029 A 
ATOM     58  C   UNL A   1      44.960  31.088  28.171  1.00  0.00     0.049 A 
ATOM     59  H   UNL A   1      43.694  29.410  28.006  1.00  0.00     0.167 HD
ATOM     60  C   UNL A   1      42.904  31.766  29.378  1.00  0.00     0.074 A 
ATOM     61  C   UNL A   1      42.132  32.687  30.187  1.00  0.00     0.031 C 
ATOM     62  C   UNL A   1      44.149  32.022  28.909  1.00  0.00     0.034 A 
BRANCH  49  63
ATOM     63  C   UNL A   1      46.730  27.308  25.862  1.00  0.00     0.023 A 
ATOM     64  C   UNL A   1      47.554  26.380  26.530  1.00  0.00     0.012 A 
ATOM     65  C   UNL A   1      47.023  27.663  24.532  1.00  0.00     0.148 A 
ATOM     66  C   UNL A   1      48.670  25.838  25.896  1.00  0.00     0.002 A 
ATOM     67  C   UNL A   1      48.115  27.087  23.892  1.00  0.00     0.091 A 
ATOM     68  F   UNL A   1      46.244  28.567  23.922  1.00  0.00    -0.205 F 
ATOM     69  C   UNL A   1      48.945  26.182  24.575  1.00  0.00     0.022 A 
BRANCH  67  70
ATOM     70  S   UNL A   1      48.504  27.414  22.169  1.00  0.00     0.127 S 
ATOM     71  O   UNL A   1      47.337  28.184  21.743  1.00  0.00    -0.237 OA
ATOM     72  O   UNL A   1      49.742  28.187  22.270  1.00  0.00    -0.237 OA
ATOM     73  O   UNL A   1      48.659  26.108  21.542  1.00  0.00    -0.744 OA
ENDBRANCH  67  70
ENDBRANCH  49  63
BRANCH  50  74
ATOM     74  C   UNL A   1      38.599  30.437  30.760  1.00  0.00     0.023 A 
ATOM     75  C   UNL A   1      38.517  30.135  32.134  1.00  0.00     0.012 A 
ATOM     76  C   UNL A   1      37.572  31.191  30.161  1.00  0.00     0.148 A 
ATOM     77  C   UNL A   1      37.422  30.552  32.890  1.00  0.00     0.002 A 
ATOM     78  C   UNL A   1      36.509  31.648  30.932  1.00  0.00     0.091 A 
ATOM     79  F   UNL A   1      37.660  31.457  28.849  1.00  0.00    -0.205 F 
ATOM     80  C   UNL A   1      36.423  31.317  32.293  1.00  0.00     0.022 A 
BRANCH  78  81
ATOM     81  S   UNL A   1      35.249  32.748  30.272  1.00  0.00     0.127 S 
ATOM     82  O   UNL A   1      34.681  31.941  29.197  1.00  0.00    -0.237 OA
ATOM     83  O   UNL A   1      34.374  32.939  31.429  1.00  0.00    -0.237 OA
ATOM     84  O   UNL A   1      35.964  33.949  29.860  1.00  0.00    -0.744 OA
ENDBRANCH  78  81
ENDBRANCH  50  74
BRANCH  62  85
ATOM     85  C   UNL A   1      44.750  33.369  29.201  1.00  0.00     0.023 A 
ATOM     86  C   UNL A   1      45.543  33.546  30.350  1.00  0.00     0.012 A 
ATOM     87  C   UNL A   1      44.622  34.424  28.275  1.00  0.00     0.148 A 
ATOM     88  C   UNL A   1      46.188  34.759  30.583  1.00  0.00     0.002 A 
ATOM     89  C   UNL A   1      45.302  35.616  28.493  1.00  0.00     0.091 A 
ATOM     90  F   UNL A   1      43.845  34.239  27.198  1.00  0.00    -0.205 F 
ATOM     91  C   UNL A   1      46.079  35.788  29.649  1.00  0.00     0.022 A 
BRANCH  89  92
ATOM     92  S   UNL A   1      45.296  36.957  27.297  1.00  0.00     0.127 S 
ATOM     93  O   UNL A   1      45.963  38.023  28.044  1.00  0.00    -0.237 OA
ATOM     94  O   UNL A   1      46.083  36.398  26.197  1.00  0.00    -0.237 OA
ATOM     95  O   UNL A   1      43.897  37.200  26.974  1.00  0.00    -0.744 OA
ENDBRANCH  89  92
ENDBRANCH  62  85
ENDBRANCH  36  37
ENDBRANCH  28  31
ENDBRANCH  26  27
ENDBRANCH  25  26
ENDBRANCH   1  25
TORSDOF 18
ENDMDL
MODEL 3
REMARK VINA RESULT:     -11.1      3.031      8.212
REMARK SMILES CN(CC(N)=O)S(=O)(=O)c1ccc(C(=O)NCCCCNC(=O)c2ccc(-c3c4nc(c(-c5cccc(S(=O)(=O)[O-])c5F)c5ccc([nH]5)c(-c5cccc(S(=O)(=O)[O-])c5F)c5nc(c(-c6cccc(S(=O)(=O)[O-])c6F)c6ccc3[nH]6)C=C5)C=C4)cc2)cc1Br
REMARK SMILES IDX 18 1 17 2 16 3 14 4 15 5 13 7 10 8 11 9 88 10 12 11 87 12
REMARK SMILES IDX 89 13 7 14 8 15 9 16 2 17 1 18 3 19 4 20 5 21 6 22 19 25
REMARK SMILES IDX 20 26 21 27 22 28 23 30 24 31 25 32 86 33 26 34 85 35 27 36
REMARK SMILES IDX 28 37 29 38 79 39 30 40 84 41 78 42 80 43 31 44 83 45 77 46
REMARK SMILES IDX 76 47 32 49 64 50 44 51 63 52 45 53 48 54 62 55 81 56 46 57
REMARK SMILES IDX 47 58 61 60 82 61 49 62 33 63 34 64 42 65 35 66 37 67 43 68
REMARK SMILES IDX 36 69 38 70 39 71 40 72 41 73 65 74 66 75 74 76 67 77 69 78
REMARK SMILES IDX 75 79 68 80 70 81 71 82 72 83 73 84 50 85 51 86 59 87 52 88
REMARK SMILES IDX 54 89 60 90 53 91 55 92 56 93 57 94 58 95
REMARK H PARENT 16 6 5 23 5 24 21 29 80 48 48 59
REMARK Flexibility Score: inf
ROOT
ATOM      1  C   UNL A   1      36.119  19.913  24.863  1.00  0.00     0.023 C 
ENDROOT
BRANCH   1   2
ATOM      2  C   UNL A   1      35.205  21.130  25.034  1.00  0.00     0.116 C 
BRANCH   2   3
ATOM      3  N   UNL A   1      34.645  21.195  26.369  1.00  0.00    -0.352 N 
ATOM      4  C   UNL A   1      33.892  22.137  27.023  1.00  0.00     0.251 C 
ATOM      5  O   UNL A   1      33.467  21.845  28.142  1.00  0.00    -0.269 OA
ATOM      6  H   UNL A   1      34.845  20.402  26.918  1.00  0.00     0.163 HD
BRANCH   4   7
ATOM      7  C   UNL A   1      33.535  23.476  26.461  1.00  0.00     0.041 A 
ATOM      8  C   UNL A   1      33.034  26.005  25.282  1.00  0.00     0.096 A 
ATOM      9  C   UNL A   1      34.344  25.515  25.398  1.00  0.00     0.024 A 
ATOM     10  C   UNL A   1      31.972  25.221  25.732  1.00  0.00     0.038 A 
ATOM     11  C   UNL A   1      34.589  24.271  25.987  1.00  0.00     0.015 A 
ATOM     12  C   UNL A   1      32.236  23.962  26.302  1.00  0.00     0.031 A 
ATOM     13  Br  UNL A   1      30.130  25.666  25.621  1.00  0.00    -0.049 Br
BRANCH   8  14
ATOM     14  S   UNL A   1      32.844  27.594  24.511  1.00  0.00     0.244 S 
ATOM     15  O   UNL A   1      34.120  28.214  24.281  1.00  0.00    -0.207 OA
ATOM     16  O   UNL A   1      31.802  28.283  25.252  1.00  0.00    -0.207 OA
BRANCH  14  17
ATOM     17  N   UNL A   1      32.202  27.213  22.966  1.00  0.00    -0.192 NA
ATOM     18  C   UNL A   1      31.308  28.288  22.460  1.00  0.00     0.125 C 
BRANCH  17  19
ATOM     19  C   UNL A   1      33.180  26.774  21.933  1.00  0.00     0.201 C 
BRANCH  19  20
ATOM     20  C   UNL A   1      32.817  25.533  21.136  1.00  0.00     0.232 C 
ATOM     21  N   UNL A   1      32.386  24.461  21.865  1.00  0.00    -0.369 N 
ATOM     22  O   UNL A   1      32.872  25.479  19.910  1.00  0.00    -0.274 OA
ATOM     23  H   UNL A   1      32.346  24.516  22.846  1.00  0.00     0.159 HD
ATOM     24  H   UNL A   1      32.116  23.632  21.407  1.00  0.00     0.159 HD
ENDBRANCH  19  20
ENDBRANCH  17  19
ENDBRANCH  14  17
ENDBRANCH   8  14
ENDBRANCH   4   7
ENDBRANCH   2   3
ENDBRANCH   1   2
BRANCH   1  25
ATOM     25  C   UNL A   1      37.598  20.244  24.650  1.00  0.00     0.023 C 
BRANCH  25  26
ATOM     26  C   UNL A   1      38.449  20.240  25.913  1.00  0.00     0.116 C 
BRANCH  26  27
ATOM     27  N   UNL A   1      39.634  19.396  25.820  1.00  0.00    -0.352 N 
ATOM     28  C   UNL A   1      40.935  19.746  26.106  1.00  0.00     0.251 C 
ATOM     29  H   UNL A   1      39.488  18.470  25.518  1.00  0.00     0.163 HD
ATOM     30  O   UNL A   1      41.856  18.961  25.909  1.00  0.00    -0.269 OA
BRANCH  28  31
ATOM     31  C   UNL A   1      41.200  21.109  26.606  1.00  0.00     0.039 A 
ATOM     32  C   UNL A   1      41.845  21.267  27.836  1.00  0.00     0.014 A 
ATOM     33  C   UNL A   1      40.898  22.216  25.811  1.00  0.00     0.014 A 
ATOM     34  C   UNL A   1      42.267  22.538  28.232  1.00  0.00     0.010 A 
ATOM     35  C   UNL A   1      41.372  23.469  26.178  1.00  0.00     0.010 A 
ATOM     36  C   UNL A   1      42.072  23.640  27.384  1.00  0.00    -0.014 A 
BRANCH  36  37
ATOM     37  C   UNL A   1      42.606  24.987  27.708  1.00  0.00     0.031 A 
ATOM     38  C   UNL A   1      41.706  26.011  28.336  1.00  0.00     0.074 A 
ATOM     39  C   UNL A   1      43.847  25.325  27.306  1.00  0.00     0.049 A 
ATOM     40  N   UNL A   1      41.918  27.284  28.538  1.00  0.00    -0.248 NA
ATOM     41  C   UNL A   1      40.373  25.549  28.762  1.00  0.00     0.031 C 
ATOM     42  C   UNL A   1      44.789  24.439  26.620  1.00  0.00     0.029 A 
ATOM     43  N   UNL A   1      44.514  26.523  27.378  1.00  0.00    -0.354 N 
ATOM     44  C   UNL A   1      40.734  27.786  29.063  1.00  0.00     0.074 A 
ATOM     45  C   UNL A   1      39.799  26.685  29.131  1.00  0.00     0.031 C 
ATOM     46  C   UNL A   1      45.905  25.125  26.325  1.00  0.00     0.029 A 
ATOM     47  C   UNL A   1      45.749  26.505  26.771  1.00  0.00     0.049 A 
ATOM     48  H   UNL A   1      44.143  27.321  27.823  1.00  0.00     0.167 HD
ATOM     49  C   UNL A   1      40.459  29.046  29.474  1.00  0.00     0.034 A 
ATOM     50  C   UNL A   1      46.646  27.493  26.581  1.00  0.00     0.034 A 
ATOM     51  C   UNL A   1      41.413  30.120  29.464  1.00  0.00     0.049 A 
ATOM     52  C   UNL A   1      46.340  28.869  27.111  1.00  0.00     0.074 A 
ATOM     53  C   UNL A   1      41.260  31.410  29.940  1.00  0.00     0.029 A 
ATOM     54  N   UNL A   1      42.701  30.028  28.961  1.00  0.00    -0.354 N 
ATOM     55  N   UNL A   1      45.266  29.290  27.734  1.00  0.00    -0.248 NA
ATOM     56  C   UNL A   1      47.379  29.896  26.944  1.00  0.00     0.031 C 
ATOM     57  C   UNL A   1      42.458  32.099  29.723  1.00  0.00     0.029 A 
ATOM     58  C   UNL A   1      43.358  31.234  29.122  1.00  0.00     0.049 A 
ATOM     59  H   UNL A   1      43.091  29.222  28.550  1.00  0.00     0.167 HD
ATOM     60  C   UNL A   1      45.518  30.616  28.072  1.00  0.00     0.074 A 
ATOM     61  C   UNL A   1      46.849  30.924  27.593  1.00  0.00     0.031 C 
ATOM     62  C   UNL A   1      44.712  31.500  28.710  1.00  0.00     0.034 A 
BRANCH  49  63
ATOM     63  C   UNL A   1      39.087  29.315  30.031  1.00  0.00     0.023 A 
ATOM     64  C   UNL A   1      38.779  28.890  31.339  1.00  0.00     0.012 A 
ATOM     65  C   UNL A   1      38.127  30.029  29.290  1.00  0.00     0.148 A 
ATOM     66  C   UNL A   1      37.524  29.143  31.889  1.00  0.00     0.002 A 
ATOM     67  C   UNL A   1      36.891  30.313  29.860  1.00  0.00     0.091 A 
ATOM     68  F   UNL A   1      38.429  30.401  28.038  1.00  0.00    -0.205 F 
ATOM     69  C   UNL A   1      36.585  29.863  31.156  1.00  0.00     0.022 A 
BRANCH  67  70
ATOM     70  S   UNL A   1      35.645  31.297  29.020  1.00  0.00     0.127 S 
ATOM     71  O   UNL A   1      34.941  31.907  30.146  1.00  0.00    -0.237 OA
ATOM     72  O   UNL A   1      36.459  32.225  28.235  1.00  0.00    -0.237 OA
ATOM     73  O   UNL A   1      34.867  30.357  28.225  1.00  0.00    -0.744 OA
ENDBRANCH  67  70
ENDBRANCH  49  63
BRANCH  50  74
ATOM     74  C   UNL A   1      47.952  27.197  25.929  1.00  0.00     0.023 A 
ATOM     75  C   UNL A   1      48.986  26.626  26.697  1.00  0.00     0.012 A 
ATOM     76  C   UNL A   1      48.167  27.435  24.558  1.00  0.00     0.148 A 
ATOM     77  C   UNL A   1      50.219  26.325  26.118  1.00  0.00     0.002 A 
ATOM     78  C   UNL A   1      49.381  27.084  23.977  1.00  0.00     0.091 A 
ATOM     79  F   UNL A   1      47.176  27.991  23.846  1.00  0.00    -0.205 F 
ATOM     80  C   UNL A   1      50.414  26.544  24.757  1.00  0.00     0.022 A 
BRANCH  78  81
ATOM     81  S   UNL A   1      49.667  27.211  22.207  1.00  0.00     0.127 S 
ATOM     82  O   UNL A   1      51.070  26.824  22.102  1.00  0.00    -0.237 OA
ATOM     83  O   UNL A   1      48.716  26.234  21.673  1.00  0.00    -0.237 OA
ATOM     84  O   UNL A   1      49.357  28.592  21.864  1.00  0.00    -0.744 OA
ENDBRANCH  78  81
ENDBRANCH  50  74
BRANCH  62  85
ATOM     85  C   UNL A   1      45.254  32.875  28.985  1.00  0.00     0.023 A 
ATOM     86  C   UNL A   1      46.029  33.103  30.138  1.00  0.00     0.012 A 
ATOM     87  C   UNL A   1      45.090  33.910  28.042  1.00  0.00     0.148 A 
ATOM     88  C   UNL A   1      46.621  34.346  30.357  1.00  0.00     0.002 A 
ATOM     89  C   UNL A   1      45.718  35.132  28.246  1.00  0.00     0.091 A 
ATOM     90  F   UNL A   1      44.331  33.675  26.961  1.00  0.00    -0.205 F 
ATOM     91  C   UNL A   1      46.478  35.355  29.405  1.00  0.00     0.022 A 
BRANCH  89  92
ATOM     92  S   UNL A   1      45.667  36.453  27.029  1.00  0.00     0.127 S 
ATOM     93  O   UNL A   1      46.263  35.806  25.862  1.00  0.00    -0.237 OA
ATOM     94  O   UNL A   1      44.232  36.716  26.914  1.00  0.00    -0.237 OA
ATOM     95  O   UNL A   1      46.437  37.551  27.597  1.00  0.00    -0.744 OA
ENDBRANCH  89  92
ENDBRANCH  62  85
ENDBRANCH  36  37
ENDBRANCH  28  31
ENDBRANCH  26  27
ENDBRANCH  25  26
ENDBRANCH   1  25
TORSDOF 18
ENDMDL
