MODEL 1
REMARK VINA RESULT:     -10.5      0.000      0.000
REMARK SMILES O=C(CCCN1C(=O)/C(=C/c2cc(Br)ccc2O)SC1=S)NCCCCNC(=O)c1ccc(-c2c3nc(c(-c4cccc(S(=O)(=O)[O-])c4F)c4ccc([nH]4)c(-c4cccc(S(=O)(=O)[O-])c4F)c4nc(c(-c5cccc(S(=O)(=O)[O-])c5F)c5ccc2[nH]5)C=C4)C=C3)cc1
REMARK SMILES IDX 23 1 22 2 1 3 2 4 3 6 4 7 5 8 6 9 7 10 20 11 8 12 9 13 19 14
REMARK SMILES IDX 21 15 10 16 11 17 12 18 17 19 13 20 16 21 14 22 15 23 18 24
REMARK SMILES IDX 24 26 25 27 26 28 27 29 28 30 29 32 30 33 31 34 92 35 32 36
REMARK SMILES IDX 91 37 33 38 34 39 35 40 85 41 36 42 90 43 84 44 86 45 37 46
REMARK SMILES IDX 89 47 83 48 82 49 38 51 70 52 50 53 69 54 51 55 54 56 68 57
REMARK SMILES IDX 87 58 52 59 53 60 67 62 88 63 55 64 39 65 40 66 48 67 41 68
REMARK SMILES IDX 43 69 49 70 42 71 44 72 45 73 46 74 47 75 71 76 72 77 80 78
REMARK SMILES IDX 73 79 75 80 81 81 74 82 76 83 77 84 78 85 79 86 56 87 57 88
REMARK SMILES IDX 65 89 58 90 60 91 66 92 59 93 61 94 62 95 63 96 64 97
REMARK H PARENT 22 5 18 25 27 31 86 50 54 61
REMARK Flexibility Score: inf
ROOT
ATOM      1  C   UNL A   1      41.246  22.148  26.655  1.00  0.00     0.116 C 
ENDROOT
BRANCH   1   2
ATOM      2  N   UNL A   1      39.895  22.156  26.134  1.00  0.00    -0.356 N 
ATOM      3  O   UNL A   1      39.229  24.050  27.247  1.00  0.00    -0.275 OA
ATOM      4  C   UNL A   1      38.985  23.126  26.476  1.00  0.00     0.220 C 
ATOM      5  H   UNL A   1      39.620  21.444  25.513  1.00  0.00     0.163 HD
BRANCH   4   6
ATOM      6  C   UNL A   1      37.623  22.981  25.832  1.00  0.00     0.102 C 
BRANCH   6   7
ATOM      7  C   UNL A   1      37.417  21.623  25.161  1.00  0.00     0.032 C 
BRANCH   7   8
ATOM      8  C   UNL A   1      35.987  21.316  24.687  1.00  0.00     0.128 C 
BRANCH   8   9
ATOM      9  N   UNL A   1      35.071  22.456  24.776  1.00  0.00    -0.293 N 
ATOM     10  C   UNL A   1      35.060  23.379  23.747  1.00  0.00     0.266 C 
ATOM     11  C   UNL A   1      34.191  22.692  25.813  1.00  0.00     0.148 C 
ATOM     12  O   UNL A   1      35.745  23.302  22.731  1.00  0.00    -0.268 OA
ATOM     13  C   UNL A   1      34.040  24.427  23.985  1.00  0.00     0.081 C 
ATOM     14  S   UNL A   1      33.165  24.060  25.418  1.00  0.00    -0.054 SA
ATOM     15  S   UNL A   1      34.021  21.842  27.238  1.00  0.00    -0.052 S 
ATOM     16  C   UNL A   1      33.867  25.461  23.150  1.00  0.00     0.033 C 
BRANCH  16  17
ATOM     17  C   UNL A   1      32.871  26.521  23.350  1.00  0.00     0.019 A 
ATOM     18  C   UNL A   1      33.104  27.504  24.320  1.00  0.00     0.027 A 
ATOM     19  C   UNL A   1      31.687  26.572  22.603  1.00  0.00     0.122 A 
ATOM     20  C   UNL A   1      32.186  28.541  24.497  1.00  0.00     0.018 A 
ATOM     21  C   UNL A   1      30.795  27.628  22.755  1.00  0.00     0.048 A 
ATOM     22  Br  UNL A   1      32.501  29.859  25.817  1.00  0.00    -0.051 Br
ATOM     23  C   UNL A   1      31.043  28.616  23.707  1.00  0.00     0.019 A 
BRANCH  19  24
ATOM     24  O   UNL A   1      31.383  25.560  21.734  1.00  0.00    -0.507 OA
ATOM     25  H   UNL A   1      30.869  24.832  22.022  1.00  0.00     0.293 HD
ENDBRANCH  19  24
ENDBRANCH  16  17
ENDBRANCH   8   9
ENDBRANCH   7   8
ENDBRANCH   6   7
ENDBRANCH   4   6
ENDBRANCH   1   2
BRANCH   1  26
ATOM     26  C   UNL A   1      41.490  21.012  27.647  1.00  0.00     0.023 C 
BRANCH  26  27
ATOM     27  C   UNL A   1      42.252  19.798  27.104  1.00  0.00     0.023 C 
BRANCH  27  28
ATOM     28  C   UNL A   1      42.154  19.578  25.596  1.00  0.00     0.116 C 
BRANCH  28  29
ATOM     29  N   UNL A   1      43.433  19.188  25.022  1.00  0.00    -0.352 N 
ATOM     30  C   UNL A   1      44.517  19.971  24.705  1.00  0.00     0.251 C 
ATOM     31  H   UNL A   1      43.537  18.228  24.834  1.00  0.00     0.163 HD
ATOM     32  O   UNL A   1      45.435  19.499  24.039  1.00  0.00    -0.269 OA
BRANCH  30  33
ATOM     33  C   UNL A   1      44.576  21.384  25.146  1.00  0.00     0.039 A 
ATOM     34  C   UNL A   1      45.092  21.674  26.412  1.00  0.00     0.014 A 
ATOM     35  C   UNL A   1      44.101  22.419  24.334  1.00  0.00     0.014 A 
ATOM     36  C   UNL A   1      45.180  23.001  26.842  1.00  0.00     0.010 A 
ATOM     37  C   UNL A   1      44.246  23.745  24.740  1.00  0.00     0.010 A 
ATOM     38  C   UNL A   1      44.786  24.052  25.999  1.00  0.00    -0.014 A 
BRANCH  38  39
ATOM     39  C   UNL A   1      44.951  25.471  26.414  1.00  0.00     0.031 A 
ATOM     40  C   UNL A   1      46.301  26.137  26.357  1.00  0.00     0.074 A 
ATOM     41  C   UNL A   1      43.894  26.147  26.908  1.00  0.00     0.049 A 
ATOM     42  N   UNL A   1      46.639  27.348  26.721  1.00  0.00    -0.248 NA
ATOM     43  C   UNL A   1      47.422  25.333  25.844  1.00  0.00     0.031 C 
ATOM     44  C   UNL A   1      42.546  25.602  27.078  1.00  0.00     0.029 A 
ATOM     45  N   UNL A   1      43.792  27.434  27.380  1.00  0.00    -0.354 N 
ATOM     46  C   UNL A   1      48.010  27.443  26.512  1.00  0.00     0.074 A 
ATOM     47  C   UNL A   1      48.447  26.155  26.016  1.00  0.00     0.031 C 
ATOM     48  C   UNL A   1      41.751  26.546  27.607  1.00  0.00     0.029 A 
ATOM     49  C   UNL A   1      42.539  27.751  27.849  1.00  0.00     0.049 A 
ATOM     50  H   UNL A   1      44.545  28.068  27.381  1.00  0.00     0.167 HD
ATOM     51  C   UNL A   1      48.828  28.509  26.691  1.00  0.00     0.034 A 
ATOM     52  C   UNL A   1      42.078  28.879  28.426  1.00  0.00     0.034 A 
ATOM     53  C   UNL A   1      48.388  29.798  27.157  1.00  0.00     0.049 A 
ATOM     54  C   UNL A   1      43.007  30.045  28.615  1.00  0.00     0.074 A 
ATOM     55  C   UNL A   1      49.129  30.959  27.296  1.00  0.00     0.029 A 
ATOM     56  N   UNL A   1      47.100  30.095  27.574  1.00  0.00    -0.354 N 
ATOM     57  N   UNL A   1      44.269  30.158  28.282  1.00  0.00    -0.248 NA
ATOM     58  C   UNL A   1      42.440  31.252  29.234  1.00  0.00     0.031 C 
ATOM     59  C   UNL A   1      48.298  31.947  27.832  1.00  0.00     0.029 A 
ATOM     60  C   UNL A   1      47.029  31.415  27.985  1.00  0.00     0.049 A 
ATOM     61  H   UNL A   1      46.347  29.461  27.576  1.00  0.00     0.167 HD
ATOM     62  C   UNL A   1      44.635  31.458  28.610  1.00  0.00     0.074 A 
ATOM     63  C   UNL A   1      43.457  32.100  29.155  1.00  0.00     0.031 C 
ATOM     64  C   UNL A   1      45.841  32.063  28.480  1.00  0.00     0.034 A 
BRANCH  51  65
ATOM     65  C   UNL A   1      50.286  28.342  26.347  1.00  0.00     0.023 A 
ATOM     66  C   UNL A   1      50.730  28.606  25.035  1.00  0.00     0.012 A 
ATOM     67  C   UNL A   1      51.228  27.996  27.336  1.00  0.00     0.148 A 
ATOM     68  C   UNL A   1      52.079  28.494  24.704  1.00  0.00     0.002 A 
ATOM     69  C   UNL A   1      52.578  27.932  27.010  1.00  0.00     0.091 A 
ATOM     70  F   UNL A   1      50.787  27.732  28.575  1.00  0.00    -0.205 F 
ATOM     71  C   UNL A   1      53.004  28.168  25.693  1.00  0.00     0.022 A 
BRANCH  69  72
ATOM     72  S   UNL A   1      53.857  27.604  28.227  1.00  0.00     0.127 S 
ATOM     73  O   UNL A   1      55.060  27.602  27.397  1.00  0.00    -0.237 OA
ATOM     74  O   UNL A   1      53.734  28.755  29.121  1.00  0.00    -0.237 OA
ATOM     75  O   UNL A   1      53.518  26.323  28.833  1.00  0.00    -0.744 OA
ENDBRANCH  69  72
ENDBRANCH  51  65
BRANCH  52  76
ATOM     76  C   UNL A   1      40.655  28.972  28.857  1.00  0.00     0.023 A 
ATOM     77  C   UNL A   1      39.643  29.167  27.898  1.00  0.00     0.012 A 
ATOM     78  C   UNL A   1      40.306  28.881  30.216  1.00  0.00     0.148 A 
ATOM     79  C   UNL A   1      38.310  29.306  28.290  1.00  0.00     0.002 A 
ATOM     80  C   UNL A   1      38.972  28.978  30.596  1.00  0.00     0.091 A 
ATOM     81  F   UNL A   1      41.286  28.679  31.109  1.00  0.00    -0.205 F 
ATOM     82  C   UNL A   1      37.974  29.207  29.638  1.00  0.00     0.022 A 
BRANCH  80  83
ATOM     83  S   UNL A   1      38.454  28.810  32.302  1.00  0.00     0.127 S 
ATOM     84  O   UNL A   1      38.920  27.466  32.639  1.00  0.00    -0.237 OA
ATOM     85  O   UNL A   1      39.186  29.898  32.947  1.00  0.00    -0.237 OA
ATOM     86  O   UNL A   1      37.005  28.956  32.280  1.00  0.00    -0.744 OA
ENDBRANCH  80  83
ENDBRANCH  52  76
BRANCH  64  87
ATOM     87  C   UNL A   1      45.946  33.511  28.882  1.00  0.00     0.023 A 
ATOM     88  C   UNL A   1      46.452  33.860  30.150  1.00  0.00     0.012 A 
ATOM     89  C   UNL A   1      45.600  34.529  27.973  1.00  0.00     0.148 A 
ATOM     90  C   UNL A   1      46.578  35.200  30.518  1.00  0.00     0.002 A 
ATOM     91  C   UNL A   1      45.778  35.861  28.326  1.00  0.00     0.091 A 
ATOM     92  F   UNL A   1      45.102  34.177  26.779  1.00  0.00    -0.205 F 
ATOM     93  C   UNL A   1      46.253  36.199  29.603  1.00  0.00     0.022 A 
BRANCH  91  94
ATOM     94  S   UNL A   1      45.480  37.211  27.180  1.00  0.00     0.127 S 
ATOM     95  O   UNL A   1      45.910  38.368  27.964  1.00  0.00    -0.237 OA
ATOM     96  O   UNL A   1      46.362  36.870  26.063  1.00  0.00    -0.237 OA
ATOM     97  O   UNL A   1      44.059  37.166  26.865  1.00  0.00    -0.744 OA
ENDBRANCH  91  94
ENDBRANCH  64  87
ENDBRANCH  38  39
ENDBRANCH  30  33
ENDBRANCH  28  29
ENDBRANCH  27  28
ENDBRANCH  26  27
ENDBRANCH   1  26
TORSDOF 19
ENDMDL
MODEL 2
REMARK VINA RESULT:     -10.2      2.240      7.775
REMARK SMILES O=C(CCCN1C(=O)/C(=C/c2cc(Br)ccc2O)SC1=S)NCCCCNC(=O)c1ccc(-c2c3nc(c(-c4cccc(S(=O)(=O)[O-])c4F)c4ccc([nH]4)c(-c4cccc(S(=O)(=O)[O-])c4F)c4nc(c(-c5cccc(S(=O)(=O)[O-])c5F)c5ccc2[nH]5)C=C4)C=C3)cc1
REMARK SMILES IDX 23 1 22 2 1 3 2 4 3 6 4 7 5 8 6 9 7 10 20 11 8 12 9 13 19 14
REMARK SMILES IDX 21 15 10 16 11 17 12 18 17 19 13 20 16 21 14 22 15 23 18 24
REMARK SMILES IDX 24 26 25 27 26 28 27 29 28 30 29 32 30 33 31 34 92 35 32 36
REMARK SMILES IDX 91 37 33 38 34 39 35 40 85 41 36 42 90 43 84 44 86 45 37 46
REMARK SMILES IDX 89 47 83 48 82 49 38 51 70 52 50 53 69 54 51 55 54 56 68 57
REMARK SMILES IDX 87 58 52 59 53 60 67 62 88 63 55 64 39 65 40 66 48 67 41 68
REMARK SMILES IDX 43 69 49 70 42 71 44 72 45 73 46 74 47 75 71 76 72 77 80 78
REMARK SMILES IDX 73 79 75 80 81 81 74 82 76 83 77 84 78 85 79 86 56 87 57 88
REMARK SMILES IDX 65 89 58 90 60 91 66 92 59 93 61 94 62 95 63 96 64 97
REMARK H PARENT 22 5 18 25 27 31 86 50 54 61
REMARK Flexibility Score: inf
ROOT
ATOM      1  C   UNL A   1      37.394  21.195  24.833  1.00  0.00     0.116 C 
ENDROOT
BRANCH   1   2
ATOM      2  N   UNL A   1      36.186  20.900  25.575  1.00  0.00    -0.356 N 
ATOM      3  O   UNL A   1      35.404  23.058  25.612  1.00  0.00    -0.275 OA
ATOM      4  C   UNL A   1      35.274  21.872  25.905  1.00  0.00     0.220 C 
ATOM      5  H   UNL A   1      36.013  19.971  25.852  1.00  0.00     0.163 HD
BRANCH   4   6
ATOM      6  C   UNL A   1      34.068  21.382  26.675  1.00  0.00     0.102 C 
BRANCH   6   7
ATOM      7  C   UNL A   1      33.074  20.609  25.808  1.00  0.00     0.032 C 
BRANCH   7   8
ATOM      8  C   UNL A   1      31.786  21.358  25.429  1.00  0.00     0.128 C 
BRANCH   8   9
ATOM      9  N   UNL A   1      31.975  22.793  25.201  1.00  0.00    -0.293 N 
ATOM     10  C   UNL A   1      31.643  23.675  26.212  1.00  0.00     0.266 C 
ATOM     11  C   UNL A   1      32.475  23.357  24.044  1.00  0.00     0.148 C 
ATOM     12  O   UNL A   1      31.226  23.344  27.319  1.00  0.00    -0.268 OA
ATOM     13  C   UNL A   1      31.949  25.070  25.822  1.00  0.00     0.081 C 
ATOM     14  S   UNL A   1      32.702  25.082  24.277  1.00  0.00    -0.054 SA
ATOM     15  S   UNL A   1      32.875  22.598  22.614  1.00  0.00    -0.052 S 
ATOM     16  C   UNL A   1      31.674  26.113  26.617  1.00  0.00     0.033 C 
BRANCH  16  17
ATOM     17  C   UNL A   1      31.958  27.511  26.268  1.00  0.00     0.019 A 
ATOM     18  C   UNL A   1      32.955  28.202  26.969  1.00  0.00     0.027 A 
ATOM     19  C   UNL A   1      31.253  28.178  25.258  1.00  0.00     0.122 A 
ATOM     20  C   UNL A   1      33.264  29.519  26.624  1.00  0.00     0.018 A 
ATOM     21  C   UNL A   1      31.591  29.476  24.892  1.00  0.00     0.048 A 
ATOM     22  Br  UNL A   1      34.603  30.451  27.583  1.00  0.00    -0.051 Br
ATOM     23  C   UNL A   1      32.599  30.152  25.578  1.00  0.00     0.019 A 
BRANCH  19  24
ATOM     24  O   UNL A   1      30.197  27.562  24.641  1.00  0.00    -0.507 OA
ATOM     25  H   UNL A   1      29.460  28.066  24.360  1.00  0.00     0.293 HD
ENDBRANCH  19  24
ENDBRANCH  16  17
ENDBRANCH   8   9
ENDBRANCH   7   8
ENDBRANCH   6   7
ENDBRANCH   4   6
ENDBRANCH   1   2
BRANCH   1  26
ATOM     26  C   UNL A   1      38.511  21.749  25.717  1.00  0.00     0.023 C 
BRANCH  26  27
ATOM     27  C   UNL A   1      39.835  20.977  25.690  1.00  0.00     0.023 C 
BRANCH  27  28
ATOM     28  C   UNL A   1      39.823  19.623  26.395  1.00  0.00     0.116 C 
BRANCH  28  29
ATOM     29  N   UNL A   1      41.012  18.842  26.087  1.00  0.00    -0.352 N 
ATOM     30  C   UNL A   1      42.300  19.270  25.874  1.00  0.00     0.251 C 
ATOM     31  H   UNL A   1      40.874  17.870  26.021  1.00  0.00     0.163 HD
ATOM     32  O   UNL A   1      43.135  18.489  25.424  1.00  0.00    -0.269 OA
BRANCH  30  33
ATOM     33  C   UNL A   1      42.683  20.671  26.169  1.00  0.00     0.039 A 
ATOM     34  C   UNL A   1      42.702  21.099  27.499  1.00  0.00     0.014 A 
ATOM     35  C   UNL A   1      42.994  21.569  25.143  1.00  0.00     0.014 A 
ATOM     36  C   UNL A   1      43.082  22.409  27.804  1.00  0.00     0.010 A 
ATOM     37  C   UNL A   1      43.433  22.856  25.454  1.00  0.00     0.010 A 
ATOM     38  C   UNL A   1      43.480  23.292  26.788  1.00  0.00    -0.014 A 
BRANCH  38  39
ATOM     39  C   UNL A   1      43.965  24.662  27.108  1.00  0.00     0.031 A 
ATOM     40  C   UNL A   1      43.022  25.705  27.649  1.00  0.00     0.074 A 
ATOM     41  C   UNL A   1      45.246  24.991  26.847  1.00  0.00     0.049 A 
ATOM     42  N   UNL A   1      43.259  26.958  27.940  1.00  0.00    -0.248 NA
ATOM     43  C   UNL A   1      41.628  25.292  27.875  1.00  0.00     0.031 C 
ATOM     44  C   UNL A   1      46.247  24.097  26.263  1.00  0.00     0.029 A 
ATOM     45  N   UNL A   1      45.921  26.176  27.020  1.00  0.00    -0.354 N 
ATOM     46  C   UNL A   1      42.044  27.493  28.352  1.00  0.00     0.074 A 
ATOM     47  C   UNL A   1      41.064  26.433  28.245  1.00  0.00     0.031 C 
ATOM     48  C   UNL A   1      47.408  24.760  26.132  1.00  0.00     0.029 A 
ATOM     49  C   UNL A   1      47.226  26.135  26.588  1.00  0.00     0.049 A 
ATOM     50  H   UNL A   1      45.509  26.977  27.415  1.00  0.00     0.167 HD
ATOM     51  C   UNL A   1      41.770  28.742  28.802  1.00  0.00     0.034 A 
ATOM     52  C   UNL A   1      48.167  27.099  26.545  1.00  0.00     0.034 A 
ATOM     53  C   UNL A   1      42.751  29.787  28.935  1.00  0.00     0.049 A 
ATOM     54  C   UNL A   1      47.837  28.476  27.049  1.00  0.00     0.074 A 
ATOM     55  C   UNL A   1      42.584  31.060  29.454  1.00  0.00     0.029 A 
ATOM     56  N   UNL A   1      44.074  29.691  28.535  1.00  0.00    -0.354 N 
ATOM     57  N   UNL A   1      46.716  28.921  27.563  1.00  0.00    -0.248 NA
ATOM     58  C   UNL A   1      48.911  29.479  26.992  1.00  0.00     0.031 C 
ATOM     59  C   UNL A   1      43.796  31.745  29.333  1.00  0.00     0.029 A 
ATOM     60  C   UNL A   1      44.730  30.885  28.780  1.00  0.00     0.049 A 
ATOM     61  H   UNL A   1      44.487  28.891  28.136  1.00  0.00     0.167 HD
ATOM     62  C   UNL A   1      46.963  30.238  27.930  1.00  0.00     0.074 A 
ATOM     63  C   UNL A   1      48.343  30.517  27.593  1.00  0.00     0.031 C 
ATOM     64  C   UNL A   1      46.118  31.140  28.487  1.00  0.00     0.034 A 
BRANCH  51  65
ATOM     65  C   UNL A   1      40.354  29.044  29.221  1.00  0.00     0.023 A 
ATOM     66  C   UNL A   1      39.390  29.369  28.244  1.00  0.00     0.012 A 
ATOM     67  C   UNL A   1      39.959  28.934  30.569  1.00  0.00     0.148 A 
ATOM     68  C   UNL A   1      38.067  29.616  28.606  1.00  0.00     0.002 A 
ATOM     69  C   UNL A   1      38.629  29.136  30.916  1.00  0.00     0.091 A 
ATOM     70  F   UNL A   1      40.892  28.640  31.487  1.00  0.00    -0.205 F 
ATOM     71  C   UNL A   1      37.684  29.488  29.939  1.00  0.00     0.022 A 
BRANCH  69  72
ATOM     72  S   UNL A   1      38.017  28.914  32.590  1.00  0.00     0.127 S 
ATOM     73  O   UNL A   1      38.129  27.465  32.755  1.00  0.00    -0.237 OA
ATOM     74  O   UNL A   1      38.974  29.694  33.374  1.00  0.00    -0.237 OA
ATOM     75  O   UNL A   1      36.657  29.436  32.595  1.00  0.00    -0.744 OA
ENDBRANCH  69  72
ENDBRANCH  51  65
BRANCH  52  76
ATOM     76  C   UNL A   1      49.528  26.795  26.020  1.00  0.00     0.023 A 
ATOM     77  C   UNL A   1      50.466  26.139  26.839  1.00  0.00     0.012 A 
ATOM     78  C   UNL A   1      49.896  27.168  24.715  1.00  0.00     0.148 A 
ATOM     79  C   UNL A   1      51.760  25.892  26.378  1.00  0.00     0.002 A 
ATOM     80  C   UNL A   1      51.173  26.881  24.248  1.00  0.00     0.091 A 
ATOM     81  F   UNL A   1      48.980  27.778  23.949  1.00  0.00    -0.205 F 
ATOM     82  C   UNL A   1      52.113  26.259  25.082  1.00  0.00     0.022 A 
BRANCH  80  83
ATOM     83  S   UNL A   1      51.687  27.274  22.578  1.00  0.00     0.127 S 
ATOM     84  O   UNL A   1      50.692  26.569  21.772  1.00  0.00    -0.237 OA
ATOM     85  O   UNL A   1      51.574  28.731  22.564  1.00  0.00    -0.237 OA
ATOM     86  O   UNL A   1      53.040  26.749  22.458  1.00  0.00    -0.744 OA
ENDBRANCH  80  83
ENDBRANCH  52  76
BRANCH  64  87
ATOM     87  C   UNL A   1      46.668  32.502  28.824  1.00  0.00     0.023 A 
ATOM     88  C   UNL A   1      47.275  32.732  30.075  1.00  0.00     0.012 A 
ATOM     89  C   UNL A   1      46.637  33.538  27.870  1.00  0.00     0.148 A 
ATOM     90  C   UNL A   1      47.812  33.982  30.382  1.00  0.00     0.002 A 
ATOM     91  C   UNL A   1      47.220  34.764  28.163  1.00  0.00     0.091 A 
ATOM     92  F   UNL A   1      46.038  33.305  26.694  1.00  0.00    -0.205 F 
ATOM     93  C   UNL A   1      47.795  34.993  29.424  1.00  0.00     0.022 A 
BRANCH  91  94
ATOM     94  S   UNL A   1      47.334  36.091  26.959  1.00  0.00     0.127 S 
ATOM     95  O   UNL A   1      48.003  37.138  27.731  1.00  0.00    -0.237 OA
ATOM     96  O   UNL A   1      48.156  35.487  25.910  1.00  0.00    -0.237 OA
ATOM     97  O   UNL A   1      45.966  36.390  26.559  1.00  0.00    -0.744 OA
ENDBRANCH  91  94
ENDBRANCH  64  87
ENDBRANCH  38  39
ENDBRANCH  30  33
ENDBRANCH  28  29
ENDBRANCH  27  28
ENDBRANCH  26  27
ENDBRANCH   1  26
TORSDOF 19
ENDMDL
MODEL 3
REMARK VINA RESULT:      -9.8      1.916      2.258
REMARK SMILES O=C(CCCN1C(=O)/C(=C/c2cc(Br)ccc2O)SC1=S)NCCCCNC(=O)c1ccc(-c2c3nc(c(-c4cccc(S(=O)(=O)[O-])c4F)c4ccc([nH]4)c(-c4cccc(S(=O)(=O)[O-])c4F)c4nc(c(-c5cccc(S(=O)(=O)[O-])c5F)c5ccc2[nH]5)C=C4)C=C3)cc1
REMARK SMILES IDX 23 1 22 2 1 3 2 4 3 6 4 7 5 8 6 9 7 10 20 11 8 12 9 13 19 14
REMARK SMILES IDX 21 15 10 16 11 17 12 18 17 19 13 20 16 21 14 22 15 23 18 24
REMARK SMILES IDX 24 26 25 27 26 28 27 29 28 30 29 32 30 33 31 34 92 35 32 36
REMARK SMILES IDX 91 37 33 38 34 39 35 40 85 41 36 42 90 43 84 44 86 45 37 46
REMARK SMILES IDX 89 47 83 48 82 49 38 51 70 52 50 53 69 54 51 55 54 56 68 57
REMARK SMILES IDX 87 58 52 59 53 60 67 62 88 63 55 64 39 65 40 66 48 67 41 68
REMARK SMILES IDX 43 69 49 70 42 71 44 72 45 73 46 74 47 75 71 76 72 77 80 78
REMARK SMILES IDX 73 79 75 80 81 81 74 82 76 83 77 84 78 85 79 86 56 87 57 88
REMARK SMILES IDX 65 89 58 90 60 91 66 92 59 93 61 94 62 95 63 96 64 97
REMARK H PARENT 22 5 18 25 27 31 86 50 54 61
REMARK Flexibility Score: inf
ROOT
ATOM      1  C   UNL A   1      40.868  21.877  26.953  1.00  0.00     0.116 C 
ENDROOT
BRANCH   1   2
ATOM      2  N   UNL A   1      39.478  21.996  26.563  1.00  0.00    -0.356 N 
ATOM      3  O   UNL A   1      39.434  24.292  26.567  1.00  0.00    -0.275 OA
ATOM      4  C   UNL A   1      38.868  23.215  26.396  1.00  0.00     0.220 C 
ATOM      5  H   UNL A   1      38.954  21.177  26.412  1.00  0.00     0.163 HD
BRANCH   4   6
ATOM      6  C   UNL A   1      37.415  23.151  25.980  1.00  0.00     0.102 C 
BRANCH   6   7
ATOM      7  C   UNL A   1      37.113  21.996  25.025  1.00  0.00     0.032 C 
BRANCH   7   8
ATOM      8  C   UNL A   1      35.628  21.737  24.728  1.00  0.00     0.128 C 
BRANCH   8   9
ATOM      9  N   UNL A   1      34.773  22.916  24.888  1.00  0.00    -0.293 N 
ATOM     10  C   UNL A   1      34.683  23.817  23.843  1.00  0.00     0.266 C 
ATOM     11  C   UNL A   1      34.025  23.212  26.010  1.00  0.00     0.148 C 
ATOM     12  O   UNL A   1      35.246  23.689  22.759  1.00  0.00    -0.268 OA
ATOM     13  C   UNL A   1      33.738  24.912  24.165  1.00  0.00     0.081 C 
ATOM     14  S   UNL A   1      33.016  24.613  25.696  1.00  0.00    -0.054 SA
ATOM     15  S   UNL A   1      33.982  22.401  27.467  1.00  0.00    -0.052 S 
ATOM     16  C   UNL A   1      33.514  25.933  23.327  1.00  0.00     0.033 C 
BRANCH  16  17
ATOM     17  C   UNL A   1      32.588  27.039  23.609  1.00  0.00     0.019 A 
ATOM     18  C   UNL A   1      31.214  26.845  23.419  1.00  0.00     0.027 A 
ATOM     19  C   UNL A   1      33.042  28.287  24.053  1.00  0.00     0.122 A 
ATOM     20  C   UNL A   1      30.317  27.872  23.718  1.00  0.00     0.018 A 
ATOM     21  C   UNL A   1      32.143  29.294  24.386  1.00  0.00     0.048 A 
ATOM     22  Br  UNL A   1      28.463  27.608  23.449  1.00  0.00    -0.051 Br
ATOM     23  C   UNL A   1      30.774  29.088  24.217  1.00  0.00     0.019 A 
BRANCH  19  24
ATOM     24  O   UNL A   1      34.386  28.537  24.133  1.00  0.00    -0.507 OA
ATOM     25  H   UNL A   1      35.000  27.844  23.993  1.00  0.00     0.293 HD
ENDBRANCH  19  24
ENDBRANCH  16  17
ENDBRANCH   8   9
ENDBRANCH   7   8
ENDBRANCH   6   7
ENDBRANCH   4   6
ENDBRANCH   1   2
BRANCH   1  26
ATOM     26  C   UNL A   1      41.143  20.627  27.788  1.00  0.00     0.023 C 
BRANCH  26  27
ATOM     27  C   UNL A   1      42.038  19.567  27.137  1.00  0.00     0.023 C 
BRANCH  27  28
ATOM     28  C   UNL A   1      42.035  19.549  25.610  1.00  0.00     0.116 C 
BRANCH  28  29
ATOM     29  N   UNL A   1      43.309  19.095  25.072  1.00  0.00    -0.352 N 
ATOM     30  C   UNL A   1      44.427  19.828  24.753  1.00  0.00     0.251 C 
ATOM     31  H   UNL A   1      43.381  18.126  24.915  1.00  0.00     0.163 HD
ATOM     32  O   UNL A   1      45.338  19.303  24.119  1.00  0.00    -0.269 OA
BRANCH  30  33
ATOM     33  C   UNL A   1      44.530  21.251  25.154  1.00  0.00     0.039 A 
ATOM     34  C   UNL A   1      44.887  21.556  26.470  1.00  0.00     0.014 A 
ATOM     35  C   UNL A   1      44.250  22.281  24.251  1.00  0.00     0.014 A 
ATOM     36  C   UNL A   1      45.015  22.890  26.866  1.00  0.00     0.010 A 
ATOM     37  C   UNL A   1      44.438  23.610  24.631  1.00  0.00     0.010 A 
ATOM     38  C   UNL A   1      44.820  23.931  25.943  1.00  0.00    -0.014 A 
BRANCH  38  39
ATOM     39  C   UNL A   1      45.033  25.351  26.332  1.00  0.00     0.031 A 
ATOM     40  C   UNL A   1      46.411  25.957  26.306  1.00  0.00     0.074 A 
ATOM     41  C   UNL A   1      43.991  26.082  26.775  1.00  0.00     0.049 A 
ATOM     42  N   UNL A   1      46.788  27.161  26.654  1.00  0.00    -0.248 NA
ATOM     43  C   UNL A   1      47.512  25.095  25.848  1.00  0.00     0.031 C 
ATOM     44  C   UNL A   1      42.615  25.598  26.912  1.00  0.00     0.029 A 
ATOM     45  N   UNL A   1      43.928  27.382  27.215  1.00  0.00    -0.354 N 
ATOM     46  C   UNL A   1      48.169  27.193  26.488  1.00  0.00     0.074 A 
ATOM     47  C   UNL A   1      48.566  25.877  26.036  1.00  0.00     0.031 C 
ATOM     48  C   UNL A   1      41.845  26.587  27.394  1.00  0.00     0.029 A 
ATOM     49  C   UNL A   1      42.676  27.763  27.635  1.00  0.00     0.049 A 
ATOM     50  H   UNL A   1      44.708  27.984  27.227  1.00  0.00     0.167 HD
ATOM     51  C   UNL A   1      49.025  28.227  26.671  1.00  0.00     0.034 A 
ATOM     52  C   UNL A   1      42.245  28.922  28.172  1.00  0.00     0.034 A 
ATOM     53  C   UNL A   1      48.627  29.544  27.094  1.00  0.00     0.049 A 
ATOM     54  C   UNL A   1      43.217  30.052  28.366  1.00  0.00     0.074 A 
ATOM     55  C   UNL A   1      49.411  30.676  27.232  1.00  0.00     0.029 A 
ATOM     56  N   UNL A   1      47.340  29.905  27.461  1.00  0.00    -0.354 N 
ATOM     57  N   UNL A   1      44.493  30.104  28.073  1.00  0.00    -0.248 NA
ATOM     58  C   UNL A   1      42.682  31.297  28.939  1.00  0.00     0.031 C 
ATOM     59  C   UNL A   1      48.607  31.711  27.718  1.00  0.00     0.029 A 
ATOM     60  C   UNL A   1      47.312  31.237  27.840  1.00  0.00     0.049 A 
ATOM     61  H   UNL A   1      46.561  29.304  27.452  1.00  0.00     0.167 HD
ATOM     62  C   UNL A   1      44.903  31.395  28.385  1.00  0.00     0.074 A 
ATOM     63  C   UNL A   1      43.737  32.098  28.876  1.00  0.00     0.031 C 
ATOM     64  C   UNL A   1      46.137  31.945  28.282  1.00  0.00     0.034 A 
BRANCH  51  65
ATOM     65  C   UNL A   1      50.486  27.991  26.380  1.00  0.00     0.023 A 
ATOM     66  C   UNL A   1      51.384  27.773  27.445  1.00  0.00     0.012 A 
ATOM     67  C   UNL A   1      50.956  27.910  25.055  1.00  0.00     0.148 A 
ATOM     68  C   UNL A   1      52.731  27.516  27.197  1.00  0.00     0.002 A 
ATOM     69  C   UNL A   1      52.291  27.607  24.814  1.00  0.00     0.091 A 
ATOM     70  F   UNL A   1      50.091  28.136  24.055  1.00  0.00    -0.205 F 
ATOM     71  C   UNL A   1      53.182  27.422  25.884  1.00  0.00     0.022 A 
BRANCH  69  72
ATOM     72  S   UNL A   1      52.953  27.381  23.160  1.00  0.00     0.127 S 
ATOM     73  O   UNL A   1      51.786  26.868  22.443  1.00  0.00    -0.237 OA
ATOM     74  O   UNL A   1      53.343  28.742  22.795  1.00  0.00    -0.237 OA
ATOM     75  O   UNL A   1      54.061  26.445  23.294  1.00  0.00    -0.744 OA
ENDBRANCH  69  72
ENDBRANCH  51  65
BRANCH  52  76
ATOM     76  C   UNL A   1      40.814  29.085  28.553  1.00  0.00     0.023 A 
ATOM     77  C   UNL A   1      39.859  29.409  27.571  1.00  0.00     0.012 A 
ATOM     78  C   UNL A   1      40.402  28.933  29.889  1.00  0.00     0.148 A 
ATOM     79  C   UNL A   1      38.523  29.614  27.920  1.00  0.00     0.002 A 
ATOM     80  C   UNL A   1      39.063  29.097  30.223  1.00  0.00     0.091 A 
ATOM     81  F   UNL A   1      41.328  28.610  30.804  1.00  0.00    -0.205 F 
ATOM     82  C   UNL A   1      38.123  29.454  29.245  1.00  0.00     0.022 A 
BRANCH  80  83
ATOM     83  S   UNL A   1      38.462  28.859  31.893  1.00  0.00     0.127 S 
ATOM     84  O   UNL A   1      39.193  29.883  32.637  1.00  0.00    -0.237 OA
ATOM     85  O   UNL A   1      37.031  29.112  31.736  1.00  0.00    -0.237 OA
ATOM     86  O   UNL A   1      38.821  27.491  32.240  1.00  0.00    -0.744 OA
ENDBRANCH  80  83
ENDBRANCH  52  76
BRANCH  64  87
ATOM     87  C   UNL A   1      46.292  33.396  28.655  1.00  0.00     0.023 A 
ATOM     88  C   UNL A   1      46.120  34.401  27.683  1.00  0.00     0.012 A 
ATOM     89  C   UNL A   1      46.547  33.765  29.991  1.00  0.00     0.148 A 
ATOM     90  C   UNL A   1      46.234  35.748  28.027  1.00  0.00     0.002 A 
ATOM     91  C   UNL A   1      46.607  35.109  30.337  1.00  0.00     0.091 A 
ATOM     92  F   UNL A   1      46.728  32.794  30.898  1.00  0.00    -0.205 F 
ATOM     93  C   UNL A   1      46.465  36.102  29.355  1.00  0.00     0.022 A 
BRANCH  91  94
ATOM     94  S   UNL A   1      46.802  35.660  32.035  1.00  0.00     0.127 S 
ATOM     95  O   UNL A   1      45.799  34.853  32.728  1.00  0.00    -0.237 OA
ATOM     96  O   UNL A   1      48.188  35.288  32.323  1.00  0.00    -0.237 OA
ATOM     97  O   UNL A   1      46.550  37.094  32.025  1.00  0.00    -0.744 OA
ENDBRANCH  91  94
ENDBRANCH  64  87
ENDBRANCH  38  39
ENDBRANCH  30  33
ENDBRANCH  28  29
ENDBRANCH  27  28
ENDBRANCH  26  27
ENDBRANCH   1  26
TORSDOF 19
ENDMDL
