MODEL 1
REMARK VINA RESULT:     -12.3      0.000      0.000
REMARK SMILES CCNC(=O)c1ccc(NC(=O)CC2(C(=O)NCCCCNC(=O)c3ccc(-c4c5nc(c(-c6cccc(S(=O)(=O)[O-])c6F)c6ccc([nH]6)c(-c6cccc(S(=O)(=O)[O-])c6F)c6nc(c(-c7cccc(S(=O)(=O)[O-])c7F)c7ccc4[nH]7)C=C6)C=C5)cc3)CCCC2)cc1
REMARK SMILES IDX 18 1 17 2 15 3 16 4 14 6 88 7 91 8 89 9 90 10 13 11 11 12
REMARK SMILES IDX 10 13 12 15 9 16 6 17 7 18 93 19 8 20 92 21 4 22 3 23 5 25
REMARK SMILES IDX 2 26 1 27 19 28 20 29 21 30 22 31 23 32 24 34 25 35 26 36
REMARK SMILES IDX 87 37 27 38 86 39 28 40 29 41 30 42 80 43 31 44 85 45 79 46
REMARK SMILES IDX 81 47 32 48 84 49 78 50 77 51 33 53 65 54 45 55 64 56 46 57
REMARK SMILES IDX 49 58 63 59 82 60 47 61 48 62 62 64 83 65 50 66 34 67 35 68
REMARK SMILES IDX 43 69 36 70 38 71 44 72 37 73 39 74 40 75 41 76 42 77 66 78
REMARK SMILES IDX 67 79 75 80 68 81 70 82 76 83 69 84 71 85 72 86 73 87 74 88
REMARK SMILES IDX 51 89 52 90 60 91 53 92 55 93 61 94 54 95 56 96 57 97 58 98
REMARK SMILES IDX 59 99
REMARK H PARENT 17 5 10 14 3 24 22 33 81 52 49 63
REMARK Flexibility Score: inf
ROOT
ATOM      1  C   UNL A   1      33.195  21.470  25.063  1.00  0.00     0.116 C 
ENDROOT
BRANCH   1   2
ATOM      2  N   UNL A   1      32.775  21.657  23.693  1.00  0.00    -0.356 N 
ATOM      3  C   UNL A   1      32.784  22.734  22.869  1.00  0.00     0.226 C 
ATOM      4  O   UNL A   1      32.842  22.459  21.662  1.00  0.00    -0.274 OA
ATOM      5  H   UNL A   1      32.410  20.843  23.276  1.00  0.00     0.163 HD
BRANCH   3   6
ATOM      6  C   UNL A   1      32.787  24.228  23.311  1.00  0.00     0.058 C 
ATOM      7  C   UNL A   1      34.252  24.737  23.234  1.00  0.00     0.017 C 
ATOM      8  C   UNL A   1      32.373  24.541  24.763  1.00  0.00     0.017 C 
ATOM      9  C   UNL A   1      34.820  24.628  24.637  1.00  0.00     0.001 C 
ATOM     10  C   UNL A   1      33.638  24.900  25.550  1.00  0.00     0.001 C 
BRANCH   6  11
ATOM     11  C   UNL A   1      31.924  25.016  22.250  1.00  0.00     0.117 C 
BRANCH  11  12
ATOM     12  C   UNL A   1      32.656  25.947  21.295  1.00  0.00     0.225 C 
ATOM     13  N   UNL A   1      33.021  27.217  21.618  1.00  0.00    -0.326 N 
ATOM     14  H   UNL A   1      33.657  27.619  20.983  1.00  0.00     0.169 HD
ATOM     15  O   UNL A   1      33.034  25.514  20.197  1.00  0.00    -0.275 OA
BRANCH  13  16
ATOM     16  C   UNL A   1      32.672  28.065  22.675  1.00  0.00     0.041 A 
ATOM     17  C   UNL A   1      32.110  29.640  24.914  1.00  0.00     0.039 A 
ATOM     18  C   UNL A   1      31.091  29.306  24.026  1.00  0.00     0.016 A 
ATOM     19  C   UNL A   1      33.425  29.236  24.667  1.00  0.00     0.016 A 
ATOM     20  C   UNL A   1      31.382  28.541  22.893  1.00  0.00     0.027 A 
ATOM     21  C   UNL A   1      33.704  28.468  23.534  1.00  0.00     0.027 A 
BRANCH  17  22
ATOM     22  C   UNL A   1      31.765  30.320  26.171  1.00  0.00     0.251 C 
ATOM     23  N   UNL A   1      31.733  29.607  27.338  1.00  0.00    -0.352 N 
ATOM     24  H   UNL A   1      31.314  30.063  28.104  1.00  0.00     0.163 HD
ATOM     25  O   UNL A   1      31.507  31.519  26.133  1.00  0.00    -0.269 OA
BRANCH  23  26
ATOM     26  C   UNL A   1      32.232  28.270  27.599  1.00  0.00     0.112 C 
ATOM     27  C   UNL A   1      31.243  27.224  27.119  1.00  0.00     0.027 C 
ENDBRANCH  23  26
ENDBRANCH  17  22
ENDBRANCH  13  16
ENDBRANCH  11  12
ENDBRANCH   6  11
ENDBRANCH   3   6
ENDBRANCH   1   2
BRANCH   1  28
ATOM     28  C   UNL A   1      34.514  20.724  25.225  1.00  0.00     0.023 C 
BRANCH  28  29
ATOM     29  C   UNL A   1      35.596  21.450  26.021  1.00  0.00     0.023 C 
BRANCH  29  30
ATOM     30  C   UNL A   1      36.903  21.735  25.291  1.00  0.00     0.116 C 
BRANCH  30  31
ATOM     31  N   UNL A   1      37.894  20.671  25.402  1.00  0.00    -0.352 N 
ATOM     32  C   UNL A   1      39.155  20.726  25.955  1.00  0.00     0.251 C 
ATOM     33  H   UNL A   1      37.628  19.798  25.032  1.00  0.00     0.163 HD
ATOM     34  O   UNL A   1      39.885  19.746  25.931  1.00  0.00    -0.269 OA
BRANCH  32  35
ATOM     35  C   UNL A   1      39.630  22.002  26.533  1.00  0.00     0.039 A 
ATOM     36  C   UNL A   1      40.678  21.972  27.456  1.00  0.00     0.014 A 
ATOM     37  C   UNL A   1      39.093  23.220  26.111  1.00  0.00     0.014 A 
ATOM     38  C   UNL A   1      41.248  23.171  27.891  1.00  0.00     0.010 A 
ATOM     39  C   UNL A   1      39.708  24.409  26.490  1.00  0.00     0.010 A 
ATOM     40  C   UNL A   1      40.796  24.397  27.376  1.00  0.00    -0.014 A 
BRANCH  40  41
ATOM     41  C   UNL A   1      41.468  25.675  27.719  1.00  0.00     0.031 A 
ATOM     42  C   UNL A   1      40.721  26.745  28.463  1.00  0.00     0.074 A 
ATOM     43  C   UNL A   1      42.714  25.914  27.261  1.00  0.00     0.049 A 
ATOM     44  N   UNL A   1      41.111  27.950  28.788  1.00  0.00    -0.248 NA
ATOM     45  C   UNL A   1      39.339  26.433  28.870  1.00  0.00     0.031 C 
ATOM     46  C   UNL A   1      43.507  24.992  26.444  1.00  0.00     0.029 A 
ATOM     47  N   UNL A   1      43.519  27.018  27.389  1.00  0.00    -0.354 N 
ATOM     48  C   UNL A   1      40.017  28.554  29.395  1.00  0.00     0.074 A 
ATOM     49  C   UNL A   1      38.936  27.593  29.369  1.00  0.00     0.031 C 
ATOM     50  C   UNL A   1      44.685  25.568  26.148  1.00  0.00     0.029 A 
ATOM     51  C   UNL A   1      44.723  26.905  26.732  1.00  0.00     0.049 A 
ATOM     52  H   UNL A   1      43.260  27.817  27.903  1.00  0.00     0.167 HD
ATOM     53  C   UNL A   1      39.929  29.784  29.954  1.00  0.00     0.034 A 
ATOM     54  C   UNL A   1      45.741  27.778  26.612  1.00  0.00     0.034 A 
ATOM     55  C   UNL A   1      41.025  30.711  30.034  1.00  0.00     0.049 A 
ATOM     56  C   UNL A   1      45.645  29.110  27.307  1.00  0.00     0.074 A 
ATOM     57  C   UNL A   1      41.070  31.938  30.672  1.00  0.00     0.029 A 
ATOM     58  N   UNL A   1      42.270  30.515  29.456  1.00  0.00    -0.354 N 
ATOM     59  N   UNL A   1      44.664  29.593  28.032  1.00  0.00    -0.248 NA
ATOM     60  C   UNL A   1      46.808  30.003  27.202  1.00  0.00     0.031 C 
ATOM     61  C   UNL A   1      42.341  32.486  30.474  1.00  0.00     0.029 A 
ATOM     62  C   UNL A   1      43.090  31.597  29.719  1.00  0.00     0.049 A 
ATOM     63  H   UNL A   1      42.531  29.722  28.933  1.00  0.00     0.167 HD
ATOM     64  C   UNL A   1      45.104  30.827  28.497  1.00  0.00     0.074 A 
ATOM     65  C   UNL A   1      46.448  31.009  27.989  1.00  0.00     0.031 C 
ATOM     66  C   UNL A   1      44.448  31.736  29.259  1.00  0.00     0.034 A 
BRANCH  53  67
ATOM     67  C   UNL A   1      38.620  30.169  30.590  1.00  0.00     0.023 A 
ATOM     68  C   UNL A   1      38.364  29.789  31.924  1.00  0.00     0.012 A 
ATOM     69  C   UNL A   1      37.672  30.945  29.898  1.00  0.00     0.148 A 
ATOM     70  C   UNL A   1      37.170  30.146  32.548  1.00  0.00     0.002 A 
ATOM     71  C   UNL A   1      36.500  31.333  30.540  1.00  0.00     0.091 A 
ATOM     72  F   UNL A   1      37.921  31.278  28.623  1.00  0.00    -0.205 F 
ATOM     73  C   UNL A   1      36.244  30.925  31.860  1.00  0.00     0.022 A 
BRANCH  71  74
ATOM     74  S   UNL A   1      35.281  32.400  29.766  1.00  0.00     0.127 S 
ATOM     75  O   UNL A   1      34.739  31.524  28.728  1.00  0.00    -0.237 OA
ATOM     76  O   UNL A   1      34.362  32.675  30.872  1.00  0.00    -0.237 OA
ATOM     77  O   UNL A   1      36.014  33.563  29.287  1.00  0.00    -0.744 OA
ENDBRANCH  71  74
ENDBRANCH  53  67
BRANCH  54  78
ATOM     78  C   UNL A   1      46.979  27.384  25.882  1.00  0.00     0.023 A 
ATOM     79  C   UNL A   1      47.961  26.632  26.557  1.00  0.00     0.012 A 
ATOM     80  C   UNL A   1      47.177  27.711  24.525  1.00  0.00     0.148 A 
ATOM     81  C   UNL A   1      49.130  26.239  25.906  1.00  0.00     0.002 A 
ATOM     82  C   UNL A   1      48.322  27.272  23.868  1.00  0.00     0.091 A 
ATOM     83  F   UNL A   1      46.239  28.438  23.902  1.00  0.00    -0.205 F 
ATOM     84  C   UNL A   1      49.307  26.550  24.561  1.00  0.00     0.022 A 
BRANCH  82  85
ATOM     85  S   UNL A   1      48.572  27.518  22.106  1.00  0.00     0.127 S 
ATOM     86  O   UNL A   1      47.349  28.219  21.723  1.00  0.00    -0.237 OA
ATOM     87  O   UNL A   1      49.784  28.336  22.078  1.00  0.00    -0.237 OA
ATOM     88  O   UNL A   1      48.741  26.184  21.543  1.00  0.00    -0.744 OA
ENDBRANCH  82  85
ENDBRANCH  54  78
BRANCH  66  89
ATOM     89  C   UNL A   1      45.177  33.003  29.621  1.00  0.00     0.023 A 
ATOM     90  C   UNL A   1      46.004  33.027  30.760  1.00  0.00     0.012 A 
ATOM     91  C   UNL A   1      45.110  34.137  28.787  1.00  0.00     0.148 A 
ATOM     92  C   UNL A   1      46.736  34.171  31.079  1.00  0.00     0.002 A 
ATOM     93  C   UNL A   1      45.875  35.257  29.088  1.00  0.00     0.091 A 
ATOM     94  F   UNL A   1      44.300  34.101  27.719  1.00  0.00    -0.205 F 
ATOM     95  C   UNL A   1      46.681  35.279  30.238  1.00  0.00     0.022 A 
BRANCH  93  96
ATOM     96  S   UNL A   1      45.936  36.693  28.008  1.00  0.00     0.127 S 
ATOM     97  O   UNL A   1      44.611  37.275  28.211  1.00  0.00    -0.237 OA
ATOM     98  O   UNL A   1      47.037  37.468  28.580  1.00  0.00    -0.237 OA
ATOM     99  O   UNL A   1      46.198  36.173  26.672  1.00  0.00    -0.744 OA
ENDBRANCH  93  96
ENDBRANCH  66  89
ENDBRANCH  40  41
ENDBRANCH  32  35
ENDBRANCH  30  31
ENDBRANCH  29  30
ENDBRANCH  28  29
ENDBRANCH   1  28
TORSDOF 19
ENDMDL
MODEL 2
REMARK VINA RESULT:     -12.2      0.585      7.387
REMARK SMILES CCNC(=O)c1ccc(NC(=O)CC2(C(=O)NCCCCNC(=O)c3ccc(-c4c5nc(c(-c6cccc(S(=O)(=O)[O-])c6F)c6ccc([nH]6)c(-c6cccc(S(=O)(=O)[O-])c6F)c6nc(c(-c7cccc(S(=O)(=O)[O-])c7F)c7ccc4[nH]7)C=C6)C=C5)cc3)CCCC2)cc1
REMARK SMILES IDX 18 1 17 2 15 3 16 4 14 6 88 7 91 8 89 9 90 10 13 11 11 12
REMARK SMILES IDX 10 13 12 15 9 16 6 17 7 18 93 19 8 20 92 21 4 22 3 23 5 25
REMARK SMILES IDX 2 26 1 27 19 28 20 29 21 30 22 31 23 32 24 34 25 35 26 36
REMARK SMILES IDX 87 37 27 38 86 39 28 40 29 41 30 42 80 43 31 44 85 45 79 46
REMARK SMILES IDX 81 47 32 48 84 49 78 50 77 51 33 53 65 54 45 55 64 56 46 57
REMARK SMILES IDX 49 58 63 59 82 60 47 61 48 62 62 64 83 65 50 66 34 67 35 68
REMARK SMILES IDX 43 69 36 70 38 71 44 72 37 73 39 74 40 75 41 76 42 77 66 78
REMARK SMILES IDX 67 79 75 80 68 81 70 82 76 83 69 84 71 85 72 86 73 87 74 88
REMARK SMILES IDX 51 89 52 90 60 91 53 92 55 93 61 94 54 95 56 96 57 97 58 98
REMARK SMILES IDX 59 99
REMARK H PARENT 17 5 10 14 3 24 22 33 81 52 49 63
REMARK Flexibility Score: inf
ROOT
ATOM      1  C   UNL A   1      33.795  21.521  25.252  1.00  0.00     0.116 C 
ENDROOT
BRANCH   1   2
ATOM      2  N   UNL A   1      32.939  21.573  24.089  1.00  0.00    -0.356 N 
ATOM      3  C   UNL A   1      32.694  22.543  23.172  1.00  0.00     0.226 C 
ATOM      4  O   UNL A   1      32.333  22.124  22.063  1.00  0.00    -0.274 OA
ATOM      5  H   UNL A   1      32.435  20.743  23.929  1.00  0.00     0.163 HD
BRANCH   3   6
ATOM      6  C   UNL A   1      32.883  24.075  23.383  1.00  0.00     0.058 C 
ATOM      7  C   UNL A   1      34.380  24.402  23.133  1.00  0.00     0.017 C 
ATOM      8  C   UNL A   1      32.625  24.635  24.797  1.00  0.00     0.017 C 
ATOM      9  C   UNL A   1      35.050  24.431  24.495  1.00  0.00     0.001 C 
ATOM     10  C   UNL A   1      33.980  24.959  25.434  1.00  0.00     0.001 C 
BRANCH   6  11
ATOM     11  C   UNL A   1      32.018  24.794  22.277  1.00  0.00     0.117 C 
BRANCH  11  12
ATOM     12  C   UNL A   1      32.740  25.718  21.307  1.00  0.00     0.225 C 
ATOM     13  N   UNL A   1      33.100  26.993  21.613  1.00  0.00    -0.326 N 
ATOM     14  H   UNL A   1      33.730  27.392  20.969  1.00  0.00     0.169 HD
ATOM     15  O   UNL A   1      33.112  25.275  20.211  1.00  0.00    -0.275 OA
BRANCH  13  16
ATOM     16  C   UNL A   1      32.754  27.852  22.662  1.00  0.00     0.041 A 
ATOM     17  C   UNL A   1      32.187  29.440  24.890  1.00  0.00     0.039 A 
ATOM     18  C   UNL A   1      31.187  29.163  23.962  1.00  0.00     0.016 A 
ATOM     19  C   UNL A   1      33.488  28.972  24.690  1.00  0.00     0.016 A 
ATOM     20  C   UNL A   1      31.482  28.392  22.835  1.00  0.00     0.027 A 
ATOM     21  C   UNL A   1      33.771  28.197  23.563  1.00  0.00     0.027 A 
BRANCH  17  22
ATOM     22  C   UNL A   1      31.828  30.130  26.138  1.00  0.00     0.251 C 
ATOM     23  N   UNL A   1      31.747  29.418  27.304  1.00  0.00    -0.352 N 
ATOM     24  H   UNL A   1      31.321  29.885  28.059  1.00  0.00     0.163 HD
ATOM     25  O   UNL A   1      31.603  31.335  26.095  1.00  0.00    -0.269 OA
BRANCH  23  26
ATOM     26  C   UNL A   1      32.203  28.068  27.577  1.00  0.00     0.112 C 
ATOM     27  C   UNL A   1      31.214  27.048  27.044  1.00  0.00     0.027 C 
ENDBRANCH  23  26
ENDBRANCH  17  22
ENDBRANCH  13  16
ENDBRANCH  11  12
ENDBRANCH   6  11
ENDBRANCH   3   6
ENDBRANCH   1   2
BRANCH   1  28
ATOM     28  C   UNL A   1      35.096  20.756  25.048  1.00  0.00     0.023 C 
BRANCH  28  29
ATOM     29  C   UNL A   1      36.306  21.283  25.816  1.00  0.00     0.023 C 
BRANCH  29  30
ATOM     30  C   UNL A   1      37.620  21.359  25.047  1.00  0.00     0.116 C 
BRANCH  30  31
ATOM     31  N   UNL A   1      38.618  20.384  25.469  1.00  0.00    -0.352 N 
ATOM     32  C   UNL A   1      39.755  20.589  26.218  1.00  0.00     0.251 C 
ATOM     33  H   UNL A   1      38.458  19.456  25.180  1.00  0.00     0.163 HD
ATOM     34  O   UNL A   1      40.518  19.662  26.453  1.00  0.00    -0.269 OA
BRANCH  32  35
ATOM     35  C   UNL A   1      40.067  21.954  26.692  1.00  0.00     0.039 A 
ATOM     36  C   UNL A   1      40.994  22.111  27.726  1.00  0.00     0.014 A 
ATOM     37  C   UNL A   1      39.502  23.071  26.071  1.00  0.00     0.014 A 
ATOM     38  C   UNL A   1      41.422  23.394  28.078  1.00  0.00     0.010 A 
ATOM     39  C   UNL A   1      39.983  24.341  26.375  1.00  0.00     0.010 A 
ATOM     40  C   UNL A   1      40.953  24.515  27.374  1.00  0.00    -0.014 A 
BRANCH  40  41
ATOM     41  C   UNL A   1      41.488  25.874  27.639  1.00  0.00     0.031 A 
ATOM     42  C   UNL A   1      42.873  26.242  27.185  1.00  0.00     0.074 A 
ATOM     43  C   UNL A   1      40.768  26.737  28.384  1.00  0.00     0.049 A 
ATOM     44  N   UNL A   1      43.539  27.349  27.386  1.00  0.00    -0.248 NA
ATOM     45  C   UNL A   1      43.622  25.220  26.434  1.00  0.00     0.031 C 
ATOM     46  C   UNL A   1      39.452  26.462  28.965  1.00  0.00     0.029 A 
ATOM     47  N   UNL A   1      41.057  28.010  28.810  1.00  0.00    -0.354 N 
ATOM     48  C   UNL A   1      44.794  27.144  26.827  1.00  0.00     0.074 A 
ATOM     49  C   UNL A   1      44.808  25.796  26.304  1.00  0.00     0.031 C 
ATOM     50  C   UNL A   1      39.047  27.534  29.666  1.00  0.00     0.029 A 
ATOM     51  C   UNL A   1      40.081  28.562  29.606  1.00  0.00     0.049 A 
ATOM     52  H   UNL A   1      41.886  28.484  28.568  1.00  0.00     0.167 HD
ATOM     53  C   UNL A   1      45.830  28.009  26.728  1.00  0.00     0.034 A 
ATOM     54  C   UNL A   1      40.024  29.760  30.220  1.00  0.00     0.034 A 
ATOM     55  C   UNL A   1      45.789  29.370  27.193  1.00  0.00     0.049 A 
ATOM     56  C   UNL A   1      41.159  30.730  30.031  1.00  0.00     0.074 A 
ATOM     57  C   UNL A   1      46.745  30.358  27.046  1.00  0.00     0.029 A 
ATOM     58  N   UNL A   1      44.735  29.933  27.896  1.00  0.00    -0.354 N 
ATOM     59  N   UNL A   1      42.267  30.580  29.344  1.00  0.00    -0.248 NA
ATOM     60  C   UNL A   1      41.023  32.050  30.666  1.00  0.00     0.031 C 
ATOM     61  C   UNL A   1      46.271  31.519  27.667  1.00  0.00     0.029 A 
ATOM     62  C   UNL A   1      45.017  31.254  28.193  1.00  0.00     0.049 A 
ATOM     63  H   UNL A   1      43.908  29.460  28.148  1.00  0.00     0.167 HD
ATOM     64  C   UNL A   1      42.941  31.792  29.435  1.00  0.00     0.074 A 
ATOM     65  C   UNL A   1      42.107  32.674  30.227  1.00  0.00     0.031 C 
ATOM     66  C   UNL A   1      44.149  32.139  28.927  1.00  0.00     0.034 A 
BRANCH  53  67
ATOM     67  C   UNL A   1      47.073  27.532  26.024  1.00  0.00     0.023 A 
ATOM     68  C   UNL A   1      47.999  26.735  26.726  1.00  0.00     0.012 A 
ATOM     69  C   UNL A   1      47.300  27.823  24.666  1.00  0.00     0.148 A 
ATOM     70  C   UNL A   1      49.150  26.262  26.098  1.00  0.00     0.002 A 
ATOM     71  C   UNL A   1      48.429  27.313  24.033  1.00  0.00     0.091 A 
ATOM     72  F   UNL A   1      46.420  28.601  24.019  1.00  0.00    -0.205 F 
ATOM     73  C   UNL A   1      49.360  26.543  24.751  1.00  0.00     0.022 A 
BRANCH  71  74
ATOM     74  S   UNL A   1      48.749  27.555  22.283  1.00  0.00     0.127 S 
ATOM     75  O   UNL A   1      49.776  28.595  22.311  1.00  0.00    -0.237 OA
ATOM     76  O   UNL A   1      49.229  26.235  21.870  1.00  0.00    -0.237 OA
ATOM     77  O   UNL A   1      47.475  27.944  21.694  1.00  0.00    -0.744 OA
ENDBRANCH  71  74
ENDBRANCH  53  67
BRANCH  54  78
ATOM     78  C   UNL A   1      38.809  30.144  30.993  1.00  0.00     0.023 A 
ATOM     79  C   UNL A   1      38.694  29.731  32.335  1.00  0.00     0.012 A 
ATOM     80  C   UNL A   1      37.791  30.939  30.430  1.00  0.00     0.148 A 
ATOM     81  C   UNL A   1      37.575  30.075  33.093  1.00  0.00     0.002 A 
ATOM     82  C   UNL A   1      36.702  31.321  31.207  1.00  0.00     0.091 A 
ATOM     83  F   UNL A   1      37.910  31.312  29.148  1.00  0.00    -0.205 F 
ATOM     84  C   UNL A   1      36.584  30.877  32.533  1.00  0.00     0.022 A 
BRANCH  82  85
ATOM     85  S   UNL A   1      35.445  32.456  30.606  1.00  0.00     0.127 S 
ATOM     86  O   UNL A   1      36.223  33.666  30.360  1.00  0.00    -0.237 OA
ATOM     87  O   UNL A   1      34.968  31.777  29.401  1.00  0.00    -0.237 OA
ATOM     88  O   UNL A   1      34.454  32.544  31.671  1.00  0.00    -0.744 OA
ENDBRANCH  82  85
ENDBRANCH  54  78
BRANCH  66  89
ATOM     89  C   UNL A   1      44.640  33.539  29.181  1.00  0.00     0.023 A 
ATOM     90  C   UNL A   1      45.390  33.812  30.340  1.00  0.00     0.012 A 
ATOM     91  C   UNL A   1      44.432  34.560  28.232  1.00  0.00     0.148 A 
ATOM     92  C   UNL A   1      45.907  35.088  30.565  1.00  0.00     0.002 A 
ATOM     93  C   UNL A   1      44.986  35.817  28.442  1.00  0.00     0.091 A 
ATOM     94  F   UNL A   1      43.696  34.285  27.145  1.00  0.00    -0.205 F 
ATOM     95  C   UNL A   1      45.716  36.085  29.612  1.00  0.00     0.022 A 
BRANCH  93  96
ATOM     96  S   UNL A   1      44.869  37.131  27.221  1.00  0.00     0.127 S 
ATOM     97  O   UNL A   1      45.838  36.694  26.219  1.00  0.00    -0.237 OA
ATOM     98  O   UNL A   1      43.471  37.040  26.797  1.00  0.00    -0.237 OA
ATOM     99  O   UNL A   1      45.203  38.360  27.928  1.00  0.00    -0.744 OA
ENDBRANCH  93  96
ENDBRANCH  66  89
ENDBRANCH  40  41
ENDBRANCH  32  35
ENDBRANCH  30  31
ENDBRANCH  29  30
ENDBRANCH  28  29
ENDBRANCH   1  28
TORSDOF 19
ENDMDL
MODEL 3
REMARK VINA RESULT:     -11.9      3.228      8.576
REMARK SMILES CCNC(=O)c1ccc(NC(=O)CC2(C(=O)NCCCCNC(=O)c3ccc(-c4c5nc(c(-c6cccc(S(=O)(=O)[O-])c6F)c6ccc([nH]6)c(-c6cccc(S(=O)(=O)[O-])c6F)c6nc(c(-c7cccc(S(=O)(=O)[O-])c7F)c7ccc4[nH]7)C=C6)C=C5)cc3)CCCC2)cc1
REMARK SMILES IDX 18 1 17 2 15 3 16 4 14 6 88 7 91 8 89 9 90 10 13 11 11 12
REMARK SMILES IDX 10 13 12 15 9 16 6 17 7 18 93 19 8 20 92 21 4 22 3 23 5 25
REMARK SMILES IDX 2 26 1 27 19 28 20 29 21 30 22 31 23 32 24 34 25 35 26 36
REMARK SMILES IDX 87 37 27 38 86 39 28 40 29 41 30 42 80 43 31 44 85 45 79 46
REMARK SMILES IDX 81 47 32 48 84 49 78 50 77 51 33 53 65 54 45 55 64 56 46 57
REMARK SMILES IDX 49 58 63 59 82 60 47 61 48 62 62 64 83 65 50 66 34 67 35 68
REMARK SMILES IDX 43 69 36 70 38 71 44 72 37 73 39 74 40 75 41 76 42 77 66 78
REMARK SMILES IDX 67 79 75 80 68 81 70 82 76 83 69 84 71 85 72 86 73 87 74 88
REMARK SMILES IDX 51 89 52 90 60 91 53 92 55 93 61 94 54 95 56 96 57 97 58 98
REMARK SMILES IDX 59 99
REMARK H PARENT 17 5 10 14 3 24 22 33 81 52 49 63
REMARK Flexibility Score: inf
ROOT
ATOM      1  C   UNL A   1      34.057  24.881  23.656  1.00  0.00     0.116 C 
ENDROOT
BRANCH   1   2
ATOM      2  N   UNL A   1      33.754  26.248  23.297  1.00  0.00    -0.356 N 
ATOM      3  C   UNL A   1      33.175  27.268  23.977  1.00  0.00     0.226 C 
ATOM      4  O   UNL A   1      33.516  28.398  23.598  1.00  0.00    -0.274 OA
ATOM      5  H   UNL A   1      34.020  26.485  22.379  1.00  0.00     0.163 HD
BRANCH   3   6
ATOM      6  C   UNL A   1      32.203  27.131  25.187  1.00  0.00     0.058 C 
ATOM      7  C   UNL A   1      31.259  28.364  25.173  1.00  0.00     0.017 C 
ATOM      8  C   UNL A   1      32.818  27.166  26.601  1.00  0.00     0.017 C 
ATOM      9  C   UNL A   1      31.850  29.372  26.141  1.00  0.00     0.001 C 
ATOM     10  C   UNL A   1      32.492  28.526  27.226  1.00  0.00     0.001 C 
BRANCH   6  11
ATOM     11  C   UNL A   1      31.342  25.834  24.931  1.00  0.00     0.117 C 
BRANCH  11  12
ATOM     12  C   UNL A   1      30.636  25.208  26.124  1.00  0.00     0.225 C 
ATOM     13  N   UNL A   1      31.004  24.020  26.675  1.00  0.00    -0.326 N 
ATOM     14  H   UNL A   1      30.592  23.846  27.552  1.00  0.00     0.169 HD
ATOM     15  O   UNL A   1      29.739  25.841  26.697  1.00  0.00    -0.275 OA
BRANCH  13  16
ATOM     16  C   UNL A   1      31.854  22.996  26.243  1.00  0.00     0.041 A 
ATOM     17  C   UNL A   1      33.715  21.055  25.483  1.00  0.00     0.039 A 
ATOM     18  C   UNL A   1      32.733  21.465  24.586  1.00  0.00     0.016 A 
ATOM     19  C   UNL A   1      33.746  21.570  26.781  1.00  0.00     0.016 A 
ATOM     20  C   UNL A   1      31.787  22.415  24.979  1.00  0.00     0.027 A 
ATOM     21  C   UNL A   1      32.800  22.523  27.163  1.00  0.00     0.027 A 
BRANCH  17  22
ATOM     22  C   UNL A   1      34.785  20.164  25.010  1.00  0.00     0.251 C 
ATOM     23  N   UNL A   1      34.552  18.820  24.912  1.00  0.00    -0.352 N 
ATOM     24  H   UNL A   1      35.350  18.258  24.777  1.00  0.00     0.163 HD
ATOM     25  O   UNL A   1      35.870  20.660  24.720  1.00  0.00    -0.269 OA
BRANCH  23  26
ATOM     26  C   UNL A   1      33.288  18.111  24.979  1.00  0.00     0.112 C 
ATOM     27  C   UNL A   1      32.688  17.948  23.595  1.00  0.00     0.027 C 
ENDBRANCH  23  26
ENDBRANCH  17  22
ENDBRANCH  13  16
ENDBRANCH  11  12
ENDBRANCH   6  11
ENDBRANCH   3   6
ENDBRANCH   1   2
BRANCH   1  28
ATOM     28  C   UNL A   1      34.851  24.725  24.946  1.00  0.00     0.023 C 
BRANCH  28  29
ATOM     29  C   UNL A   1      36.155  23.939  24.835  1.00  0.00     0.023 C 
BRANCH  29  30
ATOM     30  C   UNL A   1      36.917  23.697  26.133  1.00  0.00     0.116 C 
BRANCH  30  31
ATOM     31  N   UNL A   1      37.833  22.563  26.087  1.00  0.00    -0.352 N 
ATOM     32  C   UNL A   1      39.179  22.535  26.376  1.00  0.00     0.251 C 
ATOM     33  H   UNL A   1      37.437  21.704  25.812  1.00  0.00     0.163 HD
ATOM     34  O   UNL A   1      39.819  21.501  26.246  1.00  0.00    -0.269 OA
BRANCH  32  35
ATOM     35  C   UNL A   1      39.850  23.784  26.796  1.00  0.00     0.039 A 
ATOM     36  C   UNL A   1      40.090  24.773  25.838  1.00  0.00     0.014 A 
ATOM     37  C   UNL A   1      40.173  24.004  28.137  1.00  0.00     0.014 A 
ATOM     38  C   UNL A   1      40.573  26.020  26.242  1.00  0.00     0.010 A 
ATOM     39  C   UNL A   1      40.586  25.268  28.545  1.00  0.00     0.010 A 
ATOM     40  C   UNL A   1      40.782  26.291  27.604  1.00  0.00    -0.014 A 
BRANCH  40  41
ATOM     41  C   UNL A   1      41.170  27.645  28.073  1.00  0.00     0.031 A 
ATOM     42  C   UNL A   1      42.620  28.029  28.158  1.00  0.00     0.074 A 
ATOM     43  C   UNL A   1      40.220  28.487  28.528  1.00  0.00     0.049 A 
ATOM     44  N   UNL A   1      43.156  29.133  28.609  1.00  0.00    -0.248 NA
ATOM     45  C   UNL A   1      43.602  27.028  27.704  1.00  0.00     0.031 C 
ATOM     46  C   UNL A   1      38.786  28.192  28.589  1.00  0.00     0.029 A 
ATOM     47  N   UNL A   1      40.320  29.749  29.058  1.00  0.00    -0.354 N 
ATOM     48  C   UNL A   1      44.531  28.946  28.536  1.00  0.00     0.074 A 
ATOM     49  C   UNL A   1      44.749  27.611  28.024  1.00  0.00     0.031 C 
ATOM     50  C   UNL A   1      38.143  29.245  29.121  1.00  0.00     0.029 A 
ATOM     51  C   UNL A   1      39.116  30.278  29.461  1.00  0.00     0.049 A 
ATOM     52  H   UNL A   1      41.175  30.232  29.141  1.00  0.00     0.167 HD
ATOM     53  C   UNL A   1      45.523  29.817  28.837  1.00  0.00     0.034 A 
ATOM     54  C   UNL A   1      38.827  31.460  30.039  1.00  0.00     0.034 A 
ATOM     55  C   UNL A   1      45.300  31.165  29.286  1.00  0.00     0.049 A 
ATOM     56  C   UNL A   1      39.942  32.438  30.293  1.00  0.00     0.074 A 
ATOM     57  C   UNL A   1      46.233  32.160  29.515  1.00  0.00     0.029 A 
ATOM     58  N   UNL A   1      44.056  31.707  29.574  1.00  0.00    -0.354 N 
ATOM     59  N   UNL A   1      41.225  32.309  30.049  1.00  0.00    -0.248 NA
ATOM     60  C   UNL A   1      39.570  33.741  30.866  1.00  0.00     0.031 C 
ATOM     61  C   UNL A   1      45.552  33.303  29.949  1.00  0.00     0.029 A 
ATOM     62  C   UNL A   1      44.196  33.021  29.982  1.00  0.00     0.049 A 
ATOM     63  H   UNL A   1      43.200  31.225  29.501  1.00  0.00     0.167 HD
ATOM     64  C   UNL A   1      41.806  33.521  30.404  1.00  0.00     0.074 A 
ATOM     65  C   UNL A   1      40.732  34.380  30.861  1.00  0.00     0.031 C 
ATOM     66  C   UNL A   1      43.111  33.884  30.373  1.00  0.00     0.034 A 
BRANCH  53  67
ATOM     67  C   UNL A   1      46.941  29.362  28.618  1.00  0.00     0.023 A 
ATOM     68  C   UNL A   1      47.578  29.656  27.395  1.00  0.00     0.012 A 
ATOM     69  C   UNL A   1      47.659  28.697  29.631  1.00  0.00     0.148 A 
ATOM     70  C   UNL A   1      48.896  29.265  27.169  1.00  0.00     0.002 A 
ATOM     71  C   UNL A   1      48.987  28.347  29.413  1.00  0.00     0.091 A 
ATOM     72  F   UNL A   1      47.031  28.407  30.779  1.00  0.00    -0.205 F 
ATOM     73  C   UNL A   1      49.603  28.620  28.180  1.00  0.00     0.022 A 
BRANCH  71  74
ATOM     74  S   UNL A   1      50.005  27.583  30.681  1.00  0.00     0.127 S 
ATOM     75  O   UNL A   1      49.732  26.163  30.461  1.00  0.00    -0.237 OA
ATOM     76  O   UNL A   1      51.351  28.011  30.297  1.00  0.00    -0.237 OA
ATOM     77  O   UNL A   1      49.538  28.124  31.949  1.00  0.00    -0.744 OA
ENDBRANCH  71  74
ENDBRANCH  53  67
BRANCH  54  78
ATOM     78  C   UNL A   1      37.411  31.821  30.330  1.00  0.00     0.023 A 
ATOM     79  C   UNL A   1      36.944  31.740  31.658  1.00  0.00     0.012 A 
ATOM     80  C   UNL A   1      36.537  32.274  29.322  1.00  0.00     0.148 A 
ATOM     81  C   UNL A   1      35.627  32.075  31.970  1.00  0.00     0.002 A 
ATOM     82  C   UNL A   1      35.240  32.654  29.650  1.00  0.00     0.091 A 
ATOM     83  F   UNL A   1      36.993  32.331  28.063  1.00  0.00    -0.205 F 
ATOM     84  C   UNL A   1      34.778  32.540  30.970  1.00  0.00     0.022 A 
BRANCH  82  85
ATOM     85  S   UNL A   1      34.120  33.383  28.449  1.00  0.00     0.127 S 
ATOM     86  O   UNL A   1      35.030  34.183  27.635  1.00  0.00    -0.237 OA
ATOM     87  O   UNL A   1      33.574  32.202  27.780  1.00  0.00    -0.237 OA
ATOM     88  O   UNL A   1      33.141  34.132  29.227  1.00  0.00    -0.744 OA
ENDBRANCH  82  85
ENDBRANCH  54  78
BRANCH  66  89
ATOM     89  C   UNL A   1      43.461  35.279  30.818  1.00  0.00     0.023 A 
ATOM     90  C   UNL A   1      43.606  36.298  29.858  1.00  0.00     0.012 A 
ATOM     91  C   UNL A   1      43.559  35.597  32.187  1.00  0.00     0.148 A 
ATOM     92  C   UNL A   1      43.870  37.610  30.252  1.00  0.00     0.002 A 
ATOM     93  C   UNL A   1      43.778  36.913  32.574  1.00  0.00     0.091 A 
ATOM     94  F   UNL A   1      43.438  34.608  33.085  1.00  0.00    -0.205 F 
ATOM     95  C   UNL A   1      43.943  37.919  31.607  1.00  0.00     0.022 A 
BRANCH  93  96
ATOM     96  S   UNL A   1      43.793  37.415  34.300  1.00  0.00     0.127 S 
ATOM     97  O   UNL A   1      44.080  38.844  34.192  1.00  0.00    -0.237 OA
ATOM     98  O   UNL A   1      42.432  37.097  34.730  1.00  0.00    -0.237 OA
ATOM     99  O   UNL A   1      44.828  36.611  34.938  1.00  0.00    -0.744 OA
ENDBRANCH  93  96
ENDBRANCH  66  89
ENDBRANCH  40  41
ENDBRANCH  32  35
ENDBRANCH  30  31
ENDBRANCH  29  30
ENDBRANCH  28  29
ENDBRANCH   1  28
TORSDOF 19
ENDMDL
