MODEL 1
REMARK VINA RESULT:     -12.8      0.000      0.000
REMARK SMILES NC(=O)[C@@H]1CCC[N@@H+]1[C@@H](C(=O)NCCCCNC(=O)c1ccc(-c2c3nc(c(-c4cccc(S(=O)(=O)[O-])c4F)c4ccc([nH]4)c(-c4cccc(S(=O)(=O)[O-])c4F)c4nc(c(-c5cccc(S(=O)(=O)[O-])c5F)c5ccc2[nH]5)C=C4)C=C3)cc1)c1c[nH]c2cc(OCc3ccccc3)ccc12
REMARK SMILES IDX 14 1 13 2 12 3 10 4 11 5 9 7 8 8 4 9 5 10 6 11 7 12 2 14
REMARK SMILES IDX 1 15 3 18 83 19 84 20 99 21 85 22 86 23 98 24 87 26 97 27
REMARK SMILES IDX 88 28 89 29 90 30 91 31 92 32 96 33 93 34 95 35 94 36 15 37
REMARK SMILES IDX 16 38 17 39 18 40 19 42 20 43 21 44 82 45 22 46 81 47 23 48
REMARK SMILES IDX 24 49 25 50 75 51 26 52 80 53 74 54 76 55 27 56 79 57 73 58
REMARK SMILES IDX 72 59 28 61 60 62 40 63 59 64 41 65 44 66 58 67 77 68 42 69
REMARK SMILES IDX 43 70 57 72 78 73 45 74 29 75 30 76 38 77 31 78 33 79 39 80
REMARK SMILES IDX 32 81 34 82 35 83 36 84 37 85 61 86 62 87 70 88 63 89 65 90
REMARK SMILES IDX 71 91 64 92 66 93 67 94 68 95 69 96 46 97 47 98 55 99 48 100
REMARK SMILES IDX 50 101 56 102 49 103 51 104 52 105 53 106 54 107
REMARK H PARENT 12 6 8 13 1 16 1 17 85 25 17 41 76 60 44 71
REMARK Flexibility Score: inf
ROOT
ATOM      1  C   UNL A   1      35.629  23.632  24.447  1.00  0.00     0.023 C 
ENDROOT
BRANCH   1   2
ATOM      2  C   UNL A   1      35.232  24.871  25.267  1.00  0.00     0.116 C 
BRANCH   2   3
ATOM      3  N   UNL A   1      34.004  24.711  26.020  1.00  0.00    -0.351 N 
ATOM      4  C   UNL A   1      32.782  25.309  26.077  1.00  0.00     0.283 C 
ATOM      5  O   UNL A   1      32.081  24.816  26.967  1.00  0.00    -0.268 OA
ATOM      6  H   UNL A   1      34.071  23.970  26.665  1.00  0.00     0.163 HD
BRANCH   4   7
ATOM      7  C   UNL A   1      32.289  26.434  25.115  1.00  0.00     0.308 C 
BRANCH   7   8
ATOM      8  N   UNL A   1      31.424  27.548  25.719  1.00  0.00    -0.311 N 
ATOM      9  C   UNL A   1      31.580  28.962  25.298  1.00  0.00     0.275 C 
ATOM     10  C   UNL A   1      32.777  29.495  26.088  1.00  0.00     0.081 C 
ATOM     11  C   UNL A   1      32.755  28.686  27.374  1.00  0.00     0.068 C 
ATOM     12  C   UNL A   1      31.586  27.749  27.179  1.00  0.00     0.264 C 
ATOM     13  H   UNL A   1      30.554  27.141  25.374  1.00  0.00     0.349 HD
BRANCH   9  14
ATOM     14  C   UNL A   1      31.292  29.325  23.843  1.00  0.00     0.275 C 
ATOM     15  N   UNL A   1      32.350  29.325  22.987  1.00  0.00    -0.365 N 
ATOM     16  H   UNL A   1      32.216  29.553  22.039  1.00  0.00     0.159 HD
ATOM     17  H   UNL A   1      33.250  29.099  23.315  1.00  0.00     0.159 HD
ATOM     18  O   UNL A   1      30.159  29.479  23.391  1.00  0.00    -0.268 OA
ENDBRANCH   9  14
ENDBRANCH   7   8
BRANCH   7  19
ATOM     19  C   UNL A   1      31.457  25.908  23.872  1.00  0.00     0.044 A 
ATOM     20  C   UNL A   1      30.066  25.999  23.784  1.00  0.00     0.094 A 
ATOM     21  C   UNL A   1      31.764  24.842  22.939  1.00  0.00     0.009 A 
ATOM     22  N   UNL A   1      29.660  24.690  23.592  1.00  0.00    -0.361 N 
ATOM     23  C   UNL A   1      30.731  23.937  23.174  1.00  0.00     0.050 A 
ATOM     24  C   UNL A   1      32.883  24.366  22.222  1.00  0.00     0.015 A 
ATOM     25  H   UNL A   1      28.746  24.350  23.732  1.00  0.00     0.166 HD
ATOM     26  C   UNL A   1      30.956  22.557  23.155  1.00  0.00     0.073 A 
ATOM     27  C   UNL A   1      33.058  22.985  22.032  1.00  0.00     0.047 A 
ATOM     28  C   UNL A   1      32.160  22.096  22.609  1.00  0.00     0.121 A 
BRANCH  28  29
ATOM     29  O   UNL A   1      32.463  20.780  22.850  1.00  0.00    -0.489 OA
BRANCH  29  30
ATOM     30  C   UNL A   1      32.462  20.375  24.222  1.00  0.00     0.265 C 
BRANCH  30  31
ATOM     31  C   UNL A   1      32.787  18.903  24.389  1.00  0.00    -0.011 A 
ATOM     32  C   UNL A   1      33.277  18.176  23.298  1.00  0.00     0.007 A 
ATOM     33  C   UNL A   1      32.613  18.229  25.605  1.00  0.00     0.007 A 
ATOM     34  C   UNL A   1      33.526  16.805  23.415  1.00  0.00     0.000 A 
ATOM     35  C   UNL A   1      32.826  16.858  25.717  1.00  0.00     0.000 A 
ATOM     36  C   UNL A   1      33.279  16.144  24.618  1.00  0.00     0.000 A 
ENDBRANCH  30  31
ENDBRANCH  29  30
ENDBRANCH  28  29
ENDBRANCH   7  19
ENDBRANCH   4   7
ENDBRANCH   2   3
ENDBRANCH   1   2
BRANCH   1  37
ATOM     37  C   UNL A   1      35.555  22.276  25.155  1.00  0.00     0.023 C 
BRANCH  37  38
ATOM     38  C   UNL A   1      36.604  22.174  26.237  1.00  0.00     0.116 C 
BRANCH  38  39
ATOM     39  N   UNL A   1      37.669  21.231  25.919  1.00  0.00    -0.352 N 
ATOM     40  C   UNL A   1      39.028  21.415  26.083  1.00  0.00     0.251 C 
ATOM     41  H   UNL A   1      37.387  20.365  25.544  1.00  0.00     0.163 HD
ATOM     42  O   UNL A   1      39.831  20.590  25.700  1.00  0.00    -0.269 OA
BRANCH  40  43
ATOM     43  C   UNL A   1      39.475  22.689  26.689  1.00  0.00     0.039 A 
ATOM     44  C   UNL A   1      40.444  22.653  27.692  1.00  0.00     0.014 A 
ATOM     45  C   UNL A   1      39.019  23.908  26.184  1.00  0.00     0.014 A 
ATOM     46  C   UNL A   1      41.005  23.849  28.136  1.00  0.00     0.010 A 
ATOM     47  C   UNL A   1      39.667  25.081  26.534  1.00  0.00     0.010 A 
ATOM     48  C   UNL A   1      40.649  25.067  27.531  1.00  0.00    -0.014 A 
BRANCH  48  49
ATOM     49  C   UNL A   1      41.287  26.335  27.948  1.00  0.00     0.031 A 
ATOM     50  C   UNL A   1      42.701  26.636  27.536  1.00  0.00     0.074 A 
ATOM     51  C   UNL A   1      40.608  27.185  28.743  1.00  0.00     0.049 A 
ATOM     52  N   UNL A   1      43.406  27.715  27.748  1.00  0.00    -0.248 NA
ATOM     53  C   UNL A   1      43.435  25.575  26.824  1.00  0.00     0.031 C 
ATOM     54  C   UNL A   1      39.276  26.937  29.303  1.00  0.00     0.029 A 
ATOM     55  N   UNL A   1      40.942  28.425  29.220  1.00  0.00    -0.354 N 
ATOM     56  C   UNL A   1      44.667  27.451  27.225  1.00  0.00     0.074 A 
ATOM     57  C   UNL A   1      44.652  26.091  26.741  1.00  0.00     0.031 C 
ATOM     58  C   UNL A   1      38.892  28.009  30.014  1.00  0.00     0.029 A 
ATOM     59  C   UNL A   1      39.951  29.010  29.971  1.00  0.00     0.049 A 
ATOM     60  H   UNL A   1      41.810  28.855  29.042  1.00  0.00     0.167 HD
ATOM     61  C   UNL A   1      45.728  28.284  27.112  1.00  0.00     0.034 A 
ATOM     62  C   UNL A   1      39.897  30.232  30.538  1.00  0.00     0.034 A 
ATOM     63  C   UNL A   1      45.709  29.651  27.551  1.00  0.00     0.049 A 
ATOM     64  C   UNL A   1      41.051  31.172  30.322  1.00  0.00     0.074 A 
ATOM     65  C   UNL A   1      46.685  30.619  27.405  1.00  0.00     0.029 A 
ATOM     66  N   UNL A   1      44.653  30.244  28.229  1.00  0.00    -0.354 N 
ATOM     67  N   UNL A   1      42.167  30.971  29.662  1.00  0.00    -0.248 NA
ATOM     68  C   UNL A   1      40.920  32.521  30.887  1.00  0.00     0.031 C 
ATOM     69  C   UNL A   1      46.225  31.793  28.010  1.00  0.00     0.029 A 
ATOM     70  C   UNL A   1      44.954  31.564  28.514  1.00  0.00     0.049 A 
ATOM     71  H   UNL A   1      43.813  29.792  28.470  1.00  0.00     0.167 HD
ATOM     72  C   UNL A   1      42.860  32.175  29.706  1.00  0.00     0.074 A 
ATOM     73  C   UNL A   1      42.021  33.107  30.435  1.00  0.00     0.031 C 
ATOM     74  C   UNL A   1      44.084  32.479  29.208  1.00  0.00     0.034 A 
BRANCH  61  75
ATOM     75  C   UNL A   1      46.961  27.746  26.434  1.00  0.00     0.023 A 
ATOM     76  C   UNL A   1      47.930  27.059  27.197  1.00  0.00     0.012 A 
ATOM     77  C   UNL A   1      47.161  27.903  25.050  1.00  0.00     0.148 A 
ATOM     78  C   UNL A   1      49.098  26.580  26.604  1.00  0.00     0.002 A 
ATOM     79  C   UNL A   1      48.305  27.380  24.457  1.00  0.00     0.091 A 
ATOM     80  F   UNL A   1      46.246  28.582  24.344  1.00  0.00    -0.205 F 
ATOM     81  C   UNL A   1      49.280  26.732  25.233  1.00  0.00     0.022 A 
BRANCH  79  82
ATOM     82  S   UNL A   1      48.595  27.457  22.686  1.00  0.00     0.127 S 
ATOM     83  O   UNL A   1      49.927  28.056  22.631  1.00  0.00    -0.237 OA
ATOM     84  O   UNL A   1      48.546  26.045  22.303  1.00  0.00    -0.237 OA
ATOM     85  O   UNL A   1      47.517  28.269  22.140  1.00  0.00    -0.744 OA
ENDBRANCH  79  82
ENDBRANCH  61  75
BRANCH  62  86
ATOM     86  C   UNL A   1      38.662  30.664  31.252  1.00  0.00     0.023 A 
ATOM     87  C   UNL A   1      38.569  30.475  32.645  1.00  0.00     0.012 A 
ATOM     88  C   UNL A   1      37.609  31.309  30.575  1.00  0.00     0.148 A 
ATOM     89  C   UNL A   1      37.439  30.896  33.347  1.00  0.00     0.002 A 
ATOM     90  C   UNL A   1      36.510  31.775  31.289  1.00  0.00     0.091 A 
ATOM     91  F   UNL A   1      37.714  31.473  29.249  1.00  0.00    -0.205 F 
ATOM     92  C   UNL A   1      36.415  31.555  32.672  1.00  0.00     0.022 A 
BRANCH  90  93
ATOM     93  S   UNL A   1      35.209  32.751  30.527  1.00  0.00     0.127 S 
ATOM     94  O   UNL A   1      35.947  33.923  30.063  1.00  0.00    -0.237 OA
ATOM     95  O   UNL A   1      34.741  31.857  29.467  1.00  0.00    -0.237 OA
ATOM     96  O   UNL A   1      34.233  32.995  31.581  1.00  0.00    -0.744 OA
ENDBRANCH  90  93
ENDBRANCH  62  86
BRANCH  74  97
ATOM     97  C   UNL A   1      44.583  33.883  29.420  1.00  0.00     0.023 A 
ATOM     98  C   UNL A   1      45.240  34.215  30.622  1.00  0.00     0.012 A 
ATOM     99  C   UNL A   1      44.456  34.854  28.409  1.00  0.00     0.148 A 
ATOM    100  C   UNL A   1      45.727  35.504  30.830  1.00  0.00     0.002 A 
ATOM    101  C   UNL A   1      44.989  36.123  28.603  1.00  0.00     0.091 A 
ATOM    102  F   UNL A   1      43.810  34.525  27.280  1.00  0.00    -0.205 F 
ATOM    103  C   UNL A   1      45.612  36.454  29.816  1.00  0.00     0.022 A 
BRANCH 101 104
ATOM    104  S   UNL A   1      44.971  37.371  27.312  1.00  0.00     0.127 S 
ATOM    105  O   UNL A   1      45.368  38.569  28.050  1.00  0.00    -0.237 OA
ATOM    106  O   UNL A   1      45.980  36.869  26.377  1.00  0.00    -0.237 OA
ATOM    107  O   UNL A   1      43.614  37.376  26.783  1.00  0.00    -0.744 OA
ENDBRANCH 101 104
ENDBRANCH  74  97
ENDBRANCH  48  49
ENDBRANCH  40  43
ENDBRANCH  38  39
ENDBRANCH  37  38
ENDBRANCH   1  37
TORSDOF 20
ENDMDL
MODEL 2
REMARK VINA RESULT:     -12.3      1.941      8.476
REMARK SMILES NC(=O)[C@@H]1CCC[N@@H+]1[C@@H](C(=O)NCCCCNC(=O)c1ccc(-c2c3nc(c(-c4cccc(S(=O)(=O)[O-])c4F)c4ccc([nH]4)c(-c4cccc(S(=O)(=O)[O-])c4F)c4nc(c(-c5cccc(S(=O)(=O)[O-])c5F)c5ccc2[nH]5)C=C4)C=C3)cc1)c1c[nH]c2cc(OCc3ccccc3)ccc12
REMARK SMILES IDX 14 1 13 2 12 3 10 4 11 5 9 7 8 8 4 9 5 10 6 11 7 12 2 14
REMARK SMILES IDX 1 15 3 18 83 19 84 20 99 21 85 22 86 23 98 24 87 26 97 27
REMARK SMILES IDX 88 28 89 29 90 30 91 31 92 32 96 33 93 34 95 35 94 36 15 37
REMARK SMILES IDX 16 38 17 39 18 40 19 42 20 43 21 44 82 45 22 46 81 47 23 48
REMARK SMILES IDX 24 49 25 50 75 51 26 52 80 53 74 54 76 55 27 56 79 57 73 58
REMARK SMILES IDX 72 59 28 61 60 62 40 63 59 64 41 65 44 66 58 67 77 68 42 69
REMARK SMILES IDX 43 70 57 72 78 73 45 74 29 75 30 76 38 77 31 78 33 79 39 80
REMARK SMILES IDX 32 81 34 82 35 83 36 84 37 85 61 86 62 87 70 88 63 89 65 90
REMARK SMILES IDX 71 91 64 92 66 93 67 94 68 95 69 96 46 97 47 98 55 99 48 100
REMARK SMILES IDX 50 101 56 102 49 103 51 104 52 105 53 106 54 107
REMARK H PARENT 12 6 8 13 1 16 1 17 85 25 17 41 76 60 44 71
REMARK Flexibility Score: inf
ROOT
ATOM      1  C   UNL A   1      36.441  19.866  24.744  1.00  0.00     0.023 C 
ENDROOT
BRANCH   1   2
ATOM      2  C   UNL A   1      34.979  20.254  25.018  1.00  0.00     0.116 C 
BRANCH   2   3
ATOM      3  N   UNL A   1      34.790  21.030  26.228  1.00  0.00    -0.351 N 
ATOM      4  C   UNL A   1      34.203  22.207  26.578  1.00  0.00     0.283 C 
ATOM      5  O   UNL A   1      34.379  22.459  27.774  1.00  0.00    -0.268 OA
ATOM      6  H   UNL A   1      35.196  20.586  27.006  1.00  0.00     0.163 HD
BRANCH   4   7
ATOM      7  C   UNL A   1      33.363  23.110  25.622  1.00  0.00     0.308 C 
BRANCH   7   8
ATOM      8  N   UNL A   1      34.097  24.249  24.904  1.00  0.00    -0.311 N 
ATOM      9  C   UNL A   1      34.334  24.216  23.439  1.00  0.00     0.275 C 
ATOM     10  C   UNL A   1      35.567  23.331  23.244  1.00  0.00     0.081 C 
ATOM     11  C   UNL A   1      36.365  23.530  24.522  1.00  0.00     0.068 C 
ATOM     12  C   UNL A   1      35.499  24.466  25.334  1.00  0.00     0.264 C 
ATOM     13  H   UNL A   1      33.394  24.944  25.160  1.00  0.00     0.349 HD
BRANCH   9  14
ATOM     14  C   UNL A   1      33.126  24.208  22.506  1.00  0.00     0.275 C 
ATOM     15  N   UNL A   1      32.739  23.001  22.009  1.00  0.00    -0.365 N 
ATOM     16  H   UNL A   1      31.965  22.943  21.403  1.00  0.00     0.159 HD
ATOM     17  H   UNL A   1      33.231  22.185  22.255  1.00  0.00     0.159 HD
ATOM     18  O   UNL A   1      32.422  25.193  22.295  1.00  0.00    -0.268 OA
ENDBRANCH   9  14
ENDBRANCH   7   8
BRANCH   7  19
ATOM     19  C   UNL A   1      32.117  23.805  26.313  1.00  0.00     0.044 A 
ATOM     20  C   UNL A   1      30.968  23.113  26.702  1.00  0.00     0.094 A 
ATOM     21  C   UNL A   1      31.643  25.171  26.203  1.00  0.00     0.009 A 
ATOM     22  N   UNL A   1      29.947  23.766  26.035  1.00  0.00    -0.361 N 
ATOM     23  C   UNL A   1      30.388  25.000  25.622  1.00  0.00     0.050 A 
ATOM     24  C   UNL A   1      32.189  26.472  26.181  1.00  0.00     0.015 A 
ATOM     25  H   UNL A   1      29.045  23.403  25.880  1.00  0.00     0.166 HD
ATOM     26  C   UNL A   1      29.904  25.896  24.663  1.00  0.00     0.073 A 
ATOM     27  C   UNL A   1      31.622  27.456  25.353  1.00  0.00     0.047 A 
ATOM     28  C   UNL A   1      30.569  27.119  24.513  1.00  0.00     0.121 A 
BRANCH  28  29
ATOM     29  O   UNL A   1      30.242  27.846  23.397  1.00  0.00    -0.489 OA
BRANCH  29  30
ATOM     30  C   UNL A   1      28.852  28.127  23.212  1.00  0.00     0.265 C 
BRANCH  30  31
ATOM     31  C   UNL A   1      28.602  29.571  22.822  1.00  0.00    -0.011 A 
ATOM     32  C   UNL A   1      29.281  30.117  21.726  1.00  0.00     0.007 A 
ATOM     33  C   UNL A   1      27.710  30.394  23.522  1.00  0.00     0.007 A 
ATOM     34  C   UNL A   1      29.109  31.463  21.387  1.00  0.00     0.000 A 
ATOM     35  C   UNL A   1      27.563  31.743  23.210  1.00  0.00     0.000 A 
ATOM     36  C   UNL A   1      28.267  32.279  22.143  1.00  0.00     0.000 A 
ENDBRANCH  30  31
ENDBRANCH  29  30
ENDBRANCH  28  29
ENDBRANCH   7  19
ENDBRANCH   4   7
ENDBRANCH   2   3
ENDBRANCH   1   2
BRANCH   1  37
ATOM     37  C   UNL A   1      37.491  20.366  25.740  1.00  0.00     0.023 C 
BRANCH  37  38
ATOM     38  C   UNL A   1      38.876  20.311  25.137  1.00  0.00     0.116 C 
BRANCH  38  39
ATOM     39  N   UNL A   1      39.781  19.421  25.855  1.00  0.00    -0.352 N 
ATOM     40  C   UNL A   1      40.830  19.780  26.679  1.00  0.00     0.251 C 
ATOM     41  H   UNL A   1      39.627  18.456  25.739  1.00  0.00     0.163 HD
ATOM     42  O   UNL A   1      41.574  18.949  27.157  1.00  0.00    -0.269 OA
BRANCH  40  43
ATOM     43  C   UNL A   1      41.053  21.226  26.909  1.00  0.00     0.039 A 
ATOM     44  C   UNL A   1      41.626  21.634  28.112  1.00  0.00     0.014 A 
ATOM     45  C   UNL A   1      40.802  22.148  25.891  1.00  0.00     0.014 A 
ATOM     46  C   UNL A   1      42.012  22.965  28.263  1.00  0.00     0.010 A 
ATOM     47  C   UNL A   1      41.300  23.436  25.994  1.00  0.00     0.010 A 
ATOM     48  C   UNL A   1      41.888  23.865  27.190  1.00  0.00    -0.014 A 
BRANCH  48  49
ATOM     49  C   UNL A   1      42.355  25.263  27.315  1.00  0.00     0.031 A 
ATOM     50  C   UNL A   1      41.500  26.280  28.020  1.00  0.00     0.074 A 
ATOM     51  C   UNL A   1      43.521  25.622  26.745  1.00  0.00     0.049 A 
ATOM     52  N   UNL A   1      41.764  27.532  28.285  1.00  0.00    -0.248 NA
ATOM     53  C   UNL A   1      40.159  25.849  28.453  1.00  0.00     0.031 C 
ATOM     54  C   UNL A   1      44.371  24.747  25.933  1.00  0.00     0.029 A 
ATOM     55  N   UNL A   1      44.192  26.817  26.758  1.00  0.00    -0.354 N 
ATOM     56  C   UNL A   1      40.617  28.040  28.884  1.00  0.00     0.074 A 
ATOM     57  C   UNL A   1      39.634  26.983  28.889  1.00  0.00     0.031 C 
ATOM     58  C   UNL A   1      45.469  25.423  25.559  1.00  0.00     0.029 A 
ATOM     59  C   UNL A   1      45.395  26.778  26.092  1.00  0.00     0.049 A 
ATOM     60  H   UNL A   1      43.846  27.625  27.200  1.00  0.00     0.167 HD
ATOM     61  C   UNL A   1      40.418  29.263  29.428  1.00  0.00     0.034 A 
ATOM     62  C   UNL A   1      46.342  27.727  25.955  1.00  0.00     0.034 A 
ATOM     63  C   UNL A   1      41.424  30.287  29.462  1.00  0.00     0.049 A 
ATOM     64  C   UNL A   1      46.137  29.048  26.644  1.00  0.00     0.074 A 
ATOM     65  C   UNL A   1      41.374  31.528  30.067  1.00  0.00     0.029 A 
ATOM     66  N   UNL A   1      42.669  30.184  28.857  1.00  0.00    -0.354 N 
ATOM     67  N   UNL A   1      45.121  29.452  27.369  1.00  0.00    -0.248 NA
ATOM     68  C   UNL A   1      47.227  30.026  26.537  1.00  0.00     0.031 C 
ATOM     69  C   UNL A   1      42.585  32.183  29.813  1.00  0.00     0.029 A 
ATOM     70  C   UNL A   1      43.397  31.341  29.069  1.00  0.00     0.049 A 
ATOM     71  H   UNL A   1      42.988  29.401  28.353  1.00  0.00     0.167 HD
ATOM     72  C   UNL A   1      45.459  30.719  27.828  1.00  0.00     0.074 A 
ATOM     73  C   UNL A   1      46.788  31.001  27.322  1.00  0.00     0.031 C 
ATOM     74  C   UNL A   1      44.733  31.579  28.585  1.00  0.00     0.034 A 
BRANCH  61  75
ATOM     75  C   UNL A   1      39.083  29.523  30.078  1.00  0.00     0.023 A 
ATOM     76  C   UNL A   1      38.808  28.969  31.348  1.00  0.00     0.012 A 
ATOM     77  C   UNL A   1      38.107  30.319  29.450  1.00  0.00     0.148 A 
ATOM     78  C   UNL A   1      37.570  29.163  31.958  1.00  0.00     0.002 A 
ATOM     79  C   UNL A   1      36.893  30.548  30.086  1.00  0.00     0.091 A 
ATOM     80  F   UNL A   1      38.372  30.814  28.233  1.00  0.00    -0.205 F 
ATOM     81  C   UNL A   1      36.617  29.960  31.332  1.00  0.00     0.022 A 
BRANCH  79  82
ATOM     82  S   UNL A   1      35.630  31.624  29.398  1.00  0.00     0.127 S 
ATOM     83  O   UNL A   1      36.438  32.699  28.826  1.00  0.00    -0.237 OA
ATOM     84  O   UNL A   1      34.987  30.754  28.412  1.00  0.00    -0.237 OA
ATOM     85  O   UNL A   1      34.777  32.004  30.516  1.00  0.00    -0.744 OA
ENDBRANCH  79  82
ENDBRANCH  61  75
BRANCH  62  86
ATOM     86  C   UNL A   1      47.609  27.410  25.236  1.00  0.00     0.023 A 
ATOM     87  C   UNL A   1      48.630  26.714  25.911  1.00  0.00     0.012 A 
ATOM     88  C   UNL A   1      47.785  27.739  23.878  1.00  0.00     0.148 A 
ATOM     89  C   UNL A   1      49.815  26.375  25.257  1.00  0.00     0.002 A 
ATOM     90  C   UNL A   1      48.945  27.350  23.216  1.00  0.00     0.091 A 
ATOM     91  F   UNL A   1      46.805  28.407  23.255  1.00  0.00    -0.205 F 
ATOM     92  C   UNL A   1      49.969  26.682  23.908  1.00  0.00     0.022 A 
BRANCH  90  93
ATOM     93  S   UNL A   1      49.173  27.584  21.450  1.00  0.00     0.127 S 
ATOM     94  O   UNL A   1      47.890  27.130  20.920  1.00  0.00    -0.237 OA
ATOM     95  O   UNL A   1      49.400  29.027  21.364  1.00  0.00    -0.237 OA
ATOM     96  O   UNL A   1      50.328  26.773  21.092  1.00  0.00    -0.744 OA
ENDBRANCH  90  93
ENDBRANCH  62  86
BRANCH  74  97
ATOM     97  C   UNL A   1      45.367  32.901  28.923  1.00  0.00     0.023 A 
ATOM     98  C   UNL A   1      46.154  33.019  30.086  1.00  0.00     0.012 A 
ATOM     99  C   UNL A   1      45.233  34.006  28.062  1.00  0.00     0.148 A 
ATOM    100  C   UNL A   1      46.767  34.230  30.406  1.00  0.00     0.002 A 
ATOM    101  C   UNL A   1      45.888  35.195  28.361  1.00  0.00     0.091 A 
ATOM    102  F   UNL A   1      44.463  33.880  26.971  1.00  0.00    -0.205 F 
ATOM    103  C   UNL A   1      46.643  35.313  29.539  1.00  0.00     0.022 A 
BRANCH 101 104
ATOM    104  S   UNL A   1      45.862  36.604  27.248  1.00  0.00     0.127 S 
ATOM    105  O   UNL A   1      46.689  37.570  27.969  1.00  0.00    -0.237 OA
ATOM    106  O   UNL A   1      46.477  36.058  26.038  1.00  0.00    -0.237 OA
ATOM    107  O   UNL A   1      44.458  36.964  27.097  1.00  0.00    -0.744 OA
ENDBRANCH 101 104
ENDBRANCH  74  97
ENDBRANCH  48  49
ENDBRANCH  40  43
ENDBRANCH  38  39
ENDBRANCH  37  38
ENDBRANCH   1  37
TORSDOF 20
ENDMDL
MODEL 3
REMARK VINA RESULT:     -12.2      4.718     10.231
REMARK SMILES NC(=O)[C@@H]1CCC[N@@H+]1[C@@H](C(=O)NCCCCNC(=O)c1ccc(-c2c3nc(c(-c4cccc(S(=O)(=O)[O-])c4F)c4ccc([nH]4)c(-c4cccc(S(=O)(=O)[O-])c4F)c4nc(c(-c5cccc(S(=O)(=O)[O-])c5F)c5ccc2[nH]5)C=C4)C=C3)cc1)c1c[nH]c2cc(OCc3ccccc3)ccc12
REMARK SMILES IDX 14 1 13 2 12 3 10 4 11 5 9 7 8 8 4 9 5 10 6 11 7 12 2 14
REMARK SMILES IDX 1 15 3 18 83 19 84 20 99 21 85 22 86 23 98 24 87 26 97 27
REMARK SMILES IDX 88 28 89 29 90 30 91 31 92 32 96 33 93 34 95 35 94 36 15 37
REMARK SMILES IDX 16 38 17 39 18 40 19 42 20 43 21 44 82 45 22 46 81 47 23 48
REMARK SMILES IDX 24 49 25 50 75 51 26 52 80 53 74 54 76 55 27 56 79 57 73 58
REMARK SMILES IDX 72 59 28 61 60 62 40 63 59 64 41 65 44 66 58 67 77 68 42 69
REMARK SMILES IDX 43 70 57 72 78 73 45 74 29 75 30 76 38 77 31 78 33 79 39 80
REMARK SMILES IDX 32 81 34 82 35 83 36 84 37 85 61 86 62 87 70 88 63 89 65 90
REMARK SMILES IDX 71 91 64 92 66 93 67 94 68 95 69 96 46 97 47 98 55 99 48 100
REMARK SMILES IDX 50 101 56 102 49 103 51 104 52 105 53 106 54 107
REMARK H PARENT 12 6 8 13 1 16 1 17 85 25 17 41 76 60 44 71
REMARK Flexibility Score: inf
ROOT
ATOM      1  C   UNL A   1      33.871  27.135  26.137  1.00  0.00     0.023 C 
ENDROOT
BRANCH   1   2
ATOM      2  C   UNL A   1      33.376  25.800  25.554  1.00  0.00     0.116 C 
BRANCH   2   3
ATOM      3  N   UNL A   1      32.382  25.132  26.370  1.00  0.00    -0.351 N 
ATOM      4  C   UNL A   1      31.725  23.940  26.367  1.00  0.00     0.283 C 
ATOM      5  O   UNL A   1      30.901  23.878  27.285  1.00  0.00    -0.268 OA
ATOM      6  H   UNL A   1      32.109  25.690  27.134  1.00  0.00     0.163 HD
BRANCH   4   7
ATOM      7  C   UNL A   1      31.999  22.767  25.375  1.00  0.00     0.308 C 
BRANCH   7   8
ATOM      8  N   UNL A   1      33.435  22.234  25.295  1.00  0.00    -0.311 N 
ATOM      9  C   UNL A   1      33.777  20.862  25.747  1.00  0.00     0.275 C 
ATOM     10  C   UNL A   1      33.922  20.957  27.268  1.00  0.00     0.081 C 
ATOM     11  C   UNL A   1      34.392  22.383  27.502  1.00  0.00     0.068 C 
ATOM     12  C   UNL A   1      34.428  22.973  26.111  1.00  0.00     0.264 C 
ATOM     13  H   UNL A   1      33.475  22.321  24.279  1.00  0.00     0.349 HD
BRANCH   9  14
ATOM     14  C   UNL A   1      33.140  19.678  25.026  1.00  0.00     0.275 C 
ATOM     15  N   UNL A   1      33.984  18.797  24.422  1.00  0.00    -0.365 N 
ATOM     16  H   UNL A   1      33.622  18.017  23.943  1.00  0.00     0.159 HD
ATOM     17  H   UNL A   1      34.957  18.940  24.463  1.00  0.00     0.159 HD
ATOM     18  O   UNL A   1      31.941  19.413  25.078  1.00  0.00    -0.268 OA
ENDBRANCH   9  14
ENDBRANCH   7   8
BRANCH   7  19
ATOM     19  C   UNL A   1      31.602  23.081  23.873  1.00  0.00     0.044 A 
ATOM     20  C   UNL A   1      32.277  22.548  22.771  1.00  0.00     0.094 A 
ATOM     21  C   UNL A   1      30.957  24.252  23.312  1.00  0.00     0.009 A 
ATOM     22  N   UNL A   1      32.676  23.663  22.057  1.00  0.00    -0.361 N 
ATOM     23  C   UNL A   1      31.942  24.751  22.462  1.00  0.00     0.050 A 
ATOM     24  C   UNL A   1      29.890  25.117  23.635  1.00  0.00     0.015 A 
ATOM     25  H   UNL A   1      33.377  23.675  21.365  1.00  0.00     0.166 HD
ATOM     26  C   UNL A   1      32.149  26.127  22.320  1.00  0.00     0.073 A 
ATOM     27  C   UNL A   1      29.988  26.489  23.351  1.00  0.00     0.047 A 
ATOM     28  C   UNL A   1      31.166  26.993  22.814  1.00  0.00     0.121 A 
BRANCH  28  29
ATOM     29  O   UNL A   1      31.521  28.315  22.902  1.00  0.00    -0.489 OA
BRANCH  29  30
ATOM     30  C   UNL A   1      30.941  29.189  21.930  1.00  0.00     0.265 C 
BRANCH  30  31
ATOM     31  C   UNL A   1      29.769  29.975  22.488  1.00  0.00    -0.011 A 
ATOM     32  C   UNL A   1      28.577  30.047  21.758  1.00  0.00     0.007 A 
ATOM     33  C   UNL A   1      29.831  30.644  23.718  1.00  0.00     0.007 A 
ATOM     34  C   UNL A   1      27.506  30.815  22.226  1.00  0.00     0.000 A 
ATOM     35  C   UNL A   1      28.781  31.438  24.170  1.00  0.00     0.000 A 
ATOM     36  C   UNL A   1      27.618  31.527  23.421  1.00  0.00     0.000 A 
ENDBRANCH  30  31
ENDBRANCH  29  30
ENDBRANCH  28  29
ENDBRANCH   7  19
ENDBRANCH   4   7
ENDBRANCH   2   3
ENDBRANCH   1   2
BRANCH   1  37
ATOM     37  C   UNL A   1      32.930  28.337  26.017  1.00  0.00     0.023 C 
BRANCH  37  38
ATOM     38  C   UNL A   1      33.690  29.579  25.609  1.00  0.00     0.116 C 
BRANCH  38  39
ATOM     39  N   UNL A   1      32.970  30.813  25.898  1.00  0.00    -0.352 N 
ATOM     40  C   UNL A   1      33.215  31.705  26.925  1.00  0.00     0.251 C 
ATOM     41  H   UNL A   1      32.227  31.037  25.293  1.00  0.00     0.163 HD
ATOM     42  O   UNL A   1      32.493  32.659  27.121  1.00  0.00    -0.269 OA
BRANCH  40  43
ATOM     43  C   UNL A   1      34.358  31.416  27.820  1.00  0.00     0.039 A 
ATOM     44  C   UNL A   1      34.402  30.187  28.477  1.00  0.00     0.014 A 
ATOM     45  C   UNL A   1      35.426  32.310  27.910  1.00  0.00     0.014 A 
ATOM     46  C   UNL A   1      35.558  29.830  29.171  1.00  0.00     0.010 A 
ATOM     47  C   UNL A   1      36.616  31.901  28.489  1.00  0.00     0.010 A 
ATOM     48  C   UNL A   1      36.687  30.667  29.147  1.00  0.00    -0.014 A 
BRANCH  48  49
ATOM     49  C   UNL A   1      37.941  30.269  29.822  1.00  0.00     0.031 A 
ATOM     50  C   UNL A   1      38.238  30.769  31.209  1.00  0.00     0.074 A 
ATOM     51  C   UNL A   1      38.832  29.505  29.162  1.00  0.00     0.049 A 
ATOM     52  N   UNL A   1      39.248  30.481  31.986  1.00  0.00    -0.248 NA
ATOM     53  C   UNL A   1      37.301  31.747  31.788  1.00  0.00     0.031 C 
ATOM     54  C   UNL A   1      38.702  29.066  27.769  1.00  0.00     0.029 A 
ATOM     55  N   UNL A   1      40.023  28.964  29.570  1.00  0.00    -0.354 N 
ATOM     56  C   UNL A   1      39.082  31.261  33.125  1.00  0.00     0.074 A 
ATOM     57  C   UNL A   1      37.912  32.079  32.914  1.00  0.00     0.031 C 
ATOM     58  C   UNL A   1      39.751  28.290  27.453  1.00  0.00     0.029 A 
ATOM     59  C   UNL A   1      40.631  28.188  28.611  1.00  0.00     0.049 A 
ATOM     60  H   UNL A   1      40.406  29.117  30.463  1.00  0.00     0.167 HD
ATOM     61  C   UNL A   1      39.811  31.259  34.265  1.00  0.00     0.034 A 
ATOM     62  C   UNL A   1      41.761  27.456  28.674  1.00  0.00     0.034 A 
ATOM     63  C   UNL A   1      40.942  30.400  34.479  1.00  0.00     0.049 A 
ATOM     64  C   UNL A   1      42.504  27.400  29.980  1.00  0.00     0.074 A 
ATOM     65  C   UNL A   1      41.700  30.239  35.624  1.00  0.00     0.029 A 
ATOM     66  N   UNL A   1      41.480  29.557  33.518  1.00  0.00    -0.354 N 
ATOM     67  N   UNL A   1      42.229  28.001  31.113  1.00  0.00    -0.248 NA
ATOM     68  C   UNL A   1      43.685  26.528  30.032  1.00  0.00     0.031 C 
ATOM     69  C   UNL A   1      42.708  29.309  35.348  1.00  0.00     0.029 A 
ATOM     70  C   UNL A   1      42.565  28.874  34.039  1.00  0.00     0.049 A 
ATOM     71  H   UNL A   1      41.139  29.458  32.600  1.00  0.00     0.167 HD
ATOM     72  C   UNL A   1      43.184  27.560  32.022  1.00  0.00     0.074 A 
ATOM     73  C   UNL A   1      44.026  26.618  31.311  1.00  0.00     0.031 C 
ATOM     74  C   UNL A   1      43.361  27.914  33.319  1.00  0.00     0.034 A 
BRANCH  61  75
ATOM     75  C   UNL A   1      39.359  32.171  35.377  1.00  0.00     0.023 A 
ATOM     76  C   UNL A   1      38.424  31.700  36.325  1.00  0.00     0.012 A 
ATOM     77  C   UNL A   1      39.862  33.480  35.498  1.00  0.00     0.148 A 
ATOM     78  C   UNL A   1      37.962  32.532  37.344  1.00  0.00     0.002 A 
ATOM     79  C   UNL A   1      39.432  34.287  36.545  1.00  0.00     0.091 A 
ATOM     80  F   UNL A   1      40.727  33.921  34.574  1.00  0.00    -0.205 F 
ATOM     81  C   UNL A   1      38.473  33.821  37.459  1.00  0.00     0.022 A 
BRANCH  79  82
ATOM     82  S   UNL A   1      40.088  35.936  36.825  1.00  0.00     0.127 S 
ATOM     83  O   UNL A   1      41.512  35.659  37.006  1.00  0.00    -0.237 OA
ATOM     84  O   UNL A   1      39.754  36.619  35.574  1.00  0.00    -0.237 OA
ATOM     85  O   UNL A   1      39.393  36.448  37.997  1.00  0.00    -0.744 OA
ENDBRANCH  79  82
ENDBRANCH  61  75
BRANCH  62  86
ATOM     86  C   UNL A   1      42.177  26.633  27.503  1.00  0.00     0.023 A 
ATOM     87  C   UNL A   1      42.976  27.215  26.500  1.00  0.00     0.012 A 
ATOM     88  C   UNL A   1      41.836  25.270  27.404  1.00  0.00     0.148 A 
ATOM     89  C   UNL A   1      43.408  26.462  25.407  1.00  0.00     0.002 A 
ATOM     90  C   UNL A   1      42.315  24.512  26.341  1.00  0.00     0.091 A 
ATOM     91  F   UNL A   1      41.068  24.737  28.365  1.00  0.00    -0.205 F 
ATOM     92  C   UNL A   1      43.087  25.110  25.332  1.00  0.00     0.022 A 
BRANCH  90  93
ATOM     93  S   UNL A   1      42.064  22.737  26.232  1.00  0.00     0.127 S 
ATOM     94  O   UNL A   1      40.607  22.638  26.257  1.00  0.00    -0.237 OA
ATOM     95  O   UNL A   1      42.682  22.423  24.943  1.00  0.00    -0.237 OA
ATOM     96  O   UNL A   1      42.756  22.172  27.382  1.00  0.00    -0.744 OA
ENDBRANCH  90  93
ENDBRANCH  62  86
BRANCH  74  97
ATOM     97  C   UNL A   1      44.501  27.266  34.059  1.00  0.00     0.023 A 
ATOM     98  C   UNL A   1      45.764  27.892  34.079  1.00  0.00     0.012 A 
ATOM     99  C   UNL A   1      44.307  26.073  34.779  1.00  0.00     0.148 A 
ATOM    100  C   UNL A   1      46.826  27.318  34.775  1.00  0.00     0.002 A 
ATOM    101  C   UNL A   1      45.358  25.533  35.512  1.00  0.00     0.091 A 
ATOM    102  F   UNL A   1      43.105  25.481  34.730  1.00  0.00    -0.205 F 
ATOM    103  C   UNL A   1      46.621  26.147  35.500  1.00  0.00     0.022 A 
BRANCH 101 104
ATOM    104  S   UNL A   1      45.150  24.084  36.552  1.00  0.00     0.127 S 
ATOM    105  O   UNL A   1      44.241  23.269  35.749  1.00  0.00    -0.237 OA
ATOM    106  O   UNL A   1      46.515  23.565  36.643  1.00  0.00    -0.237 OA
ATOM    107  O   UNL A   1      44.610  24.575  37.813  1.00  0.00    -0.744 OA
ENDBRANCH 101 104
ENDBRANCH  74  97
ENDBRANCH  48  49
ENDBRANCH  40  43
ENDBRANCH  38  39
ENDBRANCH  37  38
ENDBRANCH   1  37
TORSDOF 20
ENDMDL
