MODEL 1
REMARK VINA RESULT:     -12.3      0.000      0.000
REMARK SMILES C[C@H]1CCC[C@@H]1n1c(SCC(=O)NCCCCNC(=O)c2ccc(-c3c4nc(c(-c5cccc(S(=O)(=O)[O-])c5F)c5ccc([nH]5)c(-c5cccc(S(=O)(=O)[O-])c5F)c5nc(c(-c6cccc(S(=O)(=O)[O-])c6F)c6ccc3[nH]6)C=C5)C=C4)cc2)nc2cnccc21
REMARK SMILES IDX 15 1 14 2 13 3 11 4 12 5 10 7 9 8 8 9 7 10 90 11 84 12 85 13
REMARK SMILES IDX 89 14 86 15 88 16 87 17 6 18 1 19 2 20 3 21 4 22 5 23 16 24
REMARK SMILES IDX 17 25 18 26 19 27 20 29 21 30 22 31 83 32 23 33 82 34 24 35
REMARK SMILES IDX 25 36 26 37 76 38 27 39 81 40 75 41 77 42 28 43 80 44 74 45
REMARK SMILES IDX 73 46 29 48 61 49 41 50 60 51 42 52 45 53 59 54 78 55 43 56
REMARK SMILES IDX 44 57 58 59 79 60 46 61 30 62 31 63 39 64 32 65 34 66 40 67
REMARK SMILES IDX 33 68 35 69 36 70 37 71 38 72 62 73 63 74 71 75 64 76 66 77
REMARK SMILES IDX 72 78 65 79 67 80 68 81 69 82 70 83 47 84 48 85 56 86 49 87
REMARK SMILES IDX 51 88 57 89 50 90 52 91 53 92 54 93 55 94
REMARK H PARENT 13 6 18 28 77 47 45 58
REMARK Flexibility Score: inf
ROOT
ATOM      1  C   UNL A   1      31.386  27.876  26.874  1.00  0.00     0.023 C 
ENDROOT
BRANCH   1   2
ATOM      2  C   UNL A   1      31.444  26.597  26.055  1.00  0.00     0.116 C 
BRANCH   2   3
ATOM      3  N   UNL A   1      31.022  25.440  26.808  1.00  0.00    -0.355 N 
ATOM      4  C   UNL A   1      30.936  24.156  26.392  1.00  0.00     0.230 C 
ATOM      5  O   UNL A   1      31.061  23.293  27.271  1.00  0.00    -0.274 OA
ATOM      6  H   UNL A   1      30.762  25.607  27.744  1.00  0.00     0.163 HD
BRANCH   4   7
ATOM      7  C   UNL A   1      30.864  23.765  24.939  1.00  0.00     0.178 C 
BRANCH   7   8
ATOM      8  S   UNL A   1      32.213  23.035  24.025  1.00  0.00    -0.078 SA
BRANCH   8   9
ATOM      9  C   UNL A   1      32.571  21.347  24.209  1.00  0.00     0.169 A 
ATOM     10  N   UNL A   1      33.705  20.726  24.748  1.00  0.00    -0.315 N 
ATOM     11  C   UNL A   1      33.649  19.387  24.350  1.00  0.00     0.072 A 
ATOM     12  N   UNL A   1      31.953  20.531  23.377  1.00  0.00    -0.221 NA
ATOM     13  C   UNL A   1      32.644  19.352  23.385  1.00  0.00     0.108 A 
ATOM     14  C   UNL A   1      34.372  18.221  24.637  1.00  0.00     0.049 A 
ATOM     15  C   UNL A   1      32.488  18.209  22.587  1.00  0.00     0.141 A 
ATOM     16  C   UNL A   1      34.141  17.129  23.808  1.00  0.00     0.113 A 
ATOM     17  N   UNL A   1      33.268  17.116  22.784  1.00  0.00    -0.262 NA
BRANCH  10  18
ATOM     18  C   UNL A   1      34.880  21.403  25.310  1.00  0.00     0.093 C 
ATOM     19  C   UNL A   1      34.304  22.414  27.634  1.00  0.00     0.010 C 
ATOM     20  C   UNL A   1      34.696  22.671  26.182  1.00  0.00     0.009 C 
ATOM     21  C   UNL A   1      36.059  23.367  26.120  1.00  0.00     0.005 C 
ATOM     22  C   UNL A   1      36.487  23.200  24.683  1.00  0.00     0.002 C 
ATOM     23  C   UNL A   1      35.808  21.925  24.218  1.00  0.00     0.026 C 
ENDBRANCH  10  18
ENDBRANCH   8   9
ENDBRANCH   7   8
ENDBRANCH   4   7
ENDBRANCH   2   3
ENDBRANCH   1   2
BRANCH   1  24
ATOM     24  C   UNL A   1      32.734  28.523  27.219  1.00  0.00     0.023 C 
BRANCH  24  25
ATOM     25  C   UNL A   1      33.104  29.792  26.447  1.00  0.00     0.116 C 
BRANCH  25  26
ATOM     26  N   UNL A   1      33.223  30.992  27.248  1.00  0.00    -0.352 N 
ATOM     27  C   UNL A   1      34.238  31.600  27.934  1.00  0.00     0.251 C 
ATOM     28  H   UNL A   1      32.374  31.486  27.314  1.00  0.00     0.163 HD
ATOM     29  O   UNL A   1      33.990  32.733  28.358  1.00  0.00    -0.269 OA
BRANCH  27  30
ATOM     30  C   UNL A   1      35.556  30.984  28.246  1.00  0.00     0.039 A 
ATOM     31  C   UNL A   1      35.795  29.616  28.365  1.00  0.00     0.014 A 
ATOM     32  C   UNL A   1      36.624  31.874  28.475  1.00  0.00     0.014 A 
ATOM     33  C   UNL A   1      37.031  29.154  28.799  1.00  0.00     0.010 A 
ATOM     34  C   UNL A   1      37.875  31.415  28.879  1.00  0.00     0.010 A 
ATOM     35  C   UNL A   1      38.064  30.053  29.077  1.00  0.00    -0.014 A 
BRANCH  35  36
ATOM     36  C   UNL A   1      39.364  29.481  29.417  1.00  0.00     0.031 A 
ATOM     37  C   UNL A   1      39.792  29.754  30.815  1.00  0.00     0.074 A 
ATOM     38  C   UNL A   1      40.102  28.709  28.595  1.00  0.00     0.049 A 
ATOM     39  N   UNL A   1      40.758  30.517  31.215  1.00  0.00    -0.248 NA
ATOM     40  C   UNL A   1      38.947  29.231  31.901  1.00  0.00     0.031 C 
ATOM     41  C   UNL A   1      39.692  28.130  27.314  1.00  0.00     0.029 A 
ATOM     42  N   UNL A   1      41.345  28.179  28.795  1.00  0.00    -0.354 N 
ATOM     43  C   UNL A   1      40.792  30.369  32.598  1.00  0.00     0.074 A 
ATOM     44  C   UNL A   1      39.561  29.724  32.977  1.00  0.00     0.031 C 
ATOM     45  C   UNL A   1      40.558  27.149  26.976  1.00  0.00     0.029 A 
ATOM     46  C   UNL A   1      41.648  27.126  27.935  1.00  0.00     0.049 A 
ATOM     47  H   UNL A   1      41.968  28.510  29.481  1.00  0.00     0.167 HD
ATOM     48  C   UNL A   1      41.944  30.523  33.304  1.00  0.00     0.034 A 
ATOM     49  C   UNL A   1      42.683  26.260  28.060  1.00  0.00     0.034 A 
ATOM     50  C   UNL A   1      42.963  31.190  32.548  1.00  0.00     0.049 A 
ATOM     51  C   UNL A   1      43.713  26.936  28.881  1.00  0.00     0.074 A 
ATOM     52  C   UNL A   1      43.144  32.436  31.992  1.00  0.00     0.029 A 
ATOM     53  N   UNL A   1      43.893  30.355  31.986  1.00  0.00    -0.354 N 
ATOM     54  N   UNL A   1      44.390  27.982  28.493  1.00  0.00    -0.248 NA
ATOM     55  C   UNL A   1      43.822  26.606  30.296  1.00  0.00     0.031 C 
ATOM     56  C   UNL A   1      43.975  32.226  30.855  1.00  0.00     0.029 A 
ATOM     57  C   UNL A   1      44.283  30.865  30.782  1.00  0.00     0.049 A 
ATOM     58  H   UNL A   1      44.229  29.522  32.389  1.00  0.00     0.167 HD
ATOM     59  C   UNL A   1      44.649  28.671  29.664  1.00  0.00     0.074 A 
ATOM     60  C   UNL A   1      44.439  27.705  30.733  1.00  0.00     0.031 C 
ATOM     61  C   UNL A   1      44.702  30.032  29.674  1.00  0.00     0.034 A 
BRANCH  48  62
ATOM     62  C   UNL A   1      42.309  29.674  34.498  1.00  0.00     0.023 A 
ATOM     63  C   UNL A   1      42.736  30.327  35.674  1.00  0.00     0.012 A 
ATOM     64  C   UNL A   1      42.547  28.284  34.411  1.00  0.00     0.148 A 
ATOM     65  C   UNL A   1      43.375  29.629  36.706  1.00  0.00     0.002 A 
ATOM     66  C   UNL A   1      43.099  27.581  35.474  1.00  0.00     0.091 A 
ATOM     67  F   UNL A   1      42.383  27.654  33.243  1.00  0.00    -0.205 F 
ATOM     68  C   UNL A   1      43.539  28.252  36.615  1.00  0.00     0.022 A 
BRANCH  66  69
ATOM     69  S   UNL A   1      43.285  25.797  35.411  1.00  0.00     0.127 S 
ATOM     70  O   UNL A   1      43.806  25.510  36.743  1.00  0.00    -0.237 OA
ATOM     71  O   UNL A   1      41.909  25.362  35.173  1.00  0.00    -0.237 OA
ATOM     72  O   UNL A   1      44.189  25.547  34.294  1.00  0.00    -0.744 OA
ENDBRANCH  66  69
ENDBRANCH  48  62
BRANCH  49  73
ATOM     73  C   UNL A   1      42.796  24.817  27.718  1.00  0.00     0.023 A 
ATOM     74  C   UNL A   1      41.726  23.956  28.049  1.00  0.00     0.012 A 
ATOM     75  C   UNL A   1      43.773  24.331  26.822  1.00  0.00     0.148 A 
ATOM     76  C   UNL A   1      41.587  22.698  27.449  1.00  0.00     0.002 A 
ATOM     77  C   UNL A   1      43.643  23.071  26.242  1.00  0.00     0.091 A 
ATOM     78  F   UNL A   1      44.781  25.133  26.457  1.00  0.00    -0.205 F 
ATOM     79  C   UNL A   1      42.538  22.261  26.534  1.00  0.00     0.022 A 
BRANCH  77  80
ATOM     80  S   UNL A   1      44.840  22.440  25.057  1.00  0.00     0.127 S 
ATOM     81  O   UNL A   1      44.246  21.162  24.666  1.00  0.00    -0.237 OA
ATOM     82  O   UNL A   1      44.824  23.466  24.027  1.00  0.00    -0.237 OA
ATOM     83  O   UNL A   1      46.091  22.305  25.807  1.00  0.00    -0.744 OA
ENDBRANCH  77  80
ENDBRANCH  49  73
BRANCH  61  84
ATOM     84  C   UNL A   1      44.971  30.745  28.383  1.00  0.00     0.023 A 
ATOM     85  C   UNL A   1      43.943  31.180  27.526  1.00  0.00     0.012 A 
ATOM     86  C   UNL A   1      46.292  31.167  28.155  1.00  0.00     0.148 A 
ATOM     87  C   UNL A   1      44.233  32.035  26.459  1.00  0.00     0.002 A 
ATOM     88  C   UNL A   1      46.567  32.054  27.126  1.00  0.00     0.091 A 
ATOM     89  F   UNL A   1      47.245  30.735  28.995  1.00  0.00    -0.205 F 
ATOM     90  C   UNL A   1      45.541  32.487  26.271  1.00  0.00     0.022 A 
BRANCH  88  91
ATOM     91  S   UNL A   1      48.194  32.780  26.917  1.00  0.00     0.127 S 
ATOM     92  O   UNL A   1      49.001  31.621  26.542  1.00  0.00    -0.237 OA
ATOM     93  O   UNL A   1      47.964  33.743  25.840  1.00  0.00    -0.237 OA
ATOM     94  O   UNL A   1      48.540  33.384  28.198  1.00  0.00    -0.744 OA
ENDBRANCH  88  91
ENDBRANCH  61  84
ENDBRANCH  35  36
ENDBRANCH  27  30
ENDBRANCH  25  26
ENDBRANCH  24  25
ENDBRANCH   1  24
TORSDOF 17
ENDMDL
MODEL 2
REMARK VINA RESULT:     -11.8      2.199      2.902
REMARK SMILES C[C@H]1CCC[C@@H]1n1c(SCC(=O)NCCCCNC(=O)c2ccc(-c3c4nc(c(-c5cccc(S(=O)(=O)[O-])c5F)c5ccc([nH]5)c(-c5cccc(S(=O)(=O)[O-])c5F)c5nc(c(-c6cccc(S(=O)(=O)[O-])c6F)c6ccc3[nH]6)C=C5)C=C4)cc2)nc2cnccc21
REMARK SMILES IDX 15 1 14 2 13 3 11 4 12 5 10 7 9 8 8 9 7 10 90 11 84 12 85 13
REMARK SMILES IDX 89 14 86 15 88 16 87 17 6 18 1 19 2 20 3 21 4 22 5 23 16 24
REMARK SMILES IDX 17 25 18 26 19 27 20 29 21 30 22 31 83 32 23 33 82 34 24 35
REMARK SMILES IDX 25 36 26 37 76 38 27 39 81 40 75 41 77 42 28 43 80 44 74 45
REMARK SMILES IDX 73 46 29 48 61 49 41 50 60 51 42 52 45 53 59 54 78 55 43 56
REMARK SMILES IDX 44 57 58 59 79 60 46 61 30 62 31 63 39 64 32 65 34 66 40 67
REMARK SMILES IDX 33 68 35 69 36 70 37 71 38 72 62 73 63 74 71 75 64 76 66 77
REMARK SMILES IDX 72 78 65 79 67 80 68 81 69 82 70 83 47 84 48 85 56 86 49 87
REMARK SMILES IDX 51 88 57 89 50 90 52 91 53 92 54 93 55 94
REMARK H PARENT 13 6 18 28 77 47 45 58
REMARK Flexibility Score: inf
ROOT
ATOM      1  C   UNL A   1      31.771  30.120  25.499  1.00  0.00     0.023 C 
ENDROOT
BRANCH   1   2
ATOM      2  C   UNL A   1      32.216  29.088  24.477  1.00  0.00     0.116 C 
BRANCH   2   3
ATOM      3  N   UNL A   1      31.376  29.077  23.302  1.00  0.00    -0.355 N 
ATOM      4  C   UNL A   1      30.832  28.012  22.672  1.00  0.00     0.230 C 
ATOM      5  O   UNL A   1      29.783  28.228  22.050  1.00  0.00    -0.274 OA
ATOM      6  H   UNL A   1      31.175  29.957  22.909  1.00  0.00     0.163 HD
BRANCH   4   7
ATOM      7  C   UNL A   1      31.349  26.606  22.836  1.00  0.00     0.178 C 
BRANCH   7   8
ATOM      8  S   UNL A   1      33.009  26.091  22.425  1.00  0.00    -0.078 SA
BRANCH   8   9
ATOM      9  C   UNL A   1      33.576  24.525  22.914  1.00  0.00     0.169 A 
ATOM     10  N   UNL A   1      33.065  23.650  23.880  1.00  0.00    -0.315 N 
ATOM     11  C   UNL A   1      34.065  22.705  24.126  1.00  0.00     0.072 A 
ATOM     12  N   UNL A   1      34.857  24.284  22.709  1.00  0.00    -0.221 NA
ATOM     13  C   UNL A   1      35.198  23.226  23.502  1.00  0.00     0.108 A 
ATOM     14  C   UNL A   1      34.166  21.513  24.858  1.00  0.00     0.049 A 
ATOM     15  C   UNL A   1      36.454  22.659  23.759  1.00  0.00     0.141 A 
ATOM     16  C   UNL A   1      35.449  21.011  25.049  1.00  0.00     0.113 A 
ATOM     17  N   UNL A   1      36.572  21.573  24.565  1.00  0.00    -0.262 NA
BRANCH  10  18
ATOM     18  C   UNL A   1      31.877  23.875  24.713  1.00  0.00     0.093 C 
ATOM     19  C   UNL A   1      32.297  25.841  26.360  1.00  0.00     0.010 C 
ATOM     20  C   UNL A   1      32.042  24.347  26.179  1.00  0.00     0.009 C 
ATOM     21  C   UNL A   1      30.721  23.955  26.848  1.00  0.00     0.005 C 
ATOM     22  C   UNL A   1      30.410  22.597  26.269  1.00  0.00     0.002 C 
ATOM     23  C   UNL A   1      31.068  22.595  24.902  1.00  0.00     0.026 C 
ENDBRANCH  10  18
ENDBRANCH   8   9
ENDBRANCH   7   8
ENDBRANCH   4   7
ENDBRANCH   2   3
ENDBRANCH   1   2
BRANCH   1  24
ATOM     24  C   UNL A   1      32.358  29.976  26.910  1.00  0.00     0.023 C 
BRANCH  24  25
ATOM     25  C   UNL A   1      33.768  30.531  27.127  1.00  0.00     0.116 C 
BRANCH  25  26
ATOM     26  N   UNL A   1      33.949  31.304  28.337  1.00  0.00    -0.352 N 
ATOM     27  C   UNL A   1      35.010  31.590  29.152  1.00  0.00     0.251 C 
ATOM     28  H   UNL A   1      33.113  31.723  28.645  1.00  0.00     0.163 HD
ATOM     29  O   UNL A   1      34.804  32.453  30.011  1.00  0.00    -0.269 OA
BRANCH  27  30
ATOM     30  C   UNL A   1      36.333  30.911  29.113  1.00  0.00     0.039 A 
ATOM     31  C   UNL A   1      36.529  29.546  28.910  1.00  0.00     0.014 A 
ATOM     32  C   UNL A   1      37.461  31.724  29.342  1.00  0.00     0.014 A 
ATOM     33  C   UNL A   1      37.796  28.992  29.033  1.00  0.00     0.010 A 
ATOM     34  C   UNL A   1      38.738  31.179  29.435  1.00  0.00     0.010 A 
ATOM     35  C   UNL A   1      38.898  29.804  29.318  1.00  0.00    -0.014 A 
BRANCH  35  36
ATOM     36  C   UNL A   1      40.210  29.162  29.317  1.00  0.00     0.031 A 
ATOM     37  C   UNL A   1      40.811  29.026  30.672  1.00  0.00     0.074 A 
ATOM     38  C   UNL A   1      40.818  28.658  28.226  1.00  0.00     0.049 A 
ATOM     39  N   UNL A   1      41.842  29.646  31.148  1.00  0.00    -0.248 NA
ATOM     40  C   UNL A   1      40.085  28.213  31.661  1.00  0.00     0.031 C 
ATOM     41  C   UNL A   1      40.239  28.467  26.895  1.00  0.00     0.029 A 
ATOM     42  N   UNL A   1      42.058  28.096  28.111  1.00  0.00    -0.354 N 
ATOM     43  C   UNL A   1      42.036  29.109  32.418  1.00  0.00     0.074 A 
ATOM     44  C   UNL A   1      40.839  28.380  32.748  1.00  0.00     0.031 C 
ATOM     45  C   UNL A   1      41.025  27.625  26.187  1.00  0.00     0.029 A 
ATOM     46  C   UNL A   1      42.221  27.332  26.958  1.00  0.00     0.049 A 
ATOM     47  H   UNL A   1      42.769  28.219  28.781  1.00  0.00     0.167 HD
ATOM     48  C   UNL A   1      43.268  29.058  32.989  1.00  0.00     0.034 A 
ATOM     49  C   UNL A   1      43.234  26.469  26.703  1.00  0.00     0.034 A 
ATOM     50  C   UNL A   1      44.212  29.915  32.333  1.00  0.00     0.049 A 
ATOM     51  C   UNL A   1      44.376  26.885  27.548  1.00  0.00     0.074 A 
ATOM     52  C   UNL A   1      44.366  31.268  32.135  1.00  0.00     0.029 A 
ATOM     53  N   UNL A   1      45.040  29.277  31.447  1.00  0.00    -0.354 N 
ATOM     54  N   UNL A   1      45.036  27.999  27.391  1.00  0.00    -0.248 NA
ATOM     55  C   UNL A   1      44.643  26.166  28.787  1.00  0.00     0.031 C 
ATOM     56  C   UNL A   1      45.048  31.393  30.891  1.00  0.00     0.029 A 
ATOM     57  C   UNL A   1      45.299  30.110  30.397  1.00  0.00     0.049 A 
ATOM     58  H   UNL A   1      45.393  28.364  31.552  1.00  0.00     0.167 HD
ATOM     59  C   UNL A   1      45.456  28.327  28.668  1.00  0.00     0.074 A 
ATOM     60  C   UNL A   1      45.344  27.096  29.436  1.00  0.00     0.031 C 
ATOM     61  C   UNL A   1      45.555  29.629  29.056  1.00  0.00     0.034 A 
BRANCH  48  62
ATOM     62  C   UNL A   1      43.745  27.905  33.839  1.00  0.00     0.023 A 
ATOM     63  C   UNL A   1      44.379  28.199  35.066  1.00  0.00     0.012 A 
ATOM     64  C   UNL A   1      43.878  26.587  33.345  1.00  0.00     0.148 A 
ATOM     65  C   UNL A   1      45.112  27.229  35.760  1.00  0.00     0.002 A 
ATOM     66  C   UNL A   1      44.530  25.606  34.081  1.00  0.00     0.091 A 
ATOM     67  F   UNL A   1      43.508  26.307  32.091  1.00  0.00    -0.205 F 
ATOM     68  C   UNL A   1      45.172  25.926  35.278  1.00  0.00     0.022 A 
BRANCH  66  69
ATOM     69  S   UNL A   1      44.588  23.904  33.513  1.00  0.00     0.127 S 
ATOM     70  O   UNL A   1      45.761  23.401  34.219  1.00  0.00    -0.237 OA
ATOM     71  O   UNL A   1      43.305  23.387  33.986  1.00  0.00    -0.237 OA
ATOM     72  O   UNL A   1      44.695  23.991  32.061  1.00  0.00    -0.744 OA
ENDBRANCH  66  69
ENDBRANCH  48  62
BRANCH  49  73
ATOM     73  C   UNL A   1      43.257  25.183  25.955  1.00  0.00     0.023 A 
ATOM     74  C   UNL A   1      44.285  24.968  25.009  1.00  0.00     0.012 A 
ATOM     75  C   UNL A   1      42.493  24.066  26.357  1.00  0.00     0.148 A 
ATOM     76  C   UNL A   1      44.595  23.684  24.546  1.00  0.00     0.002 A 
ATOM     77  C   UNL A   1      42.792  22.792  25.878  1.00  0.00     0.091 A 
ATOM     78  F   UNL A   1      41.537  24.226  27.279  1.00  0.00    -0.205 F 
ATOM     79  C   UNL A   1      43.858  22.593  24.992  1.00  0.00     0.022 A 
BRANCH  77  80
ATOM     80  S   UNL A   1      41.874  21.338  26.408  1.00  0.00     0.127 S 
ATOM     81  O   UNL A   1      42.454  20.284  25.575  1.00  0.00    -0.237 OA
ATOM     82  O   UNL A   1      42.210  21.259  27.821  1.00  0.00    -0.237 OA
ATOM     83  O   UNL A   1      40.473  21.632  26.097  1.00  0.00    -0.744 OA
ENDBRANCH  77  80
ENDBRANCH  49  73
BRANCH  61  84
ATOM     84  C   UNL A   1      45.692  30.681  27.997  1.00  0.00     0.023 A 
ATOM     85  C   UNL A   1      44.582  31.306  27.399  1.00  0.00     0.012 A 
ATOM     86  C   UNL A   1      46.982  31.189  27.771  1.00  0.00     0.148 A 
ATOM     87  C   UNL A   1      44.762  32.433  26.592  1.00  0.00     0.002 A 
ATOM     88  C   UNL A   1      47.150  32.335  27.010  1.00  0.00     0.091 A 
ATOM     89  F   UNL A   1      48.016  30.568  28.360  1.00  0.00    -0.205 F 
ATOM     90  C   UNL A   1      46.043  32.958  26.413  1.00  0.00     0.022 A 
BRANCH  88  91
ATOM     91  S   UNL A   1      48.747  33.139  26.857  1.00  0.00     0.127 S 
ATOM     92  O   UNL A   1      49.574  32.074  26.294  1.00  0.00    -0.237 OA
ATOM     93  O   UNL A   1      48.450  34.238  25.937  1.00  0.00    -0.237 OA
ATOM     94  O   UNL A   1      49.121  33.566  28.200  1.00  0.00    -0.744 OA
ENDBRANCH  88  91
ENDBRANCH  61  84
ENDBRANCH  35  36
ENDBRANCH  27  30
ENDBRANCH  25  26
ENDBRANCH  24  25
ENDBRANCH   1  24
TORSDOF 17
ENDMDL
MODEL 3
REMARK VINA RESULT:     -11.8      2.338      3.026
REMARK SMILES C[C@H]1CCC[C@@H]1n1c(SCC(=O)NCCCCNC(=O)c2ccc(-c3c4nc(c(-c5cccc(S(=O)(=O)[O-])c5F)c5ccc([nH]5)c(-c5cccc(S(=O)(=O)[O-])c5F)c5nc(c(-c6cccc(S(=O)(=O)[O-])c6F)c6ccc3[nH]6)C=C5)C=C4)cc2)nc2cnccc21
REMARK SMILES IDX 15 1 14 2 13 3 11 4 12 5 10 7 9 8 8 9 7 10 90 11 84 12 85 13
REMARK SMILES IDX 89 14 86 15 88 16 87 17 6 18 1 19 2 20 3 21 4 22 5 23 16 24
REMARK SMILES IDX 17 25 18 26 19 27 20 29 21 30 22 31 83 32 23 33 82 34 24 35
REMARK SMILES IDX 25 36 26 37 76 38 27 39 81 40 75 41 77 42 28 43 80 44 74 45
REMARK SMILES IDX 73 46 29 48 61 49 41 50 60 51 42 52 45 53 59 54 78 55 43 56
REMARK SMILES IDX 44 57 58 59 79 60 46 61 30 62 31 63 39 64 32 65 34 66 40 67
REMARK SMILES IDX 33 68 35 69 36 70 37 71 38 72 62 73 63 74 71 75 64 76 66 77
REMARK SMILES IDX 72 78 65 79 67 80 68 81 69 82 70 83 47 84 48 85 56 86 49 87
REMARK SMILES IDX 51 88 57 89 50 90 52 91 53 92 54 93 55 94
REMARK H PARENT 13 6 18 28 77 47 45 58
REMARK Flexibility Score: inf
ROOT
ATOM      1  C   UNL A   1      31.811  30.360  25.820  1.00  0.00     0.023 C 
ENDROOT
BRANCH   1   2
ATOM      2  C   UNL A   1      30.928  29.387  25.057  1.00  0.00     0.116 C 
BRANCH   2   3
ATOM      3  N   UNL A   1      30.691  29.807  23.696  1.00  0.00    -0.355 N 
ATOM      4  C   UNL A   1      30.802  29.077  22.563  1.00  0.00     0.230 C 
ATOM      5  O   UNL A   1      30.090  29.436  21.616  1.00  0.00    -0.274 OA
ATOM      6  H   UNL A   1      30.415  30.745  23.577  1.00  0.00     0.163 HD
BRANCH   4   7
ATOM      7  C   UNL A   1      31.602  27.803  22.481  1.00  0.00     0.178 C 
BRANCH   7   8
ATOM      8  S   UNL A   1      32.951  27.389  23.575  1.00  0.00    -0.078 SA
BRANCH   8   9
ATOM      9  C   UNL A   1      32.710  26.234  24.848  1.00  0.00     0.169 A 
ATOM     10  N   UNL A   1      33.433  25.073  25.150  1.00  0.00    -0.315 N 
ATOM     11  C   UNL A   1      32.639  24.332  26.031  1.00  0.00     0.072 A 
ATOM     12  N   UNL A   1      31.485  26.150  25.329  1.00  0.00    -0.221 NA
ATOM     13  C   UNL A   1      31.394  24.956  25.986  1.00  0.00     0.108 A 
ATOM     14  C   UNL A   1      32.804  23.173  26.801  1.00  0.00     0.049 A 
ATOM     15  C   UNL A   1      30.281  24.324  26.560  1.00  0.00     0.141 A 
ATOM     16  C   UNL A   1      31.649  22.624  27.348  1.00  0.00     0.113 A 
ATOM     17  N   UNL A   1      30.414  23.139  27.207  1.00  0.00    -0.262 NA
BRANCH  10  18
ATOM     18  C   UNL A   1      34.610  24.571  24.431  1.00  0.00     0.093 C 
ATOM     19  C   UNL A   1      33.872  23.228  22.333  1.00  0.00     0.010 C 
ATOM     20  C   UNL A   1      34.544  23.206  23.703  1.00  0.00     0.009 C 
ATOM     21  C   UNL A   1      36.011  22.787  23.562  1.00  0.00     0.005 C 
ATOM     22  C   UNL A   1      36.629  23.184  24.879  1.00  0.00     0.002 C 
ATOM     23  C   UNL A   1      35.794  24.352  25.367  1.00  0.00     0.026 C 
ENDBRANCH  10  18
ENDBRANCH   8   9
ENDBRANCH   7   8
ENDBRANCH   4   7
ENDBRANCH   2   3
ENDBRANCH   1   2
BRANCH   1  24
ATOM     24  C   UNL A   1      32.562  29.789  27.031  1.00  0.00     0.023 C 
BRANCH  24  25
ATOM     25  C   UNL A   1      33.996  30.280  27.244  1.00  0.00     0.116 C 
BRANCH  25  26
ATOM     26  N   UNL A   1      34.181  31.184  28.360  1.00  0.00    -0.352 N 
ATOM     27  C   UNL A   1      35.209  31.463  29.218  1.00  0.00     0.251 C 
ATOM     28  H   UNL A   1      33.378  31.724  28.544  1.00  0.00     0.163 HD
ATOM     29  O   UNL A   1      35.044  32.448  29.944  1.00  0.00    -0.269 OA
BRANCH  27  30
ATOM     30  C   UNL A   1      36.445  30.650  29.373  1.00  0.00     0.039 A 
ATOM     31  C   UNL A   1      36.487  29.327  29.810  1.00  0.00     0.014 A 
ATOM     32  C   UNL A   1      37.662  31.302  29.089  1.00  0.00     0.014 A 
ATOM     33  C   UNL A   1      37.705  28.706  30.054  1.00  0.00     0.010 A 
ATOM     34  C   UNL A   1      38.886  30.673  29.301  1.00  0.00     0.010 A 
ATOM     35  C   UNL A   1      38.904  29.385  29.822  1.00  0.00    -0.014 A 
BRANCH  35  36
ATOM     36  C   UNL A   1      40.139  28.625  29.994  1.00  0.00     0.031 A 
ATOM     37  C   UNL A   1      40.699  28.695  31.370  1.00  0.00     0.074 A 
ATOM     38  C   UNL A   1      40.707  27.858  29.044  1.00  0.00     0.049 A 
ATOM     39  N   UNL A   1      41.784  29.287  31.756  1.00  0.00    -0.248 NA
ATOM     40  C   UNL A   1      39.873  28.171  32.470  1.00  0.00     0.031 C 
ATOM     41  C   UNL A   1      40.133  27.470  27.753  1.00  0.00     0.029 A 
ATOM     42  N   UNL A   1      41.881  27.159  29.085  1.00  0.00    -0.354 N 
ATOM     43  C   UNL A   1      41.897  28.992  33.112  1.00  0.00     0.074 A 
ATOM     44  C   UNL A   1      40.623  28.468  33.532  1.00  0.00     0.031 C 
ATOM     45  C   UNL A   1      40.835  26.430  27.251  1.00  0.00     0.029 A 
ATOM     46  C   UNL A   1      41.979  26.172  28.108  1.00  0.00     0.049 A 
ATOM     47  H   UNL A   1      42.590  27.337  29.745  1.00  0.00     0.167 HD
ATOM     48  C   UNL A   1      43.107  28.928  33.728  1.00  0.00     0.034 A 
ATOM     49  C   UNL A   1      42.897  25.176  28.062  1.00  0.00     0.034 A 
ATOM     50  C   UNL A   1      44.149  29.538  32.955  1.00  0.00     0.049 A 
ATOM     51  C   UNL A   1      44.064  25.631  28.853  1.00  0.00     0.074 A 
ATOM     52  C   UNL A   1      44.451  30.803  32.505  1.00  0.00     0.029 A 
ATOM     53  N   UNL A   1      44.918  28.658  32.239  1.00  0.00    -0.354 N 
ATOM     54  N   UNL A   1      44.843  26.619  28.509  1.00  0.00    -0.248 NA
ATOM     55  C   UNL A   1      44.231  25.144  30.216  1.00  0.00     0.031 C 
ATOM     56  C   UNL A   1      45.163  30.611  31.287  1.00  0.00     0.029 A 
ATOM     57  C   UNL A   1      45.282  29.238  31.059  1.00  0.00     0.049 A 
ATOM     58  H   UNL A   1      45.168  27.752  32.532  1.00  0.00     0.167 HD
ATOM     59  C   UNL A   1      45.275  27.145  29.713  1.00  0.00     0.074 A 
ATOM     60  C   UNL A   1      45.017  26.105  30.700  1.00  0.00     0.031 C 
ATOM     61  C   UNL A   1      45.507  28.480  29.847  1.00  0.00     0.034 A 
BRANCH  48  62
ATOM     62  C   UNL A   1      43.443  27.920  34.801  1.00  0.00     0.023 A 
ATOM     63  C   UNL A   1      43.988  28.394  36.014  1.00  0.00     0.012 A 
ATOM     64  C   UNL A   1      43.538  26.532  34.553  1.00  0.00     0.148 A 
ATOM     65  C   UNL A   1      44.603  27.529  36.927  1.00  0.00     0.002 A 
ATOM     66  C   UNL A   1      44.067  25.666  35.501  1.00  0.00     0.091 A 
ATOM     67  F   UNL A   1      43.257  26.054  33.335  1.00  0.00    -0.205 F 
ATOM     68  C   UNL A   1      44.626  26.161  36.680  1.00  0.00     0.022 A 
BRANCH  66  69
ATOM     69  S   UNL A   1      44.072  23.891  35.237  1.00  0.00     0.127 S 
ATOM     70  O   UNL A   1      44.675  23.413  36.476  1.00  0.00    -0.237 OA
ATOM     71  O   UNL A   1      42.645  23.607  35.087  1.00  0.00    -0.237 OA
ATOM     72  O   UNL A   1      44.849  23.688  34.019  1.00  0.00    -0.744 OA
ENDBRANCH  66  69
ENDBRANCH  48  62
BRANCH  49  73
ATOM     73  C   UNL A   1      42.794  23.774  27.577  1.00  0.00     0.023 A 
ATOM     74  C   UNL A   1      41.573  23.084  27.752  1.00  0.00     0.012 A 
ATOM     75  C   UNL A   1      43.742  23.213  26.694  1.00  0.00     0.148 A 
ATOM     76  C   UNL A   1      41.273  21.931  27.017  1.00  0.00     0.002 A 
ATOM     77  C   UNL A   1      43.447  22.054  25.978  1.00  0.00     0.091 A 
ATOM     78  F   UNL A   1      44.893  23.859  26.475  1.00  0.00    -0.205 F 
ATOM     79  C   UNL A   1      42.204  21.424  26.118  1.00  0.00     0.022 A 
BRANCH  77  80
ATOM     80  S   UNL A   1      44.609  21.339  24.805  1.00  0.00     0.127 S 
ATOM     81  O   UNL A   1      44.505  22.254  23.669  1.00  0.00    -0.237 OA
ATOM     82  O   UNL A   1      45.865  21.405  25.535  1.00  0.00    -0.237 OA
ATOM     83  O   UNL A   1      44.099  19.994  24.527  1.00  0.00    -0.744 OA
ENDBRANCH  77  80
ENDBRANCH  49  73
BRANCH  61  84
ATOM     84  C   UNL A   1      45.774  29.285  28.611  1.00  0.00     0.023 A 
ATOM     85  C   UNL A   1      44.744  29.832  27.823  1.00  0.00     0.012 A 
ATOM     86  C   UNL A   1      47.105  29.669  28.379  1.00  0.00     0.148 A 
ATOM     87  C   UNL A   1      45.044  30.759  26.820  1.00  0.00     0.002 A 
ATOM     88  C   UNL A   1      47.392  30.625  27.417  1.00  0.00     0.091 A 
ATOM     89  F   UNL A   1      48.061  29.129  29.152  1.00  0.00    -0.205 F 
ATOM     90  C   UNL A   1      46.364  31.169  26.631  1.00  0.00     0.022 A 
BRANCH  88  91
ATOM     91  S   UNL A   1      49.044  31.297  27.220  1.00  0.00     0.127 S 
ATOM     92  O   UNL A   1      48.832  32.343  26.223  1.00  0.00    -0.237 OA
ATOM     93  O   UNL A   1      49.340  31.784  28.568  1.00  0.00    -0.237 OA
ATOM     94  O   UNL A   1      49.887  30.190  26.784  1.00  0.00    -0.744 OA
ENDBRANCH  88  91
ENDBRANCH  61  84
ENDBRANCH  35  36
ENDBRANCH  27  30
ENDBRANCH  25  26
ENDBRANCH  24  25
ENDBRANCH   1  24
TORSDOF 17
ENDMDL
