MODEL 1
REMARK VINA RESULT:     -11.9      0.000      0.000
REMARK SMILES CC(C)[NH2+][C@]1(C(=O)NCCCCNC(=O)c2ccc(-c3c4nc(c(-c5cccc(S(=O)(=O)[O-])c5F)c5ccc([nH]5)c(-c5cccc(S(=O)(=O)[O-])c5F)c5nc(c(-c6cccc(S(=O)(=O)[O-])c6F)c6ccc3[nH]6)C=C5)C=C4)cc2)CC[C@@H](Oc2cc(F)ccc2F)C1
REMARK SMILES IDX 11 1 10 2 9 3 8 4 6 5 7 6 5 8 79 9 91 10 80 11 81 12 4 13
REMARK SMILES IDX 2 16 1 17 3 18 82 19 83 20 84 21 89 22 85 23 88 24 90 25
REMARK SMILES IDX 86 26 87 27 12 28 13 29 14 30 15 32 16 33 17 34 78 35 18 36
REMARK SMILES IDX 77 37 19 38 20 39 21 40 71 41 22 42 76 43 70 44 72 45 23 46
REMARK SMILES IDX 75 47 69 48 68 49 24 51 56 52 36 53 55 54 37 55 40 56 54 57
REMARK SMILES IDX 73 58 38 59 39 60 53 62 74 63 41 64 25 65 26 66 34 67 27 68
REMARK SMILES IDX 29 69 35 70 28 71 30 72 31 73 32 74 33 75 57 76 58 77 66 78
REMARK SMILES IDX 59 79 61 80 67 81 60 82 62 83 63 84 64 85 65 86 42 87 43 88
REMARK SMILES IDX 51 89 44 90 46 91 52 92 45 93 47 94 48 95 49 96 50 97
REMARK H PARENT 8 7 4 14 4 15 13 31 72 50 40 61
REMARK Flexibility Score: inf
ROOT
ATOM      1  C   UNL A   1      31.650  32.057  27.304  1.00  0.00     0.023 C 
ENDROOT
BRANCH   1   2
ATOM      2  C   UNL A   1      31.428  31.254  26.022  1.00  0.00     0.023 C 
BRANCH   2   3
ATOM      3  C   UNL A   1      32.183  29.930  25.957  1.00  0.00     0.116 C 
BRANCH   3   4
ATOM      4  N   UNL A   1      32.726  29.679  24.634  1.00  0.00    -0.351 N 
ATOM      5  C   UNL A   1      32.255  28.870  23.638  1.00  0.00     0.281 C 
ATOM      6  O   UNL A   1      32.831  28.923  22.547  1.00  0.00    -0.268 OA
ATOM      7  H   UNL A   1      33.555  30.165  24.422  1.00  0.00     0.163 HD
BRANCH   5   8
ATOM      8  C   UNL A   1      30.994  27.965  23.871  1.00  0.00     0.179 C 
ATOM      9  C   UNL A   1      31.001  26.816  22.841  1.00  0.00     0.083 C 
ATOM     10  C   UNL A   1      31.138  27.214  25.216  1.00  0.00     0.124 C 
ATOM     11  C   UNL A   1      30.296  25.645  23.509  1.00  0.00     0.052 C 
ATOM     12  C   UNL A   1      30.640  25.779  24.994  1.00  0.00     0.180 C 
BRANCH   8  13
ATOM     13  N   UNL A   1      29.823  28.866  23.758  1.00  0.00    -0.332 N 
ATOM     14  H   UNL A   1      29.169  28.580  24.486  1.00  0.00     0.347 HD
ATOM     15  H   UNL A   1      30.253  29.789  23.818  1.00  0.00     0.347 HD
BRANCH  13  16
ATOM     16  C   UNL A   1      29.051  28.962  22.529  1.00  0.00     0.176 C 
ATOM     17  C   UNL A   1      27.580  29.112  22.936  1.00  0.00     0.075 C 
ATOM     18  C   UNL A   1      29.455  30.188  21.706  1.00  0.00     0.075 C 
ENDBRANCH  13  16
ENDBRANCH   8  13
BRANCH  12  19
ATOM     19  O   UNL A   1      31.494  24.792  25.595  1.00  0.00    -0.487 OA
BRANCH  19  20
ATOM     20  C   UNL A   1      32.379  24.155  24.774  1.00  0.00     0.158 A 
ATOM     21  C   UNL A   1      32.030  22.905  24.259  1.00  0.00     0.088 A 
ATOM     22  C   UNL A   1      33.659  24.660  24.544  1.00  0.00     0.165 A 
ATOM     23  C   UNL A   1      32.931  22.225  23.447  1.00  0.00     0.127 A 
ATOM     24  C   UNL A   1      34.561  23.971  23.735  1.00  0.00     0.046 A 
ATOM     25  F   UNL A   1      34.054  25.805  25.115  1.00  0.00    -0.203 F 
ATOM     26  F   UNL A   1      32.581  21.043  22.922  1.00  0.00    -0.207 F 
ATOM     27  C   UNL A   1      34.191  22.751  23.172  1.00  0.00     0.042 A 
ENDBRANCH  19  20
ENDBRANCH  12  19
ENDBRANCH   5   8
ENDBRANCH   3   4
ENDBRANCH   2   3
ENDBRANCH   1   2
BRANCH   1  28
ATOM     28  C   UNL A   1      32.880  32.958  27.301  1.00  0.00     0.116 C 
BRANCH  28  29
ATOM     29  N   UNL A   1      32.580  34.328  27.692  1.00  0.00    -0.352 N 
ATOM     30  C   UNL A   1      33.124  35.084  28.704  1.00  0.00     0.251 C 
ATOM     31  H   UNL A   1      31.889  34.778  27.154  1.00  0.00     0.163 HD
ATOM     32  O   UNL A   1      32.643  36.177  28.977  1.00  0.00    -0.269 OA
BRANCH  30  33
ATOM     33  C   UNL A   1      34.275  34.562  29.476  1.00  0.00     0.039 A 
ATOM     34  C   UNL A   1      34.040  33.969  30.719  1.00  0.00     0.014 A 
ATOM     35  C   UNL A   1      35.575  34.646  28.974  1.00  0.00     0.014 A 
ATOM     36  C   UNL A   1      35.103  33.404  31.429  1.00  0.00     0.010 A 
ATOM     37  C   UNL A   1      36.617  34.008  29.640  1.00  0.00     0.010 A 
ATOM     38  C   UNL A   1      36.397  33.387  30.878  1.00  0.00    -0.014 A 
BRANCH  38  39
ATOM     39  C   UNL A   1      37.527  32.725  31.583  1.00  0.00     0.031 A 
ATOM     40  C   UNL A   1      38.238  31.558  30.950  1.00  0.00     0.074 A 
ATOM     41  C   UNL A   1      37.866  33.124  32.825  1.00  0.00     0.049 A 
ATOM     42  N   UNL A   1      39.213  30.829  31.427  1.00  0.00    -0.248 NA
ATOM     43  C   UNL A   1      37.775  31.138  29.617  1.00  0.00     0.031 C 
ATOM     44  C   UNL A   1      37.206  34.190  33.582  1.00  0.00     0.029 A 
ATOM     45  N   UNL A   1      38.834  32.663  33.682  1.00  0.00    -0.354 N 
ATOM     46  C   UNL A   1      39.456  29.847  30.474  1.00  0.00     0.074 A 
ATOM     47  C   UNL A   1      38.499  30.047  29.408  1.00  0.00     0.031 C 
ATOM     48  C   UNL A   1      37.797  34.309  34.782  1.00  0.00     0.029 A 
ATOM     49  C   UNL A   1      38.852  33.308  34.897  1.00  0.00     0.049 A 
ATOM     50  H   UNL A   1      39.459  31.938  33.448  1.00  0.00     0.167 HD
ATOM     51  C   UNL A   1      40.408  28.884  30.467  1.00  0.00     0.034 A 
ATOM     52  C   UNL A   1      39.624  33.112  35.984  1.00  0.00     0.034 A 
ATOM     53  C   UNL A   1      41.382  28.706  31.511  1.00  0.00     0.049 A 
ATOM     54  C   UNL A   1      40.693  32.053  35.940  1.00  0.00     0.074 A 
ATOM     55  C   UNL A   1      42.436  27.812  31.562  1.00  0.00     0.029 A 
ATOM     56  N   UNL A   1      41.415  29.430  32.694  1.00  0.00    -0.354 N 
ATOM     57  N   UNL A   1      41.006  31.234  34.964  1.00  0.00    -0.248 NA
ATOM     58  C   UNL A   1      41.543  31.918  37.131  1.00  0.00     0.031 C 
ATOM     59  C   UNL A   1      43.087  27.973  32.789  1.00  0.00     0.029 A 
ATOM     60  C   UNL A   1      42.464  28.996  33.485  1.00  0.00     0.049 A 
ATOM     61  H   UNL A   1      40.784  30.147  32.934  1.00  0.00     0.167 HD
ATOM     62  C   UNL A   1      42.112  30.518  35.408  1.00  0.00     0.074 A 
ATOM     63  C   UNL A   1      42.427  31.014  36.731  1.00  0.00     0.031 C 
ATOM     64  C   UNL A   1      42.800  29.532  34.779  1.00  0.00     0.034 A 
BRANCH  51  65
ATOM     65  C   UNL A   1      40.473  27.972  29.268  1.00  0.00     0.023 A 
ATOM     66  C   UNL A   1      39.593  26.873  29.178  1.00  0.00     0.012 A 
ATOM     67  C   UNL A   1      41.365  28.227  28.208  1.00  0.00     0.148 A 
ATOM     68  C   UNL A   1      39.628  26.019  28.076  1.00  0.00     0.002 A 
ATOM     69  C   UNL A   1      41.361  27.401  27.090  1.00  0.00     0.091 A 
ATOM     70  F   UNL A   1      42.208  29.265  28.317  1.00  0.00    -0.205 F 
ATOM     71  C   UNL A   1      40.504  26.290  27.028  1.00  0.00     0.022 A 
BRANCH  69  72
ATOM     72  S   UNL A   1      42.389  27.711  25.651  1.00  0.00     0.127 S 
ATOM     73  O   UNL A   1      43.731  27.664  26.232  1.00  0.00    -0.237 OA
ATOM     74  O   UNL A   1      42.060  26.576  24.789  1.00  0.00    -0.237 OA
ATOM     75  O   UNL A   1      41.978  29.008  25.133  1.00  0.00    -0.744 OA
ENDBRANCH  69  72
ENDBRANCH  51  65
BRANCH  52  76
ATOM     76  C   UNL A   1      39.461  33.980  37.185  1.00  0.00     0.023 A 
ATOM     77  C   UNL A   1      39.921  35.311  37.145  1.00  0.00     0.012 A 
ATOM     78  C   UNL A   1      38.844  33.501  38.357  1.00  0.00     0.148 A 
ATOM     79  C   UNL A   1      39.804  36.138  38.263  1.00  0.00     0.002 A 
ATOM     80  C   UNL A   1      38.680  34.348  39.447  1.00  0.00     0.091 A 
ATOM     81  F   UNL A   1      38.420  32.230  38.376  1.00  0.00    -0.205 F 
ATOM     82  C   UNL A   1      39.176  35.660  39.409  1.00  0.00     0.022 A 
BRANCH  80  83
ATOM     83  S   UNL A   1      37.772  33.861  40.918  1.00  0.00     0.127 S 
ATOM     84  O   UNL A   1      37.567  35.145  41.581  1.00  0.00    -0.237 OA
ATOM     85  O   UNL A   1      36.567  33.263  40.343  1.00  0.00    -0.237 OA
ATOM     86  O   UNL A   1      38.634  32.918  41.619  1.00  0.00    -0.744 OA
ENDBRANCH  80  83
ENDBRANCH  52  76
BRANCH  64  87
ATOM     87  C   UNL A   1      44.000  28.955  35.486  1.00  0.00     0.023 A 
ATOM     88  C   UNL A   1      45.267  29.551  35.333  1.00  0.00     0.012 A 
ATOM     89  C   UNL A   1      43.853  27.856  36.355  1.00  0.00     0.148 A 
ATOM     90  C   UNL A   1      46.377  29.037  36.004  1.00  0.00     0.002 A 
ATOM     91  C   UNL A   1      44.952  27.384  37.062  1.00  0.00     0.091 A 
ATOM     92  F   UNL A   1      42.643  27.290  36.473  1.00  0.00    -0.205 F 
ATOM     93  C   UNL A   1      46.217  27.963  36.877  1.00  0.00     0.022 A 
BRANCH  91  94
ATOM     94  S   UNL A   1      44.821  26.072  38.282  1.00  0.00     0.127 S 
ATOM     95  O   UNL A   1      43.862  26.639  39.228  1.00  0.00    -0.237 OA
ATOM     96  O   UNL A   1      44.306  24.958  37.485  1.00  0.00    -0.237 OA
ATOM     97  O   UNL A   1      46.167  25.870  38.802  1.00  0.00    -0.744 OA
ENDBRANCH  91  94
ENDBRANCH  64  87
ENDBRANCH  38  39
ENDBRANCH  30  33
ENDBRANCH  28  29
ENDBRANCH   1  28
TORSDOF 18
ENDMDL
MODEL 2
REMARK VINA RESULT:     -11.9      2.964      8.409
REMARK SMILES CC(C)[NH2+][C@]1(C(=O)NCCCCNC(=O)c2ccc(-c3c4nc(c(-c5cccc(S(=O)(=O)[O-])c5F)c5ccc([nH]5)c(-c5cccc(S(=O)(=O)[O-])c5F)c5nc(c(-c6cccc(S(=O)(=O)[O-])c6F)c6ccc3[nH]6)C=C5)C=C4)cc2)CC[C@@H](Oc2cc(F)ccc2F)C1
REMARK SMILES IDX 11 1 10 2 9 3 8 4 6 5 7 6 5 8 79 9 91 10 80 11 81 12 4 13
REMARK SMILES IDX 2 16 1 17 3 18 82 19 83 20 84 21 89 22 85 23 88 24 90 25
REMARK SMILES IDX 86 26 87 27 12 28 13 29 14 30 15 32 16 33 17 34 78 35 18 36
REMARK SMILES IDX 77 37 19 38 20 39 21 40 71 41 22 42 76 43 70 44 72 45 23 46
REMARK SMILES IDX 75 47 69 48 68 49 24 51 56 52 36 53 55 54 37 55 40 56 54 57
REMARK SMILES IDX 73 58 38 59 39 60 53 62 74 63 41 64 25 65 26 66 34 67 27 68
REMARK SMILES IDX 29 69 35 70 28 71 30 72 31 73 32 74 33 75 57 76 58 77 66 78
REMARK SMILES IDX 59 79 61 80 67 81 60 82 62 83 63 84 64 85 65 86 42 87 43 88
REMARK SMILES IDX 51 89 44 90 46 91 52 92 45 93 47 94 48 95 49 96 50 97
REMARK H PARENT 8 7 4 14 4 15 13 31 72 50 40 61
REMARK Flexibility Score: inf
ROOT
ATOM      1  C   UNL A   1      31.921  28.889  26.844  1.00  0.00     0.023 C 
ENDROOT
BRANCH   1   2
ATOM      2  C   UNL A   1      31.423  27.671  26.066  1.00  0.00     0.023 C 
BRANCH   2   3
ATOM      3  C   UNL A   1      32.062  26.347  26.471  1.00  0.00     0.116 C 
BRANCH   3   4
ATOM      4  N   UNL A   1      31.070  25.362  26.860  1.00  0.00    -0.351 N 
ATOM      5  C   UNL A   1      31.055  24.010  26.653  1.00  0.00     0.281 C 
ATOM      6  O   UNL A   1      30.152  23.366  27.195  1.00  0.00    -0.268 OA
ATOM      7  H   UNL A   1      30.292  25.720  27.346  1.00  0.00     0.163 HD
BRANCH   5   8
ATOM      8  C   UNL A   1      32.183  23.318  25.809  1.00  0.00     0.179 C 
ATOM      9  C   UNL A   1      33.140  22.575  26.763  1.00  0.00     0.083 C 
ATOM     10  C   UNL A   1      31.574  22.166  24.977  1.00  0.00     0.124 C 
ATOM     11  C   UNL A   1      33.695  21.399  25.975  1.00  0.00     0.052 C 
ATOM     12  C   UNL A   1      32.558  20.989  25.035  1.00  0.00     0.180 C 
BRANCH   8  13
ATOM     13  N   UNL A   1      32.830  24.403  25.033  1.00  0.00    -0.332 N 
ATOM     14  H   UNL A   1      32.195  25.201  25.070  1.00  0.00     0.347 HD
ATOM     15  H   UNL A   1      33.740  24.480  25.485  1.00  0.00     0.347 HD
BRANCH  13  16
ATOM     16  C   UNL A   1      33.189  24.231  23.635  1.00  0.00     0.176 C 
ATOM     17  C   UNL A   1      32.888  25.558  22.929  1.00  0.00     0.075 C 
ATOM     18  C   UNL A   1      34.679  23.922  23.472  1.00  0.00     0.075 C 
ENDBRANCH  13  16
ENDBRANCH   8  13
BRANCH  12  19
ATOM     19  O   UNL A   1      31.907  19.726  25.251  1.00  0.00    -0.487 OA
BRANCH  19  20
ATOM     20  C   UNL A   1      32.491  18.624  24.696  1.00  0.00     0.158 A 
ATOM     21  C   UNL A   1      33.072  17.679  25.543  1.00  0.00     0.088 A 
ATOM     22  C   UNL A   1      32.633  18.488  23.315  1.00  0.00     0.165 A 
ATOM     23  C   UNL A   1      33.701  16.566  24.996  1.00  0.00     0.127 A 
ATOM     24  C   UNL A   1      33.271  17.375  22.771  1.00  0.00     0.046 A 
ATOM     25  F   UNL A   1      32.179  19.436  22.485  1.00  0.00    -0.203 F 
ATOM     26  F   UNL A   1      34.224  15.640  25.810  1.00  0.00    -0.207 F 
ATOM     27  C   UNL A   1      33.799  16.400  23.617  1.00  0.00     0.042 A 
ENDBRANCH  19  20
ENDBRANCH  12  19
ENDBRANCH   5   8
ENDBRANCH   3   4
ENDBRANCH   2   3
ENDBRANCH   1   2
BRANCH   1  28
ATOM     28  C   UNL A   1      32.748  29.883  26.037  1.00  0.00     0.116 C 
BRANCH  28  29
ATOM     29  N   UNL A   1      32.540  31.263  26.452  1.00  0.00    -0.352 N 
ATOM     30  C   UNL A   1      33.262  32.024  27.342  1.00  0.00     0.251 C 
ATOM     31  H   UNL A   1      31.772  31.717  26.035  1.00  0.00     0.163 HD
ATOM     32  O   UNL A   1      32.851  33.128  27.677  1.00  0.00    -0.269 OA
BRANCH  30  33
ATOM     33  C   UNL A   1      34.522  31.494  27.910  1.00  0.00     0.039 A 
ATOM     34  C   UNL A   1      35.645  32.324  27.955  1.00  0.00     0.014 A 
ATOM     35  C   UNL A   1      34.595  30.190  28.407  1.00  0.00     0.014 A 
ATOM     36  C   UNL A   1      36.821  31.867  28.557  1.00  0.00     0.010 A 
ATOM     37  C   UNL A   1      35.737  29.768  29.081  1.00  0.00     0.010 A 
ATOM     38  C   UNL A   1      36.866  30.597  29.157  1.00  0.00    -0.014 A 
BRANCH  38  39
ATOM     39  C   UNL A   1      38.083  30.121  29.867  1.00  0.00     0.031 A 
ATOM     40  C   UNL A   1      38.399  30.621  31.251  1.00  0.00     0.074 A 
ATOM     41  C   UNL A   1      38.945  29.297  29.237  1.00  0.00     0.049 A 
ATOM     42  N   UNL A   1      39.431  30.355  32.009  1.00  0.00    -0.248 NA
ATOM     43  C   UNL A   1      37.444  31.566  31.854  1.00  0.00     0.031 C 
ATOM     44  C   UNL A   1      38.797  28.801  27.867  1.00  0.00     0.029 A 
ATOM     45  N   UNL A   1      40.132  28.751  29.658  1.00  0.00    -0.354 N 
ATOM     46  C   UNL A   1      39.269  31.121  33.158  1.00  0.00     0.074 A 
ATOM     47  C   UNL A   1      38.060  31.895  32.980  1.00  0.00     0.031 C 
ATOM     48  C   UNL A   1      39.843  28.016  27.567  1.00  0.00     0.029 A 
ATOM     49  C   UNL A   1      40.755  27.978  28.705  1.00  0.00     0.049 A 
ATOM     50  H   UNL A   1      40.503  28.899  30.558  1.00  0.00     0.167 HD
ATOM     51  C   UNL A   1      40.036  31.157  34.273  1.00  0.00     0.034 A 
ATOM     52  C   UNL A   1      41.930  27.319  28.740  1.00  0.00     0.034 A 
ATOM     53  C   UNL A   1      41.220  30.361  34.462  1.00  0.00     0.049 A 
ATOM     54  C   UNL A   1      42.750  27.353  30.002  1.00  0.00     0.074 A 
ATOM     55  C   UNL A   1      42.022  30.267  35.585  1.00  0.00     0.029 A 
ATOM     56  N   UNL A   1      41.778  29.532  33.501  1.00  0.00    -0.354 N 
ATOM     57  N   UNL A   1      42.500  27.965  31.134  1.00  0.00    -0.248 NA
ATOM     58  C   UNL A   1      43.996  26.573  30.004  1.00  0.00     0.031 C 
ATOM     59  C   UNL A   1      43.083  29.404  35.293  1.00  0.00     0.029 A 
ATOM     60  C   UNL A   1      42.919  28.929  34.001  1.00  0.00     0.049 A 
ATOM     61  H   UNL A   1      41.415  29.392  32.597  1.00  0.00     0.167 HD
ATOM     62  C   UNL A   1      43.532  27.610  31.996  1.00  0.00     0.074 A 
ATOM     63  C   UNL A   1      44.400  26.715  31.260  1.00  0.00     0.031 C 
ATOM     64  C   UNL A   1      43.747  27.998  33.278  1.00  0.00     0.034 A 
BRANCH  51  65
ATOM     65  C   UNL A   1      39.593  32.057  35.398  1.00  0.00     0.023 A 
ATOM     66  C   UNL A   1      38.794  31.534  36.437  1.00  0.00     0.012 A 
ATOM     67  C   UNL A   1      40.006  33.403  35.459  1.00  0.00     0.148 A 
ATOM     68  C   UNL A   1      38.377  32.344  37.493  1.00  0.00     0.002 A 
ATOM     69  C   UNL A   1      39.627  34.190  36.540  1.00  0.00     0.091 A 
ATOM     70  F   UNL A   1      40.749  33.890  34.455  1.00  0.00    -0.205 F 
ATOM     71  C   UNL A   1      38.803  33.668  37.550  1.00  0.00     0.022 A 
BRANCH  69  72
ATOM     72  S   UNL A   1      40.191  35.883  36.751  1.00  0.00     0.127 S 
ATOM     73  O   UNL A   1      41.643  35.717  36.710  1.00  0.00    -0.237 OA
ATOM     74  O   UNL A   1      39.621  36.545  35.577  1.00  0.00    -0.237 OA
ATOM     75  O   UNL A   1      39.650  36.332  38.026  1.00  0.00    -0.744 OA
ENDBRANCH  69  72
ENDBRANCH  51  65
BRANCH  52  76
ATOM     76  C   UNL A   1      42.373  26.515  27.565  1.00  0.00     0.023 A 
ATOM     77  C   UNL A   1      43.141  27.129  26.557  1.00  0.00     0.012 A 
ATOM     78  C   UNL A   1      42.051  25.149  27.449  1.00  0.00     0.148 A 
ATOM     79  C   UNL A   1      43.548  26.407  25.433  1.00  0.00     0.002 A 
ATOM     80  C   UNL A   1      42.508  24.422  26.355  1.00  0.00     0.091 A 
ATOM     81  F   UNL A   1      41.313  24.586  28.415  1.00  0.00    -0.205 F 
ATOM     82  C   UNL A   1      43.240  25.053  25.338  1.00  0.00     0.022 A 
BRANCH  80  83
ATOM     83  S   UNL A   1      42.269  22.648  26.208  1.00  0.00     0.127 S 
ATOM     84  O   UNL A   1      42.991  22.351  24.975  1.00  0.00    -0.237 OA
ATOM     85  O   UNL A   1      42.906  22.157  27.431  1.00  0.00    -0.237 OA
ATOM     86  O   UNL A   1      40.827  22.447  26.161  1.00  0.00    -0.744 OA
ENDBRANCH  80  83
ENDBRANCH  52  76
BRANCH  64  87
ATOM     87  C   UNL A   1      44.938  27.417  33.995  1.00  0.00     0.023 A 
ATOM     88  C   UNL A   1      46.174  28.093  33.980  1.00  0.00     0.012 A 
ATOM     89  C   UNL A   1      44.811  26.227  34.739  1.00  0.00     0.148 A 
ATOM     90  C   UNL A   1      47.274  27.574  34.662  1.00  0.00     0.002 A 
ATOM     91  C   UNL A   1      45.895  25.745  35.460  1.00  0.00     0.091 A 
ATOM     92  F   UNL A   1      43.632  25.587  34.726  1.00  0.00    -0.205 F 
ATOM     93  C   UNL A   1      47.132  26.408  35.411  1.00  0.00     0.022 A 
BRANCH  91  94
ATOM     94  S   UNL A   1      45.777  24.308  36.532  1.00  0.00     0.127 S 
ATOM     95  O   UNL A   1      45.061  23.360  35.682  1.00  0.00    -0.237 OA
ATOM     96  O   UNL A   1      47.184  23.978  36.764  1.00  0.00    -0.237 OA
ATOM     97  O   UNL A   1      45.057  24.750  37.720  1.00  0.00    -0.744 OA
ENDBRANCH  91  94
ENDBRANCH  64  87
ENDBRANCH  38  39
ENDBRANCH  30  33
ENDBRANCH  28  29
ENDBRANCH   1  28
TORSDOF 18
ENDMDL
MODEL 3
REMARK VINA RESULT:     -11.8      6.493     11.718
REMARK SMILES CC(C)[NH2+][C@]1(C(=O)NCCCCNC(=O)c2ccc(-c3c4nc(c(-c5cccc(S(=O)(=O)[O-])c5F)c5ccc([nH]5)c(-c5cccc(S(=O)(=O)[O-])c5F)c5nc(c(-c6cccc(S(=O)(=O)[O-])c6F)c6ccc3[nH]6)C=C5)C=C4)cc2)CC[C@@H](Oc2cc(F)ccc2F)C1
REMARK SMILES IDX 11 1 10 2 9 3 8 4 6 5 7 6 5 8 79 9 91 10 80 11 81 12 4 13
REMARK SMILES IDX 2 16 1 17 3 18 82 19 83 20 84 21 89 22 85 23 88 24 90 25
REMARK SMILES IDX 86 26 87 27 12 28 13 29 14 30 15 32 16 33 17 34 78 35 18 36
REMARK SMILES IDX 77 37 19 38 20 39 21 40 71 41 22 42 76 43 70 44 72 45 23 46
REMARK SMILES IDX 75 47 69 48 68 49 24 51 56 52 36 53 55 54 37 55 40 56 54 57
REMARK SMILES IDX 73 58 38 59 39 60 53 62 74 63 41 64 25 65 26 66 34 67 27 68
REMARK SMILES IDX 29 69 35 70 28 71 30 72 31 73 32 74 33 75 57 76 58 77 66 78
REMARK SMILES IDX 59 79 61 80 67 81 60 82 62 83 63 84 64 85 65 86 42 87 43 88
REMARK SMILES IDX 51 89 44 90 46 91 52 92 45 93 47 94 48 95 49 96 50 97
REMARK H PARENT 8 7 4 14 4 15 13 31 72 50 40 61
REMARK Flexibility Score: inf
ROOT
ATOM      1  C   UNL A   1      37.916  19.533  24.746  1.00  0.00     0.023 C 
ENDROOT
BRANCH   1   2
ATOM      2  C   UNL A   1      36.428  19.835  24.924  1.00  0.00     0.023 C 
BRANCH   2   3
ATOM      3  C   UNL A   1      36.100  21.298  25.204  1.00  0.00     0.116 C 
BRANCH   3   4
ATOM      4  N   UNL A   1      35.441  21.471  26.485  1.00  0.00    -0.351 N 
ATOM      5  C   UNL A   1      34.159  21.861  26.761  1.00  0.00     0.281 C 
ATOM      6  O   UNL A   1      33.795  21.811  27.939  1.00  0.00    -0.268 OA
ATOM      7  H   UNL A   1      35.999  21.279  27.273  1.00  0.00     0.163 HD
BRANCH   5   8
ATOM      8  C   UNL A   1      33.188  22.292  25.606  1.00  0.00     0.179 C 
ATOM      9  C   UNL A   1      31.763  22.440  26.176  1.00  0.00     0.083 C 
ATOM     10  C   UNL A   1      33.524  23.732  25.157  1.00  0.00     0.124 C 
ATOM     11  C   UNL A   1      31.075  23.497  25.325  1.00  0.00     0.052 C 
ATOM     12  C   UNL A   1      32.193  24.462  24.924  1.00  0.00     0.180 C 
BRANCH   8  13
ATOM     13  N   UNL A   1      33.313  21.245  24.563  1.00  0.00    -0.332 N 
ATOM     14  H   UNL A   1      33.283  21.729  23.666  1.00  0.00     0.347 HD
ATOM     15  H   UNL A   1      34.172  20.769  24.835  1.00  0.00     0.347 HD
BRANCH  13  16
ATOM     16  C   UNL A   1      32.364  20.147  24.468  1.00  0.00     0.176 C 
ATOM     17  C   UNL A   1      32.234  19.797  22.980  1.00  0.00     0.075 C 
ATOM     18  C   UNL A   1      32.862  18.908  25.216  1.00  0.00     0.075 C 
ENDBRANCH  13  16
ENDBRANCH   8  13
BRANCH  12  19
ATOM     19  O   UNL A   1      32.182  25.793  25.465  1.00  0.00    -0.487 OA
BRANCH  19  20
ATOM     20  C   UNL A   1      31.904  26.812  24.600  1.00  0.00     0.158 A 
ATOM     21  C   UNL A   1      32.951  27.635  24.182  1.00  0.00     0.088 A 
ATOM     22  C   UNL A   1      30.596  27.123  24.231  1.00  0.00     0.165 A 
ATOM     23  C   UNL A   1      32.684  28.699  23.327  1.00  0.00     0.127 A 
ATOM     24  C   UNL A   1      30.332  28.195  23.380  1.00  0.00     0.046 A 
ATOM     25  F   UNL A   1      29.565  26.413  24.707  1.00  0.00    -0.203 F 
ATOM     26  F   UNL A   1      33.694  29.465  22.895  1.00  0.00    -0.207 F 
ATOM     27  C   UNL A   1      31.384  28.982  22.914  1.00  0.00     0.042 A 
ENDBRANCH  19  20
ENDBRANCH  12  19
ENDBRANCH   5   8
ENDBRANCH   3   4
ENDBRANCH   2   3
ENDBRANCH   1   2
BRANCH   1  28
ATOM     28  C   UNL A   1      38.814  19.999  25.886  1.00  0.00     0.116 C 
BRANCH  28  29
ATOM     29  N   UNL A   1      40.002  19.173  26.046  1.00  0.00    -0.352 N 
ATOM     30  C   UNL A   1      41.298  19.552  26.308  1.00  0.00     0.251 C 
ATOM     31  H   UNL A   1      39.857  18.203  25.953  1.00  0.00     0.163 HD
ATOM     32  O   UNL A   1      42.199  18.722  26.266  1.00  0.00    -0.269 OA
BRANCH  30  33
ATOM     33  C   UNL A   1      41.603  20.967  26.617  1.00  0.00     0.039 A 
ATOM     34  C   UNL A   1      42.131  21.287  27.870  1.00  0.00     0.014 A 
ATOM     35  C   UNL A   1      41.382  21.973  25.673  1.00  0.00     0.014 A 
ATOM     36  C   UNL A   1      42.495  22.606  28.153  1.00  0.00     0.010 A 
ATOM     37  C   UNL A   1      41.825  23.268  25.924  1.00  0.00     0.010 A 
ATOM     38  C   UNL A   1      42.378  23.603  27.168  1.00  0.00    -0.014 A 
BRANCH  38  39
ATOM     39  C   UNL A   1      42.830  24.997  27.424  1.00  0.00     0.031 A 
ATOM     40  C   UNL A   1      41.895  25.994  28.056  1.00  0.00     0.074 A 
ATOM     41  C   UNL A   1      44.055  25.387  27.019  1.00  0.00     0.049 A 
ATOM     42  N   UNL A   1      42.093  27.260  28.318  1.00  0.00    -0.248 NA
ATOM     43  C   UNL A   1      40.551  25.513  28.418  1.00  0.00     0.031 C 
ATOM     44  C   UNL A   1      45.028  24.542  26.324  1.00  0.00     0.029 A 
ATOM     45  N   UNL A   1      44.682  26.605  27.110  1.00  0.00    -0.354 N 
ATOM     46  C   UNL A   1      40.896  27.734  28.840  1.00  0.00     0.074 A 
ATOM     47  C   UNL A   1      39.961  26.630  28.820  1.00  0.00     0.031 C 
ATOM     48  C   UNL A   1      46.131  25.261  26.065  1.00  0.00     0.029 A 
ATOM     49  C   UNL A   1      45.935  26.626  26.540  1.00  0.00     0.049 A 
ATOM     50  H   UNL A   1      44.275  27.390  27.543  1.00  0.00     0.167 HD
ATOM     51  C   UNL A   1      40.604  28.965  29.322  1.00  0.00     0.034 A 
ATOM     52  C   UNL A   1      46.823  27.631  26.409  1.00  0.00     0.034 A 
ATOM     53  C   UNL A   1      41.545  30.053  29.372  1.00  0.00     0.049 A 
ATOM     54  C   UNL A   1      46.486  28.983  26.978  1.00  0.00     0.074 A 
ATOM     55  C   UNL A   1      41.372  31.315  29.913  1.00  0.00     0.029 A 
ATOM     56  N   UNL A   1      42.830  30.013  28.854  1.00  0.00    -0.354 N 
ATOM     57  N   UNL A   1      45.400  29.369  27.606  1.00  0.00    -0.248 NA
ATOM     58  C   UNL A   1      47.511  30.029  26.856  1.00  0.00     0.031 C 
ATOM     59  C   UNL A   1      42.543  32.048  29.693  1.00  0.00     0.029 A 
ATOM     60  C   UNL A   1      43.459  31.230  29.053  1.00  0.00     0.049 A 
ATOM     61  H   UNL A   1      43.236  29.233  28.410  1.00  0.00     0.167 HD
ATOM     62  C   UNL A   1      45.630  30.685  27.991  1.00  0.00     0.074 A 
ATOM     63  C   UNL A   1      46.964  31.024  27.541  1.00  0.00     0.031 C 
ATOM     64  C   UNL A   1      44.806  31.540  28.648  1.00  0.00     0.034 A 
BRANCH  51  65
ATOM     65  C   UNL A   1      39.221  29.191  29.877  1.00  0.00     0.023 A 
ATOM     66  C   UNL A   1      38.925  28.791  31.198  1.00  0.00     0.012 A 
ATOM     67  C   UNL A   1      38.230  29.841  29.117  1.00  0.00     0.148 A 
ATOM     68  C   UNL A   1      37.656  28.995  31.737  1.00  0.00     0.002 A 
ATOM     69  C   UNL A   1      36.982  30.085  29.678  1.00  0.00     0.091 A 
ATOM     70  F   UNL A   1      38.520  30.198  27.857  1.00  0.00    -0.205 F 
ATOM     71  C   UNL A   1      36.689  29.652  30.982  1.00  0.00     0.022 A 
BRANCH  69  72
ATOM     72  S   UNL A   1      35.694  30.997  28.820  1.00  0.00     0.127 S 
ATOM     73  O   UNL A   1      34.944  31.570  29.938  1.00  0.00    -0.237 OA
ATOM     74  O   UNL A   1      36.469  31.968  28.047  1.00  0.00    -0.237 OA
ATOM     75  O   UNL A   1      34.971  30.018  28.020  1.00  0.00    -0.744 OA
ENDBRANCH  69  72
ENDBRANCH  51  65
BRANCH  52  76
ATOM     76  C   UNL A   1      48.145  27.383  25.768  1.00  0.00     0.023 A 
ATOM     77  C   UNL A   1      49.234  26.973  26.562  1.00  0.00     0.012 A 
ATOM     78  C   UNL A   1      48.327  27.538  24.380  1.00  0.00     0.148 A 
ATOM     79  C   UNL A   1      50.490  26.758  25.992  1.00  0.00     0.002 A 
ATOM     80  C   UNL A   1      49.566  27.267  23.811  1.00  0.00     0.091 A 
ATOM     81  F   UNL A   1      47.281  27.936  23.643  1.00  0.00    -0.205 F 
ATOM     82  C   UNL A   1      50.653  26.896  24.617  1.00  0.00     0.022 A 
BRANCH  80  83
ATOM     83  S   UNL A   1      49.839  27.295  22.036  1.00  0.00     0.127 S 
ATOM     84  O   UNL A   1      48.817  26.366  21.562  1.00  0.00    -0.237 OA
ATOM     85  O   UNL A   1      49.592  28.701  21.716  1.00  0.00    -0.237 OA
ATOM     86  O   UNL A   1      51.218  26.869  21.842  1.00  0.00    -0.744 OA
ENDBRANCH  80  83
ENDBRANCH  52  76
BRANCH  64  87
ATOM     87  C   UNL A   1      45.338  32.912  28.975  1.00  0.00     0.023 A 
ATOM     88  C   UNL A   1      45.998  33.143  30.198  1.00  0.00     0.012 A 
ATOM     89  C   UNL A   1      45.237  33.958  28.036  1.00  0.00     0.148 A 
ATOM     90  C   UNL A   1      46.514  34.404  30.497  1.00  0.00     0.002 A 
ATOM     91  C   UNL A   1      45.801  35.195  28.318  1.00  0.00     0.091 A 
ATOM     92  F   UNL A   1      44.589  33.724  26.886  1.00  0.00    -0.205 F 
ATOM     93  C   UNL A   1      46.427  35.425  29.554  1.00  0.00     0.022 A 
BRANCH  91  94
ATOM     94  S   UNL A   1      45.826  36.537  27.124  1.00  0.00     0.127 S 
ATOM     95  O   UNL A   1      46.385  35.877  25.946  1.00  0.00    -0.237 OA
ATOM     96  O   UNL A   1      44.408  36.881  27.016  1.00  0.00    -0.237 OA
ATOM     97  O   UNL A   1      46.657  37.581  27.709  1.00  0.00    -0.744 OA
ENDBRANCH  91  94
ENDBRANCH  64  87
ENDBRANCH  38  39
ENDBRANCH  30  33
ENDBRANCH  28  29
ENDBRANCH   1  28
TORSDOF 18
ENDMDL
