MODEL 1
REMARK VINA RESULT:     -12.6      0.000      0.000
REMARK SMILES Cc1cc(F)cc(NC(=O)N[C@@H]2COC[C@H]2C(=O)NCCCCNC(=O)c2ccc(-c3c4nc(c(-c5cccc(S(=O)(=O)[O-])c5F)c5ccc([nH]5)c(-c5cccc(S(=O)(=O)[O-])c5F)c5nc(c(-c6cccc(S(=O)(=O)[O-])c6F)c6ccc3[nH]6)C=C5)C=C4)cc2)c1
REMARK SMILES IDX 22 1 21 2 20 3 19 4 17 5 18 6 16 8 12 9 13 10 14 11 15 12
REMARK SMILES IDX 11 13 8 14 9 15 10 17 7 19 1 20 2 21 3 22 90 23 4 24 5 25
REMARK SMILES IDX 6 26 23 27 24 28 25 29 26 31 27 32 28 33 89 34 29 35 88 36
REMARK SMILES IDX 30 37 31 38 32 39 82 40 33 41 87 42 81 43 83 44 34 45 86 46
REMARK SMILES IDX 80 47 79 48 35 50 67 51 47 52 66 53 48 54 51 55 65 56 84 57
REMARK SMILES IDX 49 58 50 59 64 61 85 62 52 63 36 64 37 65 45 66 38 67 40 68
REMARK SMILES IDX 46 69 39 70 41 71 42 72 43 73 44 74 68 75 69 76 77 77 70 78
REMARK SMILES IDX 72 79 78 80 71 81 73 82 74 83 75 84 76 85 53 86 54 87 62 88
REMARK SMILES IDX 55 89 57 90 63 91 56 92 58 93 59 94 60 95 61 96
REMARK H PARENT 19 7 8 16 11 18 24 30 83 49 51 60
REMARK Flexibility Score: inf
ROOT
ATOM      1  C   UNL A   1      31.821  28.782  26.436  1.00  0.00     0.023 C 
ENDROOT
BRANCH   1   2
ATOM      2  C   UNL A   1      32.290  27.337  26.310  1.00  0.00     0.023 C 
BRANCH   2   3
ATOM      3  C   UNL A   1      33.796  27.186  26.126  1.00  0.00     0.116 C 
BRANCH   3   4
ATOM      4  N   UNL A   1      34.134  26.316  25.015  1.00  0.00    -0.356 N 
ATOM      5  C   UNL A   1      34.238  24.960  24.936  1.00  0.00     0.227 C 
ATOM      6  O   UNL A   1      34.511  24.474  23.836  1.00  0.00    -0.275 OA
ATOM      7  H   UNL A   1      34.320  26.789  24.170  1.00  0.00     0.163 HD
BRANCH   5   8
ATOM      8  C   UNL A   1      34.044  24.050  26.141  1.00  0.00     0.129 C 
ATOM      9  C   UNL A   1      33.003  22.978  25.903  1.00  0.00     0.124 C 
ATOM     10  C   UNL A   1      33.696  21.640  26.106  1.00  0.00     0.186 C 
ATOM     11  O   UNL A   1      35.075  21.893  26.423  1.00  0.00    -0.378 OA
ATOM     12  C   UNL A   1      35.323  23.311  26.488  1.00  0.00     0.176 C 
BRANCH   9  13
ATOM     13  N   UNL A   1      31.685  23.143  26.533  1.00  0.00    -0.332 N 
ATOM     14  N   UNL A   1      29.933  24.479  25.535  1.00  0.00    -0.308 N 
ATOM     15  C   UNL A   1      30.482  23.677  26.439  1.00  0.00     0.319 C 
ATOM     16  H   UNL A   1      28.964  24.536  25.705  1.00  0.00     0.171 HD
ATOM     17  O   UNL A   1      29.715  23.344  27.359  1.00  0.00    -0.248 OA
ATOM     18  H   UNL A   1      31.710  22.647  27.382  1.00  0.00     0.165 HD
BRANCH  14  19
ATOM     19  C   UNL A   1      30.247  25.269  24.427  1.00  0.00     0.046 A 
ATOM     20  C   UNL A   1      29.286  28.767  23.186  1.00  0.00     0.044 C 
ATOM     21  C   UNL A   1      29.914  27.409  23.267  1.00  0.00    -0.046 A 
ATOM     22  C   UNL A   1      30.787  27.000  22.260  1.00  0.00     0.042 A 
ATOM     23  C   UNL A   1      29.635  26.531  24.332  1.00  0.00     0.029 A 
ATOM     24  C   UNL A   1      31.405  25.770  22.367  1.00  0.00     0.125 A 
ATOM     25  F   UNL A   1      32.268  25.378  21.421  1.00  0.00    -0.207 F 
ATOM     26  C   UNL A   1      31.157  24.936  23.452  1.00  0.00     0.065 A 
ENDBRANCH  14  19
ENDBRANCH   9  13
ENDBRANCH   5   8
ENDBRANCH   3   4
ENDBRANCH   2   3
ENDBRANCH   1   2
BRANCH   1  27
ATOM     27  C   UNL A   1      32.851  29.820  26.016  1.00  0.00     0.116 C 
BRANCH  27  28
ATOM     28  N   UNL A   1      32.526  31.175  26.450  1.00  0.00    -0.352 N 
ATOM     29  C   UNL A   1      33.271  31.985  27.271  1.00  0.00     0.251 C 
ATOM     30  H   UNL A   1      31.679  31.550  26.116  1.00  0.00     0.163 HD
ATOM     31  O   UNL A   1      32.860  33.084  27.627  1.00  0.00    -0.269 OA
BRANCH  29  32
ATOM     32  C   UNL A   1      34.564  31.467  27.742  1.00  0.00     0.039 A 
ATOM     33  C   UNL A   1      35.613  32.362  27.958  1.00  0.00     0.014 A 
ATOM     34  C   UNL A   1      34.671  30.123  28.107  1.00  0.00     0.014 A 
ATOM     35  C   UNL A   1      36.763  31.913  28.602  1.00  0.00     0.010 A 
ATOM     36  C   UNL A   1      35.780  29.702  28.824  1.00  0.00     0.010 A 
ATOM     37  C   UNL A   1      36.841  30.589  29.067  1.00  0.00    -0.014 A 
BRANCH  37  38
ATOM     38  C   UNL A   1      38.036  30.101  29.792  1.00  0.00     0.031 A 
ATOM     39  C   UNL A   1      38.297  30.580  31.193  1.00  0.00     0.074 A 
ATOM     40  C   UNL A   1      38.921  29.301  29.165  1.00  0.00     0.049 A 
ATOM     41  N   UNL A   1      39.298  30.302  31.986  1.00  0.00    -0.248 NA
ATOM     42  C   UNL A   1      37.324  31.527  31.766  1.00  0.00     0.031 C 
ATOM     43  C   UNL A   1      38.820  28.849  27.775  1.00  0.00     0.029 A 
ATOM     44  N   UNL A   1      40.090  28.742  29.611  1.00  0.00    -0.354 N 
ATOM     45  C   UNL A   1      39.099  31.069  33.126  1.00  0.00     0.074 A 
ATOM     46  C   UNL A   1      37.908  31.860  32.905  1.00  0.00     0.031 C 
ATOM     47  C   UNL A   1      39.874  28.066  27.490  1.00  0.00     0.029 A 
ATOM     48  C   UNL A   1      40.731  27.974  28.667  1.00  0.00     0.049 A 
ATOM     49  H   UNL A   1      40.439  28.877  30.521  1.00  0.00     0.167 HD
ATOM     50  C   UNL A   1      39.817  31.085  34.273  1.00  0.00     0.034 A 
ATOM     51  C   UNL A   1      41.875  27.268  28.751  1.00  0.00     0.034 A 
ATOM     52  C   UNL A   1      40.955  30.242  34.509  1.00  0.00     0.049 A 
ATOM     53  C   UNL A   1      42.613  27.239  30.063  1.00  0.00     0.074 A 
ATOM     54  C   UNL A   1      41.692  30.096  35.669  1.00  0.00     0.029 A 
ATOM     55  N   UNL A   1      41.518  29.399  33.564  1.00  0.00    -0.354 N 
ATOM     56  N   UNL A   1      42.312  27.835  31.192  1.00  0.00    -0.248 NA
ATOM     57  C   UNL A   1      43.825  26.410  30.127  1.00  0.00     0.031 C 
ATOM     58  C   UNL A   1      42.708  29.165  35.422  1.00  0.00     0.029 A 
ATOM     59  C   UNL A   1      42.595  28.726  34.112  1.00  0.00     0.049 A 
ATOM     60  H   UNL A   1      41.198  29.293  32.639  1.00  0.00     0.167 HD
ATOM     61  C   UNL A   1      43.271  27.422  32.110  1.00  0.00     0.074 A 
ATOM     62  C   UNL A   1      44.152  26.510  31.408  1.00  0.00     0.031 C 
ATOM     63  C   UNL A   1      43.419  27.775  33.411  1.00  0.00     0.034 A 
BRANCH  50  64
ATOM     64  C   UNL A   1      39.340  31.990  35.376  1.00  0.00     0.023 A 
ATOM     65  C   UNL A   1      38.382  31.517  36.296  1.00  0.00     0.012 A 
ATOM     66  C   UNL A   1      39.851  33.294  35.522  1.00  0.00     0.148 A 
ATOM     67  C   UNL A   1      37.907  32.339  37.316  1.00  0.00     0.002 A 
ATOM     68  C   UNL A   1      39.406  34.093  36.569  1.00  0.00     0.091 A 
ATOM     69  F   UNL A   1      40.740  33.739  34.622  1.00  0.00    -0.205 F 
ATOM     70  C   UNL A   1      38.425  33.622  37.459  1.00  0.00     0.022 A 
BRANCH  68  71
ATOM     71  S   UNL A   1      40.072  35.732  36.879  1.00  0.00     0.127 S 
ATOM     72  O   UNL A   1      39.653  36.453  35.678  1.00  0.00    -0.237 OA
ATOM     73  O   UNL A   1      39.370  36.126  38.101  1.00  0.00    -0.237 OA
ATOM     74  O   UNL A   1      41.508  35.553  37.038  1.00  0.00    -0.744 OA
ENDBRANCH  68  71
ENDBRANCH  50  64
BRANCH  51  75
ATOM     75  C   UNL A   1      42.329  26.440  27.597  1.00  0.00     0.023 A 
ATOM     76  C   UNL A   1      43.183  27.018  26.636  1.00  0.00     0.012 A 
ATOM     77  C   UNL A   1      41.956  25.090  27.459  1.00  0.00     0.148 A 
ATOM     78  C   UNL A   1      43.630  26.277  25.543  1.00  0.00     0.002 A 
ATOM     79  C   UNL A   1      42.446  24.342  26.394  1.00  0.00     0.091 A 
ATOM     80  F   UNL A   1      41.135  24.560  28.377  1.00  0.00    -0.205 F 
ATOM     81  C   UNL A   1      43.270  24.937  25.426  1.00  0.00     0.022 A 
BRANCH  79  82
ATOM     82  S   UNL A   1      42.138  22.579  26.233  1.00  0.00     0.127 S 
ATOM     83  O   UNL A   1      40.682  22.538  26.127  1.00  0.00    -0.237 OA
ATOM     84  O   UNL A   1      42.856  22.255  24.999  1.00  0.00    -0.237 OA
ATOM     85  O   UNL A   1      42.706  21.974  27.430  1.00  0.00    -0.744 OA
ENDBRANCH  79  82
ENDBRANCH  51  75
BRANCH  63  86
ATOM     86  C   UNL A   1      44.556  27.152  34.176  1.00  0.00     0.023 A 
ATOM     87  C   UNL A   1      45.804  27.801  34.223  1.00  0.00     0.012 A 
ATOM     88  C   UNL A   1      44.360  25.967  34.914  1.00  0.00     0.148 A 
ATOM     89  C   UNL A   1      46.852  27.266  34.971  1.00  0.00     0.002 A 
ATOM     90  C   UNL A   1      45.394  25.466  35.694  1.00  0.00     0.091 A 
ATOM     91  F   UNL A   1      43.171  25.354  34.838  1.00  0.00    -0.205 F 
ATOM     92  C   UNL A   1      46.643  26.108  35.716  1.00  0.00     0.022 A 
BRANCH  90  93
ATOM     93  S   UNL A   1      45.179  24.036  36.759  1.00  0.00     0.127 S 
ATOM     94  O   UNL A   1      46.526  23.859  37.298  1.00  0.00    -0.237 OA
ATOM     95  O   UNL A   1      44.191  24.512  37.729  1.00  0.00    -0.237 OA
ATOM     96  O   UNL A   1      44.701  22.966  35.894  1.00  0.00    -0.744 OA
ENDBRANCH  90  93
ENDBRANCH  63  86
ENDBRANCH  37  38
ENDBRANCH  29  32
ENDBRANCH  27  28
ENDBRANCH   1  27
TORSDOF 16
ENDMDL
MODEL 2
REMARK VINA RESULT:     -12.3      1.412      2.723
REMARK SMILES Cc1cc(F)cc(NC(=O)N[C@@H]2COC[C@H]2C(=O)NCCCCNC(=O)c2ccc(-c3c4nc(c(-c5cccc(S(=O)(=O)[O-])c5F)c5ccc([nH]5)c(-c5cccc(S(=O)(=O)[O-])c5F)c5nc(c(-c6cccc(S(=O)(=O)[O-])c6F)c6ccc3[nH]6)C=C5)C=C4)cc2)c1
REMARK SMILES IDX 22 1 21 2 20 3 19 4 17 5 18 6 16 8 12 9 13 10 14 11 15 12
REMARK SMILES IDX 11 13 8 14 9 15 10 17 7 19 1 20 2 21 3 22 90 23 4 24 5 25
REMARK SMILES IDX 6 26 23 27 24 28 25 29 26 31 27 32 28 33 89 34 29 35 88 36
REMARK SMILES IDX 30 37 31 38 32 39 82 40 33 41 87 42 81 43 83 44 34 45 86 46
REMARK SMILES IDX 80 47 79 48 35 50 67 51 47 52 66 53 48 54 51 55 65 56 84 57
REMARK SMILES IDX 49 58 50 59 64 61 85 62 52 63 36 64 37 65 45 66 38 67 40 68
REMARK SMILES IDX 46 69 39 70 41 71 42 72 43 73 44 74 68 75 69 76 77 77 70 78
REMARK SMILES IDX 72 79 78 80 71 81 73 82 74 83 75 84 76 85 53 86 54 87 62 88
REMARK SMILES IDX 55 89 57 90 63 91 56 92 58 93 59 94 60 95 61 96
REMARK H PARENT 19 7 8 16 11 18 24 30 83 49 51 60
REMARK Flexibility Score: inf
ROOT
ATOM      1  C   UNL A   1      32.248  29.037  25.586  1.00  0.00     0.023 C 
ENDROOT
BRANCH   1   2
ATOM      2  C   UNL A   1      33.564  28.647  24.925  1.00  0.00     0.023 C 
BRANCH   2   3
ATOM      3  C   UNL A   1      33.673  27.166  24.582  1.00  0.00     0.116 C 
BRANCH   3   4
ATOM      4  N   UNL A   1      33.547  26.914  23.158  1.00  0.00    -0.356 N 
ATOM      5  C   UNL A   1      33.399  25.754  22.461  1.00  0.00     0.227 C 
ATOM      6  O   UNL A   1      33.278  25.837  21.237  1.00  0.00    -0.275 OA
ATOM      7  H   UNL A   1      33.573  27.725  22.598  1.00  0.00     0.163 HD
BRANCH   5   8
ATOM      8  C   UNL A   1      33.391  24.388  23.133  1.00  0.00     0.129 C 
ATOM      9  C   UNL A   1      32.027  24.005  23.665  1.00  0.00     0.124 C 
ATOM     10  C   UNL A   1      31.642  22.700  22.986  1.00  0.00     0.186 C 
ATOM     11  O   UNL A   1      32.699  22.335  22.084  1.00  0.00    -0.378 OA
ATOM     12  C   UNL A   1      33.776  23.289  22.159  1.00  0.00     0.176 C 
BRANCH   9  13
ATOM     13  N   UNL A   1      31.804  24.087  25.115  1.00  0.00    -0.332 N 
ATOM     14  N   UNL A   1      33.577  23.726  26.720  1.00  0.00    -0.308 N 
ATOM     15  C   UNL A   1      32.345  24.011  26.316  1.00  0.00     0.319 C 
ATOM     16  H   UNL A   1      33.654  23.930  27.681  1.00  0.00     0.171 HD
ATOM     17  O   UNL A   1      31.557  24.284  27.238  1.00  0.00    -0.248 OA
ATOM     18  H   UNL A   1      30.847  24.278  25.247  1.00  0.00     0.165 HD
BRANCH  14  19
ATOM     19  C   UNL A   1      34.802  23.239  26.259  1.00  0.00     0.046 A 
ATOM     20  C   UNL A   1      36.104  19.877  24.956  1.00  0.00     0.044 C 
ATOM     21  C   UNL A   1      36.049  21.311  25.383  1.00  0.00    -0.046 A 
ATOM     22  C   UNL A   1      37.197  22.096  25.288  1.00  0.00     0.042 A 
ATOM     23  C   UNL A   1      34.866  21.884  25.888  1.00  0.00     0.029 A 
ATOM     24  C   UNL A   1      37.127  23.431  25.631  1.00  0.00     0.125 A 
ATOM     25  F   UNL A   1      38.215  24.202  25.518  1.00  0.00    -0.207 F 
ATOM     26  C   UNL A   1      35.936  23.993  26.080  1.00  0.00     0.065 A 
ENDBRANCH  14  19
ENDBRANCH   9  13
ENDBRANCH   5   8
ENDBRANCH   3   4
ENDBRANCH   2   3
ENDBRANCH   1   2
BRANCH   1  27
ATOM     27  C   UNL A   1      32.395  29.668  26.963  1.00  0.00     0.116 C 
BRANCH  27  28
ATOM     28  N   UNL A   1      32.274  31.123  26.955  1.00  0.00    -0.352 N 
ATOM     29  C   UNL A   1      33.216  32.037  27.360  1.00  0.00     0.251 C 
ATOM     30  H   UNL A   1      31.423  31.489  26.623  1.00  0.00     0.163 HD
ATOM     31  O   UNL A   1      32.974  33.239  27.376  1.00  0.00    -0.269 OA
BRANCH  29  32
ATOM     32  C   UNL A   1      34.515  31.516  27.813  1.00  0.00     0.039 A 
ATOM     33  C   UNL A   1      35.571  32.406  28.002  1.00  0.00     0.014 A 
ATOM     34  C   UNL A   1      34.620  30.175  28.190  1.00  0.00     0.014 A 
ATOM     35  C   UNL A   1      36.731  31.957  28.630  1.00  0.00     0.010 A 
ATOM     36  C   UNL A   1      35.739  29.754  28.892  1.00  0.00     0.010 A 
ATOM     37  C   UNL A   1      36.809  30.638  29.107  1.00  0.00    -0.014 A 
BRANCH  37  38
ATOM     38  C   UNL A   1      38.013  30.150  29.816  1.00  0.00     0.031 A 
ATOM     39  C   UNL A   1      38.280  30.610  31.223  1.00  0.00     0.074 A 
ATOM     40  C   UNL A   1      38.901  29.368  29.171  1.00  0.00     0.049 A 
ATOM     41  N   UNL A   1      39.290  30.330  32.004  1.00  0.00    -0.248 NA
ATOM     42  C   UNL A   1      37.304  31.540  31.816  1.00  0.00     0.031 C 
ATOM     43  C   UNL A   1      38.794  28.935  27.776  1.00  0.00     0.029 A 
ATOM     44  N   UNL A   1      40.079  28.813  29.600  1.00  0.00    -0.354 N 
ATOM     45  C   UNL A   1      39.092  31.079  33.156  1.00  0.00     0.074 A 
ATOM     46  C   UNL A   1      37.893  31.861  32.956  1.00  0.00     0.031 C 
ATOM     47  C   UNL A   1      39.853  28.166  27.471  1.00  0.00     0.029 A 
ATOM     48  C   UNL A   1      40.720  28.065  28.640  1.00  0.00     0.049 A 
ATOM     49  H   UNL A   1      40.433  28.938  30.510  1.00  0.00     0.167 HD
ATOM     50  C   UNL A   1      39.818  31.084  34.298  1.00  0.00     0.034 A 
ATOM     51  C   UNL A   1      41.871  27.368  28.706  1.00  0.00     0.034 A 
ATOM     52  C   UNL A   1      40.966  30.248  34.513  1.00  0.00     0.049 A 
ATOM     53  C   UNL A   1      42.619  27.327  30.012  1.00  0.00     0.074 A 
ATOM     54  C   UNL A   1      41.713  30.091  35.666  1.00  0.00     0.029 A 
ATOM     55  N   UNL A   1      41.530  29.424  33.552  1.00  0.00    -0.354 N 
ATOM     56  N   UNL A   1      42.320  27.903  31.152  1.00  0.00    -0.248 NA
ATOM     57  C   UNL A   1      43.838  26.508  30.054  1.00  0.00     0.031 C 
ATOM     58  C   UNL A   1      42.736  29.174  35.398  1.00  0.00     0.029 A 
ATOM     59  C   UNL A   1      42.617  28.753  34.082  1.00  0.00     0.049 A 
ATOM     60  H   UNL A   1      41.204  29.330  32.628  1.00  0.00     0.167 HD
ATOM     61  C   UNL A   1      43.290  27.485  32.056  1.00  0.00     0.074 A 
ATOM     62  C   UNL A   1      44.174  26.592  31.335  1.00  0.00     0.031 C 
ATOM     63  C   UNL A   1      43.445  27.820  33.361  1.00  0.00     0.034 A 
BRANCH  50  64
ATOM     64  C   UNL A   1      39.342  31.968  35.419  1.00  0.00     0.023 A 
ATOM     65  C   UNL A   1      38.411  31.465  36.351  1.00  0.00     0.012 A 
ATOM     66  C   UNL A   1      39.826  33.281  35.568  1.00  0.00     0.148 A 
ATOM     67  C   UNL A   1      37.936  32.267  37.387  1.00  0.00     0.002 A 
ATOM     68  C   UNL A   1      39.383  34.061  36.629  1.00  0.00     0.091 A 
ATOM     69  F   UNL A   1      40.689  33.754  34.656  1.00  0.00    -0.205 F 
ATOM     70  C   UNL A   1      38.428  33.560  37.532  1.00  0.00     0.022 A 
BRANCH  68  71
ATOM     71  S   UNL A   1      40.018  35.712  36.943  1.00  0.00     0.127 S 
ATOM     72  O   UNL A   1      39.301  36.076  38.164  1.00  0.00    -0.237 OA
ATOM     73  O   UNL A   1      41.448  35.465  37.128  1.00  0.00    -0.237 OA
ATOM     74  O   UNL A   1      39.688  36.495  35.761  1.00  0.00    -0.744 OA
ENDBRANCH  68  71
ENDBRANCH  50  64
BRANCH  51  75
ATOM     75  C   UNL A   1      42.324  26.561  27.537  1.00  0.00     0.023 A 
ATOM     76  C   UNL A   1      43.118  27.177  26.548  1.00  0.00     0.012 A 
ATOM     77  C   UNL A   1      42.008  25.196  27.409  1.00  0.00     0.148 A 
ATOM     78  C   UNL A   1      43.563  26.458  25.440  1.00  0.00     0.002 A 
ATOM     79  C   UNL A   1      42.496  24.471  26.327  1.00  0.00     0.091 A 
ATOM     80  F   UNL A   1      41.242  24.630  28.352  1.00  0.00    -0.205 F 
ATOM     81  C   UNL A   1      43.260  25.103  25.333  1.00  0.00     0.022 A 
BRANCH  79  82
ATOM     82  S   UNL A   1      42.263  22.696  26.173  1.00  0.00     0.127 S 
ATOM     83  O   UNL A   1      40.807  22.584  26.168  1.00  0.00    -0.237 OA
ATOM     84  O   UNL A   1      42.909  22.413  24.891  1.00  0.00    -0.237 OA
ATOM     85  O   UNL A   1      42.941  22.114  27.324  1.00  0.00    -0.744 OA
ENDBRANCH  79  82
ENDBRANCH  51  75
BRANCH  63  86
ATOM     86  C   UNL A   1      44.592  27.197  34.109  1.00  0.00     0.023 A 
ATOM     87  C   UNL A   1      45.860  27.808  34.078  1.00  0.00     0.012 A 
ATOM     88  C   UNL A   1      44.392  26.052  34.905  1.00  0.00     0.148 A 
ATOM     89  C   UNL A   1      46.920  27.274  34.808  1.00  0.00     0.002 A 
ATOM     90  C   UNL A   1      45.442  25.554  35.667  1.00  0.00     0.091 A 
ATOM     91  F   UNL A   1      43.183  25.472  34.904  1.00  0.00    -0.205 F 
ATOM     92  C   UNL A   1      46.709  26.157  35.612  1.00  0.00     0.022 A 
BRANCH  90  93
ATOM     93  S   UNL A   1      45.228  24.179  36.803  1.00  0.00     0.127 S 
ATOM     94  O   UNL A   1      44.206  24.697  37.711  1.00  0.00    -0.237 OA
ATOM     95  O   UNL A   1      44.769  23.107  35.917  1.00  0.00    -0.237 OA
ATOM     96  O   UNL A   1      46.538  23.946  37.395  1.00  0.00    -0.744 OA
ENDBRANCH  90  93
ENDBRANCH  63  86
ENDBRANCH  37  38
ENDBRANCH  29  32
ENDBRANCH  27  28
ENDBRANCH   1  27
TORSDOF 16
ENDMDL
MODEL 3
REMARK VINA RESULT:     -12.2      2.376      3.739
REMARK SMILES Cc1cc(F)cc(NC(=O)N[C@@H]2COC[C@H]2C(=O)NCCCCNC(=O)c2ccc(-c3c4nc(c(-c5cccc(S(=O)(=O)[O-])c5F)c5ccc([nH]5)c(-c5cccc(S(=O)(=O)[O-])c5F)c5nc(c(-c6cccc(S(=O)(=O)[O-])c6F)c6ccc3[nH]6)C=C5)C=C4)cc2)c1
REMARK SMILES IDX 22 1 21 2 20 3 19 4 17 5 18 6 16 8 12 9 13 10 14 11 15 12
REMARK SMILES IDX 11 13 8 14 9 15 10 17 7 19 1 20 2 21 3 22 90 23 4 24 5 25
REMARK SMILES IDX 6 26 23 27 24 28 25 29 26 31 27 32 28 33 89 34 29 35 88 36
REMARK SMILES IDX 30 37 31 38 32 39 82 40 33 41 87 42 81 43 83 44 34 45 86 46
REMARK SMILES IDX 80 47 79 48 35 50 67 51 47 52 66 53 48 54 51 55 65 56 84 57
REMARK SMILES IDX 49 58 50 59 64 61 85 62 52 63 36 64 37 65 45 66 38 67 40 68
REMARK SMILES IDX 46 69 39 70 41 71 42 72 43 73 44 74 68 75 69 76 77 77 70 78
REMARK SMILES IDX 72 79 78 80 71 81 73 82 74 83 75 84 76 85 53 86 54 87 62 88
REMARK SMILES IDX 55 89 57 90 63 91 56 92 58 93 59 94 60 95 61 96
REMARK H PARENT 19 7 8 16 11 18 24 30 83 49 51 60
REMARK Flexibility Score: inf
ROOT
ATOM      1  C   UNL A   1      33.780  28.149  26.125  1.00  0.00     0.023 C 
ENDROOT
BRANCH   1   2
ATOM      2  C   UNL A   1      33.099  28.886  24.979  1.00  0.00     0.023 C 
BRANCH   2   3
ATOM      3  C   UNL A   1      31.623  28.545  24.808  1.00  0.00     0.116 C 
BRANCH   3   4
ATOM      4  N   UNL A   1      31.313  28.078  23.470  1.00  0.00    -0.356 N 
ATOM      5  C   UNL A   1      31.638  26.924  22.823  1.00  0.00     0.227 C 
ATOM      6  O   UNL A   1      31.202  26.770  21.680  1.00  0.00    -0.275 OA
ATOM      7  H   UNL A   1      30.772  28.705  22.936  1.00  0.00     0.163 HD
BRANCH   5   8
ATOM      8  C   UNL A   1      32.513  25.849  23.453  1.00  0.00     0.129 C 
ATOM      9  C   UNL A   1      31.751  24.576  23.754  1.00  0.00     0.124 C 
ATOM     10  C   UNL A   1      32.445  23.459  22.991  1.00  0.00     0.186 C 
ATOM     11  O   UNL A   1      33.541  24.030  22.258  1.00  0.00    -0.378 OA
ATOM     12  C   UNL A   1      33.643  25.442  22.525  1.00  0.00     0.176 C 
BRANCH   9  13
ATOM     13  N   UNL A   1      31.394  24.300  25.153  1.00  0.00    -0.332 N 
ATOM     14  N   UNL A   1      32.918  23.217  26.687  1.00  0.00    -0.308 N 
ATOM     15  C   UNL A   1      31.792  23.810  26.312  1.00  0.00     0.319 C 
ATOM     16  H   UNL A   1      32.926  23.137  27.669  1.00  0.00     0.171 HD
ATOM     17  O   UNL A   1      30.963  23.956  27.227  1.00  0.00    -0.248 OA
ATOM     18  H   UNL A   1      30.469  24.612  25.279  1.00  0.00     0.165 HD
BRANCH  14  19
ATOM     19  C   UNL A   1      34.097  22.667  26.177  1.00  0.00     0.046 A 
ATOM     20  C   UNL A   1      37.738  23.816  25.834  1.00  0.00     0.044 C 
ATOM     21  C   UNL A   1      36.497  22.981  25.756  1.00  0.00    -0.046 A 
ATOM     22  C   UNL A   1      36.569  21.703  25.204  1.00  0.00     0.042 A 
ATOM     23  C   UNL A   1      35.257  23.461  26.219  1.00  0.00     0.029 A 
ATOM     24  C   UNL A   1      35.434  20.917  25.185  1.00  0.00     0.125 A 
ATOM     25  F   UNL A   1      35.496  19.677  24.684  1.00  0.00    -0.207 F 
ATOM     26  C   UNL A   1      34.228  21.388  25.693  1.00  0.00     0.065 A 
ENDBRANCH  14  19
ENDBRANCH   9  13
ENDBRANCH   5   8
ENDBRANCH   3   4
ENDBRANCH   2   3
ENDBRANCH   1   2
BRANCH   1  27
ATOM     27  C   UNL A   1      33.439  28.680  27.509  1.00  0.00     0.116 C 
BRANCH  27  28
ATOM     28  N   UNL A   1      33.506  30.134  27.611  1.00  0.00    -0.352 N 
ATOM     29  C   UNL A   1      34.589  30.891  27.990  1.00  0.00     0.251 C 
ATOM     30  H   UNL A   1      32.686  30.628  27.382  1.00  0.00     0.163 HD
ATOM     31  O   UNL A   1      34.506  32.108  28.108  1.00  0.00    -0.269 OA
BRANCH  29  32
ATOM     32  C   UNL A   1      35.841  30.180  28.289  1.00  0.00     0.039 A 
ATOM     33  C   UNL A   1      36.898  30.262  27.382  1.00  0.00     0.014 A 
ATOM     34  C   UNL A   1      36.000  29.569  29.535  1.00  0.00     0.014 A 
ATOM     35  C   UNL A   1      38.148  29.774  27.755  1.00  0.00     0.010 A 
ATOM     36  C   UNL A   1      37.265  29.164  29.934  1.00  0.00     0.010 A 
ATOM     37  C   UNL A   1      38.347  29.252  29.043  1.00  0.00    -0.014 A 
BRANCH  37  38
ATOM     38  C   UNL A   1      39.676  28.767  29.478  1.00  0.00     0.031 A 
ATOM     39  C   UNL A   1      40.394  29.476  30.592  1.00  0.00     0.074 A 
ATOM     40  C   UNL A   1      40.268  27.752  28.818  1.00  0.00     0.049 A 
ATOM     41  N   UNL A   1      41.574  29.235  31.098  1.00  0.00    -0.248 NA
ATOM     42  C   UNL A   1      39.711  30.635  31.193  1.00  0.00     0.031 C 
ATOM     43  C   UNL A   1      39.708  27.050  27.661  1.00  0.00     0.029 A 
ATOM     44  N   UNL A   1      41.482  27.146  29.016  1.00  0.00    -0.354 N 
ATOM     45  C   UNL A   1      41.791  30.232  32.039  1.00  0.00     0.074 A 
ATOM     46  C   UNL A   1      40.643  31.109  32.004  1.00  0.00     0.031 C 
ATOM     47  C   UNL A   1      40.569  26.097  27.265  1.00  0.00     0.029 A 
ATOM     48  C   UNL A   1      41.745  26.131  28.127  1.00  0.00     0.049 A 
ATOM     49  H   UNL A   1      42.107  27.413  29.728  1.00  0.00     0.167 HD
ATOM     50  C   UNL A   1      42.833  30.381  32.890  1.00  0.00     0.034 A 
ATOM     51  C   UNL A   1      42.812  25.314  28.030  1.00  0.00     0.034 A 
ATOM     52  C   UNL A   1      43.934  29.463  32.967  1.00  0.00     0.049 A 
ATOM     53  C   UNL A   1      43.922  25.451  29.038  1.00  0.00     0.074 A 
ATOM     54  C   UNL A   1      44.988  29.455  33.861  1.00  0.00     0.029 A 
ATOM     55  N   UNL A   1      44.119  28.384  32.117  1.00  0.00    -0.354 N 
ATOM     56  N   UNL A   1      44.028  26.292  30.039  1.00  0.00    -0.248 NA
ATOM     57  C   UNL A   1      45.039  24.502  28.931  1.00  0.00     0.031 C 
ATOM     58  C   UNL A   1      45.816  28.371  33.546  1.00  0.00     0.029 A 
ATOM     59  C   UNL A   1      45.270  27.700  32.463  1.00  0.00     0.049 A 
ATOM     60  H   UNL A   1      43.518  28.139  31.376  1.00  0.00     0.167 HD
ATOM     61  C   UNL A   1      45.200  25.949  30.703  1.00  0.00     0.074 A 
ATOM     62  C   UNL A   1      45.758  24.811  30.002  1.00  0.00     0.031 C 
ATOM     63  C   UNL A   1      45.772  26.531  31.787  1.00  0.00     0.034 A 
BRANCH  50  64
ATOM     64  C   UNL A   1      42.785  31.541  33.848  1.00  0.00     0.023 A 
ATOM     65  C   UNL A   1      43.245  32.807  33.428  1.00  0.00     0.012 A 
ATOM     66  C   UNL A   1      42.268  31.392  35.148  1.00  0.00     0.148 A 
ATOM     67  C   UNL A   1      43.231  33.894  34.298  1.00  0.00     0.002 A 
ATOM     68  C   UNL A   1      42.216  32.492  35.997  1.00  0.00     0.091 A 
ATOM     69  F   UNL A   1      41.862  30.176  35.542  1.00  0.00    -0.205 F 
ATOM     70  C   UNL A   1      42.709  33.740  35.578  1.00  0.00     0.022 A 
BRANCH  68  71
ATOM     71  S   UNL A   1      41.488  32.409  37.637  1.00  0.00     0.127 S 
ATOM     72  O   UNL A   1      40.112  32.020  37.331  1.00  0.00    -0.237 OA
ATOM     73  O   UNL A   1      42.287  31.364  38.279  1.00  0.00    -0.237 OA
ATOM     74  O   UNL A   1      41.655  33.735  38.213  1.00  0.00    -0.744 OA
ENDBRANCH  68  71
ENDBRANCH  50  64
BRANCH  51  75
ATOM     75  C   UNL A   1      42.828  24.222  27.015  1.00  0.00     0.023 A 
ATOM     76  C   UNL A   1      43.570  24.403  25.829  1.00  0.00     0.012 A 
ATOM     77  C   UNL A   1      42.152  23.006  27.221  1.00  0.00     0.148 A 
ATOM     78  C   UNL A   1      43.612  23.406  24.856  1.00  0.00     0.002 A 
ATOM     79  C   UNL A   1      42.238  21.996  26.268  1.00  0.00     0.091 A 
ATOM     80  F   UNL A   1      41.443  22.856  28.349  1.00  0.00    -0.205 F 
ATOM     81  C   UNL A   1      42.954  22.200  25.078  1.00  0.00     0.022 A 
BRANCH  79  82
ATOM     82  S   UNL A   1      41.529  20.365  26.527  1.00  0.00     0.127 S 
ATOM     83  O   UNL A   1      40.098  20.647  26.467  1.00  0.00    -0.237 OA
ATOM     84  O   UNL A   1      42.060  19.617  25.387  1.00  0.00    -0.237 OA
ATOM     85  O   UNL A   1      42.036  19.922  27.819  1.00  0.00    -0.744 OA
ENDBRANCH  79  82
ENDBRANCH  51  75
BRANCH  63  86
ATOM     86  C   UNL A   1      47.051  25.931  32.306  1.00  0.00     0.023 A 
ATOM     87  C   UNL A   1      48.287  26.386  31.810  1.00  0.00     0.012 A 
ATOM     88  C   UNL A   1      47.027  24.976  33.342  1.00  0.00     0.148 A 
ATOM     89  C   UNL A   1      49.482  25.880  32.317  1.00  0.00     0.002 A 
ATOM     90  C   UNL A   1      48.223  24.512  33.875  1.00  0.00     0.091 A 
ATOM     91  F   UNL A   1      45.840  24.540  33.786  1.00  0.00    -0.205 F 
ATOM     92  C   UNL A   1      49.451  24.955  33.357  1.00  0.00     0.022 A 
BRANCH  90  93
ATOM     93  S   UNL A   1      48.271  23.395  35.281  1.00  0.00     0.127 S 
ATOM     94  O   UNL A   1      49.707  23.171  35.437  1.00  0.00    -0.237 OA
ATOM     95  O   UNL A   1      47.659  24.197  36.342  1.00  0.00    -0.237 OA
ATOM     96  O   UNL A   1      47.492  22.228  34.887  1.00  0.00    -0.744 OA
ENDBRANCH  90  93
ENDBRANCH  63  86
ENDBRANCH  37  38
ENDBRANCH  29  32
ENDBRANCH  27  28
ENDBRANCH   1  27
TORSDOF 16
ENDMDL
