MODEL 1
REMARK VINA RESULT:     -12.5      0.000      0.000
REMARK SMILES O=C(NCCCCNC(=O)c1ccc(-c2c3nc(c(-c4cccc(S(=O)(=O)[O-])c4F)c4ccc([nH]4)c(-c4cccc(S(=O)(=O)[O-])c4F)c4nc(c(-c5cccc(S(=O)(=O)[O-])c5F)c5ccc2[nH]5)C=C4)C=C3)cc1)/C(=C/c1ccccc1Cl)NC(=O)c1ccccc1
REMARK SMILES IDX 6 1 5 2 4 3 3 4 1 5 2 6 74 8 75 9 83 10 84 11 85 13 86 14
REMARK SMILES IDX 87 15 91 16 88 17 90 18 89 19 76 20 77 21 81 22 78 23 80 24
REMARK SMILES IDX 82 25 79 26 7 27 8 28 9 29 10 31 11 32 12 33 73 34 13 35
REMARK SMILES IDX 72 36 14 37 15 38 16 39 66 40 17 41 71 42 65 43 67 44 18 45
REMARK SMILES IDX 70 46 64 47 63 48 19 50 51 51 31 52 50 53 32 54 35 55 49 56
REMARK SMILES IDX 68 57 33 58 34 59 48 61 69 62 36 63 20 64 21 65 29 66 22 67
REMARK SMILES IDX 24 68 30 69 23 70 25 71 26 72 27 73 28 74 52 75 53 76 61 77
REMARK SMILES IDX 54 78 56 79 62 80 55 81 57 82 58 83 59 84 60 85 37 86 38 87
REMARK SMILES IDX 46 88 39 89 41 90 47 91 40 92 42 93 43 94 44 95 45 96
REMARK H PARENT 3 7 83 12 8 30 67 49 35 60
REMARK Flexibility Score: inf
ROOT
ATOM      1  C   UNL A   1      31.467  28.962  25.883  1.00  0.00     0.023 C 
ENDROOT
BRANCH   1   2
ATOM      2  C   UNL A   1      31.654  27.810  26.881  1.00  0.00     0.023 C 
BRANCH   2   3
ATOM      3  C   UNL A   1      31.907  26.410  26.325  1.00  0.00     0.116 C 
BRANCH   3   4
ATOM      4  N   UNL A   1      31.066  25.360  26.876  1.00  0.00    -0.351 N 
ATOM      5  O   UNL A   1      30.300  23.282  27.251  1.00  0.00    -0.268 OA
ATOM      6  C   UNL A   1      31.168  23.996  26.746  1.00  0.00     0.267 C 
ATOM      7  H   UNL A   1      30.310  25.673  27.424  1.00  0.00     0.163 HD
BRANCH   6   8
ATOM      8  C   UNL A   1      32.286  23.375  25.922  1.00  0.00     0.107 C 
ATOM      9  C   UNL A   1      33.529  23.538  26.424  1.00  0.00     0.041 C 
BRANCH   8  10
ATOM     10  N   UNL A   1      32.046  22.676  24.762  1.00  0.00    -0.317 N 
ATOM     11  C   UNL A   1      31.819  23.129  23.478  1.00  0.00     0.255 C 
ATOM     12  H   UNL A   1      32.035  21.696  24.863  1.00  0.00     0.170 HD
ATOM     13  O   UNL A   1      31.403  22.351  22.622  1.00  0.00    -0.269 OA
BRANCH  11  14
ATOM     14  C   UNL A   1      32.106  24.540  23.116  1.00  0.00     0.040 A 
ATOM     15  C   UNL A   1      31.032  25.422  22.972  1.00  0.00     0.014 A 
ATOM     16  C   UNL A   1      33.417  25.003  22.949  1.00  0.00     0.014 A 
ATOM     17  C   UNL A   1      31.279  26.782  22.784  1.00  0.00     0.001 A 
ATOM     18  C   UNL A   1      33.655  26.364  22.764  1.00  0.00     0.001 A 
ATOM     19  C   UNL A   1      32.587  27.255  22.707  1.00  0.00     0.000 A 
ENDBRANCH  11  14
ENDBRANCH   8  10
BRANCH   9  20
ATOM     20  C   UNL A   1      34.836  23.010  25.955  1.00  0.00    -0.005 A 
ATOM     21  C   UNL A   1      35.806  23.994  25.675  1.00  0.00     0.010 A 
ATOM     22  C   UNL A   1      35.197  21.670  25.723  1.00  0.00     0.048 A 
ATOM     23  C   UNL A   1      37.103  23.658  25.275  1.00  0.00     0.001 A 
ATOM     24  C   UNL A   1      36.513  21.332  25.367  1.00  0.00     0.021 A 
ATOM     25  Cl  UNL A   1      34.077  20.354  25.768  1.00  0.00    -0.084 Cl
ATOM     26  C   UNL A   1      37.467  22.323  25.153  1.00  0.00     0.002 A 
ENDBRANCH   9  20
ENDBRANCH   6   8
ENDBRANCH   3   4
ENDBRANCH   2   3
ENDBRANCH   1   2
BRANCH   1  27
ATOM     27  C   UNL A   1      32.568  30.018  25.754  1.00  0.00     0.116 C 
BRANCH  27  28
ATOM     28  N   UNL A   1      32.263  31.313  26.343  1.00  0.00    -0.352 N 
ATOM     29  C   UNL A   1      33.025  32.056  27.229  1.00  0.00     0.251 C 
ATOM     30  H   UNL A   1      31.404  31.713  26.077  1.00  0.00     0.163 HD
ATOM     31  O   UNL A   1      32.613  33.128  27.649  1.00  0.00    -0.269 OA
BRANCH  29  32
ATOM     32  C   UNL A   1      34.331  31.531  27.704  1.00  0.00     0.039 A 
ATOM     33  C   UNL A   1      35.373  32.426  27.959  1.00  0.00     0.014 A 
ATOM     34  C   UNL A   1      34.524  30.166  27.918  1.00  0.00     0.014 A 
ATOM     35  C   UNL A   1      36.567  31.961  28.526  1.00  0.00     0.010 A 
ATOM     36  C   UNL A   1      35.698  29.708  28.524  1.00  0.00     0.010 A 
ATOM     37  C   UNL A   1      36.723  30.604  28.863  1.00  0.00    -0.014 A 
BRANCH  37  38
ATOM     38  C   UNL A   1      37.897  30.139  29.657  1.00  0.00     0.031 A 
ATOM     39  C   UNL A   1      38.149  30.628  31.059  1.00  0.00     0.074 A 
ATOM     40  C   UNL A   1      38.805  29.329  29.072  1.00  0.00     0.049 A 
ATOM     41  N   UNL A   1      39.129  30.322  31.872  1.00  0.00    -0.248 NA
ATOM     42  C   UNL A   1      37.193  31.598  31.614  1.00  0.00     0.031 C 
ATOM     43  C   UNL A   1      38.742  28.851  27.689  1.00  0.00     0.029 A 
ATOM     44  N   UNL A   1      39.972  28.786  29.555  1.00  0.00    -0.354 N 
ATOM     45  C   UNL A   1      38.924  31.073  33.024  1.00  0.00     0.074 A 
ATOM     46  C   UNL A   1      37.738  31.872  32.793  1.00  0.00     0.031 C 
ATOM     47  C   UNL A   1      39.816  28.087  27.437  1.00  0.00     0.029 A 
ATOM     48  C   UNL A   1      40.657  28.033  28.629  1.00  0.00     0.049 A 
ATOM     49  H   UNL A   1      40.287  28.922  30.478  1.00  0.00     0.167 HD
ATOM     50  C   UNL A   1      39.638  31.078  34.177  1.00  0.00     0.034 A 
ATOM     51  C   UNL A   1      41.830  27.372  28.721  1.00  0.00     0.034 A 
ATOM     52  C   UNL A   1      40.794  30.258  34.428  1.00  0.00     0.049 A 
ATOM     53  C   UNL A   1      42.574  27.359  30.030  1.00  0.00     0.074 A 
ATOM     54  C   UNL A   1      41.519  30.133  35.602  1.00  0.00     0.029 A 
ATOM     55  N   UNL A   1      41.400  29.430  33.498  1.00  0.00    -0.354 N 
ATOM     56  N   UNL A   1      42.254  27.926  31.166  1.00  0.00    -0.248 NA
ATOM     57  C   UNL A   1      43.821  26.579  30.080  1.00  0.00     0.031 C 
ATOM     58  C   UNL A   1      42.573  29.241  35.376  1.00  0.00     0.029 A 
ATOM     59  C   UNL A   1      42.493  28.797  34.067  1.00  0.00     0.049 A 
ATOM     60  H   UNL A   1      41.100  29.309  32.568  1.00  0.00     0.167 HD
ATOM     61  C   UNL A   1      43.232  27.536  32.075  1.00  0.00     0.074 A 
ATOM     62  C   UNL A   1      44.148  26.672  31.363  1.00  0.00     0.031 C 
ATOM     63  C   UNL A   1      43.363  27.878  33.379  1.00  0.00     0.034 A 
BRANCH  50  64
ATOM     64  C   UNL A   1      39.152  31.955  35.302  1.00  0.00     0.023 A 
ATOM     65  C   UNL A   1      38.233  31.429  36.233  1.00  0.00     0.012 A 
ATOM     66  C   UNL A   1      39.675  33.248  35.499  1.00  0.00     0.148 A 
ATOM     67  C   UNL A   1      37.823  32.186  37.329  1.00  0.00     0.002 A 
ATOM     68  C   UNL A   1      39.289  33.982  36.616  1.00  0.00     0.091 A 
ATOM     69  F   UNL A   1      40.536  33.735  34.595  1.00  0.00    -0.205 F 
ATOM     70  C   UNL A   1      38.358  33.456  37.526  1.00  0.00     0.022 A 
BRANCH  68  71
ATOM     71  S   UNL A   1      39.981  35.594  37.003  1.00  0.00     0.127 S 
ATOM     72  O   UNL A   1      39.298  35.915  38.255  1.00  0.00    -0.237 OA
ATOM     73  O   UNL A   1      41.406  35.295  37.145  1.00  0.00    -0.237 OA
ATOM     74  O   UNL A   1      39.652  36.453  35.873  1.00  0.00    -0.744 OA
ENDBRANCH  68  71
ENDBRANCH  50  64
BRANCH  51  75
ATOM     75  C   UNL A   1      42.340  26.595  27.556  1.00  0.00     0.023 A 
ATOM     76  C   UNL A   1      43.150  27.239  26.600  1.00  0.00     0.012 A 
ATOM     77  C   UNL A   1      42.041  25.230  27.393  1.00  0.00     0.148 A 
ATOM     78  C   UNL A   1      43.622  26.546  25.485  1.00  0.00     0.002 A 
ATOM     79  C   UNL A   1      42.560  24.531  26.309  1.00  0.00     0.091 A 
ATOM     80  F   UNL A   1      41.254  24.637  28.304  1.00  0.00    -0.205 F 
ATOM     81  C   UNL A   1      43.336  25.191  25.344  1.00  0.00     0.022 A 
BRANCH  79  82
ATOM     82  S   UNL A   1      42.348  22.757  26.128  1.00  0.00     0.127 S 
ATOM     83  O   UNL A   1      43.028  22.501  24.861  1.00  0.00    -0.237 OA
ATOM     84  O   UNL A   1      43.038  22.242  27.312  1.00  0.00    -0.237 OA
ATOM     85  O   UNL A   1      40.907  22.537  26.137  1.00  0.00    -0.744 OA
ENDBRANCH  79  82
ENDBRANCH  51  75
BRANCH  63  86
ATOM     86  C   UNL A   1      44.512  27.289  34.156  1.00  0.00     0.023 A 
ATOM     87  C   UNL A   1      45.751  27.957  34.191  1.00  0.00     0.012 A 
ATOM     88  C   UNL A   1      44.338  26.116  34.920  1.00  0.00     0.148 A 
ATOM     89  C   UNL A   1      46.806  27.458  34.954  1.00  0.00     0.002 A 
ATOM     90  C   UNL A   1      45.379  25.650  35.714  1.00  0.00     0.091 A 
ATOM     91  F   UNL A   1      43.158  25.481  34.858  1.00  0.00    -0.205 F 
ATOM     92  C   UNL A   1      46.617  26.313  35.725  1.00  0.00     0.022 A 
BRANCH  90  93
ATOM     93  S   UNL A   1      45.196  24.236  36.810  1.00  0.00     0.127 S 
ATOM     94  O   UNL A   1      46.513  24.175  37.440  1.00  0.00    -0.237 OA
ATOM     95  O   UNL A   1      44.114  24.667  37.696  1.00  0.00    -0.237 OA
ATOM     96  O   UNL A   1      44.858  23.108  35.952  1.00  0.00    -0.744 OA
ENDBRANCH  90  93
ENDBRANCH  63  86
ENDBRANCH  37  38
ENDBRANCH  29  32
ENDBRANCH  27  28
ENDBRANCH   1  27
TORSDOF 17
ENDMDL
MODEL 2
REMARK VINA RESULT:     -12.5      1.237      2.261
REMARK SMILES O=C(NCCCCNC(=O)c1ccc(-c2c3nc(c(-c4cccc(S(=O)(=O)[O-])c4F)c4ccc([nH]4)c(-c4cccc(S(=O)(=O)[O-])c4F)c4nc(c(-c5cccc(S(=O)(=O)[O-])c5F)c5ccc2[nH]5)C=C4)C=C3)cc1)/C(=C/c1ccccc1Cl)NC(=O)c1ccccc1
REMARK SMILES IDX 6 1 5 2 4 3 3 4 1 5 2 6 74 8 75 9 83 10 84 11 85 13 86 14
REMARK SMILES IDX 87 15 91 16 88 17 90 18 89 19 76 20 77 21 81 22 78 23 80 24
REMARK SMILES IDX 82 25 79 26 7 27 8 28 9 29 10 31 11 32 12 33 73 34 13 35
REMARK SMILES IDX 72 36 14 37 15 38 16 39 66 40 17 41 71 42 65 43 67 44 18 45
REMARK SMILES IDX 70 46 64 47 63 48 19 50 51 51 31 52 50 53 32 54 35 55 49 56
REMARK SMILES IDX 68 57 33 58 34 59 48 61 69 62 36 63 20 64 21 65 29 66 22 67
REMARK SMILES IDX 24 68 30 69 23 70 25 71 26 72 27 73 28 74 52 75 53 76 61 77
REMARK SMILES IDX 54 78 56 79 62 80 55 81 57 82 58 83 59 84 60 85 37 86 38 87
REMARK SMILES IDX 46 88 39 89 41 90 47 91 40 92 42 93 43 94 44 95 45 96
REMARK H PARENT 3 7 83 12 8 30 67 49 35 60
REMARK Flexibility Score: inf
ROOT
ATOM      1  C   UNL A   1      31.499  29.376  24.853  1.00  0.00     0.023 C 
ENDROOT
BRANCH   1   2
ATOM      2  C   UNL A   1      31.970  28.748  23.534  1.00  0.00     0.023 C 
BRANCH   2   3
ATOM      3  C   UNL A   1      31.394  27.390  23.136  1.00  0.00     0.116 C 
BRANCH   3   4
ATOM      4  N   UNL A   1      31.839  26.877  21.851  1.00  0.00    -0.351 N 
ATOM      5  O   UNL A   1      33.053  25.676  20.392  1.00  0.00    -0.268 OA
ATOM      6  C   UNL A   1      32.780  25.916  21.569  1.00  0.00     0.267 C 
ATOM      7  H   UNL A   1      31.402  27.278  21.065  1.00  0.00     0.163 HD
BRANCH   6   8
ATOM      8  C   UNL A   1      33.538  25.218  22.688  1.00  0.00     0.107 C 
ATOM      9  C   UNL A   1      33.697  23.886  22.531  1.00  0.00     0.041 C 
BRANCH   8  10
ATOM     10  N   UNL A   1      34.046  25.898  23.771  1.00  0.00    -0.317 N 
ATOM     11  C   UNL A   1      33.652  25.891  25.093  1.00  0.00     0.255 C 
ATOM     12  H   UNL A   1      34.815  26.481  23.570  1.00  0.00     0.170 HD
ATOM     13  O   UNL A   1      34.094  26.740  25.864  1.00  0.00    -0.269 OA
BRANCH  11  14
ATOM     14  C   UNL A   1      32.724  24.848  25.597  1.00  0.00     0.040 A 
ATOM     15  C   UNL A   1      33.202  23.927  26.532  1.00  0.00     0.014 A 
ATOM     16  C   UNL A   1      31.388  24.791  25.180  1.00  0.00     0.014 A 
ATOM     17  C   UNL A   1      32.315  23.035  27.135  1.00  0.00     0.001 A 
ATOM     18  C   UNL A   1      30.508  23.898  25.790  1.00  0.00     0.001 A 
ATOM     19  C   UNL A   1      30.967  23.039  26.784  1.00  0.00     0.000 A 
ENDBRANCH  11  14
ENDBRANCH   8  10
BRANCH   9  20
ATOM     20  C   UNL A   1      34.442  22.899  23.355  1.00  0.00    -0.005 A 
ATOM     21  C   UNL A   1      35.833  23.116  23.423  1.00  0.00     0.010 A 
ATOM     22  C   UNL A   1      33.934  21.772  24.027  1.00  0.00     0.048 A 
ATOM     23  C   UNL A   1      36.667  22.306  24.201  1.00  0.00     0.001 A 
ATOM     24  C   UNL A   1      34.765  20.988  24.844  1.00  0.00     0.021 A 
ATOM     25  Cl  UNL A   1      32.310  21.204  23.856  1.00  0.00    -0.084 Cl
ATOM     26  C   UNL A   1      36.127  21.261  24.939  1.00  0.00     0.002 A 
ENDBRANCH   9  20
ENDBRANCH   6   8
ENDBRANCH   3   4
ENDBRANCH   2   3
ENDBRANCH   1   2
BRANCH   1  27
ATOM     27  C   UNL A   1      32.545  29.920  25.830  1.00  0.00     0.116 C 
BRANCH  27  28
ATOM     28  N   UNL A   1      32.262  31.240  26.375  1.00  0.00    -0.352 N 
ATOM     29  C   UNL A   1      33.047  32.008  27.219  1.00  0.00     0.251 C 
ATOM     30  H   UNL A   1      31.403  31.639  26.108  1.00  0.00     0.163 HD
ATOM     31  O   UNL A   1      32.652  33.099  27.605  1.00  0.00    -0.269 OA
BRANCH  29  32
ATOM     32  C   UNL A   1      34.356  31.488  27.690  1.00  0.00     0.039 A 
ATOM     33  C   UNL A   1      35.403  32.384  27.918  1.00  0.00     0.014 A 
ATOM     34  C   UNL A   1      34.547  30.127  27.928  1.00  0.00     0.014 A 
ATOM     35  C   UNL A   1      36.601  31.926  28.482  1.00  0.00     0.010 A 
ATOM     36  C   UNL A   1      35.726  29.676  28.531  1.00  0.00     0.010 A 
ATOM     37  C   UNL A   1      36.757  30.576  28.842  1.00  0.00    -0.014 A 
BRANCH  37  38
ATOM     38  C   UNL A   1      37.937  30.122  29.634  1.00  0.00     0.031 A 
ATOM     39  C   UNL A   1      38.196  30.625  31.030  1.00  0.00     0.074 A 
ATOM     40  C   UNL A   1      38.844  29.310  29.051  1.00  0.00     0.049 A 
ATOM     41  N   UNL A   1      39.182  30.329  31.839  1.00  0.00    -0.248 NA
ATOM     42  C   UNL A   1      37.240  31.597  31.582  1.00  0.00     0.031 C 
ATOM     43  C   UNL A   1      38.774  28.818  27.673  1.00  0.00     0.029 A 
ATOM     44  N   UNL A   1      40.016  28.775  29.531  1.00  0.00    -0.354 N 
ATOM     45  C   UNL A   1      38.982  31.091  32.985  1.00  0.00     0.074 A 
ATOM     46  C   UNL A   1      37.792  31.883  32.755  1.00  0.00     0.031 C 
ATOM     47  C   UNL A   1      39.849  28.056  27.421  1.00  0.00     0.029 A 
ATOM     48  C   UNL A   1      40.698  28.016  28.607  1.00  0.00     0.049 A 
ATOM     49  H   UNL A   1      40.337  28.921  30.451  1.00  0.00     0.167 HD
ATOM     50  C   UNL A   1      39.703  31.109  34.133  1.00  0.00     0.034 A 
ATOM     51  C   UNL A   1      41.874  27.360  28.698  1.00  0.00     0.034 A 
ATOM     52  C   UNL A   1      40.863  30.294  34.385  1.00  0.00     0.049 A 
ATOM     53  C   UNL A   1      42.626  27.361  30.002  1.00  0.00     0.074 A 
ATOM     54  C   UNL A   1      41.596  30.183  35.555  1.00  0.00     0.029 A 
ATOM     55  N   UNL A   1      41.466  29.460  33.458  1.00  0.00    -0.354 N 
ATOM     56  N   UNL A   1      42.311  27.937  31.135  1.00  0.00    -0.248 NA
ATOM     57  C   UNL A   1      43.876  26.587  30.053  1.00  0.00     0.031 C 
ATOM     58  C   UNL A   1      42.652  29.293  35.331  1.00  0.00     0.029 A 
ATOM     59  C   UNL A   1      42.565  28.836  34.027  1.00  0.00     0.049 A 
ATOM     60  H   UNL A   1      41.161  29.330  32.532  1.00  0.00     0.167 HD
ATOM     61  C   UNL A   1      43.296  27.560  32.042  1.00  0.00     0.074 A 
ATOM     62  C   UNL A   1      44.211  26.692  31.332  1.00  0.00     0.031 C 
ATOM     63  C   UNL A   1      43.434  27.914  33.342  1.00  0.00     0.034 A 
BRANCH  50  64
ATOM     64  C   UNL A   1      39.221  31.994  35.254  1.00  0.00     0.023 A 
ATOM     65  C   UNL A   1      38.325  31.468  36.206  1.00  0.00     0.012 A 
ATOM     66  C   UNL A   1      39.726  33.298  35.424  1.00  0.00     0.148 A 
ATOM     67  C   UNL A   1      37.920  32.234  37.298  1.00  0.00     0.002 A 
ATOM     68  C   UNL A   1      39.347  34.042  36.536  1.00  0.00     0.091 A 
ATOM     69  F   UNL A   1      40.566  33.785  34.499  1.00  0.00    -0.205 F 
ATOM     70  C   UNL A   1      38.438  33.515  37.468  1.00  0.00     0.022 A 
BRANCH  68  71
ATOM     71  S   UNL A   1      40.019  35.670  36.888  1.00  0.00     0.127 S 
ATOM     72  O   UNL A   1      41.451  35.386  36.971  1.00  0.00    -0.237 OA
ATOM     73  O   UNL A   1      39.617  36.435  35.708  1.00  0.00    -0.237 OA
ATOM     74  O   UNL A   1      39.394  36.101  38.131  1.00  0.00    -0.744 OA
ENDBRANCH  68  71
ENDBRANCH  50  64
BRANCH  51  75
ATOM     75  C   UNL A   1      42.379  26.574  27.537  1.00  0.00     0.023 A 
ATOM     76  C   UNL A   1      43.200  27.206  26.583  1.00  0.00     0.012 A 
ATOM     77  C   UNL A   1      42.065  25.212  27.377  1.00  0.00     0.148 A 
ATOM     78  C   UNL A   1      43.669  26.505  25.471  1.00  0.00     0.002 A 
ATOM     79  C   UNL A   1      42.580  24.505  26.297  1.00  0.00     0.091 A 
ATOM     80  F   UNL A   1      41.268  24.631  28.287  1.00  0.00    -0.205 F 
ATOM     81  C   UNL A   1      43.368  25.153  25.333  1.00  0.00     0.022 A 
BRANCH  79  82
ATOM     82  S   UNL A   1      42.349  22.732  26.119  1.00  0.00     0.127 S 
ATOM     83  O   UNL A   1      40.897  22.607  26.215  1.00  0.00    -0.237 OA
ATOM     84  O   UNL A   1      42.903  22.481  24.787  1.00  0.00    -0.237 OA
ATOM     85  O   UNL A   1      43.116  22.132  27.204  1.00  0.00    -0.744 OA
ENDBRANCH  79  82
ENDBRANCH  51  75
BRANCH  63  86
ATOM     86  C   UNL A   1      44.590  27.336  34.117  1.00  0.00     0.023 A 
ATOM     87  C   UNL A   1      45.835  27.994  34.114  1.00  0.00     0.012 A 
ATOM     88  C   UNL A   1      44.417  26.187  34.916  1.00  0.00     0.148 A 
ATOM     89  C   UNL A   1      46.897  27.506  34.874  1.00  0.00     0.002 A 
ATOM     90  C   UNL A   1      45.467  25.733  35.707  1.00  0.00     0.091 A 
ATOM     91  F   UNL A   1      43.231  25.562  34.890  1.00  0.00    -0.205 F 
ATOM     92  C   UNL A   1      46.710  26.385  35.680  1.00  0.00     0.022 A 
BRANCH  90  93
ATOM     93  S   UNL A   1      45.288  24.352  36.844  1.00  0.00     0.127 S 
ATOM     94  O   UNL A   1      44.939  23.262  35.936  1.00  0.00    -0.237 OA
ATOM     95  O   UNL A   1      46.626  24.254  37.428  1.00  0.00    -0.237 OA
ATOM     96  O   UNL A   1      44.247  24.742  37.784  1.00  0.00    -0.744 OA
ENDBRANCH  90  93
ENDBRANCH  63  86
ENDBRANCH  37  38
ENDBRANCH  29  32
ENDBRANCH  27  28
ENDBRANCH   1  27
TORSDOF 17
ENDMDL
MODEL 3
REMARK VINA RESULT:     -12.2      4.610      9.741
REMARK SMILES O=C(NCCCCNC(=O)c1ccc(-c2c3nc(c(-c4cccc(S(=O)(=O)[O-])c4F)c4ccc([nH]4)c(-c4cccc(S(=O)(=O)[O-])c4F)c4nc(c(-c5cccc(S(=O)(=O)[O-])c5F)c5ccc2[nH]5)C=C4)C=C3)cc1)/C(=C/c1ccccc1Cl)NC(=O)c1ccccc1
REMARK SMILES IDX 6 1 5 2 4 3 3 4 1 5 2 6 74 8 75 9 83 10 84 11 85 13 86 14
REMARK SMILES IDX 87 15 91 16 88 17 90 18 89 19 76 20 77 21 81 22 78 23 80 24
REMARK SMILES IDX 82 25 79 26 7 27 8 28 9 29 10 31 11 32 12 33 73 34 13 35
REMARK SMILES IDX 72 36 14 37 15 38 16 39 66 40 17 41 71 42 65 43 67 44 18 45
REMARK SMILES IDX 70 46 64 47 63 48 19 50 51 51 31 52 50 53 32 54 35 55 49 56
REMARK SMILES IDX 68 57 33 58 34 59 48 61 69 62 36 63 20 64 21 65 29 66 22 67
REMARK SMILES IDX 24 68 30 69 23 70 25 71 26 72 27 73 28 74 52 75 53 76 61 77
REMARK SMILES IDX 54 78 56 79 62 80 55 81 57 82 58 83 59 84 60 85 37 86 38 87
REMARK SMILES IDX 46 88 39 89 41 90 47 91 40 92 42 93 43 94 44 95 45 96
REMARK H PARENT 3 7 83 12 8 30 67 49 35 60
REMARK Flexibility Score: inf
ROOT
ATOM      1  C   UNL A   1      35.264  21.846  26.613  1.00  0.00     0.023 C 
ENDROOT
BRANCH   1   2
ATOM      2  C   UNL A   1      33.835  21.325  26.406  1.00  0.00     0.023 C 
BRANCH   2   3
ATOM      3  C   UNL A   1      32.761  22.319  25.967  1.00  0.00     0.116 C 
BRANCH   3   4
ATOM      4  N   UNL A   1      31.497  22.222  26.677  1.00  0.00    -0.351 N 
ATOM      5  O   UNL A   1      29.553  22.898  27.578  1.00  0.00    -0.268 OA
ATOM      6  C   UNL A   1      30.533  23.179  26.885  1.00  0.00     0.267 C 
ATOM      7  H   UNL A   1      31.302  21.340  27.068  1.00  0.00     0.163 HD
BRANCH   6   8
ATOM      8  C   UNL A   1      30.707  24.589  26.341  1.00  0.00     0.107 C 
ATOM      9  C   UNL A   1      31.812  25.237  26.769  1.00  0.00     0.041 C 
BRANCH   8  10
ATOM     10  N   UNL A   1      29.817  25.155  25.459  1.00  0.00    -0.317 N 
ATOM     11  C   UNL A   1      29.921  25.362  24.098  1.00  0.00     0.255 C 
ATOM     12  H   UNL A   1      28.972  25.461  25.861  1.00  0.00     0.170 HD
ATOM     13  O   UNL A   1      29.107  26.087  23.529  1.00  0.00    -0.269 OA
BRANCH  11  14
ATOM     14  C   UNL A   1      30.986  24.689  23.313  1.00  0.00     0.040 A 
ATOM     15  C   UNL A   1      31.998  25.473  22.754  1.00  0.00     0.014 A 
ATOM     16  C   UNL A   1      31.009  23.298  23.150  1.00  0.00     0.014 A 
ATOM     17  C   UNL A   1      33.090  24.856  22.145  1.00  0.00     0.001 A 
ATOM     18  C   UNL A   1      32.105  22.689  22.541  1.00  0.00     0.001 A 
ATOM     19  C   UNL A   1      33.156  23.466  22.062  1.00  0.00     0.000 A 
ENDBRANCH  11  14
ENDBRANCH   8  10
BRANCH   9  20
ATOM     20  C   UNL A   1      32.355  26.569  26.396  1.00  0.00    -0.005 A 
ATOM     21  C   UNL A   1      31.500  27.655  26.671  1.00  0.00     0.010 A 
ATOM     22  C   UNL A   1      33.584  26.861  25.774  1.00  0.00     0.048 A 
ATOM     23  C   UNL A   1      31.887  28.977  26.428  1.00  0.00     0.001 A 
ATOM     24  C   UNL A   1      33.988  28.191  25.574  1.00  0.00     0.021 A 
ATOM     25  Cl  UNL A   1      34.647  25.656  25.137  1.00  0.00    -0.084 Cl
ATOM     26  C   UNL A   1      33.146  29.247  25.909  1.00  0.00     0.002 A 
ENDBRANCH   9  20
ENDBRANCH   6   8
ENDBRANCH   3   4
ENDBRANCH   2   3
ENDBRANCH   1   2
BRANCH   1  27
ATOM     27  C   UNL A   1      36.197  21.954  25.404  1.00  0.00     0.116 C 
BRANCH  27  28
ATOM     28  N   UNL A   1      37.244  20.946  25.332  1.00  0.00    -0.352 N 
ATOM     29  C   UNL A   1      38.561  21.042  25.749  1.00  0.00     0.251 C 
ATOM     30  H   UNL A   1      36.982  20.083  24.938  1.00  0.00     0.163 HD
ATOM     31  O   UNL A   1      39.327  20.100  25.599  1.00  0.00    -0.269 OA
BRANCH  29  32
ATOM     32  C   UNL A   1      39.058  22.309  26.345  1.00  0.00     0.039 A 
ATOM     33  C   UNL A   1      40.182  22.277  27.174  1.00  0.00     0.014 A 
ATOM     34  C   UNL A   1      38.435  23.527  26.072  1.00  0.00     0.014 A 
ATOM     35  C   UNL A   1      40.738  23.476  27.641  1.00  0.00     0.010 A 
ATOM     36  C   UNL A   1      39.014  24.725  26.501  1.00  0.00     0.010 A 
ATOM     37  C   UNL A   1      40.190  24.716  27.267  1.00  0.00    -0.014 A 
BRANCH  37  38
ATOM     38  C   UNL A   1      40.895  25.993  27.579  1.00  0.00     0.031 A 
ATOM     39  C   UNL A   1      42.328  26.225  27.181  1.00  0.00     0.074 A 
ATOM     40  C   UNL A   1      40.258  26.930  28.315  1.00  0.00     0.049 A 
ATOM     41  N   UNL A   1      43.078  27.279  27.388  1.00  0.00    -0.248 NA
ATOM     42  C   UNL A   1      43.016  25.131  26.478  1.00  0.00     0.031 C 
ATOM     43  C   UNL A   1      38.902  26.803  28.851  1.00  0.00     0.029 A 
ATOM     44  N   UNL A   1      40.676  28.160  28.763  1.00  0.00    -0.354 N 
ATOM     45  C   UNL A   1      44.329  26.971  26.865  1.00  0.00     0.074 A 
ATOM     46  C   UNL A   1      44.244  25.620  26.353  1.00  0.00     0.031 C 
ATOM     47  C   UNL A   1      38.599  27.907  29.550  1.00  0.00     0.029 A 
ATOM     48  C   UNL A   1      39.741  28.815  29.533  1.00  0.00     0.049 A 
ATOM     49  H   UNL A   1      41.560  28.538  28.553  1.00  0.00     0.167 HD
ATOM     50  C   UNL A   1      45.437  27.750  26.792  1.00  0.00     0.034 A 
ATOM     51  C   UNL A   1      39.792  30.011  30.157  1.00  0.00     0.034 A 
ATOM     52  C   UNL A   1      45.517  29.108  27.261  1.00  0.00     0.049 A 
ATOM     53  C   UNL A   1      41.019  30.871  30.016  1.00  0.00     0.074 A 
ATOM     54  C   UNL A   1      46.571  29.998  27.141  1.00  0.00     0.029 A 
ATOM     55  N   UNL A   1      44.514  29.773  27.947  1.00  0.00    -0.354 N 
ATOM     56  N   UNL A   1      42.121  30.632  29.350  1.00  0.00    -0.248 NA
ATOM     57  C   UNL A   1      40.994  32.184  30.679  1.00  0.00     0.031 C 
ATOM     58  C   UNL A   1      46.212  31.196  27.767  1.00  0.00     0.029 A 
ATOM     59  C   UNL A   1      44.926  31.058  28.261  1.00  0.00     0.049 A 
ATOM     60  H   UNL A   1      43.637  29.390  28.178  1.00  0.00     0.167 HD
ATOM     61  C   UNL A   1      42.898  31.779  29.475  1.00  0.00     0.074 A 
ATOM     62  C   UNL A   1      42.136  32.719  30.268  1.00  0.00     0.031 C 
ATOM     63  C   UNL A   1      44.139  32.021  28.987  1.00  0.00     0.034 A 
BRANCH  50  64
ATOM     64  C   UNL A   1      46.654  27.180  26.109  1.00  0.00     0.023 A 
ATOM     65  C   UNL A   1      46.798  27.341  24.716  1.00  0.00     0.012 A 
ATOM     66  C   UNL A   1      47.693  26.582  26.849  1.00  0.00     0.148 A 
ATOM     67  C   UNL A   1      47.947  26.895  24.066  1.00  0.00     0.002 A 
ATOM     68  C   UNL A   1      48.853  26.174  26.198  1.00  0.00     0.091 A 
ATOM     69  F   UNL A   1      47.530  26.424  28.170  1.00  0.00    -0.205 F 
ATOM     70  C   UNL A   1      48.977  26.322  24.807  1.00  0.00     0.022 A 
BRANCH  68  71
ATOM     71  S   UNL A   1      50.269  25.498  27.072  1.00  0.00     0.127 S 
ATOM     72  O   UNL A   1      50.582  26.579  28.005  1.00  0.00    -0.237 OA
ATOM     73  O   UNL A   1      49.706  24.300  27.695  1.00  0.00    -0.237 OA
ATOM     74  O   UNL A   1      51.279  25.235  26.057  1.00  0.00    -0.744 OA
ENDBRANCH  68  71
ENDBRANCH  50  64
BRANCH  51  75
ATOM     75  C   UNL A   1      38.607  30.506  30.914  1.00  0.00     0.023 A 
ATOM     76  C   UNL A   1      38.540  30.294  32.304  1.00  0.00     0.012 A 
ATOM     77  C   UNL A   1      37.558  31.191  30.272  1.00  0.00     0.148 A 
ATOM     78  C   UNL A   1      37.433  30.723  33.037  1.00  0.00     0.002 A 
ATOM     79  C   UNL A   1      36.484  31.664  31.017  1.00  0.00     0.091 A 
ATOM     80  F   UNL A   1      37.631  31.368  28.945  1.00  0.00    -0.205 F 
ATOM     81  C   UNL A   1      36.410  31.416  32.396  1.00  0.00     0.022 A 
BRANCH  79  82
ATOM     82  S   UNL A   1      35.193  32.680  30.289  1.00  0.00     0.127 S 
ATOM     83  O   UNL A   1      34.296  32.884  31.422  1.00  0.00    -0.237 OA
ATOM     84  O   UNL A   1      35.938  33.869  29.870  1.00  0.00    -0.237 OA
ATOM     85  O   UNL A   1      34.660  31.893  29.184  1.00  0.00    -0.744 OA
ENDBRANCH  79  82
ENDBRANCH  51  75
BRANCH  63  86
ATOM     86  C   UNL A   1      44.752  33.372  29.247  1.00  0.00     0.023 A 
ATOM     87  C   UNL A   1      45.531  33.579  30.402  1.00  0.00     0.012 A 
ATOM     88  C   UNL A   1      44.628  34.413  28.303  1.00  0.00     0.148 A 
ATOM     89  C   UNL A   1      46.156  34.804  30.628  1.00  0.00     0.002 A 
ATOM     90  C   UNL A   1      45.292  35.617  28.513  1.00  0.00     0.091 A 
ATOM     91  F   UNL A   1      43.866  34.206  27.220  1.00  0.00    -0.205 F 
ATOM     92  C   UNL A   1      46.048  35.818  29.678  1.00  0.00     0.022 A 
BRANCH  90  93
ATOM     93  S   UNL A   1      45.283  36.944  27.300  1.00  0.00     0.127 S 
ATOM     94  O   UNL A   1      45.935  38.024  28.037  1.00  0.00    -0.237 OA
ATOM     95  O   UNL A   1      46.083  36.378  26.213  1.00  0.00    -0.237 OA
ATOM     96  O   UNL A   1      43.884  37.169  26.965  1.00  0.00    -0.744 OA
ENDBRANCH  90  93
ENDBRANCH  63  86
ENDBRANCH  37  38
ENDBRANCH  29  32
ENDBRANCH  27  28
ENDBRANCH   1  27
TORSDOF 17
ENDMDL
