MODEL 1
REMARK VINA RESULT:     -11.7      0.000      0.000
REMARK SMILES Cn1cc(CCC(=O)N2CCCC2)cc1C(=O)NCCCCNC(=O)c1ccc(-c2c3nc(c(-c4cccc(S(=O)(=O)[O-])c4F)c4ccc([nH]4)c(-c4cccc(S(=O)(=O)[O-])c4F)c4nc(c(-c5cccc(S(=O)(=O)[O-])c5F)c5ccc2[nH]5)C=C4)C=C3)cc1
REMARK SMILES IDX 20 1 19 2 18 3 16 4 17 5 15 7 1 8 2 9 3 10 4 11 14 12 5 13
REMARK SMILES IDX 6 14 7 15 8 16 9 17 10 18 13 19 11 20 12 21 21 22 22 23
REMARK SMILES IDX 23 24 24 25 25 27 26 28 27 29 88 30 28 31 87 32 29 33 30 34
REMARK SMILES IDX 31 35 81 36 32 37 86 38 80 39 82 40 33 41 85 42 79 43 78 44
REMARK SMILES IDX 34 46 66 47 46 48 65 49 47 50 50 51 64 52 83 53 48 54 49 55
REMARK SMILES IDX 63 57 84 58 51 59 35 60 36 61 44 62 37 63 39 64 45 65 38 66
REMARK SMILES IDX 40 67 41 68 42 69 43 70 67 71 68 72 76 73 69 74 71 75 77 76
REMARK SMILES IDX 70 77 72 78 73 79 74 80 75 81 52 82 53 83 61 84 54 85 56 86
REMARK SMILES IDX 62 87 55 88 57 89 58 90 59 91 60 92
REMARK H PARENT 18 6 23 26 82 45 50 56
REMARK Flexibility Score: inf
ROOT
ATOM      1  C   UNL A   1      35.243  21.617  26.278  1.00  0.00     0.023 C 
ENDROOT
BRANCH   1   2
ATOM      2  C   UNL A   1      34.522  22.925  26.591  1.00  0.00     0.116 C 
BRANCH   2   3
ATOM      3  N   UNL A   1      33.264  22.757  27.286  1.00  0.00    -0.351 N 
ATOM      4  C   UNL A   1      31.973  22.972  26.858  1.00  0.00     0.267 C 
ATOM      5  O   UNL A   1      31.080  22.835  27.688  1.00  0.00    -0.268 OA
ATOM      6  H   UNL A   1      33.344  22.435  28.213  1.00  0.00     0.163 HD
BRANCH   4   7
ATOM      7  C   UNL A   1      31.704  23.429  25.507  1.00  0.00     0.107 A 
ATOM      8  C   UNL A   1      32.168  21.359  24.114  1.00  0.00     0.150 C 
ATOM      9  N   UNL A   1      31.784  22.738  24.314  1.00  0.00    -0.346 N 
ATOM     10  C   UNL A   1      31.454  23.565  23.266  1.00  0.00     0.089 A 
ATOM     11  C   UNL A   1      31.160  24.814  23.765  1.00  0.00    -0.029 A 
ATOM     12  C   UNL A   1      31.216  24.692  25.179  1.00  0.00     0.037 A 
BRANCH  11  13
ATOM     13  C   UNL A   1      30.879  26.048  22.973  1.00  0.00     0.047 C 
BRANCH  13  14
ATOM     14  C   UNL A   1      30.079  27.090  23.748  1.00  0.00     0.105 C 
BRANCH  14  15
ATOM     15  C   UNL A   1      30.798  28.417  23.948  1.00  0.00     0.222 C 
ATOM     16  O   UNL A   1      30.858  29.226  23.018  1.00  0.00    -0.275 OA
ATOM     17  N   UNL A   1      31.304  28.715  25.193  1.00  0.00    -0.343 N 
ATOM     18  C   UNL A   1      31.528  27.811  26.307  1.00  0.00     0.119 C 
ATOM     19  C   UNL A   1      31.767  30.053  25.523  1.00  0.00     0.119 C 
ATOM     20  C   UNL A   1      31.716  28.719  27.507  1.00  0.00     0.023 C 
ATOM     21  C   UNL A   1      32.420  29.922  26.895  1.00  0.00     0.023 C 
ENDBRANCH  14  15
ENDBRANCH  13  14
ENDBRANCH  11  13
ENDBRANCH   4   7
ENDBRANCH   2   3
ENDBRANCH   1   2
BRANCH   1  22
ATOM     22  C   UNL A   1      35.776  21.463  24.852  1.00  0.00     0.023 C 
BRANCH  22  23
ATOM     23  C   UNL A   1      37.263  21.737  24.648  1.00  0.00     0.116 C 
BRANCH  23  24
ATOM     24  N   UNL A   1      38.133  20.702  25.188  1.00  0.00    -0.352 N 
ATOM     25  C   UNL A   1      39.231  20.820  26.013  1.00  0.00     0.251 C 
ATOM     26  H   UNL A   1      37.903  19.782  24.925  1.00  0.00     0.163 HD
ATOM     27  O   UNL A   1      39.885  19.822  26.299  1.00  0.00    -0.269 OA
BRANCH  25  28
ATOM     28  C   UNL A   1      39.646  22.149  26.519  1.00  0.00     0.039 A 
ATOM     29  C   UNL A   1      40.707  22.225  27.426  1.00  0.00     0.014 A 
ATOM     30  C   UNL A   1      39.021  23.317  26.078  1.00  0.00     0.014 A 
ATOM     31  C   UNL A   1      41.200  23.474  27.818  1.00  0.00     0.010 A 
ATOM     32  C   UNL A   1      39.565  24.558  26.405  1.00  0.00     0.010 A 
ATOM     33  C   UNL A   1      40.666  24.652  27.270  1.00  0.00    -0.014 A 
BRANCH  33  34
ATOM     34  C   UNL A   1      41.260  25.986  27.559  1.00  0.00     0.031 A 
ATOM     35  C   UNL A   1      42.675  26.297  27.148  1.00  0.00     0.074 A 
ATOM     36  C   UNL A   1      40.564  26.882  28.289  1.00  0.00     0.049 A 
ATOM     37  N   UNL A   1      43.386  27.367  27.388  1.00  0.00    -0.248 NA
ATOM     38  C   UNL A   1      43.393  25.257  26.394  1.00  0.00     0.031 C 
ATOM     39  C   UNL A   1      39.217  26.675  28.826  1.00  0.00     0.029 A 
ATOM     40  N   UNL A   1      40.905  28.137  28.735  1.00  0.00    -0.354 N 
ATOM     41  C   UNL A   1      44.645  27.115  26.855  1.00  0.00     0.074 A 
ATOM     42  C   UNL A   1      44.610  25.777  26.307  1.00  0.00     0.031 C 
ATOM     43  C   UNL A   1      38.846  27.761  29.522  1.00  0.00     0.029 A 
ATOM     44  C   UNL A   1      39.937  28.731  29.513  1.00  0.00     0.049 A 
ATOM     45  H   UNL A   1      41.762  28.569  28.519  1.00  0.00     0.167 HD
ATOM     46  C   UNL A   1      45.725  27.932  26.797  1.00  0.00     0.034 A 
ATOM     47  C   UNL A   1      39.928  29.917  30.152  1.00  0.00     0.034 A 
ATOM     48  C   UNL A   1      45.745  29.281  27.295  1.00  0.00     0.049 A 
ATOM     49  C   UNL A   1      41.122  30.826  30.028  1.00  0.00     0.074 A 
ATOM     50  C   UNL A   1      46.757  30.219  27.198  1.00  0.00     0.029 A 
ATOM     51  N   UNL A   1      44.706  29.884  27.987  1.00  0.00    -0.354 N 
ATOM     52  N   UNL A   1      42.243  30.631  29.377  1.00  0.00    -0.248 NA
ATOM     53  C   UNL A   1      41.036  32.134  30.696  1.00  0.00     0.031 C 
ATOM     54  C   UNL A   1      46.338  31.384  27.849  1.00  0.00     0.029 A 
ATOM     55  C   UNL A   1      45.056  31.181  28.328  1.00  0.00     0.049 A 
ATOM     56  H   UNL A   1      43.847  29.455  28.204  1.00  0.00     0.167 HD
ATOM     57  C   UNL A   1      42.977  31.803  29.522  1.00  0.00     0.074 A 
ATOM     58  C   UNL A   1      42.166  32.710  30.308  1.00  0.00     0.031 C 
ATOM     59  C   UNL A   1      44.216  32.096  29.057  1.00  0.00     0.034 A 
BRANCH  46  60
ATOM     60  C   UNL A   1      46.963  27.410  26.116  1.00  0.00     0.023 A 
ATOM     61  C   UNL A   1      47.163  27.671  24.745  1.00  0.00     0.012 A 
ATOM     62  C   UNL A   1      47.955  26.718  26.839  1.00  0.00     0.148 A 
ATOM     63  C   UNL A   1      48.312  27.222  24.095  1.00  0.00     0.002 A 
ATOM     64  C   UNL A   1      49.119  26.313  26.195  1.00  0.00     0.091 A 
ATOM     65  F   UNL A   1      47.739  26.461  28.137  1.00  0.00    -0.205 F 
ATOM     66  C   UNL A   1      49.293  26.553  24.822  1.00  0.00     0.022 A 
BRANCH  64  67
ATOM     67  S   UNL A   1      50.478  25.516  27.058  1.00  0.00     0.127 S 
ATOM     68  O   UNL A   1      51.421  25.279  25.965  1.00  0.00    -0.237 OA
ATOM     69  O   UNL A   1      50.890  26.550  28.006  1.00  0.00    -0.237 OA
ATOM     70  O   UNL A   1      49.917  24.319  27.670  1.00  0.00    -0.744 OA
ENDBRANCH  64  67
ENDBRANCH  46  60
BRANCH  47  71
ATOM     71  C   UNL A   1      38.719  30.348  30.911  1.00  0.00     0.023 A 
ATOM     72  C   UNL A   1      38.635  30.075  32.290  1.00  0.00     0.012 A 
ATOM     73  C   UNL A   1      37.666  31.044  30.284  1.00  0.00     0.148 A 
ATOM     74  C   UNL A   1      37.513  30.457  33.026  1.00  0.00     0.002 A 
ATOM     75  C   UNL A   1      36.577  31.471  31.034  1.00  0.00     0.091 A 
ATOM     76  F   UNL A   1      37.758  31.284  28.969  1.00  0.00    -0.205 F 
ATOM     77  C   UNL A   1      36.488  31.162  32.401  1.00  0.00     0.022 A 
BRANCH  75  78
ATOM     78  S   UNL A   1      35.276  32.499  30.342  1.00  0.00     0.127 S 
ATOM     79  O   UNL A   1      34.322  32.561  31.447  1.00  0.00    -0.237 OA
ATOM     80  O   UNL A   1      35.990  33.749  30.072  1.00  0.00    -0.237 OA
ATOM     81  O   UNL A   1      34.820  31.802  29.147  1.00  0.00    -0.744 OA
ENDBRANCH  75  78
ENDBRANCH  47  71
BRANCH  59  82
ATOM     82  C   UNL A   1      44.767  33.469  29.342  1.00  0.00     0.023 A 
ATOM     83  C   UNL A   1      45.475  33.709  30.535  1.00  0.00     0.012 A 
ATOM     84  C   UNL A   1      44.652  34.499  28.386  1.00  0.00     0.148 A 
ATOM     85  C   UNL A   1      46.037  34.960  30.785  1.00  0.00     0.002 A 
ATOM     86  C   UNL A   1      45.257  35.727  28.621  1.00  0.00     0.091 A 
ATOM     87  F   UNL A   1      43.958  34.256  27.265  1.00  0.00    -0.205 F 
ATOM     88  C   UNL A   1      45.939  35.964  29.824  1.00  0.00     0.022 A 
BRANCH  86  89
ATOM     89  S   UNL A   1      45.265  37.045  27.399  1.00  0.00     0.127 S 
ATOM     90  O   UNL A   1      46.008  36.429  26.301  1.00  0.00    -0.237 OA
ATOM     91  O   UNL A   1      43.838  37.237  27.140  1.00  0.00    -0.237 OA
ATOM     92  O   UNL A   1      45.920  38.180  28.037  1.00  0.00    -0.744 OA
ENDBRANCH  86  89
ENDBRANCH  59  82
ENDBRANCH  33  34
ENDBRANCH  25  28
ENDBRANCH  23  24
ENDBRANCH  22  23
ENDBRANCH   1  22
TORSDOF 17
ENDMDL
MODEL 2
REMARK VINA RESULT:     -11.7      1.997      7.917
REMARK SMILES Cn1cc(CCC(=O)N2CCCC2)cc1C(=O)NCCCCNC(=O)c1ccc(-c2c3nc(c(-c4cccc(S(=O)(=O)[O-])c4F)c4ccc([nH]4)c(-c4cccc(S(=O)(=O)[O-])c4F)c4nc(c(-c5cccc(S(=O)(=O)[O-])c5F)c5ccc2[nH]5)C=C4)C=C3)cc1
REMARK SMILES IDX 20 1 19 2 18 3 16 4 17 5 15 7 1 8 2 9 3 10 4 11 14 12 5 13
REMARK SMILES IDX 6 14 7 15 8 16 9 17 10 18 13 19 11 20 12 21 21 22 22 23
REMARK SMILES IDX 23 24 24 25 25 27 26 28 27 29 88 30 28 31 87 32 29 33 30 34
REMARK SMILES IDX 31 35 81 36 32 37 86 38 80 39 82 40 33 41 85 42 79 43 78 44
REMARK SMILES IDX 34 46 66 47 46 48 65 49 47 50 50 51 64 52 83 53 48 54 49 55
REMARK SMILES IDX 63 57 84 58 51 59 35 60 36 61 44 62 37 63 39 64 45 65 38 66
REMARK SMILES IDX 40 67 41 68 42 69 43 70 67 71 68 72 76 73 69 74 71 75 77 76
REMARK SMILES IDX 70 77 72 78 73 79 74 80 75 81 52 82 53 83 61 84 54 85 56 86
REMARK SMILES IDX 62 87 55 88 57 89 58 90 59 91 60 92
REMARK H PARENT 18 6 23 26 82 45 50 56
REMARK Flexibility Score: inf
ROOT
ATOM      1  C   UNL A   1      37.050  21.273  24.463  1.00  0.00     0.023 C 
ENDROOT
BRANCH   1   2
ATOM      2  C   UNL A   1      35.768  21.299  25.290  1.00  0.00     0.116 C 
BRANCH   2   3
ATOM      3  N   UNL A   1      34.932  20.129  25.124  1.00  0.00    -0.351 N 
ATOM      4  C   UNL A   1      33.567  20.020  24.983  1.00  0.00     0.267 C 
ATOM      5  O   UNL A   1      33.098  18.887  24.949  1.00  0.00    -0.268 OA
ATOM      6  H   UNL A   1      35.418  19.273  25.111  1.00  0.00     0.163 HD
BRANCH   4   7
ATOM      7  C   UNL A   1      32.725  21.202  24.966  1.00  0.00     0.107 A 
ATOM      8  C   UNL A   1      32.146  21.442  22.507  1.00  0.00     0.150 C 
ATOM      9  N   UNL A   1      32.104  21.823  23.901  1.00  0.00    -0.346 N 
ATOM     10  C   UNL A   1      31.412  22.929  24.337  1.00  0.00     0.089 A 
ATOM     11  C   UNL A   1      31.579  23.046  25.698  1.00  0.00    -0.029 A 
ATOM     12  C   UNL A   1      32.316  21.900  26.100  1.00  0.00     0.037 A 
BRANCH  11  13
ATOM     13  C   UNL A   1      31.111  24.171  26.561  1.00  0.00     0.047 C 
BRANCH  13  14
ATOM     14  C   UNL A   1      30.212  25.160  25.824  1.00  0.00     0.105 C 
BRANCH  14  15
ATOM     15  C   UNL A   1      30.674  26.608  25.899  1.00  0.00     0.222 C 
ATOM     16  O   UNL A   1      31.152  27.044  26.950  1.00  0.00    -0.275 OA
ATOM     17  N   UNL A   1      30.616  27.381  24.762  1.00  0.00    -0.343 N 
ATOM     18  C   UNL A   1      29.885  27.114  23.536  1.00  0.00     0.119 C 
ATOM     19  C   UNL A   1      31.273  28.676  24.690  1.00  0.00     0.119 C 
ATOM     20  C   UNL A   1      30.481  28.067  22.517  1.00  0.00     0.023 C 
ATOM     21  C   UNL A   1      30.813  29.284  23.370  1.00  0.00     0.023 C 
ENDBRANCH  14  15
ENDBRANCH  13  14
ENDBRANCH  11  13
ENDBRANCH   4   7
ENDBRANCH   2   3
ENDBRANCH   1   2
BRANCH   1  22
ATOM     22  C   UNL A   1      37.935  20.035  24.625  1.00  0.00     0.023 C 
BRANCH  22  23
ATOM     23  C   UNL A   1      38.622  19.862  25.977  1.00  0.00     0.116 C 
BRANCH  23  24
ATOM     24  N   UNL A   1      39.879  19.131  25.910  1.00  0.00    -0.352 N 
ATOM     25  C   UNL A   1      41.166  19.572  26.132  1.00  0.00     0.251 C 
ATOM     26  H   UNL A   1      39.798  18.180  25.669  1.00  0.00     0.163 HD
ATOM     27  O   UNL A   1      42.110  18.810  25.949  1.00  0.00    -0.269 OA
BRANCH  25  28
ATOM     28  C   UNL A   1      41.413  20.972  26.551  1.00  0.00     0.039 A 
ATOM     29  C   UNL A   1      42.083  21.209  27.755  1.00  0.00     0.014 A 
ATOM     30  C   UNL A   1      41.020  22.045  25.749  1.00  0.00     0.014 A 
ATOM     31  C   UNL A   1      42.441  22.514  28.107  1.00  0.00     0.010 A 
ATOM     32  C   UNL A   1      41.448  23.335  26.062  1.00  0.00     0.010 A 
ATOM     33  C   UNL A   1      42.172  23.584  27.238  1.00  0.00    -0.014 A 
BRANCH  33  34
ATOM     34  C   UNL A   1      42.663  24.960  27.519  1.00  0.00     0.031 A 
ATOM     35  C   UNL A   1      41.760  25.976  28.166  1.00  0.00     0.074 A 
ATOM     36  C   UNL A   1      43.889  25.331  27.093  1.00  0.00     0.049 A 
ATOM     37  N   UNL A   1      41.983  27.242  28.409  1.00  0.00    -0.248 NA
ATOM     38  C   UNL A   1      40.419  25.518  28.565  1.00  0.00     0.031 C 
ATOM     39  C   UNL A   1      44.832  24.471  26.374  1.00  0.00     0.029 A 
ATOM     40  N   UNL A   1      44.540  26.539  27.171  1.00  0.00    -0.354 N 
ATOM     41  C   UNL A   1      40.803  27.740  28.948  1.00  0.00     0.074 A 
ATOM     42  C   UNL A   1      39.854  26.648  28.966  1.00  0.00     0.031 C 
ATOM     43  C   UNL A   1      45.938  25.175  26.083  1.00  0.00     0.029 A 
ATOM     44  C   UNL A   1      45.774  26.543  26.562  1.00  0.00     0.049 A 
ATOM     45  H   UNL A   1      44.159  27.326  27.622  1.00  0.00     0.167 HD
ATOM     46  C   UNL A   1      40.539  28.984  29.415  1.00  0.00     0.034 A 
ATOM     47  C   UNL A   1      46.670  27.536  26.399  1.00  0.00     0.034 A 
ATOM     48  C   UNL A   1      41.497  30.056  29.445  1.00  0.00     0.049 A 
ATOM     49  C   UNL A   1      46.372  28.896  26.973  1.00  0.00     0.074 A 
ATOM     50  C   UNL A   1      41.355  31.322  29.986  1.00  0.00     0.029 A 
ATOM     51  N   UNL A   1      42.774  29.991  28.911  1.00  0.00    -0.354 N 
ATOM     52  N   UNL A   1      45.310  29.299  27.627  1.00  0.00    -0.248 NA
ATOM     53  C   UNL A   1      47.410  29.926  26.820  1.00  0.00     0.031 C 
ATOM     54  C   UNL A   1      42.540  32.029  29.760  1.00  0.00     0.029 A 
ATOM     55  C   UNL A   1      43.429  31.196  29.103  1.00  0.00     0.049 A 
ATOM     56  H   UNL A   1      43.159  29.204  28.461  1.00  0.00     0.167 HD
ATOM     57  C   UNL A   1      45.568  30.614  27.998  1.00  0.00     0.074 A 
ATOM     58  C   UNL A   1      46.894  30.934  27.511  1.00  0.00     0.031 C 
ATOM     59  C   UNL A   1      44.772  31.483  28.669  1.00  0.00     0.034 A 
BRANCH  46  60
ATOM     60  C   UNL A   1      39.170  29.241  29.991  1.00  0.00     0.023 A 
ATOM     61  C   UNL A   1      38.862  28.771  31.285  1.00  0.00     0.012 A 
ATOM     62  C   UNL A   1      38.212  29.996  29.285  1.00  0.00     0.148 A 
ATOM     63  C   UNL A   1      37.613  29.016  31.852  1.00  0.00     0.002 A 
ATOM     64  C   UNL A   1      36.985  30.275  29.875  1.00  0.00     0.091 A 
ATOM     65  F   UNL A   1      38.515  30.417  28.048  1.00  0.00    -0.205 F 
ATOM     66  C   UNL A   1      36.680  29.776  31.152  1.00  0.00     0.022 A 
BRANCH  64  67
ATOM     67  S   UNL A   1      35.745  31.312  29.091  1.00  0.00     0.127 S 
ATOM     68  O   UNL A   1      36.575  32.347  28.476  1.00  0.00    -0.237 OA
ATOM     69  O   UNL A   1      35.123  30.387  28.145  1.00  0.00    -0.237 OA
ATOM     70  O   UNL A   1      34.869  31.767  30.162  1.00  0.00    -0.744 OA
ENDBRANCH  64  67
ENDBRANCH  46  60
BRANCH  47  71
ATOM     71  C   UNL A   1      47.971  27.265  25.722  1.00  0.00     0.023 A 
ATOM     72  C   UNL A   1      49.055  26.779  26.479  1.00  0.00     0.012 A 
ATOM     73  C   UNL A   1      48.135  27.460  24.336  1.00  0.00     0.148 A 
ATOM     74  C   UNL A   1      50.288  26.524  25.877  1.00  0.00     0.002 A 
ATOM     75  C   UNL A   1      49.349  27.151  23.733  1.00  0.00     0.091 A 
ATOM     76  F   UNL A   1      47.097  27.934  23.635  1.00  0.00    -0.205 F 
ATOM     77  C   UNL A   1      50.432  26.701  24.504  1.00  0.00     0.022 A 
BRANCH  75  78
ATOM     78  S   UNL A   1      49.584  27.221  21.953  1.00  0.00     0.127 S 
ATOM     79  O   UNL A   1      49.286  28.621  21.666  1.00  0.00    -0.237 OA
ATOM     80  O   UNL A   1      50.995  26.850  21.820  1.00  0.00    -0.237 OA
ATOM     81  O   UNL A   1      48.656  26.246  21.398  1.00  0.00    -0.744 OA
ENDBRANCH  75  78
ENDBRANCH  47  71
BRANCH  59  82
ATOM     82  C   UNL A   1      45.320  32.855  28.963  1.00  0.00     0.023 A 
ATOM     83  C   UNL A   1      46.049  33.083  30.146  1.00  0.00     0.012 A 
ATOM     84  C   UNL A   1      45.181  33.897  28.024  1.00  0.00     0.148 A 
ATOM     85  C   UNL A   1      46.607  34.334  30.404  1.00  0.00     0.002 A 
ATOM     86  C   UNL A   1      45.782  35.127  28.266  1.00  0.00     0.091 A 
ATOM     87  F   UNL A   1      44.467  33.666  26.913  1.00  0.00    -0.205 F 
ATOM     88  C   UNL A   1      46.485  35.351  29.459  1.00  0.00     0.022 A 
BRANCH  86  89
ATOM     89  S   UNL A   1      45.759  36.461  27.063  1.00  0.00     0.127 S 
ATOM     90  O   UNL A   1      44.329  36.749  26.963  1.00  0.00    -0.237 OA
ATOM     91  O   UNL A   1      46.545  37.497  27.733  1.00  0.00    -0.237 OA
ATOM     92  O   UNL A   1      46.374  35.924  25.856  1.00  0.00    -0.744 OA
ENDBRANCH  86  89
ENDBRANCH  59  82
ENDBRANCH  33  34
ENDBRANCH  25  28
ENDBRANCH  23  24
ENDBRANCH  22  23
ENDBRANCH   1  22
TORSDOF 17
ENDMDL
MODEL 3
REMARK VINA RESULT:     -11.4      4.309      9.606
REMARK SMILES Cn1cc(CCC(=O)N2CCCC2)cc1C(=O)NCCCCNC(=O)c1ccc(-c2c3nc(c(-c4cccc(S(=O)(=O)[O-])c4F)c4ccc([nH]4)c(-c4cccc(S(=O)(=O)[O-])c4F)c4nc(c(-c5cccc(S(=O)(=O)[O-])c5F)c5ccc2[nH]5)C=C4)C=C3)cc1
REMARK SMILES IDX 20 1 19 2 18 3 16 4 17 5 15 7 1 8 2 9 3 10 4 11 14 12 5 13
REMARK SMILES IDX 6 14 7 15 8 16 9 17 10 18 13 19 11 20 12 21 21 22 22 23
REMARK SMILES IDX 23 24 24 25 25 27 26 28 27 29 88 30 28 31 87 32 29 33 30 34
REMARK SMILES IDX 31 35 81 36 32 37 86 38 80 39 82 40 33 41 85 42 79 43 78 44
REMARK SMILES IDX 34 46 66 47 46 48 65 49 47 50 50 51 64 52 83 53 48 54 49 55
REMARK SMILES IDX 63 57 84 58 51 59 35 60 36 61 44 62 37 63 39 64 45 65 38 66
REMARK SMILES IDX 40 67 41 68 42 69 43 70 67 71 68 72 76 73 69 74 71 75 77 76
REMARK SMILES IDX 70 77 72 78 73 79 74 80 75 81 52 82 53 83 61 84 54 85 56 86
REMARK SMILES IDX 62 87 55 88 57 89 58 90 59 91 60 92
REMARK H PARENT 18 6 23 26 82 45 50 56
REMARK Flexibility Score: inf
ROOT
ATOM      1  C   UNL A   1      31.757  28.027  26.997  1.00  0.00     0.023 C 
ENDROOT
BRANCH   1   2
ATOM      2  C   UNL A   1      31.251  26.847  26.173  1.00  0.00     0.116 C 
BRANCH   2   3
ATOM      3  N   UNL A   1      30.547  27.224  24.966  1.00  0.00    -0.351 N 
ATOM      4  C   UNL A   1      30.603  26.692  23.698  1.00  0.00     0.267 C 
ATOM      5  O   UNL A   1      29.960  27.265  22.824  1.00  0.00    -0.268 OA
ATOM      6  H   UNL A   1      29.928  27.982  25.070  1.00  0.00     0.163 HD
BRANCH   4   7
ATOM      7  C   UNL A   1      31.460  25.558  23.405  1.00  0.00     0.107 A 
ATOM      8  C   UNL A   1      33.626  26.665  22.682  1.00  0.00     0.150 C 
ATOM      9  N   UNL A   1      32.769  25.536  22.967  1.00  0.00    -0.346 N 
ATOM     10  C   UNL A   1      33.190  24.238  22.801  1.00  0.00     0.089 A 
ATOM     11  C   UNL A   1      32.153  23.392  23.126  1.00  0.00    -0.029 A 
ATOM     12  C   UNL A   1      31.106  24.225  23.604  1.00  0.00     0.037 A 
BRANCH  11  13
ATOM     13  C   UNL A   1      32.129  21.907  22.967  1.00  0.00     0.047 C 
BRANCH  13  14
ATOM     14  C   UNL A   1      32.324  21.160  24.282  1.00  0.00     0.105 C 
BRANCH  14  15
ATOM     15  C   UNL A   1      33.635  20.394  24.384  1.00  0.00     0.222 C 
ATOM     16  O   UNL A   1      34.670  20.992  24.692  1.00  0.00    -0.275 OA
ATOM     17  N   UNL A   1      33.621  19.030  24.201  1.00  0.00    -0.343 N 
ATOM     18  C   UNL A   1      32.571  18.217  23.616  1.00  0.00     0.119 C 
ATOM     19  C   UNL A   1      34.773  18.208  24.535  1.00  0.00     0.119 C 
ATOM     20  C   UNL A   1      32.913  16.796  24.018  1.00  0.00     0.023 C 
ATOM     21  C   UNL A   1      34.436  16.816  24.010  1.00  0.00     0.023 C 
ENDBRANCH  14  15
ENDBRANCH  13  14
ENDBRANCH  11  13
ENDBRANCH   4   7
ENDBRANCH   2   3
ENDBRANCH   1   2
BRANCH   1  22
ATOM     22  C   UNL A   1      33.270  28.254  26.996  1.00  0.00     0.023 C 
BRANCH  22  23
ATOM     23  C   UNL A   1      33.772  29.493  26.259  1.00  0.00     0.116 C 
BRANCH  23  24
ATOM     24  N   UNL A   1      33.698  30.717  27.044  1.00  0.00    -0.352 N 
ATOM     25  C   UNL A   1      34.557  31.193  28.011  1.00  0.00     0.251 C 
ATOM     26  H   UNL A   1      32.918  31.288  26.858  1.00  0.00     0.163 HD
ATOM     27  O   UNL A   1      34.276  32.221  28.619  1.00  0.00    -0.269 OA
BRANCH  25  28
ATOM     28  C   UNL A   1      35.793  30.448  28.345  1.00  0.00     0.039 A 
ATOM     29  C   UNL A   1      36.941  30.666  27.577  1.00  0.00     0.014 A 
ATOM     30  C   UNL A   1      35.835  29.565  29.426  1.00  0.00     0.014 A 
ATOM     31  C   UNL A   1      38.152  30.073  27.951  1.00  0.00     0.010 A 
ATOM     32  C   UNL A   1      37.057  29.041  29.844  1.00  0.00     0.010 A 
ATOM     33  C   UNL A   1      38.231  29.296  29.118  1.00  0.00    -0.014 A 
BRANCH  33  34
ATOM     34  C   UNL A   1      39.530  28.769  29.618  1.00  0.00     0.031 A 
ATOM     35  C   UNL A   1      40.267  29.477  30.723  1.00  0.00     0.074 A 
ATOM     36  C   UNL A   1      40.103  27.714  29.002  1.00  0.00     0.049 A 
ATOM     37  N   UNL A   1      41.445  29.216  31.228  1.00  0.00    -0.248 NA
ATOM     38  C   UNL A   1      39.607  30.649  31.321  1.00  0.00     0.031 C 
ATOM     39  C   UNL A   1      39.538  26.989  27.860  1.00  0.00     0.029 A 
ATOM     40  N   UNL A   1      41.305  27.085  29.226  1.00  0.00    -0.354 N 
ATOM     41  C   UNL A   1      41.686  30.211  32.168  1.00  0.00     0.074 A 
ATOM     42  C   UNL A   1      40.546  31.100  32.141  1.00  0.00     0.031 C 
ATOM     43  C   UNL A   1      40.387  26.018  27.489  1.00  0.00     0.029 A 
ATOM     44  C   UNL A   1      41.572  26.066  28.341  1.00  0.00     0.049 A 
ATOM     45  H   UNL A   1      41.917  27.341  29.953  1.00  0.00     0.167 HD
ATOM     46  C   UNL A   1      42.744  30.357  33.001  1.00  0.00     0.034 A 
ATOM     47  C   UNL A   1      42.648  25.265  28.220  1.00  0.00     0.034 A 
ATOM     48  C   UNL A   1      43.855  29.445  33.065  1.00  0.00     0.049 A 
ATOM     49  C   UNL A   1      43.788  25.417  29.193  1.00  0.00     0.074 A 
ATOM     50  C   UNL A   1      44.926  29.454  33.940  1.00  0.00     0.029 A 
ATOM     51  N   UNL A   1      44.039  28.363  32.219  1.00  0.00    -0.354 N 
ATOM     52  N   UNL A   1      43.919  26.265  30.184  1.00  0.00    -0.248 NA
ATOM     53  C   UNL A   1      44.911  24.478  29.055  1.00  0.00     0.031 C 
ATOM     54  C   UNL A   1      45.769  28.388  33.611  1.00  0.00     0.029 A 
ATOM     55  C   UNL A   1      45.210  27.700  32.548  1.00  0.00     0.049 A 
ATOM     56  H   UNL A   1      43.428  28.103  31.492  1.00  0.00     0.167 HD
ATOM     57  C   UNL A   1      45.116  25.937  30.811  1.00  0.00     0.074 A 
ATOM     58  C   UNL A   1      45.663  24.801  30.099  1.00  0.00     0.031 C 
ATOM     59  C   UNL A   1      45.713  26.532  31.872  1.00  0.00     0.034 A 
BRANCH  46  60
ATOM     60  C   UNL A   1      42.726  31.520  33.960  1.00  0.00     0.023 A 
ATOM     61  C   UNL A   1      43.304  32.747  33.573  1.00  0.00     0.012 A 
ATOM     62  C   UNL A   1      42.088  31.421  35.213  1.00  0.00     0.148 A 
ATOM     63  C   UNL A   1      43.280  33.846  34.430  1.00  0.00     0.002 A 
ATOM     64  C   UNL A   1      42.028  32.534  36.043  1.00  0.00     0.091 A 
ATOM     65  F   UNL A   1      41.562  30.241  35.571  1.00  0.00    -0.205 F 
ATOM     66  C   UNL A   1      42.633  33.743  35.659  1.00  0.00     0.022 A 
BRANCH  64  67
ATOM     67  S   UNL A   1      41.149  32.529  37.610  1.00  0.00     0.127 S 
ATOM     68  O   UNL A   1      41.993  31.649  38.417  1.00  0.00    -0.237 OA
ATOM     69  O   UNL A   1      41.196  33.940  37.994  1.00  0.00    -0.237 OA
ATOM     70  O   UNL A   1      39.815  32.022  37.319  1.00  0.00    -0.744 OA
ENDBRANCH  64  67
ENDBRANCH  46  60
BRANCH  47  71
ATOM     71  C   UNL A   1      42.672  24.196  27.181  1.00  0.00     0.023 A 
ATOM     72  C   UNL A   1      43.350  24.427  25.969  1.00  0.00     0.012 A 
ATOM     73  C   UNL A   1      42.052  22.949  27.394  1.00  0.00     0.148 A 
ATOM     74  C   UNL A   1      43.383  23.450  24.973  1.00  0.00     0.002 A 
ATOM     75  C   UNL A   1      42.136  21.960  26.420  1.00  0.00     0.091 A 
ATOM     76  F   UNL A   1      41.401  22.752  28.548  1.00  0.00    -0.205 F 
ATOM     77  C   UNL A   1      42.784  22.215  25.201  1.00  0.00     0.022 A 
BRANCH  75  78
ATOM     78  S   UNL A   1      41.510  20.296  26.682  1.00  0.00     0.127 S 
ATOM     79  O   UNL A   1      41.882  19.636  25.434  1.00  0.00    -0.237 OA
ATOM     80  O   UNL A   1      42.271  19.869  27.858  1.00  0.00    -0.237 OA
ATOM     81  O   UNL A   1      40.081  20.449  26.919  1.00  0.00    -0.744 OA
ENDBRANCH  75  78
ENDBRANCH  47  71
BRANCH  59  82
ATOM     82  C   UNL A   1      47.011  25.947  32.367  1.00  0.00     0.023 A 
ATOM     83  C   UNL A   1      47.013  25.086  33.481  1.00  0.00     0.012 A 
ATOM     84  C   UNL A   1      48.215  26.189  31.675  1.00  0.00     0.148 A 
ATOM     85  C   UNL A   1      48.199  24.495  33.916  1.00  0.00     0.002 A 
ATOM     86  C   UNL A   1      49.383  25.558  32.085  1.00  0.00     0.091 A 
ATOM     87  F   UNL A   1      48.195  27.027  30.629  1.00  0.00    -0.205 F 
ATOM     88  C   UNL A   1      49.380  24.720  33.212  1.00  0.00     0.022 A 
BRANCH  86  89
ATOM     89  S   UNL A   1      50.928  25.712  31.181  1.00  0.00     0.127 S 
ATOM     90  O   UNL A   1      51.809  24.830  31.944  1.00  0.00    -0.237 OA
ATOM     91  O   UNL A   1      50.563  25.214  29.855  1.00  0.00    -0.237 OA
ATOM     92  O   UNL A   1      51.275  27.127  31.220  1.00  0.00    -0.744 OA
ENDBRANCH  86  89
ENDBRANCH  59  82
ENDBRANCH  33  34
ENDBRANCH  25  28
ENDBRANCH  23  24
ENDBRANCH  22  23
ENDBRANCH   1  22
TORSDOF 17
ENDMDL
