MODEL 1
REMARK VINA RESULT:     -11.0      0.000      0.000
REMARK SMILES O=C(CCC(=O)Nc1ncccn1)NCCCCNC(=O)c1ccc(-c2c3nc(c(-c4cccc(S(=O)(=O)[O-])c4F)c4ccc([nH]4)c(-c4cccc(S(=O)(=O)[O-])c4F)c4nc(c(-c5cccc(S(=O)(=O)[O-])c5F)c5ccc2[nH]5)C=C4)C=C3)cc1
REMARK SMILES IDX 16 1 15 2 14 3 1 4 2 5 3 7 4 8 5 9 6 10 7 11 8 13 9 14 13 15
REMARK SMILES IDX 10 16 12 17 11 18 17 19 18 20 19 21 20 22 21 24 22 25 23 26
REMARK SMILES IDX 84 27 24 28 83 29 25 30 26 31 27 32 77 33 28 34 82 35 76 36
REMARK SMILES IDX 78 37 29 38 81 39 75 40 74 41 30 43 62 44 42 45 61 46 43 47
REMARK SMILES IDX 46 48 60 49 79 50 44 51 45 52 59 54 80 55 47 56 31 57 32 58
REMARK SMILES IDX 40 59 33 60 35 61 41 62 34 63 36 64 37 65 38 66 39 67 63 68
REMARK SMILES IDX 64 69 72 70 65 71 67 72 73 73 66 74 68 75 69 76 70 77 71 78
REMARK SMILES IDX 48 79 49 80 57 81 50 82 52 83 58 84 51 85 53 86 54 87 55 88
REMARK SMILES IDX 56 89
REMARK H PARENT 14 6 7 12 19 23 78 42 46 53
REMARK Flexibility Score: inf
ROOT
ATOM      1  C   UNL A   1      35.858  22.827  23.365  1.00  0.00     0.023 C 
ENDROOT
BRANCH   1   2
ATOM      2  C   UNL A   1      34.695  23.806  23.245  1.00  0.00     0.116 C 
BRANCH   2   3
ATOM      3  N   UNL A   1      33.863  23.880  24.430  1.00  0.00    -0.356 N 
ATOM      4  O   UNL A   1      34.284  26.096  24.896  1.00  0.00    -0.275 OA
ATOM      5  C   UNL A   1      33.648  25.065  25.102  1.00  0.00     0.220 C 
ATOM      6  H   UNL A   1      33.439  23.058  24.766  1.00  0.00     0.163 HD
BRANCH   5   7
ATOM      7  C   UNL A   1      32.521  25.002  26.115  1.00  0.00     0.110 C 
BRANCH   7   8
ATOM      8  C   UNL A   1      32.455  23.674  26.865  1.00  0.00     0.110 C 
BRANCH   8   9
ATOM      9  C   UNL A   1      31.092  23.017  26.781  1.00  0.00     0.227 C 
ATOM     10  O   UNL A   1      30.227  23.311  27.614  1.00  0.00    -0.275 OA
ATOM     11  N   UNL A   1      30.783  22.070  25.863  1.00  0.00    -0.295 N 
ATOM     12  H   UNL A   1      29.824  21.850  25.805  1.00  0.00     0.173 HD
BRANCH  11  13
ATOM     13  C   UNL A   1      31.591  21.360  24.994  1.00  0.00     0.229 A 
ATOM     14  N   UNL A   1      31.644  21.859  23.750  1.00  0.00    -0.221 NA
ATOM     15  N   UNL A   1      32.116  20.188  25.349  1.00  0.00    -0.221 NA
ATOM     16  C   UNL A   1      32.206  21.074  22.808  1.00  0.00     0.117 A 
ATOM     17  C   UNL A   1      32.645  19.426  24.375  1.00  0.00     0.117 A 
ATOM     18  C   UNL A   1      32.706  19.821  23.064  1.00  0.00     0.040 A 
ENDBRANCH  11  13
ENDBRANCH   8   9
ENDBRANCH   7   8
ENDBRANCH   5   7
ENDBRANCH   2   3
ENDBRANCH   1   2
BRANCH   1  19
ATOM     19  C   UNL A   1      35.683  21.718  24.405  1.00  0.00     0.023 C 
BRANCH  19  20
ATOM     20  C   UNL A   1      36.522  21.860  25.674  1.00  0.00     0.116 C 
BRANCH  20  21
ATOM     21  N   UNL A   1      37.608  20.892  25.746  1.00  0.00    -0.352 N 
ATOM     22  C   UNL A   1      38.940  21.075  26.039  1.00  0.00     0.251 C 
ATOM     23  H   UNL A   1      37.348  19.961  25.554  1.00  0.00     0.163 HD
ATOM     24  O   UNL A   1      39.726  20.142  25.892  1.00  0.00    -0.269 OA
BRANCH  22  25
ATOM     25  C   UNL A   1      39.439  22.391  26.503  1.00  0.00     0.039 A 
ATOM     26  C   UNL A   1      40.529  22.432  27.378  1.00  0.00     0.014 A 
ATOM     27  C   UNL A   1      38.836  23.583  26.094  1.00  0.00     0.014 A 
ATOM     28  C   UNL A   1      41.062  23.665  27.773  1.00  0.00     0.010 A 
ATOM     29  C   UNL A   1      39.417  24.807  26.422  1.00  0.00     0.010 A 
ATOM     30  C   UNL A   1      40.539  24.865  27.264  1.00  0.00    -0.014 A 
BRANCH  30  31
ATOM     31  C   UNL A   1      41.167  26.179  27.573  1.00  0.00     0.031 A 
ATOM     32  C   UNL A   1      42.585  26.471  27.154  1.00  0.00     0.074 A 
ATOM     33  C   UNL A   1      40.492  27.083  28.314  1.00  0.00     0.049 A 
ATOM     34  N   UNL A   1      43.311  27.535  27.387  1.00  0.00    -0.248 NA
ATOM     35  C   UNL A   1      43.288  25.421  26.399  1.00  0.00     0.031 C 
ATOM     36  C   UNL A   1      39.142  26.899  28.849  1.00  0.00     0.029 A 
ATOM     37  N   UNL A   1      40.860  28.326  28.769  1.00  0.00    -0.354 N 
ATOM     38  C   UNL A   1      44.563  27.269  26.844  1.00  0.00     0.074 A 
ATOM     39  C   UNL A   1      44.507  25.931  26.295  1.00  0.00     0.031 C 
ATOM     40  C   UNL A   1      38.794  27.987  29.553  1.00  0.00     0.029 A 
ATOM     41  C   UNL A   1      39.905  28.933  29.551  1.00  0.00     0.049 A 
ATOM     42  H   UNL A   1      41.726  28.743  28.556  1.00  0.00     0.167 HD
ATOM     43  C   UNL A   1      45.654  28.072  26.783  1.00  0.00     0.034 A 
ATOM     44  C   UNL A   1      39.921  30.113  30.203  1.00  0.00     0.034 A 
ATOM     45  C   UNL A   1      45.699  29.416  27.295  1.00  0.00     0.049 A 
ATOM     46  C   UNL A   1      41.134  30.997  30.095  1.00  0.00     0.074 A 
ATOM     47  C   UNL A   1      46.724  30.339  27.194  1.00  0.00     0.029 A 
ATOM     48  N   UNL A   1      44.682  30.025  28.014  1.00  0.00    -0.354 N 
ATOM     49  N   UNL A   1      42.247  30.794  29.434  1.00  0.00    -0.248 NA
ATOM     50  C   UNL A   1      41.079  32.290  30.793  1.00  0.00     0.031 C 
ATOM     51  C   UNL A   1      46.342  31.496  27.882  1.00  0.00     0.029 A 
ATOM     52  C   UNL A   1      45.062  31.307  28.378  1.00  0.00     0.049 A 
ATOM     53  H   UNL A   1      43.818  29.609  28.233  1.00  0.00     0.167 HD
ATOM     54  C   UNL A   1      43.008  31.945  29.604  1.00  0.00     0.074 A 
ATOM     55  C   UNL A   1      42.220  32.851  30.414  1.00  0.00     0.031 C 
ATOM     56  C   UNL A   1      44.252  32.223  29.140  1.00  0.00     0.034 A 
BRANCH  43  57
ATOM     57  C   UNL A   1      46.885  27.533  26.100  1.00  0.00     0.023 A 
ATOM     58  C   UNL A   1      47.744  26.658  26.797  1.00  0.00     0.012 A 
ATOM     59  C   UNL A   1      47.159  27.840  24.752  1.00  0.00     0.148 A 
ATOM     60  C   UNL A   1      48.876  26.130  26.177  1.00  0.00     0.002 A 
ATOM     61  C   UNL A   1      48.263  27.270  24.127  1.00  0.00     0.091 A 
ATOM     62  F   UNL A   1      46.342  28.686  24.108  1.00  0.00    -0.205 F 
ATOM     63  C   UNL A   1      49.129  26.426  24.841  1.00  0.00     0.022 A 
BRANCH  61  64
ATOM     64  S   UNL A   1      48.628  27.523  22.386  1.00  0.00     0.127 S 
ATOM     65  O   UNL A   1      47.454  28.279  21.947  1.00  0.00    -0.237 OA
ATOM     66  O   UNL A   1      49.867  28.302  22.441  1.00  0.00    -0.237 OA
ATOM     67  O   UNL A   1      48.769  26.197  21.807  1.00  0.00    -0.744 OA
ENDBRANCH  61  64
ENDBRANCH  43  57
BRANCH  44  68
ATOM     68  C   UNL A   1      38.721  30.559  30.969  1.00  0.00     0.023 A 
ATOM     69  C   UNL A   1      38.653  30.309  32.353  1.00  0.00     0.012 A 
ATOM     70  C   UNL A   1      37.661  31.242  30.341  1.00  0.00     0.148 A 
ATOM     71  C   UNL A   1      37.537  30.702  33.093  1.00  0.00     0.002 A 
ATOM     72  C   UNL A   1      36.578  31.679  31.094  1.00  0.00     0.091 A 
ATOM     73  F   UNL A   1      37.740  31.460  29.021  1.00  0.00    -0.205 F 
ATOM     74  C   UNL A   1      36.505  31.395  32.467  1.00  0.00     0.022 A 
BRANCH  72  75
ATOM     75  S   UNL A   1      35.265  32.691  30.402  1.00  0.00     0.127 S 
ATOM     76  O   UNL A   1      35.992  33.895  30.008  1.00  0.00    -0.237 OA
ATOM     77  O   UNL A   1      34.799  31.860  29.292  1.00  0.00    -0.237 OA
ATOM     78  O   UNL A   1      34.293  32.862  31.473  1.00  0.00    -0.744 OA
ENDBRANCH  72  75
ENDBRANCH  44  68
BRANCH  56  79
ATOM     79  C   UNL A   1      44.833  33.577  29.454  1.00  0.00     0.023 A 
ATOM     80  C   UNL A   1      45.604  33.762  30.619  1.00  0.00     0.012 A 
ATOM     81  C   UNL A   1      44.675  34.650  28.554  1.00  0.00     0.148 A 
ATOM     82  C   UNL A   1      46.179  35.001  30.900  1.00  0.00     0.002 A 
ATOM     83  C   UNL A   1      45.294  35.867  28.815  1.00  0.00     0.091 A 
ATOM     84  F   UNL A   1      43.923  34.461  27.459  1.00  0.00    -0.205 F 
ATOM     85  C   UNL A   1      46.035  36.048  29.993  1.00  0.00     0.022 A 
BRANCH  83  86
ATOM     86  S   UNL A   1      45.246  37.241  27.657  1.00  0.00     0.127 S 
ATOM     87  O   UNL A   1      45.971  38.275  28.393  1.00  0.00    -0.237 OA
ATOM     88  O   UNL A   1      45.962  36.697  26.502  1.00  0.00    -0.237 OA
ATOM     89  O   UNL A   1      43.835  37.516  27.419  1.00  0.00    -0.744 OA
ENDBRANCH  83  86
ENDBRANCH  56  79
ENDBRANCH  30  31
ENDBRANCH  22  25
ENDBRANCH  20  21
ENDBRANCH  19  20
ENDBRANCH   1  19
TORSDOF 17
ENDMDL
MODEL 2
REMARK VINA RESULT:     -10.9      1.598      7.970
REMARK SMILES O=C(CCC(=O)Nc1ncccn1)NCCCCNC(=O)c1ccc(-c2c3nc(c(-c4cccc(S(=O)(=O)[O-])c4F)c4ccc([nH]4)c(-c4cccc(S(=O)(=O)[O-])c4F)c4nc(c(-c5cccc(S(=O)(=O)[O-])c5F)c5ccc2[nH]5)C=C4)C=C3)cc1
REMARK SMILES IDX 16 1 15 2 14 3 1 4 2 5 3 7 4 8 5 9 6 10 7 11 8 13 9 14 13 15
REMARK SMILES IDX 10 16 12 17 11 18 17 19 18 20 19 21 20 22 21 24 22 25 23 26
REMARK SMILES IDX 84 27 24 28 83 29 25 30 26 31 27 32 77 33 28 34 82 35 76 36
REMARK SMILES IDX 78 37 29 38 81 39 75 40 74 41 30 43 62 44 42 45 61 46 43 47
REMARK SMILES IDX 46 48 60 49 79 50 44 51 45 52 59 54 80 55 47 56 31 57 32 58
REMARK SMILES IDX 40 59 33 60 35 61 41 62 34 63 36 64 37 65 38 66 39 67 63 68
REMARK SMILES IDX 64 69 72 70 65 71 67 72 73 73 66 74 68 75 69 76 70 77 71 78
REMARK SMILES IDX 48 79 49 80 57 81 50 82 52 83 58 84 51 85 53 86 54 87 55 88
REMARK SMILES IDX 56 89
REMARK H PARENT 14 6 7 12 19 23 78 42 46 53
REMARK Flexibility Score: inf
ROOT
ATOM      1  C   UNL A   1      36.537  22.991  23.325  1.00  0.00     0.023 C 
ENDROOT
BRANCH   1   2
ATOM      2  C   UNL A   1      35.483  23.943  23.880  1.00  0.00     0.116 C 
BRANCH   2   3
ATOM      3  N   UNL A   1      34.140  23.396  23.884  1.00  0.00    -0.356 N 
ATOM      4  O   UNL A   1      33.601  24.038  21.738  1.00  0.00    -0.275 OA
ATOM      5  C   UNL A   1      33.343  23.403  22.758  1.00  0.00     0.220 C 
ATOM      6  H   UNL A   1      33.787  23.008  24.716  1.00  0.00     0.163 HD
BRANCH   5   7
ATOM      7  C   UNL A   1      32.113  22.523  22.872  1.00  0.00     0.110 C 
BRANCH   7   8
ATOM      8  C   UNL A   1      32.413  21.131  23.423  1.00  0.00     0.110 C 
BRANCH   8   9
ATOM      9  C   UNL A   1      32.154  21.020  24.911  1.00  0.00     0.227 C 
ATOM     10  O   UNL A   1      31.819  22.028  25.544  1.00  0.00    -0.275 OA
ATOM     11  N   UNL A   1      32.328  19.871  25.608  1.00  0.00    -0.295 N 
ATOM     12  H   UNL A   1      31.966  19.887  26.524  1.00  0.00     0.173 HD
BRANCH  11  13
ATOM     13  C   UNL A   1      32.930  18.680  25.247  1.00  0.00     0.229 A 
ATOM     14  N   UNL A   1      34.192  18.805  24.811  1.00  0.00    -0.221 NA
ATOM     15  N   UNL A   1      32.229  17.549  25.184  1.00  0.00    -0.221 NA
ATOM     16  C   UNL A   1      34.734  17.723  24.214  1.00  0.00     0.117 A 
ATOM     17  C   UNL A   1      32.798  16.502  24.559  1.00  0.00     0.117 A 
ATOM     18  C   UNL A   1      34.063  16.538  24.036  1.00  0.00     0.040 A 
ENDBRANCH  11  13
ENDBRANCH   8   9
ENDBRANCH   7   8
ENDBRANCH   5   7
ENDBRANCH   2   3
ENDBRANCH   1   2
BRANCH   1  19
ATOM     19  C   UNL A   1      36.555  21.592  23.945  1.00  0.00     0.023 C 
BRANCH  19  20
ATOM     20  C   UNL A   1      36.972  21.523  25.414  1.00  0.00     0.116 C 
BRANCH  20  21
ATOM     21  N   UNL A   1      37.985  20.509  25.668  1.00  0.00    -0.352 N 
ATOM     22  C   UNL A   1      39.278  20.643  26.122  1.00  0.00     0.251 C 
ATOM     23  H   UNL A   1      37.702  19.583  25.486  1.00  0.00     0.163 HD
ATOM     24  O   UNL A   1      40.024  19.666  26.119  1.00  0.00    -0.269 OA
BRANCH  22  25
ATOM     25  C   UNL A   1      39.785  21.955  26.587  1.00  0.00     0.039 A 
ATOM     26  C   UNL A   1      40.839  21.988  27.506  1.00  0.00     0.014 A 
ATOM     27  C   UNL A   1      39.225  23.152  26.135  1.00  0.00     0.014 A 
ATOM     28  C   UNL A   1      41.381  23.215  27.905  1.00  0.00     0.010 A 
ATOM     29  C   UNL A   1      39.817  24.369  26.470  1.00  0.00     0.010 A 
ATOM     30  C   UNL A   1      40.904  24.418  27.356  1.00  0.00    -0.014 A 
BRANCH  30  31
ATOM     31  C   UNL A   1      41.547  25.723  27.672  1.00  0.00     0.031 A 
ATOM     32  C   UNL A   1      40.798  26.783  28.437  1.00  0.00     0.074 A 
ATOM     33  C   UNL A   1      42.778  25.994  27.190  1.00  0.00     0.049 A 
ATOM     34  N   UNL A   1      41.178  27.996  28.752  1.00  0.00    -0.248 NA
ATOM     35  C   UNL A   1      39.437  26.448  28.886  1.00  0.00     0.031 C 
ATOM     36  C   UNL A   1      43.583  25.087  26.371  1.00  0.00     0.029 A 
ATOM     37  N   UNL A   1      43.556  27.122  27.296  1.00  0.00    -0.354 N 
ATOM     38  C   UNL A   1      40.093  28.580  29.397  1.00  0.00     0.074 A 
ATOM     39  C   UNL A   1      39.030  27.599  29.403  1.00  0.00     0.031 C 
ATOM     40  C   UNL A   1      44.741  25.689  26.053  1.00  0.00     0.029 A 
ATOM     41  C   UNL A   1      44.748  27.036  26.614  1.00  0.00     0.049 A 
ATOM     42  H   UNL A   1      43.286  27.916  27.810  1.00  0.00     0.167 HD
ATOM     43  C   UNL A   1      39.996  29.811  29.956  1.00  0.00     0.034 A 
ATOM     44  C   UNL A   1      45.734  27.941  26.448  1.00  0.00     0.034 A 
ATOM     45  C   UNL A   1      41.065  30.774  29.983  1.00  0.00     0.049 A 
ATOM     46  C   UNL A   1      45.613  29.289  27.105  1.00  0.00     0.074 A 
ATOM     47  C   UNL A   1      41.094  32.008  30.610  1.00  0.00     0.029 A 
ATOM     48  N   UNL A   1      42.287  30.621  29.348  1.00  0.00    -0.354 N 
ATOM     49  N   UNL A   1      44.645  29.760  27.852  1.00  0.00    -0.248 NA
ATOM     50  C   UNL A   1      46.737  30.220  26.924  1.00  0.00     0.031 C 
ATOM     51  C   UNL A   1      42.322  32.615  30.325  1.00  0.00     0.029 A 
ATOM     52  C   UNL A   1      43.073  31.743  29.553  1.00  0.00     0.049 A 
ATOM     53  H   UNL A   1      42.558  29.829  28.828  1.00  0.00     0.167 HD
ATOM     54  C   UNL A   1      45.058  31.023  28.262  1.00  0.00     0.074 A 
ATOM     55  C   UNL A   1      46.374  31.236  27.696  1.00  0.00     0.031 C 
ATOM     56  C   UNL A   1      44.402  31.928  29.030  1.00  0.00     0.034 A 
BRANCH  43  57
ATOM     57  C   UNL A   1      38.696  30.177  30.627  1.00  0.00     0.023 A 
ATOM     58  C   UNL A   1      38.479  29.816  31.973  1.00  0.00     0.012 A 
ATOM     59  C   UNL A   1      37.718  30.931  29.948  1.00  0.00     0.148 A 
ATOM     60  C   UNL A   1      37.294  30.165  32.620  1.00  0.00     0.002 A 
ATOM     61  C   UNL A   1      36.560  31.316  30.616  1.00  0.00     0.091 A 
ATOM     62  F   UNL A   1      37.933  31.252  28.665  1.00  0.00    -0.205 F 
ATOM     63  C   UNL A   1      36.341  30.923  31.946  1.00  0.00     0.022 A 
BRANCH  61  64
ATOM     64  S   UNL A   1      35.311  32.364  29.862  1.00  0.00     0.127 S 
ATOM     65  O   UNL A   1      34.369  32.539  30.969  1.00  0.00    -0.237 OA
ATOM     66  O   UNL A   1      36.079  33.565  29.524  1.00  0.00    -0.237 OA
ATOM     67  O   UNL A   1      34.802  31.627  28.718  1.00  0.00    -0.744 OA
ENDBRANCH  61  64
ENDBRANCH  43  57
BRANCH  44  68
ATOM     68  C   UNL A   1      46.957  27.578  25.675  1.00  0.00     0.023 A 
ATOM     69  C   UNL A   1      46.993  27.815  24.288  1.00  0.00     0.012 A 
ATOM     70  C   UNL A   1      48.086  27.020  26.306  1.00  0.00     0.148 A 
ATOM     71  C   UNL A   1      48.118  27.473  23.536  1.00  0.00     0.002 A 
ATOM     72  C   UNL A   1      49.224  26.733  25.561  1.00  0.00     0.091 A 
ATOM     73  F   UNL A   1      48.028  26.792  27.626  1.00  0.00    -0.205 F 
ATOM     74  C   UNL A   1      49.236  26.942  24.172  1.00  0.00     0.022 A 
BRANCH  72  75
ATOM     75  S   UNL A   1      50.755  26.170  26.312  1.00  0.00     0.127 S 
ATOM     76  O   UNL A   1      51.059  27.265  27.229  1.00  0.00    -0.237 OA
ATOM     77  O   UNL A   1      50.334  24.925  26.955  1.00  0.00    -0.237 OA
ATOM     78  O   UNL A   1      51.691  25.989  25.211  1.00  0.00    -0.744 OA
ENDBRANCH  72  75
ENDBRANCH  44  68
BRANCH  56  79
ATOM     79  C   UNL A   1      45.106  33.223  29.346  1.00  0.00     0.023 A 
ATOM     80  C   UNL A   1      45.940  33.314  30.477  1.00  0.00     0.012 A 
ATOM     81  C   UNL A   1      44.997  34.327  28.478  1.00  0.00     0.148 A 
ATOM     82  C   UNL A   1      46.627  34.495  30.759  1.00  0.00     0.002 A 
ATOM     83  C   UNL A   1      45.724  35.483  28.736  1.00  0.00     0.091 A 
ATOM     84  F   UNL A   1      44.184  34.228  27.415  1.00  0.00    -0.205 F 
ATOM     85  C   UNL A   1      46.529  35.574  29.882  1.00  0.00     0.022 A 
BRANCH  83  86
ATOM     86  S   UNL A   1      45.737  36.886  27.612  1.00  0.00     0.127 S 
ATOM     87  O   UNL A   1      46.355  37.922  28.437  1.00  0.00    -0.237 OA
ATOM     88  O   UNL A   1      46.576  36.396  26.517  1.00  0.00    -0.237 OA
ATOM     89  O   UNL A   1      44.347  37.122  27.248  1.00  0.00    -0.744 OA
ENDBRANCH  83  86
ENDBRANCH  56  79
ENDBRANCH  30  31
ENDBRANCH  22  25
ENDBRANCH  20  21
ENDBRANCH  19  20
ENDBRANCH   1  19
TORSDOF 17
ENDMDL
MODEL 3
REMARK VINA RESULT:     -10.8      6.146      9.105
REMARK SMILES O=C(CCC(=O)Nc1ncccn1)NCCCCNC(=O)c1ccc(-c2c3nc(c(-c4cccc(S(=O)(=O)[O-])c4F)c4ccc([nH]4)c(-c4cccc(S(=O)(=O)[O-])c4F)c4nc(c(-c5cccc(S(=O)(=O)[O-])c5F)c5ccc2[nH]5)C=C4)C=C3)cc1
REMARK SMILES IDX 16 1 15 2 14 3 1 4 2 5 3 7 4 8 5 9 6 10 7 11 8 13 9 14 13 15
REMARK SMILES IDX 10 16 12 17 11 18 17 19 18 20 19 21 20 22 21 24 22 25 23 26
REMARK SMILES IDX 84 27 24 28 83 29 25 30 26 31 27 32 77 33 28 34 82 35 76 36
REMARK SMILES IDX 78 37 29 38 81 39 75 40 74 41 30 43 62 44 42 45 61 46 43 47
REMARK SMILES IDX 46 48 60 49 79 50 44 51 45 52 59 54 80 55 47 56 31 57 32 58
REMARK SMILES IDX 40 59 33 60 35 61 41 62 34 63 36 64 37 65 38 66 39 67 63 68
REMARK SMILES IDX 64 69 72 70 65 71 67 72 73 73 66 74 68 75 69 76 70 77 71 78
REMARK SMILES IDX 48 79 49 80 57 81 50 82 52 83 58 84 51 85 53 86 54 87 55 88
REMARK SMILES IDX 56 89
REMARK H PARENT 14 6 7 12 19 23 78 42 46 53
REMARK Flexibility Score: inf
ROOT
ATOM      1  C   UNL A   1      34.517  30.576  27.691  1.00  0.00     0.023 C 
ENDROOT
BRANCH   1   2
ATOM      2  C   UNL A   1      33.520  29.490  27.302  1.00  0.00     0.116 C 
BRANCH   2   3
ATOM      3  N   UNL A   1      34.000  28.592  26.270  1.00  0.00    -0.356 N 
ATOM      4  O   UNL A   1      32.335  27.018  26.511  1.00  0.00    -0.275 OA
ATOM      5  C   UNL A   1      33.296  27.468  25.891  1.00  0.00     0.220 C 
ATOM      6  H   UNL A   1      34.856  28.791  25.827  1.00  0.00     0.163 HD
BRANCH   5   7
ATOM      7  C   UNL A   1      33.794  26.836  24.605  1.00  0.00     0.110 C 
BRANCH   7   8
ATOM      8  C   UNL A   1      33.580  27.716  23.376  1.00  0.00     0.110 C 
BRANCH   8   9
ATOM      9  C   UNL A   1      33.003  26.954  22.200  1.00  0.00     0.227 C 
ATOM     10  O   UNL A   1      33.764  26.324  21.456  1.00  0.00    -0.275 OA
ATOM     11  N   UNL A   1      31.686  26.971  21.882  1.00  0.00    -0.295 N 
ATOM     12  H   UNL A   1      31.417  26.305  21.207  1.00  0.00     0.173 HD
BRANCH  11  13
ATOM     13  C   UNL A   1      30.657  27.769  22.347  1.00  0.00     0.229 A 
ATOM     14  N   UNL A   1      29.767  27.133  23.123  1.00  0.00    -0.221 NA
ATOM     15  N   UNL A   1      30.499  29.014  21.900  1.00  0.00    -0.221 NA
ATOM     16  C   UNL A   1      28.622  27.792  23.392  1.00  0.00     0.117 A 
ATOM     17  C   UNL A   1      29.332  29.626  22.171  1.00  0.00     0.117 A 
ATOM     18  C   UNL A   1      28.337  29.047  22.914  1.00  0.00     0.040 A 
ENDBRANCH  11  13
ENDBRANCH   8   9
ENDBRANCH   7   8
ENDBRANCH   5   7
ENDBRANCH   2   3
ENDBRANCH   1   2
BRANCH   1  19
ATOM     19  C   UNL A   1      34.134  32.001  27.281  1.00  0.00     0.023 C 
BRANCH  19  20
ATOM     20  C   UNL A   1      32.668  32.377  27.485  1.00  0.00     0.116 C 
BRANCH  20  21
ATOM     21  N   UNL A   1      32.475  33.804  27.703  1.00  0.00    -0.352 N 
ATOM     22  C   UNL A   1      33.107  34.660  28.576  1.00  0.00     0.251 C 
ATOM     23  H   UNL A   1      31.784  34.222  27.138  1.00  0.00     0.163 HD
ATOM     24  O   UNL A   1      32.683  35.806  28.713  1.00  0.00    -0.269 OA
BRANCH  22  25
ATOM     25  C   UNL A   1      34.274  34.207  29.370  1.00  0.00     0.039 A 
ATOM     26  C   UNL A   1      34.054  33.458  30.530  1.00  0.00     0.014 A 
ATOM     27  C   UNL A   1      35.579  34.526  28.989  1.00  0.00     0.014 A 
ATOM     28  C   UNL A   1      35.142  32.960  31.256  1.00  0.00     0.010 A 
ATOM     29  C   UNL A   1      36.660  33.962  29.666  1.00  0.00     0.010 A 
ATOM     30  C   UNL A   1      36.457  33.170  30.807  1.00  0.00    -0.014 A 
BRANCH  30  31
ATOM     31  C   UNL A   1      37.621  32.546  31.494  1.00  0.00     0.031 A 
ATOM     32  C   UNL A   1      38.369  31.404  30.857  1.00  0.00     0.074 A 
ATOM     33  C   UNL A   1      37.953  32.947  32.739  1.00  0.00     0.049 A 
ATOM     34  N   UNL A   1      39.367  30.704  31.333  1.00  0.00    -0.248 NA
ATOM     35  C   UNL A   1      37.921  30.974  29.522  1.00  0.00     0.031 C 
ATOM     36  C   UNL A   1      37.266  33.989  33.503  1.00  0.00     0.029 A 
ATOM     37  N   UNL A   1      38.936  32.507  33.592  1.00  0.00    -0.354 N 
ATOM     38  C   UNL A   1      39.640  29.730  30.379  1.00  0.00     0.074 A 
ATOM     39  C   UNL A   1      38.683  29.911  29.309  1.00  0.00     0.031 C 
ATOM     40  C   UNL A   1      37.848  34.112  34.707  1.00  0.00     0.029 A 
ATOM     41  C   UNL A   1      38.927  33.136  34.816  1.00  0.00     0.049 A 
ATOM     42  H   UNL A   1      39.584  31.806  33.352  1.00  0.00     0.167 HD
ATOM     43  C   UNL A   1      40.614  28.787  30.378  1.00  0.00     0.034 A 
ATOM     44  C   UNL A   1      39.693  32.945  35.909  1.00  0.00     0.034 A 
ATOM     45  C   UNL A   1      41.590  28.631  31.424  1.00  0.00     0.049 A 
ATOM     46  C   UNL A   1      40.785  31.910  35.871  1.00  0.00     0.074 A 
ATOM     47  C   UNL A   1      42.672  27.769  31.468  1.00  0.00     0.029 A 
ATOM     48  N   UNL A   1      41.597  29.340  32.615  1.00  0.00    -0.354 N 
ATOM     49  N   UNL A   1      41.132  31.112  34.891  1.00  0.00    -0.248 NA
ATOM     50  C   UNL A   1      41.615  31.774  37.077  1.00  0.00     0.031 C 
ATOM     51  C   UNL A   1      43.313  27.933  32.700  1.00  0.00     0.029 A 
ATOM     52  C   UNL A   1      42.654  28.925  33.408  1.00  0.00     0.049 A 
ATOM     53  H   UNL A   1      40.946  30.037  32.861  1.00  0.00     0.167 HD
ATOM     54  C   UNL A   1      42.242  30.409  35.347  1.00  0.00     0.074 A 
ATOM     55  C   UNL A   1      42.522  30.889  36.684  1.00  0.00     0.031 C 
ATOM     56  C   UNL A   1      42.958  29.444  34.717  1.00  0.00     0.034 A 
BRANCH  43  57
ATOM     57  C   UNL A   1      40.702  27.869  29.185  1.00  0.00     0.023 A 
ATOM     58  C   UNL A   1      39.844  26.753  29.098  1.00  0.00     0.012 A 
ATOM     59  C   UNL A   1      41.586  28.144  28.123  1.00  0.00     0.148 A 
ATOM     60  C   UNL A   1      39.892  25.904  27.993  1.00  0.00     0.002 A 
ATOM     61  C   UNL A   1      41.593  27.320  27.003  1.00  0.00     0.091 A 
ATOM     62  F   UNL A   1      42.406  29.199  28.228  1.00  0.00    -0.205 F 
ATOM     63  C   UNL A   1      40.757  26.193  26.942  1.00  0.00     0.022 A 
BRANCH  61  64
ATOM     64  S   UNL A   1      42.611  27.655  25.560  1.00  0.00     0.127 S 
ATOM     65  O   UNL A   1      42.344  26.477  24.734  1.00  0.00    -0.237 OA
ATOM     66  O   UNL A   1      42.025  28.898  25.053  1.00  0.00    -0.237 OA
ATOM     67  O   UNL A   1      43.974  27.781  26.048  1.00  0.00    -0.744 OA
ENDBRANCH  61  64
ENDBRANCH  43  57
BRANCH  44  68
ATOM     68  C   UNL A   1      39.496  33.798  37.117  1.00  0.00     0.023 A 
ATOM     69  C   UNL A   1      39.964  35.126  37.108  1.00  0.00     0.012 A 
ATOM     70  C   UNL A   1      38.833  33.311  38.260  1.00  0.00     0.148 A 
ATOM     71  C   UNL A   1      39.808  35.944  38.228  1.00  0.00     0.002 A 
ATOM     72  C   UNL A   1      38.631  34.148  39.351  1.00  0.00     0.091 A 
ATOM     73  F   UNL A   1      38.404  32.041  38.253  1.00  0.00    -0.205 F 
ATOM     74  C   UNL A   1      39.133  35.459  39.344  1.00  0.00     0.022 A 
BRANCH  72  75
ATOM     75  S   UNL A   1      37.661  33.656  40.780  1.00  0.00     0.127 S 
ATOM     76  O   UNL A   1      38.543  32.682  41.420  1.00  0.00    -0.237 OA
ATOM     77  O   UNL A   1      37.517  34.922  41.498  1.00  0.00    -0.237 OA
ATOM     78  O   UNL A   1      36.414  33.123  40.246  1.00  0.00    -0.744 OA
ENDBRANCH  72  75
ENDBRANCH  44  68
BRANCH  56  79
ATOM     79  C   UNL A   1      44.145  28.864  35.442  1.00  0.00     0.023 A 
ATOM     80  C   UNL A   1      45.420  29.441  35.283  1.00  0.00     0.012 A 
ATOM     81  C   UNL A   1      43.981  27.790  36.340  1.00  0.00     0.148 A 
ATOM     82  C   UNL A   1      46.519  28.937  35.978  1.00  0.00     0.002 A 
ATOM     83  C   UNL A   1      45.070  27.327  37.069  1.00  0.00     0.091 A 
ATOM     84  F   UNL A   1      42.763  27.242  36.466  1.00  0.00    -0.205 F 
ATOM     85  C   UNL A   1      46.341  27.890  36.880  1.00  0.00     0.022 A 
BRANCH  83  86
ATOM     86  S   UNL A   1      44.917  26.049  38.324  1.00  0.00     0.127 S 
ATOM     87  O   UNL A   1      46.189  26.176  39.033  1.00  0.00    -0.237 OA
ATOM     88  O   UNL A   1      43.748  26.498  39.082  1.00  0.00    -0.237 OA
ATOM     89  O   UNL A   1      44.725  24.798  37.602  1.00  0.00    -0.744 OA
ENDBRANCH  83  86
ENDBRANCH  56  79
ENDBRANCH  30  31
ENDBRANCH  22  25
ENDBRANCH  20  21
ENDBRANCH  19  20
ENDBRANCH   1  19
TORSDOF 17
ENDMDL
