MODEL 1
REMARK VINA RESULT:     -12.3      0.000      0.000
REMARK SMILES COc1ccc2c(c1)c(CC(=O)NCCCCNC(=O)c1ccc(-c3c4nc(c(-c5cccc(S(=O)(=O)[O-])c5F)c5ccc([nH]5)c(-c5cccc(S(=O)(=O)[O-])c5F)c5nc(c(-c6cccc(S(=O)(=O)[O-])c6F)c6ccc3[nH]6)C=C5)C=C4)cc1)c(C)n2Cc1ccn(C(F)F)c(=O)c1
REMARK SMILES IDX 15 1 14 2 13 3 11 4 12 5 10 7 9 8 3 9 4 10 8 11 5 12 7 13
REMARK SMILES IDX 6 14 86 15 84 16 85 17 2 18 1 19 87 20 88 21 89 22 97 23
REMARK SMILES IDX 90 24 95 25 91 26 96 27 92 28 93 29 94 30 16 31 17 32 18 33
REMARK SMILES IDX 19 34 20 36 21 37 22 38 83 39 23 40 82 41 24 42 25 43 26 44
REMARK SMILES IDX 76 45 27 46 81 47 75 48 77 49 28 50 80 51 74 52 73 53 29 55
REMARK SMILES IDX 61 56 41 57 60 58 42 59 45 60 59 61 78 62 43 63 44 64 58 66
REMARK SMILES IDX 79 67 46 68 30 69 31 70 39 71 32 72 34 73 40 74 33 75 35 76
REMARK SMILES IDX 36 77 37 78 38 79 62 80 63 81 71 82 64 83 66 84 72 85 65 86
REMARK SMILES IDX 67 87 68 88 69 89 70 90 47 91 48 92 56 93 49 94 51 95 57 96
REMARK SMILES IDX 50 97 52 98 53 99 54 100 55 101
REMARK H PARENT 13 6 18 35 77 54 45 65
REMARK Flexibility Score: inf
ROOT
ATOM      1  C   UNL A   1      32.480  28.881  27.636  1.00  0.00     0.023 C 
ENDROOT
BRANCH   1   2
ATOM      2  C   UNL A   1      31.737  28.284  26.445  1.00  0.00     0.116 C 
BRANCH   2   3
ATOM      3  N   UNL A   1      32.607  28.051  25.308  1.00  0.00    -0.356 N 
ATOM      4  C   UNL A   1      33.192  26.889  24.892  1.00  0.00     0.224 C 
ATOM      5  O   UNL A   1      33.854  26.910  23.851  1.00  0.00    -0.275 OA
ATOM      6  H   UNL A   1      32.803  28.843  24.758  1.00  0.00     0.163 HD
BRANCH   4   7
ATOM      7  C   UNL A   1      32.953  25.586  25.644  1.00  0.00     0.138 C 
BRANCH   7   8
ATOM      8  C   UNL A   1      33.238  24.362  24.826  1.00  0.00    -0.010 A 
ATOM      9  C   UNL A   1      36.839  23.106  24.930  1.00  0.00     0.119 A 
ATOM     10  C   UNL A   1      36.615  21.943  24.201  1.00  0.00     0.048 A 
ATOM     11  C   UNL A   1      35.775  23.956  25.236  1.00  0.00     0.057 A 
ATOM     12  C   UNL A   1      35.336  21.628  23.719  1.00  0.00     0.031 A 
ATOM     13  C   UNL A   1      34.487  23.683  24.731  1.00  0.00     0.007 A 
ATOM     14  C   UNL A   1      34.283  22.527  23.974  1.00  0.00     0.049 A 
ATOM     15  N   UNL A   1      32.939  22.502  23.629  1.00  0.00    -0.340 N 
ATOM     16  C   UNL A   1      32.352  23.707  23.980  1.00  0.00     0.020 A 
ATOM     17  C   UNL A   1      30.990  24.145  23.567  1.00  0.00     0.065 C 
BRANCH   9  18
ATOM     18  O   UNL A   1      38.056  23.470  25.441  1.00  0.00    -0.497 OA
ATOM     19  C   UNL A   1      37.973  24.198  26.662  1.00  0.00     0.278 C 
ENDBRANCH   9  18
BRANCH  15  20
ATOM     20  C   UNL A   1      32.268  21.375  22.969  1.00  0.00     0.158 C 
BRANCH  20  21
ATOM     21  C   UNL A   1      32.541  20.047  23.640  1.00  0.00    -0.021 A 
ATOM     22  C   UNL A   1      32.381  19.928  25.078  1.00  0.00     0.024 A 
ATOM     23  C   UNL A   1      32.885  18.951  22.943  1.00  0.00     0.077 A 
ATOM     24  C   UNL A   1      32.717  18.799  25.714  1.00  0.00     0.095 A 
ATOM     25  C   UNL A   1      33.168  17.650  23.624  1.00  0.00     0.255 A 
ATOM     26  N   UNL A   1      33.151  17.695  25.013  1.00  0.00    -0.258 N 
ATOM     27  O   UNL A   1      33.391  16.674  22.938  1.00  0.00    -0.269 OA
BRANCH  26  28
ATOM     28  C   UNL A   1      33.492  16.478  25.708  1.00  0.00     0.451 C 
ATOM     29  F   UNL A   1      32.447  15.616  25.692  1.00  0.00    -0.185 F 
ATOM     30  F   UNL A   1      34.551  15.870  25.133  1.00  0.00    -0.185 F 
ENDBRANCH  26  28
ENDBRANCH  20  21
ENDBRANCH  15  20
ENDBRANCH   7   8
ENDBRANCH   4   7
ENDBRANCH   2   3
ENDBRANCH   1   2
BRANCH   1  31
ATOM     31  C   UNL A   1      33.977  29.123  27.409  1.00  0.00     0.023 C 
BRANCH  31  32
ATOM     32  C   UNL A   1      34.379  30.587  27.196  1.00  0.00     0.116 C 
BRANCH  32  33
ATOM     33  N   UNL A   1      34.250  31.421  28.375  1.00  0.00    -0.352 N 
ATOM     34  C   UNL A   1      35.062  31.704  29.444  1.00  0.00     0.251 C 
ATOM     35  H   UNL A   1      33.385  31.889  28.419  1.00  0.00     0.163 HD
ATOM     36  O   UNL A   1      34.628  32.552  30.230  1.00  0.00    -0.269 OA
BRANCH  34  37
ATOM     37  C   UNL A   1      36.351  31.019  29.749  1.00  0.00     0.039 A 
ATOM     38  C   UNL A   1      37.610  31.528  29.444  1.00  0.00     0.014 A 
ATOM     39  C   UNL A   1      36.272  29.722  30.294  1.00  0.00     0.014 A 
ATOM     40  C   UNL A   1      38.740  30.731  29.554  1.00  0.00     0.010 A 
ATOM     41  C   UNL A   1      37.407  28.921  30.427  1.00  0.00     0.010 A 
ATOM     42  C   UNL A   1      38.638  29.415  30.013  1.00  0.00    -0.014 A 
BRANCH  42  43
ATOM     43  C   UNL A   1      39.887  28.664  30.087  1.00  0.00     0.031 A 
ATOM     44  C   UNL A   1      40.547  28.647  31.424  1.00  0.00     0.074 A 
ATOM     45  C   UNL A   1      40.446  27.981  29.071  1.00  0.00     0.049 A 
ATOM     46  N   UNL A   1      41.667  29.196  31.772  1.00  0.00    -0.248 NA
ATOM     47  C   UNL A   1      39.814  28.009  32.525  1.00  0.00     0.031 C 
ATOM     48  C   UNL A   1      39.865  27.625  27.778  1.00  0.00     0.029 A 
ATOM     49  N   UNL A   1      41.664  27.366  29.052  1.00  0.00    -0.354 N 
ATOM     50  C   UNL A   1      41.877  28.813  33.096  1.00  0.00     0.074 A 
ATOM     51  C   UNL A   1      40.657  28.188  33.542  1.00  0.00     0.031 C 
ATOM     52  C   UNL A   1      40.630  26.668  27.203  1.00  0.00     0.029 A 
ATOM     53  C   UNL A   1      41.818  26.461  28.014  1.00  0.00     0.049 A 
ATOM     54  H   UNL A   1      42.369  27.548  29.715  1.00  0.00     0.167 HD
ATOM     55  C   UNL A   1      43.096  28.870  33.697  1.00  0.00     0.034 A 
ATOM     56  C   UNL A   1      42.826  25.569  27.878  1.00  0.00     0.034 A 
ATOM     57  C   UNL A   1      44.044  29.673  32.981  1.00  0.00     0.049 A 
ATOM     58  C   UNL A   1      43.969  26.064  28.683  1.00  0.00     0.074 A 
ATOM     59  C   UNL A   1      44.137  30.997  32.604  1.00  0.00     0.029 A 
ATOM     60  N   UNL A   1      45.012  29.011  32.269  1.00  0.00    -0.354 N 
ATOM     61  N   UNL A   1      44.670  27.124  28.391  1.00  0.00    -0.248 NA
ATOM     62  C   UNL A   1      44.162  25.537  30.024  1.00  0.00     0.031 C 
ATOM     63  C   UNL A   1      44.839  30.982  31.365  1.00  0.00     0.029 A 
ATOM     64  C   UNL A   1      45.123  29.648  31.063  1.00  0.00     0.049 A 
ATOM     65  H   UNL A   1      45.528  28.227  32.569  1.00  0.00     0.167 HD
ATOM     66  C   UNL A   1      45.079  27.627  29.617  1.00  0.00     0.074 A 
ATOM     67  C   UNL A   1      44.857  26.540  30.564  1.00  0.00     0.031 C 
ATOM     68  C   UNL A   1      45.295  28.963  29.800  1.00  0.00     0.034 A 
BRANCH  55  69
ATOM     69  C   UNL A   1      43.532  27.950  34.804  1.00  0.00     0.023 A 
ATOM     70  C   UNL A   1      44.031  28.519  35.995  1.00  0.00     0.012 A 
ATOM     71  C   UNL A   1      43.712  26.561  34.625  1.00  0.00     0.148 A 
ATOM     72  C   UNL A   1      44.684  27.742  36.958  1.00  0.00     0.002 A 
ATOM     73  C   UNL A   1      44.289  25.781  35.619  1.00  0.00     0.091 A 
ATOM     74  F   UNL A   1      43.445  26.005  33.436  1.00  0.00    -0.205 F 
ATOM     75  C   UNL A   1      44.799  26.368  36.778  1.00  0.00     0.022 A 
BRANCH  73  76
ATOM     76  S   UNL A   1      44.388  23.997  35.442  1.00  0.00     0.127 S 
ATOM     77  O   UNL A   1      45.435  23.858  34.436  1.00  0.00    -0.237 OA
ATOM     78  O   UNL A   1      44.762  23.573  36.792  1.00  0.00    -0.237 OA
ATOM     79  O   UNL A   1      43.044  23.592  35.047  1.00  0.00    -0.744 OA
ENDBRANCH  73  76
ENDBRANCH  55  69
BRANCH  56  80
ATOM     80  C   UNL A   1      42.843  24.231  27.242  1.00  0.00     0.023 A 
ATOM     81  C   UNL A   1      41.657  23.470  27.210  1.00  0.00     0.012 A 
ATOM     82  C   UNL A   1      43.925  23.807  26.438  1.00  0.00     0.148 A 
ATOM     83  C   UNL A   1      41.534  22.352  26.376  1.00  0.00     0.002 A 
ATOM     84  C   UNL A   1      43.805  22.683  25.623  1.00  0.00     0.091 A 
ATOM     85  F   UNL A   1      45.035  24.556  26.392  1.00  0.00    -0.205 F 
ATOM     86  C   UNL A   1      42.606  21.962  25.580  1.00  0.00     0.022 A 
BRANCH  84  87
ATOM     87  S   UNL A   1      45.151  22.124  24.570  1.00  0.00     0.127 S 
ATOM     88  O   UNL A   1      44.557  20.968  23.895  1.00  0.00    -0.237 OA
ATOM     89  O   UNL A   1      45.370  23.284  23.711  1.00  0.00    -0.237 OA
ATOM     90  O   UNL A   1      46.242  21.784  25.475  1.00  0.00    -0.744 OA
ENDBRANCH  84  87
ENDBRANCH  56  80
BRANCH  68  91
ATOM     91  C   UNL A   1      45.362  29.847  28.581  1.00  0.00     0.023 A 
ATOM     92  C   UNL A   1      44.194  30.200  27.875  1.00  0.00     0.012 A 
ATOM     93  C   UNL A   1      46.569  30.499  28.276  1.00  0.00     0.148 A 
ATOM     94  C   UNL A   1      44.230  31.174  26.875  1.00  0.00     0.002 A 
ATOM     95  C   UNL A   1      46.594  31.496  27.307  1.00  0.00     0.091 A 
ATOM     96  F   UNL A   1      47.664  30.166  28.978  1.00  0.00    -0.205 F 
ATOM     97  C   UNL A   1      45.427  31.831  26.600  1.00  0.00     0.022 A 
BRANCH  95  98
ATOM     98  S   UNL A   1      48.063  32.476  26.977  1.00  0.00     0.127 S 
ATOM     99  O   UNL A   1      49.008  31.466  26.502  1.00  0.00    -0.237 OA
ATOM    100  O   UNL A   1      47.593  33.404  25.948  1.00  0.00    -0.237 OA
ATOM    101  O   UNL A   1      48.419  33.113  28.240  1.00  0.00    -0.744 OA
ENDBRANCH  95  98
ENDBRANCH  68  91
ENDBRANCH  42  43
ENDBRANCH  34  37
ENDBRANCH  32  33
ENDBRANCH  31  32
ENDBRANCH   1  31
TORSDOF 19
ENDMDL
MODEL 2
REMARK VINA RESULT:     -12.1      4.058      8.276
REMARK SMILES COc1ccc2c(c1)c(CC(=O)NCCCCNC(=O)c1ccc(-c3c4nc(c(-c5cccc(S(=O)(=O)[O-])c5F)c5ccc([nH]5)c(-c5cccc(S(=O)(=O)[O-])c5F)c5nc(c(-c6cccc(S(=O)(=O)[O-])c6F)c6ccc3[nH]6)C=C5)C=C4)cc1)c(C)n2Cc1ccn(C(F)F)c(=O)c1
REMARK SMILES IDX 15 1 14 2 13 3 11 4 12 5 10 7 9 8 3 9 4 10 8 11 5 12 7 13
REMARK SMILES IDX 6 14 86 15 84 16 85 17 2 18 1 19 87 20 88 21 89 22 97 23
REMARK SMILES IDX 90 24 95 25 91 26 96 27 92 28 93 29 94 30 16 31 17 32 18 33
REMARK SMILES IDX 19 34 20 36 21 37 22 38 83 39 23 40 82 41 24 42 25 43 26 44
REMARK SMILES IDX 76 45 27 46 81 47 75 48 77 49 28 50 80 51 74 52 73 53 29 55
REMARK SMILES IDX 61 56 41 57 60 58 42 59 45 60 59 61 78 62 43 63 44 64 58 66
REMARK SMILES IDX 79 67 46 68 30 69 31 70 39 71 32 72 34 73 40 74 33 75 35 76
REMARK SMILES IDX 36 77 37 78 38 79 62 80 63 81 71 82 64 83 66 84 72 85 65 86
REMARK SMILES IDX 67 87 68 88 69 89 70 90 47 91 48 92 56 93 49 94 51 95 57 96
REMARK SMILES IDX 50 97 52 98 53 99 54 100 55 101
REMARK H PARENT 13 6 18 35 77 54 45 65
REMARK Flexibility Score: inf
ROOT
ATOM      1  C   UNL A   1      31.992  27.457  26.495  1.00  0.00     0.023 C 
ENDROOT
BRANCH   1   2
ATOM      2  C   UNL A   1      30.925  26.374  26.377  1.00  0.00     0.116 C 
BRANCH   2   3
ATOM      3  N   UNL A   1      31.248  25.189  27.149  1.00  0.00    -0.356 N 
ATOM      4  C   UNL A   1      31.144  23.874  26.797  1.00  0.00     0.224 C 
ATOM      5  O   UNL A   1      31.537  23.023  27.600  1.00  0.00    -0.275 OA
ATOM      6  H   UNL A   1      31.593  25.358  28.056  1.00  0.00     0.163 HD
BRANCH   4   7
ATOM      7  C   UNL A   1      30.645  23.476  25.414  1.00  0.00     0.138 C 
BRANCH   7   8
ATOM      8  C   UNL A   1      31.684  23.606  24.342  1.00  0.00    -0.010 A 
ATOM      9  C   UNL A   1      31.411  26.713  22.144  1.00  0.00     0.119 A 
ATOM     10  C   UNL A   1      32.592  26.505  21.441  1.00  0.00     0.048 A 
ATOM     11  C   UNL A   1      31.041  25.835  23.164  1.00  0.00     0.057 A 
ATOM     12  C   UNL A   1      33.403  25.392  21.705  1.00  0.00     0.031 A 
ATOM     13  C   UNL A   1      31.817  24.687  23.423  1.00  0.00     0.007 A 
ATOM     14  C   UNL A   1      32.985  24.475  22.688  1.00  0.00     0.049 A 
ATOM     15  N   UNL A   1      33.552  23.298  23.158  1.00  0.00    -0.340 N 
ATOM     16  C   UNL A   1      32.666  22.676  24.022  1.00  0.00     0.020 A 
ATOM     17  C   UNL A   1      32.815  21.289  24.546  1.00  0.00     0.065 C 
BRANCH   9  18
ATOM     18  O   UNL A   1      30.579  27.782  21.949  1.00  0.00    -0.497 OA
ATOM     19  C   UNL A   1      29.540  27.888  22.918  1.00  0.00     0.278 C 
ENDBRANCH   9  18
BRANCH  15  20
ATOM     20  C   UNL A   1      34.874  22.794  22.768  1.00  0.00     0.158 C 
BRANCH  20  21
ATOM     21  C   UNL A   1      35.895  22.882  23.882  1.00  0.00    -0.021 A 
ATOM     22  C   UNL A   1      35.872  24.021  24.781  1.00  0.00     0.024 A 
ATOM     23  C   UNL A   1      36.800  21.913  24.101  1.00  0.00     0.077 A 
ATOM     24  C   UNL A   1      36.824  24.181  25.709  1.00  0.00     0.095 A 
ATOM     25  C   UNL A   1      37.811  22.024  25.196  1.00  0.00     0.255 A 
ATOM     26  N   UNL A   1      37.807  23.231  25.885  1.00  0.00    -0.258 N 
ATOM     27  O   UNL A   1      38.548  21.081  25.400  1.00  0.00    -0.269 OA
BRANCH  26  28
ATOM     28  C   UNL A   1      38.818  23.405  26.899  1.00  0.00     0.451 C 
ATOM     29  F   UNL A   1      40.017  23.672  26.330  1.00  0.00    -0.185 F 
ATOM     30  F   UNL A   1      38.505  24.425  27.726  1.00  0.00    -0.185 F 
ENDBRANCH  26  28
ENDBRANCH  20  21
ENDBRANCH  15  20
ENDBRANCH   7   8
ENDBRANCH   4   7
ENDBRANCH   2   3
ENDBRANCH   1   2
BRANCH   1  31
ATOM     31  C   UNL A   1      31.455  28.864  26.779  1.00  0.00     0.023 C 
BRANCH  31  32
ATOM     32  C   UNL A   1      31.919  29.952  25.803  1.00  0.00     0.116 C 
BRANCH  32  33
ATOM     33  N   UNL A   1      31.510  31.296  26.166  1.00  0.00    -0.352 N 
ATOM     34  C   UNL A   1      32.114  32.340  26.818  1.00  0.00     0.251 C 
ATOM     35  H   UNL A   1      30.591  31.505  25.880  1.00  0.00     0.163 HD
ATOM     36  O   UNL A   1      31.460  33.387  26.864  1.00  0.00    -0.269 OA
BRANCH  34  37
ATOM     37  C   UNL A   1      33.429  32.270  27.520  1.00  0.00     0.039 A 
ATOM     38  C   UNL A   1      34.292  33.347  27.693  1.00  0.00     0.014 A 
ATOM     39  C   UNL A   1      33.859  30.997  27.945  1.00  0.00     0.014 A 
ATOM     40  C   UNL A   1      35.586  33.148  28.151  1.00  0.00     0.010 A 
ATOM     41  C   UNL A   1      35.153  30.792  28.426  1.00  0.00     0.010 A 
ATOM     42  C   UNL A   1      36.032  31.867  28.487  1.00  0.00    -0.014 A 
BRANCH  42  43
ATOM     43  C   UNL A   1      37.410  31.770  28.955  1.00  0.00     0.031 A 
ATOM     44  C   UNL A   1      38.068  30.448  28.745  1.00  0.00     0.074 A 
ATOM     45  C   UNL A   1      38.114  32.771  29.514  1.00  0.00     0.049 A 
ATOM     46  N   UNL A   1      38.438  29.587  29.638  1.00  0.00    -0.248 NA
ATOM     47  C   UNL A   1      38.250  30.003  27.358  1.00  0.00     0.031 C 
ATOM     48  C   UNL A   1      37.793  34.197  29.570  1.00  0.00     0.029 A 
ATOM     49  N   UNL A   1      39.356  32.704  30.075  1.00  0.00    -0.354 N 
ATOM     50  C   UNL A   1      39.075  28.567  28.934  1.00  0.00     0.074 A 
ATOM     51  C   UNL A   1      38.828  28.815  27.535  1.00  0.00     0.031 C 
ATOM     52  C   UNL A   1      38.907  34.883  29.917  1.00  0.00     0.029 A 
ATOM     53  C   UNL A   1      39.961  33.938  30.248  1.00  0.00     0.049 A 
ATOM     54  H   UNL A   1      39.784  31.855  30.333  1.00  0.00     0.167 HD
ATOM     55  C   UNL A   1      39.918  27.677  29.524  1.00  0.00     0.034 A 
ATOM     56  C   UNL A   1      41.255  34.152  30.580  1.00  0.00     0.034 A 
ATOM     57  C   UNL A   1      39.814  27.660  30.953  1.00  0.00     0.049 A 
ATOM     58  C   UNL A   1      41.755  32.918  31.235  1.00  0.00     0.074 A 
ATOM     59  C   UNL A   1      38.825  27.374  31.871  1.00  0.00     0.029 A 
ATOM     60  N   UNL A   1      40.816  28.274  31.660  1.00  0.00    -0.354 N 
ATOM     61  N   UNL A   1      41.369  32.499  32.407  1.00  0.00    -0.248 NA
ATOM     62  C   UNL A   1      42.493  31.952  30.437  1.00  0.00     0.031 C 
ATOM     63  C   UNL A   1      39.086  28.231  32.979  1.00  0.00     0.029 A 
ATOM     64  C   UNL A   1      40.215  28.989  32.660  1.00  0.00     0.049 A 
ATOM     65  H   UNL A   1      41.784  28.212  31.482  1.00  0.00     0.167 HD
ATOM     66  C   UNL A   1      41.459  31.117  32.337  1.00  0.00     0.074 A 
ATOM     67  C   UNL A   1      42.281  30.851  31.162  1.00  0.00     0.031 C 
ATOM     68  C   UNL A   1      40.631  30.314  33.069  1.00  0.00     0.034 A 
BRANCH  55  69
ATOM     69  C   UNL A   1      41.067  27.011  28.818  1.00  0.00     0.023 A 
ATOM     70  C   UNL A   1      41.154  25.603  28.852  1.00  0.00     0.012 A 
ATOM     71  C   UNL A   1      42.195  27.718  28.346  1.00  0.00     0.148 A 
ATOM     72  C   UNL A   1      42.311  24.931  28.443  1.00  0.00     0.002 A 
ATOM     73  C   UNL A   1      43.311  27.044  27.866  1.00  0.00     0.091 A 
ATOM     74  F   UNL A   1      42.247  29.049  28.480  1.00  0.00    -0.205 F 
ATOM     75  C   UNL A   1      43.386  25.652  27.933  1.00  0.00     0.022 A 
BRANCH  73  76
ATOM     76  S   UNL A   1      44.683  27.946  27.140  1.00  0.00     0.127 S 
ATOM     77  O   UNL A   1      45.284  28.566  28.315  1.00  0.00    -0.237 OA
ATOM     78  O   UNL A   1      45.471  26.873  26.532  1.00  0.00    -0.237 OA
ATOM     79  O   UNL A   1      44.062  28.843  26.172  1.00  0.00    -0.744 OA
ENDBRANCH  73  76
ENDBRANCH  55  69
BRANCH  56  80
ATOM     80  C   UNL A   1      42.160  35.274  30.238  1.00  0.00     0.023 A 
ATOM     81  C   UNL A   1      43.118  35.696  31.183  1.00  0.00     0.012 A 
ATOM     82  C   UNL A   1      42.276  35.755  28.915  1.00  0.00     0.148 A 
ATOM     83  C   UNL A   1      44.179  36.533  30.815  1.00  0.00     0.002 A 
ATOM     84  C   UNL A   1      43.323  36.601  28.557  1.00  0.00     0.091 A 
ATOM     85  F   UNL A   1      41.425  35.308  27.982  1.00  0.00    -0.205 F 
ATOM     86  C   UNL A   1      44.285  36.981  29.502  1.00  0.00     0.022 A 
BRANCH  84  87
ATOM     87  S   UNL A   1      43.518  37.218  26.879  1.00  0.00     0.127 S 
ATOM     88  O   UNL A   1      44.923  37.632  26.861  1.00  0.00    -0.237 OA
ATOM     89  O   UNL A   1      43.222  36.032  26.082  1.00  0.00    -0.237 OA
ATOM     90  O   UNL A   1      42.575  38.323  26.756  1.00  0.00    -0.744 OA
ENDBRANCH  84  87
ENDBRANCH  56  80
BRANCH  68  91
ATOM     91  C   UNL A   1      39.815  30.945  34.168  1.00  0.00     0.023 A 
ATOM     92  C   UNL A   1      40.317  31.037  35.483  1.00  0.00     0.012 A 
ATOM     93  C   UNL A   1      38.639  31.638  33.834  1.00  0.00     0.148 A 
ATOM     94  C   UNL A   1      39.653  31.795  36.449  1.00  0.00     0.002 A 
ATOM     95  C   UNL A   1      38.002  32.423  34.789  1.00  0.00     0.091 A 
ATOM     96  F   UNL A   1      38.193  31.558  32.571  1.00  0.00    -0.205 F 
ATOM     97  C   UNL A   1      38.503  32.498  36.100  1.00  0.00     0.022 A 
BRANCH  95  98
ATOM     98  S   UNL A   1      36.589  33.458  34.391  1.00  0.00     0.127 S 
ATOM     99  O   UNL A   1      37.217  34.586  33.703  1.00  0.00    -0.237 OA
ATOM    100  O   UNL A   1      35.796  32.583  33.527  1.00  0.00    -0.237 OA
ATOM    101  O   UNL A   1      35.952  33.783  35.661  1.00  0.00    -0.744 OA
ENDBRANCH  95  98
ENDBRANCH  68  91
ENDBRANCH  42  43
ENDBRANCH  34  37
ENDBRANCH  32  33
ENDBRANCH  31  32
ENDBRANCH   1  31
TORSDOF 19
ENDMDL
MODEL 3
REMARK VINA RESULT:     -12.1      1.922      3.297
REMARK SMILES COc1ccc2c(c1)c(CC(=O)NCCCCNC(=O)c1ccc(-c3c4nc(c(-c5cccc(S(=O)(=O)[O-])c5F)c5ccc([nH]5)c(-c5cccc(S(=O)(=O)[O-])c5F)c5nc(c(-c6cccc(S(=O)(=O)[O-])c6F)c6ccc3[nH]6)C=C5)C=C4)cc1)c(C)n2Cc1ccn(C(F)F)c(=O)c1
REMARK SMILES IDX 15 1 14 2 13 3 11 4 12 5 10 7 9 8 3 9 4 10 8 11 5 12 7 13
REMARK SMILES IDX 6 14 86 15 84 16 85 17 2 18 1 19 87 20 88 21 89 22 97 23
REMARK SMILES IDX 90 24 95 25 91 26 96 27 92 28 93 29 94 30 16 31 17 32 18 33
REMARK SMILES IDX 19 34 20 36 21 37 22 38 83 39 23 40 82 41 24 42 25 43 26 44
REMARK SMILES IDX 76 45 27 46 81 47 75 48 77 49 28 50 80 51 74 52 73 53 29 55
REMARK SMILES IDX 61 56 41 57 60 58 42 59 45 60 59 61 78 62 43 63 44 64 58 66
REMARK SMILES IDX 79 67 46 68 30 69 31 70 39 71 32 72 34 73 40 74 33 75 35 76
REMARK SMILES IDX 36 77 37 78 38 79 62 80 63 81 71 82 64 83 66 84 72 85 65 86
REMARK SMILES IDX 67 87 68 88 69 89 70 90 47 91 48 92 56 93 49 94 51 95 57 96
REMARK SMILES IDX 50 97 52 98 53 99 54 100 55 101
REMARK H PARENT 13 6 18 35 77 54 45 65
REMARK Flexibility Score: inf
ROOT
ATOM      1  C   UNL A   1      34.366  30.058  27.043  1.00  0.00     0.023 C 
ENDROOT
BRANCH   1   2
ATOM      2  C   UNL A   1      33.497  29.174  26.154  1.00  0.00     0.116 C 
BRANCH   2   3
ATOM      3  N   UNL A   1      33.520  29.591  24.765  1.00  0.00    -0.356 N 
ATOM      4  C   UNL A   1      33.692  28.836  23.639  1.00  0.00     0.224 C 
ATOM      5  O   UNL A   1      33.615  29.400  22.544  1.00  0.00    -0.275 OA
ATOM      6  H   UNL A   1      33.393  30.555  24.612  1.00  0.00     0.163 HD
BRANCH   4   7
ATOM      7  C   UNL A   1      33.878  27.328  23.735  1.00  0.00     0.138 C 
BRANCH   7   8
ATOM      8  C   UNL A   1      32.669  26.607  24.251  1.00  0.00    -0.010 A 
ATOM      9  C   UNL A   1      29.304  27.998  23.115  1.00  0.00     0.119 A 
ATOM     10  C   UNL A   1      28.526  26.991  23.674  1.00  0.00     0.048 A 
ATOM     11  C   UNL A   1      30.695  27.942  23.206  1.00  0.00     0.057 A 
ATOM     12  C   UNL A   1      29.116  25.931  24.378  1.00  0.00     0.031 A 
ATOM     13  C   UNL A   1      31.311  26.909  23.943  1.00  0.00     0.007 A 
ATOM     14  C   UNL A   1      30.516  25.920  24.525  1.00  0.00     0.049 A 
ATOM     15  N   UNL A   1      31.374  25.033  25.162  1.00  0.00    -0.340 N 
ATOM     16  C   UNL A   1      32.658  25.555  25.159  1.00  0.00     0.020 A 
ATOM     17  C   UNL A   1      33.802  25.011  25.942  1.00  0.00     0.065 C 
BRANCH   9  18
ATOM     18  O   UNL A   1      28.798  29.054  22.404  1.00  0.00    -0.497 OA
ATOM     19  C   UNL A   1      29.297  30.321  22.821  1.00  0.00     0.278 C 
ENDBRANCH   9  18
BRANCH  15  20
ATOM     20  C   UNL A   1      30.962  23.759  25.763  1.00  0.00     0.158 C 
BRANCH  20  21
ATOM     21  C   UNL A   1      31.442  22.553  24.985  1.00  0.00    -0.021 A 
ATOM     22  C   UNL A   1      31.625  22.660  23.549  1.00  0.00     0.024 A 
ATOM     23  C   UNL A   1      31.751  21.392  25.584  1.00  0.00     0.077 A 
ATOM     24  C   UNL A   1      31.946  21.584  22.818  1.00  0.00     0.095 A 
ATOM     25  C   UNL A   1      32.208  20.205  24.798  1.00  0.00     0.255 A 
ATOM     26  N   UNL A   1      32.184  20.366  23.418  1.00  0.00    -0.258 N 
ATOM     27  O   UNL A   1      32.554  19.210  25.400  1.00  0.00    -0.269 OA
BRANCH  26  28
ATOM     28  C   UNL A   1      32.546  19.219  22.621  1.00  0.00     0.451 C 
ATOM     29  F   UNL A   1      31.886  18.118  23.053  1.00  0.00    -0.185 F 
ATOM     30  F   UNL A   1      32.240  19.414  21.321  1.00  0.00    -0.185 F 
ENDBRANCH  26  28
ENDBRANCH  20  21
ENDBRANCH  15  20
ENDBRANCH   7   8
ENDBRANCH   4   7
ENDBRANCH   2   3
ENDBRANCH   1   2
BRANCH   1  31
ATOM     31  C   UNL A   1      33.713  31.373  27.482  1.00  0.00     0.023 C 
BRANCH  31  32
ATOM     32  C   UNL A   1      34.656  32.384  28.145  1.00  0.00     0.116 C 
BRANCH  32  33
ATOM     33  N   UNL A   1      34.400  32.606  29.555  1.00  0.00    -0.352 N 
ATOM     34  C   UNL A   1      35.083  32.325  30.710  1.00  0.00     0.251 C 
ATOM     35  H   UNL A   1      33.542  33.059  29.720  1.00  0.00     0.163 HD
ATOM     36  O   UNL A   1      34.571  32.756  31.748  1.00  0.00    -0.269 OA
BRANCH  34  37
ATOM     37  C   UNL A   1      36.319  31.493  30.797  1.00  0.00     0.039 A 
ATOM     38  C   UNL A   1      37.607  32.001  30.934  1.00  0.00     0.014 A 
ATOM     39  C   UNL A   1      36.165  30.103  30.628  1.00  0.00     0.014 A 
ATOM     40  C   UNL A   1      38.711  31.176  30.779  1.00  0.00     0.010 A 
ATOM     41  C   UNL A   1      37.272  29.263  30.492  1.00  0.00     0.010 A 
ATOM     42  C   UNL A   1      38.549  29.813  30.523  1.00  0.00    -0.014 A 
BRANCH  42  43
ATOM     43  C   UNL A   1      39.775  29.038  30.374  1.00  0.00     0.031 A 
ATOM     44  C   UNL A   1      40.543  28.801  31.631  1.00  0.00     0.074 A 
ATOM     45  C   UNL A   1      40.227  28.510  29.222  1.00  0.00     0.049 A 
ATOM     46  N   UNL A   1      41.704  29.270  31.960  1.00  0.00    -0.248 NA
ATOM     47  C   UNL A   1      39.883  28.014  32.680  1.00  0.00     0.031 C 
ATOM     48  C   UNL A   1      39.531  28.370  27.943  1.00  0.00     0.029 A 
ATOM     49  N   UNL A   1      41.420  27.884  29.003  1.00  0.00    -0.354 N 
ATOM     50  C   UNL A   1      42.010  28.683  33.187  1.00  0.00     0.074 A 
ATOM     51  C   UNL A   1      40.812  28.017  33.636  1.00  0.00     0.031 C 
ATOM     52  C   UNL A   1      40.216  27.500  27.165  1.00  0.00     0.029 A 
ATOM     53  C   UNL A   1      41.460  27.149  27.830  1.00  0.00     0.049 A 
ATOM     54  H   UNL A   1      42.182  27.949  29.623  1.00  0.00     0.167 HD
ATOM     55  C   UNL A   1      43.276  28.625  33.683  1.00  0.00     0.034 A 
ATOM     56  C   UNL A   1      42.426  26.271  27.472  1.00  0.00     0.034 A 
ATOM     57  C   UNL A   1      44.185  29.512  33.019  1.00  0.00     0.049 A 
ATOM     58  C   UNL A   1      43.646  26.615  28.242  1.00  0.00     0.074 A 
ATOM     59  C   UNL A   1      44.288  30.876  32.842  1.00  0.00     0.029 A 
ATOM     60  N   UNL A   1      45.071  28.952  32.134  1.00  0.00    -0.354 N 
ATOM     61  N   UNL A   1      44.353  27.695  28.057  1.00  0.00    -0.248 NA
ATOM     62  C   UNL A   1      43.933  25.883  29.465  1.00  0.00     0.031 C 
ATOM     63  C   UNL A   1      44.885  31.042  31.560  1.00  0.00     0.029 A 
ATOM     64  C   UNL A   1      45.102  29.766  31.035  1.00  0.00     0.049 A 
ATOM     65  H   UNL A   1      45.586  28.121  32.264  1.00  0.00     0.167 HD
ATOM     66  C   UNL A   1      44.877  27.995  29.305  1.00  0.00     0.074 A 
ATOM     67  C   UNL A   1      44.700  26.778  30.090  1.00  0.00     0.031 C 
ATOM     68  C   UNL A   1      45.148  29.282  29.671  1.00  0.00     0.034 A 
BRANCH  55  69
ATOM     69  C   UNL A   1      43.774  27.536  34.594  1.00  0.00     0.023 A 
ATOM     70  C   UNL A   1      44.446  27.906  35.778  1.00  0.00     0.012 A 
ATOM     71  C   UNL A   1      43.835  26.180  34.211  1.00  0.00     0.148 A 
ATOM     72  C   UNL A   1      45.152  26.968  36.541  1.00  0.00     0.002 A 
ATOM     73  C   UNL A   1      44.469  25.238  35.012  1.00  0.00     0.091 A 
ATOM     74  F   UNL A   1      43.393  25.811  33.001  1.00  0.00    -0.205 F 
ATOM     75  C   UNL A   1      45.149  25.629  36.166  1.00  0.00     0.022 A 
BRANCH  73  76
ATOM     76  S   UNL A   1      44.422  23.494  34.588  1.00  0.00     0.127 S 
ATOM     77  O   UNL A   1      45.092  22.893  35.736  1.00  0.00    -0.237 OA
ATOM     78  O   UNL A   1      42.983  23.236  34.503  1.00  0.00    -0.237 OA
ATOM     79  O   UNL A   1      45.114  23.408  33.308  1.00  0.00    -0.744 OA
ENDBRANCH  73  76
ENDBRANCH  55  69
BRANCH  56  80
ATOM     80  C   UNL A   1      42.349  25.048  26.640  1.00  0.00     0.023 A 
ATOM     81  C   UNL A   1      43.334  24.824  25.656  1.00  0.00     0.012 A 
ATOM     82  C   UNL A   1      41.489  23.978  26.973  1.00  0.00     0.148 A 
ATOM     83  C   UNL A   1      43.485  23.569  25.054  1.00  0.00     0.002 A 
ATOM     84  C   UNL A   1      41.632  22.736  26.359  1.00  0.00     0.091 A 
ATOM     85  F   UNL A   1      40.597  24.142  27.959  1.00  0.00    -0.205 F 
ATOM     86  C   UNL A   1      42.639  22.524  25.409  1.00  0.00     0.022 A 
BRANCH  84  87
ATOM     87  S   UNL A   1      40.571  21.343  26.770  1.00  0.00     0.127 S 
ATOM     88  O   UNL A   1      40.710  21.265  28.226  1.00  0.00    -0.237 OA
ATOM     89  O   UNL A   1      39.266  21.806  26.307  1.00  0.00    -0.237 OA
ATOM     90  O   UNL A   1      41.132  20.200  26.061  1.00  0.00    -0.744 OA
ENDBRANCH  84  87
ENDBRANCH  56  80
BRANCH  68  91
ATOM     91  C   UNL A   1      45.141  30.343  28.601  1.00  0.00     0.023 A 
ATOM     92  C   UNL A   1      43.937  30.947  28.184  1.00  0.00     0.012 A 
ATOM     93  C   UNL A   1      46.364  30.887  28.171  1.00  0.00     0.148 A 
ATOM     94  C   UNL A   1      43.950  32.064  27.345  1.00  0.00     0.002 A 
ATOM     95  C   UNL A   1      46.374  32.022  27.368  1.00  0.00     0.091 A 
ATOM     96  F   UNL A   1      47.499  30.313  28.599  1.00  0.00    -0.205 F 
ATOM     97  C   UNL A   1      45.168  32.609  26.947  1.00  0.00     0.022 A 
BRANCH  95  98
ATOM     98  S   UNL A   1      47.897  32.861  26.912  1.00  0.00     0.127 S 
ATOM     99  O   UNL A   1      48.726  31.755  26.434  1.00  0.00    -0.237 OA
ATOM    100  O   UNL A   1      47.445  33.780  25.867  1.00  0.00    -0.237 OA
ATOM    101  O   UNL A   1      48.377  33.517  28.122  1.00  0.00    -0.744 OA
ENDBRANCH  95  98
ENDBRANCH  68  91
ENDBRANCH  42  43
ENDBRANCH  34  37
ENDBRANCH  32  33
ENDBRANCH  31  32
ENDBRANCH   1  31
TORSDOF 19
ENDMDL
