MODEL 1
REMARK VINA RESULT:     -10.6      0.000      0.000
REMARK SMILES O=C(NCCCCNC(=O)c1nc(/N=C/c2cccc([N+](=O)[O-])c2)n[nH]1)c1ccc(-c2c3nc(c(-c4cccc(S(=O)(=O)[O-])c4F)c4ccc([nH]4)c(-c4cccc(S(=O)(=O)[O-])c4F)c4nc(c(-c5cccc(S(=O)(=O)[O-])c5F)c5ccc2[nH]5)C=C4)C=C3)cc1
REMARK SMILES IDX 5 1 4 2 3 3 1 4 2 5 27 7 28 8 89 9 29 10 88 11 30 12 31 13
REMARK SMILES IDX 32 14 82 15 33 16 87 17 81 18 83 19 34 20 86 21 80 22 79 23
REMARK SMILES IDX 35 25 67 26 47 27 66 28 48 29 51 30 65 31 84 32 49 33 50 34
REMARK SMILES IDX 64 36 85 37 52 38 36 39 37 40 45 41 38 42 40 43 46 44 39 45
REMARK SMILES IDX 41 46 42 47 43 48 44 49 68 50 69 51 77 52 70 53 72 54 78 55
REMARK SMILES IDX 71 56 73 57 74 58 75 59 76 60 53 61 54 62 62 63 55 64 57 65
REMARK SMILES IDX 63 66 56 67 58 68 59 69 60 70 61 71 6 72 7 73 8 74 9 75
REMARK SMILES IDX 10 77 11 78 12 79 26 80 13 81 25 82 14 84 15 85 16 86 17 87
REMARK SMILES IDX 24 88 18 89 20 90 19 91 21 92 22 93 23 94
REMARK H PARENT 3 6 83 24 51 35 8 76 26 83
REMARK Flexibility Score: inf
ROOT
ATOM      1  C   UNL A   1      34.517  33.773  29.155  1.00  0.00     0.023 C 
ENDROOT
BRANCH   1   2
ATOM      2  C   UNL A   1      35.049  32.945  27.992  1.00  0.00     0.116 C 
BRANCH   2   3
ATOM      3  N   UNL A   1      34.257  31.753  27.736  1.00  0.00    -0.352 N 
ATOM      4  O   UNL A   1      33.885  29.566  27.343  1.00  0.00    -0.269 OA
ATOM      5  C   UNL A   1      34.659  30.438  27.723  1.00  0.00     0.251 C 
ATOM      6  H   UNL A   1      33.304  31.908  27.545  1.00  0.00     0.163 HD
BRANCH   5   7
ATOM      7  C   UNL A   1      36.036  30.097  28.139  1.00  0.00     0.039 A 
ATOM      8  C   UNL A   1      37.092  30.177  27.228  1.00  0.00     0.014 A 
ATOM      9  C   UNL A   1      36.267  29.672  29.450  1.00  0.00     0.014 A 
ATOM     10  C   UNL A   1      38.346  29.695  27.581  1.00  0.00     0.010 A 
ATOM     11  C   UNL A   1      37.551  29.270  29.828  1.00  0.00     0.010 A 
ATOM     12  C   UNL A   1      38.593  29.247  28.889  1.00  0.00    -0.014 A 
BRANCH  12  13
ATOM     13  C   UNL A   1      39.967  28.838  29.271  1.00  0.00     0.031 A 
ATOM     14  C   UNL A   1      40.777  29.635  30.255  1.00  0.00     0.074 A 
ATOM     15  C   UNL A   1      40.489  27.736  28.700  1.00  0.00     0.049 A 
ATOM     16  N   UNL A   1      41.989  29.406  30.694  1.00  0.00    -0.248 NA
ATOM     17  C   UNL A   1      40.159  30.848  30.811  1.00  0.00     0.031 C 
ATOM     18  C   UNL A   1      39.817  26.918  27.688  1.00  0.00     0.029 A 
ATOM     19  N   UNL A   1      41.704  27.124  28.869  1.00  0.00    -0.354 N 
ATOM     20  C   UNL A   1      42.296  30.463  31.542  1.00  0.00     0.074 A 
ATOM     21  C   UNL A   1      41.143  31.340  31.553  1.00  0.00     0.031 C 
ATOM     22  C   UNL A   1      40.622  25.909  27.332  1.00  0.00     0.029 A 
ATOM     23  C   UNL A   1      41.886  26.036  28.049  1.00  0.00     0.049 A 
ATOM     24  H   UNL A   1      42.381  27.433  29.515  1.00  0.00     0.167 HD
ATOM     25  C   UNL A   1      43.428  30.675  32.256  1.00  0.00     0.034 A 
ATOM     26  C   UNL A   1      42.957  25.241  27.870  1.00  0.00     0.034 A 
ATOM     27  C   UNL A   1      44.556  29.781  32.265  1.00  0.00     0.049 A 
ATOM     28  C   UNL A   1      44.186  25.480  28.696  1.00  0.00     0.074 A 
ATOM     29  C   UNL A   1      45.712  29.863  33.022  1.00  0.00     0.029 A 
ATOM     30  N   UNL A   1      44.680  28.651  31.469  1.00  0.00    -0.354 N 
ATOM     31  N   UNL A   1      44.397  26.397  29.608  1.00  0.00    -0.248 NA
ATOM     32  C   UNL A   1      45.311  24.558  28.495  1.00  0.00     0.031 C 
ATOM     33  C   UNL A   1      46.545  28.796  32.665  1.00  0.00     0.029 A 
ATOM     34  C   UNL A   1      45.898  28.036  31.704  1.00  0.00     0.049 A 
ATOM     35  H   UNL A   1      44.000  28.333  30.833  1.00  0.00     0.167 HD
ATOM     36  C   UNL A   1      45.671  26.154  30.103  1.00  0.00     0.074 A 
ATOM     37  C   UNL A   1      46.172  24.984  29.410  1.00  0.00     0.031 C 
ATOM     38  C   UNL A   1      46.369  26.848  31.037  1.00  0.00     0.034 A 
BRANCH  25  39
ATOM     39  C   UNL A   1      43.493  31.909  33.119  1.00  0.00     0.023 A 
ATOM     40  C   UNL A   1      43.147  31.825  34.483  1.00  0.00     0.012 A 
ATOM     41  C   UNL A   1      43.957  33.134  32.600  1.00  0.00     0.148 A 
ATOM     42  C   UNL A   1      43.230  32.948  35.309  1.00  0.00     0.002 A 
ATOM     43  C   UNL A   1      44.075  34.238  33.438  1.00  0.00     0.091 A 
ATOM     44  F   UNL A   1      44.261  33.204  31.296  1.00  0.00    -0.205 F 
ATOM     45  C   UNL A   1      43.703  34.149  34.789  1.00  0.00     0.022 A 
BRANCH  43  46
ATOM     46  S   UNL A   1      44.745  35.807  32.875  1.00  0.00     0.127 S 
ATOM     47  O   UNL A   1      43.789  36.180  31.834  1.00  0.00    -0.237 OA
ATOM     48  O   UNL A   1      44.678  36.628  34.086  1.00  0.00    -0.237 OA
ATOM     49  O   UNL A   1      46.098  35.520  32.417  1.00  0.00    -0.744 OA
ENDBRANCH  43  46
ENDBRANCH  25  39
BRANCH  26  50
ATOM     50  C   UNL A   1      42.879  24.130  26.882  1.00  0.00     0.023 A 
ATOM     51  C   UNL A   1      43.543  24.249  25.647  1.00  0.00     0.012 A 
ATOM     52  C   UNL A   1      42.220  22.926  27.197  1.00  0.00     0.148 A 
ATOM     53  C   UNL A   1      43.539  23.191  24.736  1.00  0.00     0.002 A 
ATOM     54  C   UNL A   1      42.272  21.856  26.313  1.00  0.00     0.091 A 
ATOM     55  F   UNL A   1      41.584  22.839  28.375  1.00  0.00    -0.205 F 
ATOM     56  C   UNL A   1      42.918  21.991  25.076  1.00  0.00     0.022 A 
BRANCH  54  57
ATOM     57  S   UNL A   1      41.634  20.230  26.736  1.00  0.00     0.127 S 
ATOM     58  O   UNL A   1      41.811  19.505  25.481  1.00  0.00    -0.237 OA
ATOM     59  O   UNL A   1      42.534  19.824  27.817  1.00  0.00    -0.237 OA
ATOM     60  O   UNL A   1      40.256  20.448  27.156  1.00  0.00    -0.744 OA
ENDBRANCH  54  57
ENDBRANCH  26  50
BRANCH  38  61
ATOM     61  C   UNL A   1      47.750  26.355  31.377  1.00  0.00     0.023 A 
ATOM     62  C   UNL A   1      48.846  26.751  30.585  1.00  0.00     0.012 A 
ATOM     63  C   UNL A   1      47.970  25.559  32.517  1.00  0.00     0.148 A 
ATOM     64  C   UNL A   1      50.138  26.338  30.907  1.00  0.00     0.002 A 
ATOM     65  C   UNL A   1      49.266  25.189  32.858  1.00  0.00     0.091 A 
ATOM     66  F   UNL A   1      46.912  25.175  33.244  1.00  0.00    -0.205 F 
ATOM     67  C   UNL A   1      50.350  25.568  32.049  1.00  0.00     0.022 A 
BRANCH  65  68
ATOM     68  S   UNL A   1      49.642  24.275  34.359  1.00  0.00     0.127 S 
ATOM     69  O   UNL A   1      51.099  24.184  34.295  1.00  0.00    -0.237 OA
ATOM     70  O   UNL A   1      49.131  25.167  35.401  1.00  0.00    -0.237 OA
ATOM     71  O   UNL A   1      48.928  23.010  34.246  1.00  0.00    -0.744 OA
ENDBRANCH  65  68
ENDBRANCH  38  61
ENDBRANCH  12  13
ENDBRANCH   5   7
ENDBRANCH   2   3
ENDBRANCH   1   2
BRANCH   1  72
ATOM     72  C   UNL A   1      33.285  34.616  28.833  1.00  0.00     0.023 C 
BRANCH  72  73
ATOM     73  C   UNL A   1      33.391  36.081  29.256  1.00  0.00     0.116 C 
BRANCH  73  74
ATOM     74  N   UNL A   1      32.396  36.417  30.264  1.00  0.00    -0.349 N 
ATOM     75  C   UNL A   1      32.395  36.107  31.604  1.00  0.00     0.288 C 
ATOM     76  H   UNL A   1      31.621  36.933  29.944  1.00  0.00     0.163 HD
ATOM     77  O   UNL A   1      31.347  36.249  32.237  1.00  0.00    -0.266 OA
BRANCH  75  78
ATOM     78  C   UNL A   1      33.594  35.606  32.221  1.00  0.00     0.216 A 
ATOM     79  N   UNL A   1      33.896  34.347  32.468  1.00  0.00    -0.185 NA
ATOM     80  N   UNL A   1      34.636  36.387  32.625  1.00  0.00    -0.253 N 
ATOM     81  C   UNL A   1      35.098  34.428  33.103  1.00  0.00     0.268 A 
ATOM     82  N   UNL A   1      35.592  35.659  33.226  1.00  0.00    -0.132 NA
ATOM     83  H   UNL A   1      34.682  37.362  32.492  1.00  0.00     0.192 HD
BRANCH  81  84
ATOM     84  N   UNL A   1      35.755  33.354  33.696  1.00  0.00    -0.218 NA
ATOM     85  C   UNL A   1      37.021  33.375  33.443  1.00  0.00     0.123 C 
BRANCH  85  86
ATOM     86  C   UNL A   1      37.908  32.292  33.910  1.00  0.00    -0.000 A 
ATOM     87  C   UNL A   1      38.877  32.583  34.878  1.00  0.00     0.010 A 
ATOM     88  C   UNL A   1      37.788  31.003  33.384  1.00  0.00     0.095 A 
ATOM     89  C   UNL A   1      39.718  31.572  35.345  1.00  0.00     0.008 A 
ATOM     90  C   UNL A   1      38.645  30.000  33.849  1.00  0.00     0.270 A 
ATOM     91  C   UNL A   1      39.605  30.277  34.834  1.00  0.00     0.085 A 
BRANCH  90  92
ATOM     92  N   UNL A   1      38.542  28.643  33.299  1.00  0.00     0.062 N 
ATOM     93  O   UNL A   1      37.406  28.192  33.093  1.00  0.00    -0.258 OA
ATOM     94  O   UNL A   1      39.593  28.028  33.073  1.00  0.00    -0.258 OA
ENDBRANCH  90  92
ENDBRANCH  85  86
ENDBRANCH  81  84
ENDBRANCH  75  78
ENDBRANCH  73  74
ENDBRANCH  72  73
ENDBRANCH   1  72
TORSDOF 17
ENDMDL
MODEL 2
REMARK VINA RESULT:     -10.5      4.334      7.021
REMARK SMILES O=C(NCCCCNC(=O)c1nc(/N=C/c2cccc([N+](=O)[O-])c2)n[nH]1)c1ccc(-c2c3nc(c(-c4cccc(S(=O)(=O)[O-])c4F)c4ccc([nH]4)c(-c4cccc(S(=O)(=O)[O-])c4F)c4nc(c(-c5cccc(S(=O)(=O)[O-])c5F)c5ccc2[nH]5)C=C4)C=C3)cc1
REMARK SMILES IDX 5 1 4 2 3 3 1 4 2 5 27 7 28 8 89 9 29 10 88 11 30 12 31 13
REMARK SMILES IDX 32 14 82 15 33 16 87 17 81 18 83 19 34 20 86 21 80 22 79 23
REMARK SMILES IDX 35 25 67 26 47 27 66 28 48 29 51 30 65 31 84 32 49 33 50 34
REMARK SMILES IDX 64 36 85 37 52 38 36 39 37 40 45 41 38 42 40 43 46 44 39 45
REMARK SMILES IDX 41 46 42 47 43 48 44 49 68 50 69 51 77 52 70 53 72 54 78 55
REMARK SMILES IDX 71 56 73 57 74 58 75 59 76 60 53 61 54 62 62 63 55 64 57 65
REMARK SMILES IDX 63 66 56 67 58 68 59 69 60 70 61 71 6 72 7 73 8 74 9 75
REMARK SMILES IDX 10 77 11 78 12 79 26 80 13 81 25 82 14 84 15 85 16 86 17 87
REMARK SMILES IDX 24 88 18 89 20 90 19 91 21 92 22 93 23 94
REMARK H PARENT 3 6 83 24 51 35 8 76 26 83
REMARK Flexibility Score: inf
ROOT
ATOM      1  C   UNL A   1      33.073  28.226  26.770  1.00  0.00     0.023 C 
ENDROOT
BRANCH   1   2
ATOM      2  C   UNL A   1      34.235  29.182  26.535  1.00  0.00     0.116 C 
BRANCH   2   3
ATOM      3  N   UNL A   1      33.953  30.537  26.981  1.00  0.00    -0.352 N 
ATOM      4  O   UNL A   1      34.171  32.376  28.264  1.00  0.00    -0.269 OA
ATOM      5  C   UNL A   1      34.635  31.302  27.898  1.00  0.00     0.251 C 
ATOM      6  H   UNL A   1      33.166  30.964  26.572  1.00  0.00     0.163 HD
BRANCH   5   7
ATOM      7  C   UNL A   1      35.909  30.800  28.455  1.00  0.00     0.039 A 
ATOM      8  C   UNL A   1      37.130  31.261  27.956  1.00  0.00     0.014 A 
ATOM      9  C   UNL A   1      35.880  29.844  29.473  1.00  0.00     0.014 A 
ATOM     10  C   UNL A   1      38.314  30.662  28.368  1.00  0.00     0.010 A 
ATOM     11  C   UNL A   1      37.079  29.306  29.949  1.00  0.00     0.010 A 
ATOM     12  C   UNL A   1      38.303  29.686  29.377  1.00  0.00    -0.014 A 
BRANCH  12  13
ATOM     13  C   UNL A   1      39.589  29.139  29.876  1.00  0.00     0.031 A 
ATOM     14  C   UNL A   1      40.323  29.779  31.020  1.00  0.00     0.074 A 
ATOM     15  C   UNL A   1      40.103  28.054  29.264  1.00  0.00     0.049 A 
ATOM     16  N   UNL A   1      41.453  29.418  31.573  1.00  0.00    -0.248 NA
ATOM     17  C   UNL A   1      39.723  30.982  31.616  1.00  0.00     0.031 C 
ATOM     18  C   UNL A   1      39.508  27.384  28.105  1.00  0.00     0.029 A 
ATOM     19  N   UNL A   1      41.244  27.336  29.513  1.00  0.00    -0.354 N 
ATOM     20  C   UNL A   1      41.723  30.368  32.550  1.00  0.00     0.074 A 
ATOM     21  C   UNL A   1      40.639  31.327  32.512  1.00  0.00     0.031 C 
ATOM     22  C   UNL A   1      40.281  26.351  27.748  1.00  0.00     0.029 A 
ATOM     23  C   UNL A   1      41.452  26.315  28.616  1.00  0.00     0.049 A 
ATOM     24  H   UNL A   1      41.855  27.533  30.260  1.00  0.00     0.167 HD
ATOM     25  C   UNL A   1      42.770  30.427  33.408  1.00  0.00     0.034 A 
ATOM     26  C   UNL A   1      42.482  25.458  28.486  1.00  0.00     0.034 A 
ATOM     27  C   UNL A   1      43.826  29.450  33.461  1.00  0.00     0.049 A 
ATOM     28  C   UNL A   1      43.613  25.526  29.470  1.00  0.00     0.074 A 
ATOM     29  C   UNL A   1      44.884  29.373  34.352  1.00  0.00     0.029 A 
ATOM     30  N   UNL A   1      43.972  28.389  32.579  1.00  0.00    -0.354 N 
ATOM     31  N   UNL A   1      43.770  26.339  30.485  1.00  0.00    -0.248 NA
ATOM     32  C   UNL A   1      44.691  24.541  29.311  1.00  0.00     0.031 C 
ATOM     33  C   UNL A   1      45.681  28.281  33.992  1.00  0.00     0.029 A 
ATOM     34  C   UNL A   1      45.108  27.662  32.892  1.00  0.00     0.049 A 
ATOM     35  H   UNL A   1      43.356  28.183  31.839  1.00  0.00     0.167 HD
ATOM     36  C   UNL A   1      44.955  25.954  31.100  1.00  0.00     0.074 A 
ATOM     37  C   UNL A   1      45.459  24.815  30.358  1.00  0.00     0.031 C 
ATOM     38  C   UNL A   1      45.577  26.506  32.171  1.00  0.00     0.034 A 
BRANCH  25  39
ATOM     39  C   UNL A   1      42.811  31.570  34.390  1.00  0.00     0.023 A 
ATOM     40  C   UNL A   1      43.555  32.727  34.082  1.00  0.00     0.012 A 
ATOM     41  C   UNL A   1      42.065  31.527  35.585  1.00  0.00     0.148 A 
ATOM     42  C   UNL A   1      43.582  33.810  34.962  1.00  0.00     0.002 A 
ATOM     43  C   UNL A   1      42.065  32.626  36.437  1.00  0.00     0.091 A 
ATOM     44  F   UNL A   1      41.382  30.411  35.874  1.00  0.00    -0.205 F 
ATOM     45  C   UNL A   1      42.830  33.764  36.132  1.00  0.00     0.022 A 
BRANCH  43  46
ATOM     46  S   UNL A   1      41.068  32.687  37.931  1.00  0.00     0.127 S 
ATOM     47  O   UNL A   1      41.878  31.900  38.859  1.00  0.00    -0.237 OA
ATOM     48  O   UNL A   1      41.029  34.121  38.222  1.00  0.00    -0.237 OA
ATOM     49  O   UNL A   1      39.779  32.110  37.572  1.00  0.00    -0.744 OA
ENDBRANCH  43  46
ENDBRANCH  25  39
BRANCH  26  50
ATOM     50  C   UNL A   1      42.452  24.449  27.393  1.00  0.00     0.023 A 
ATOM     51  C   UNL A   1      43.139  24.705  26.191  1.00  0.00     0.012 A 
ATOM     52  C   UNL A   1      41.818  23.205  27.572  1.00  0.00     0.148 A 
ATOM     53  C   UNL A   1      43.180  23.743  25.181  1.00  0.00     0.002 A 
ATOM     54  C   UNL A   1      41.915  22.229  26.588  1.00  0.00     0.091 A 
ATOM     55  F   UNL A   1      41.160  22.987  28.721  1.00  0.00    -0.205 F 
ATOM     56  C   UNL A   1      42.582  22.502  25.385  1.00  0.00     0.022 A 
BRANCH  54  57
ATOM     57  S   UNL A   1      41.310  20.555  26.834  1.00  0.00     0.127 S 
ATOM     58  O   UNL A   1      41.684  19.916  25.576  1.00  0.00    -0.237 OA
ATOM     59  O   UNL A   1      42.081  20.123  28.001  1.00  0.00    -0.237 OA
ATOM     60  O   UNL A   1      39.880  20.689  27.079  1.00  0.00    -0.744 OA
ENDBRANCH  54  57
ENDBRANCH  26  50
BRANCH  38  61
ATOM     61  C   UNL A   1      46.870  25.878  32.620  1.00  0.00     0.023 A 
ATOM     62  C   UNL A   1      48.093  26.375  32.129  1.00  0.00     0.012 A 
ATOM     63  C   UNL A   1      46.875  24.845  33.577  1.00  0.00     0.148 A 
ATOM     64  C   UNL A   1      49.303  25.834  32.564  1.00  0.00     0.002 A 
ATOM     65  C   UNL A   1      48.085  24.342  34.039  1.00  0.00     0.091 A 
ATOM     66  F   UNL A   1      45.700  24.371  34.014  1.00  0.00    -0.205 F 
ATOM     67  C   UNL A   1      49.300  24.828  33.527  1.00  0.00     0.022 A 
BRANCH  65  68
ATOM     68  S   UNL A   1      48.179  23.109  35.343  1.00  0.00     0.127 S 
ATOM     69  O   UNL A   1      47.532  23.802  36.455  1.00  0.00    -0.237 OA
ATOM     70  O   UNL A   1      47.405  22.002  34.780  1.00  0.00    -0.237 OA
ATOM     71  O   UNL A   1      49.596  22.823  35.522  1.00  0.00    -0.744 OA
ENDBRANCH  65  68
ENDBRANCH  38  61
ENDBRANCH  12  13
ENDBRANCH   5   7
ENDBRANCH   2   3
ENDBRANCH   1   2
BRANCH   1  72
ATOM     72  C   UNL A   1      31.770  28.613  26.075  1.00  0.00     0.023 C 
BRANCH  72  73
ATOM     73  C   UNL A   1      31.944  29.154  24.657  1.00  0.00     0.116 C 
BRANCH  73  74
ATOM     74  N   UNL A   1      30.769  28.890  23.839  1.00  0.00    -0.349 N 
ATOM     75  C   UNL A   1      30.661  28.089  22.727  1.00  0.00     0.288 C 
ATOM     76  H   UNL A   1      29.942  29.346  24.118  1.00  0.00     0.163 HD
ATOM     77  O   UNL A   1      29.656  28.198  22.021  1.00  0.00    -0.266 OA
BRANCH  75  78
ATOM     78  C   UNL A   1      31.722  27.172  22.403  1.00  0.00     0.216 A 
ATOM     79  N   UNL A   1      31.821  25.909  22.767  1.00  0.00    -0.185 NA
ATOM     80  N   UNL A   1      32.797  27.483  21.624  1.00  0.00    -0.253 N 
ATOM     81  C   UNL A   1      33.022  25.524  22.252  1.00  0.00     0.268 A 
ATOM     82  N   UNL A   1      33.660  26.456  21.545  1.00  0.00    -0.132 NA
ATOM     83  H   UNL A   1      32.924  28.350  21.176  1.00  0.00     0.192 HD
BRANCH  81  84
ATOM     84  N   UNL A   1      33.636  24.301  22.502  1.00  0.00    -0.218 NA
ATOM     85  C   UNL A   1      33.062  23.672  23.473  1.00  0.00     0.123 C 
BRANCH  85  86
ATOM     86  C   UNL A   1      33.589  22.384  23.962  1.00  0.00    -0.000 A 
ATOM     87  C   UNL A   1      34.887  22.340  24.484  1.00  0.00     0.010 A 
ATOM     88  C   UNL A   1      32.807  21.227  23.892  1.00  0.00     0.095 A 
ATOM     89  C   UNL A   1      35.402  21.135  24.965  1.00  0.00     0.008 A 
ATOM     90  C   UNL A   1      33.338  20.022  24.363  1.00  0.00     0.270 A 
ATOM     91  C   UNL A   1      34.631  19.972  24.908  1.00  0.00     0.085 A 
BRANCH  90  92
ATOM     92  N   UNL A   1      32.536  18.795  24.286  1.00  0.00     0.062 N 
ATOM     93  O   UNL A   1      32.150  18.293  25.351  1.00  0.00    -0.258 OA
ATOM     94  O   UNL A   1      32.293  18.332  23.163  1.00  0.00    -0.258 OA
ENDBRANCH  90  92
ENDBRANCH  85  86
ENDBRANCH  81  84
ENDBRANCH  75  78
ENDBRANCH  73  74
ENDBRANCH  72  73
ENDBRANCH   1  72
TORSDOF 17
ENDMDL
MODEL 3
REMARK VINA RESULT:     -10.2      5.031     10.321
REMARK SMILES O=C(NCCCCNC(=O)c1nc(/N=C/c2cccc([N+](=O)[O-])c2)n[nH]1)c1ccc(-c2c3nc(c(-c4cccc(S(=O)(=O)[O-])c4F)c4ccc([nH]4)c(-c4cccc(S(=O)(=O)[O-])c4F)c4nc(c(-c5cccc(S(=O)(=O)[O-])c5F)c5ccc2[nH]5)C=C4)C=C3)cc1
REMARK SMILES IDX 5 1 4 2 3 3 1 4 2 5 27 7 28 8 89 9 29 10 88 11 30 12 31 13
REMARK SMILES IDX 32 14 82 15 33 16 87 17 81 18 83 19 34 20 86 21 80 22 79 23
REMARK SMILES IDX 35 25 67 26 47 27 66 28 48 29 51 30 65 31 84 32 49 33 50 34
REMARK SMILES IDX 64 36 85 37 52 38 36 39 37 40 45 41 38 42 40 43 46 44 39 45
REMARK SMILES IDX 41 46 42 47 43 48 44 49 68 50 69 51 77 52 70 53 72 54 78 55
REMARK SMILES IDX 71 56 73 57 74 58 75 59 76 60 53 61 54 62 62 63 55 64 57 65
REMARK SMILES IDX 63 66 56 67 58 68 59 69 60 70 61 71 6 72 7 73 8 74 9 75
REMARK SMILES IDX 10 77 11 78 12 79 26 80 13 81 25 82 14 84 15 85 16 86 17 87
REMARK SMILES IDX 24 88 18 89 20 90 19 91 21 92 22 93 23 94
REMARK H PARENT 3 6 83 24 51 35 8 76 26 83
REMARK Flexibility Score: inf
ROOT
ATOM      1  C   UNL A   1      31.537  31.719  26.998  1.00  0.00     0.023 C 
ENDROOT
BRANCH   1   2
ATOM      2  C   UNL A   1      32.801  32.568  27.039  1.00  0.00     0.116 C 
BRANCH   2   3
ATOM      3  N   UNL A   1      32.579  33.888  27.607  1.00  0.00    -0.352 N 
ATOM      4  O   UNL A   1      32.805  35.557  29.103  1.00  0.00    -0.269 OA
ATOM      5  C   UNL A   1      33.221  34.490  28.663  1.00  0.00     0.251 C 
ATOM      6  H   UNL A   1      31.872  34.422  27.178  1.00  0.00     0.163 HD
BRANCH   5   7
ATOM      7  C   UNL A   1      34.391  33.825  29.275  1.00  0.00     0.039 A 
ATOM      8  C   UNL A   1      34.215  32.784  30.191  1.00  0.00     0.014 A 
ATOM      9  C   UNL A   1      35.675  34.263  28.945  1.00  0.00     0.014 A 
ATOM     10  C   UNL A   1      35.309  32.283  30.884  1.00  0.00     0.010 A 
ATOM     11  C   UNL A   1      36.783  33.694  29.580  1.00  0.00     0.010 A 
ATOM     12  C   UNL A   1      36.607  32.724  30.578  1.00  0.00    -0.014 A 
BRANCH  12  13
ATOM     13  C   UNL A   1      37.768  32.096  31.256  1.00  0.00     0.031 A 
ATOM     14  C   UNL A   1      38.531  30.967  30.621  1.00  0.00     0.074 A 
ATOM     15  C   UNL A   1      38.120  32.549  32.475  1.00  0.00     0.049 A 
ATOM     16  N   UNL A   1      39.568  30.318  31.083  1.00  0.00    -0.248 NA
ATOM     17  C   UNL A   1      38.068  30.497  29.306  1.00  0.00     0.031 C 
ATOM     18  C   UNL A   1      37.416  33.600  33.213  1.00  0.00     0.029 A 
ATOM     19  N   UNL A   1      39.138  32.178  33.314  1.00  0.00    -0.354 N 
ATOM     20  C   UNL A   1      39.858  29.337  30.142  1.00  0.00     0.074 A 
ATOM     21  C   UNL A   1      38.883  29.474  29.081  1.00  0.00     0.031 C 
ATOM     22  C   UNL A   1      38.025  33.795  34.390  1.00  0.00     0.029 A 
ATOM     23  C   UNL A   1      39.129  32.850  34.513  1.00  0.00     0.049 A 
ATOM     24  H   UNL A   1      39.809  31.496  33.081  1.00  0.00     0.167 HD
ATOM     25  C   UNL A   1      40.855  28.419  30.155  1.00  0.00     0.034 A 
ATOM     26  C   UNL A   1      39.903  32.708  35.605  1.00  0.00     0.034 A 
ATOM     27  C   UNL A   1      41.841  28.313  31.198  1.00  0.00     0.049 A 
ATOM     28  C   UNL A   1      41.019  31.704  35.579  1.00  0.00     0.074 A 
ATOM     29  C   UNL A   1      42.941  27.474  31.260  1.00  0.00     0.029 A 
ATOM     30  N   UNL A   1      41.841  29.055  32.370  1.00  0.00    -0.354 N 
ATOM     31  N   UNL A   1      41.371  30.893  34.613  1.00  0.00    -0.248 NA
ATOM     32  C   UNL A   1      41.862  31.619  36.778  1.00  0.00     0.031 C 
ATOM     33  C   UNL A   1      43.591  27.692  32.480  1.00  0.00     0.029 A 
ATOM     34  C   UNL A   1      42.909  28.684  33.169  1.00  0.00     0.049 A 
ATOM     35  H   UNL A   1      41.178  29.745  32.600  1.00  0.00     0.167 HD
ATOM     36  C   UNL A   1      42.488  30.211  35.077  1.00  0.00     0.074 A 
ATOM     37  C   UNL A   1      42.771  30.728  36.401  1.00  0.00     0.031 C 
ATOM     38  C   UNL A   1      43.204  29.234  34.468  1.00  0.00     0.034 A 
BRANCH  25  39
ATOM     39  C   UNL A   1      40.953  27.473  28.986  1.00  0.00     0.023 A 
ATOM     40  C   UNL A   1      40.101  26.351  28.923  1.00  0.00     0.012 A 
ATOM     41  C   UNL A   1      41.841  27.725  27.921  1.00  0.00     0.148 A 
ATOM     42  C   UNL A   1      40.153  25.479  27.835  1.00  0.00     0.002 A 
ATOM     43  C   UNL A   1      41.858  26.872  26.822  1.00  0.00     0.091 A 
ATOM     44  F   UNL A   1      42.661  28.782  28.006  1.00  0.00    -0.205 F 
ATOM     45  C   UNL A   1      41.022  25.744  26.782  1.00  0.00     0.022 A 
BRANCH  43  46
ATOM     46  S   UNL A   1      42.892  27.176  25.384  1.00  0.00     0.127 S 
ATOM     47  O   UNL A   1      42.760  25.916  24.654  1.00  0.00    -0.237 OA
ATOM     48  O   UNL A   1      42.224  28.316  24.754  1.00  0.00    -0.237 OA
ATOM     49  O   UNL A   1      44.221  27.469  25.904  1.00  0.00    -0.744 OA
ENDBRANCH  43  46
ENDBRANCH  25  39
BRANCH  26  50
ATOM     50  C   UNL A   1      39.652  33.571  36.790  1.00  0.00     0.023 A 
ATOM     51  C   UNL A   1      39.997  34.935  36.743  1.00  0.00     0.012 A 
ATOM     52  C   UNL A   1      38.997  33.065  37.930  1.00  0.00     0.148 A 
ATOM     53  C   UNL A   1      39.707  35.776  37.819  1.00  0.00     0.002 A 
ATOM     54  C   UNL A   1      38.657  33.920  38.970  1.00  0.00     0.091 A 
ATOM     55  F   UNL A   1      38.689  31.760  37.957  1.00  0.00    -0.205 F 
ATOM     56  C   UNL A   1      39.024  35.272  38.924  1.00  0.00     0.022 A 
BRANCH  54  57
ATOM     57  S   UNL A   1      37.643  33.388  40.355  1.00  0.00     0.127 S 
ATOM     58  O   UNL A   1      38.474  32.343  40.948  1.00  0.00    -0.237 OA
ATOM     59  O   UNL A   1      37.539  34.617  41.143  1.00  0.00    -0.237 OA
ATOM     60  O   UNL A   1      36.384  32.944  39.771  1.00  0.00    -0.744 OA
ENDBRANCH  54  57
ENDBRANCH  26  50
BRANCH  38  61
ATOM     61  C   UNL A   1      44.377  28.663  35.220  1.00  0.00     0.023 A 
ATOM     62  C   UNL A   1      45.664  29.198  35.014  1.00  0.00     0.012 A 
ATOM     63  C   UNL A   1      44.193  27.649  36.179  1.00  0.00     0.148 A 
ATOM     64  C   UNL A   1      46.756  28.712  35.731  1.00  0.00     0.002 A 
ATOM     65  C   UNL A   1      45.278  27.200  36.923  1.00  0.00     0.091 A 
ATOM     66  F   UNL A   1      42.965  27.138  36.344  1.00  0.00    -0.205 F 
ATOM     67  C   UNL A   1      46.562  27.723  36.693  1.00  0.00     0.022 A 
BRANCH  65  68
ATOM     68  S   UNL A   1      45.107  25.996  38.244  1.00  0.00     0.127 S 
ATOM     69  O   UNL A   1      44.122  26.641  39.110  1.00  0.00    -0.237 OA
ATOM     70  O   UNL A   1      44.612  24.818  37.529  1.00  0.00    -0.237 OA
ATOM     71  O   UNL A   1      46.437  25.837  38.816  1.00  0.00    -0.744 OA
ENDBRANCH  65  68
ENDBRANCH  38  61
ENDBRANCH  12  13
ENDBRANCH   5   7
ENDBRANCH   2   3
ENDBRANCH   1   2
BRANCH   1  72
ATOM     72  C   UNL A   1      30.854  31.648  25.633  1.00  0.00     0.023 C 
BRANCH  72  73
ATOM     73  C   UNL A   1      31.057  30.329  24.890  1.00  0.00     0.116 C 
BRANCH  73  74
ATOM     74  N   UNL A   1      30.193  30.238  23.722  1.00  0.00    -0.349 N 
ATOM     75  C   UNL A   1      30.340  29.448  22.606  1.00  0.00     0.288 C 
ATOM     76  H   UNL A   1      29.398  30.820  23.732  1.00  0.00     0.163 HD
ATOM     77  O   UNL A   1      29.652  29.701  21.614  1.00  0.00    -0.266 OA
BRANCH  75  78
ATOM     78  C   UNL A   1      31.298  28.375  22.613  1.00  0.00     0.216 A 
ATOM     79  N   UNL A   1      31.099  27.133  23.005  1.00  0.00    -0.185 NA
ATOM     80  N   UNL A   1      32.584  28.489  22.174  1.00  0.00    -0.253 N 
ATOM     81  C   UNL A   1      32.324  26.555  22.863  1.00  0.00     0.268 A 
ATOM     82  N   UNL A   1      33.269  27.348  22.359  1.00  0.00    -0.132 NA
ATOM     83  H   UNL A   1      32.962  29.304  21.772  1.00  0.00     0.192 HD
BRANCH  81  84
ATOM     84  N   UNL A   1      32.651  25.273  23.295  1.00  0.00    -0.218 NA
ATOM     85  C   UNL A   1      33.573  25.298  24.198  1.00  0.00     0.123 C 
BRANCH  85  86
ATOM     86  C   UNL A   1      34.130  24.049  24.751  1.00  0.00    -0.000 A 
ATOM     87  C   UNL A   1      35.387  24.083  25.366  1.00  0.00     0.010 A 
ATOM     88  C   UNL A   1      33.417  22.851  24.649  1.00  0.00     0.095 A 
ATOM     89  C   UNL A   1      35.927  22.916  25.908  1.00  0.00     0.008 A 
ATOM     90  C   UNL A   1      33.974  21.684  25.183  1.00  0.00     0.270 A 
ATOM     91  C   UNL A   1      35.224  21.713  25.821  1.00  0.00     0.085 A 
BRANCH  90  92
ATOM     92  N   UNL A   1      33.245  20.415  25.074  1.00  0.00     0.062 N 
ATOM     93  O   UNL A   1      32.008  20.455  25.138  1.00  0.00    -0.258 OA
ATOM     94  O   UNL A   1      33.907  19.378  24.927  1.00  0.00    -0.258 OA
ENDBRANCH  90  92
ENDBRANCH  85  86
ENDBRANCH  81  84
ENDBRANCH  75  78
ENDBRANCH  73  74
ENDBRANCH  72  73
ENDBRANCH   1  72
TORSDOF 17
ENDMDL
