MODEL 1
REMARK VINA RESULT:     -11.1      0.000      0.000
REMARK SMILES CCCc1nc(C[N@H+]2CCCC[C@@H]2C(=O)NCCCCNC(=O)c2ccc(-c3c4nc(c(-c5cccc(S(=O)(=O)[O-])c5F)c5ccc([nH]5)c(-c5cccc(S(=O)(=O)[O-])c5F)c5nc(c(-c6cccc(S(=O)(=O)[O-])c6F)c6ccc3[nH]6)C=C5)C=C4)cc2)cs1
REMARK SMILES IDX 18 1 17 2 16 3 14 4 15 5 13 7 8 8 9 9 10 11 12 12 11 13 7 14
REMARK SMILES IDX 6 15 4 16 5 17 88 18 87 19 3 20 2 21 1 22 19 23 20 24 21 25
REMARK SMILES IDX 22 26 23 28 24 29 25 30 86 31 26 32 85 33 27 34 28 35 29 36
REMARK SMILES IDX 79 37 30 38 84 39 78 40 80 41 31 42 83 43 77 44 76 45 32 47
REMARK SMILES IDX 64 48 44 49 63 50 45 51 48 52 62 53 81 54 46 55 47 56 61 58
REMARK SMILES IDX 82 59 49 60 33 61 34 62 42 63 35 64 37 65 43 66 36 67 38 68
REMARK SMILES IDX 39 69 40 70 41 71 65 72 66 73 74 74 67 75 69 76 75 77 68 78
REMARK SMILES IDX 70 79 71 80 72 81 73 82 50 83 51 84 59 85 52 86 54 87 60 88
REMARK SMILES IDX 53 89 55 90 56 91 57 92 58 93
REMARK H PARENT 16 6 8 10 21 27 80 46 48 57
REMARK Flexibility Score: inf
ROOT
ATOM      1  C   UNL A   1      36.522  22.670  23.316  1.00  0.00     0.023 C 
ENDROOT
BRANCH   1   2
ATOM      2  C   UNL A   1      35.246  23.482  23.094  1.00  0.00     0.116 C 
BRANCH   2   3
ATOM      3  N   UNL A   1      35.188  24.606  24.012  1.00  0.00    -0.351 N 
ATOM      4  C   UNL A   1      34.239  24.921  24.940  1.00  0.00     0.278 C 
ATOM      5  O   UNL A   1      34.375  25.975  25.571  1.00  0.00    -0.268 OA
ATOM      6  H   UNL A   1      35.945  25.232  23.955  1.00  0.00     0.163 HD
BRANCH   4   7
ATOM      7  C   UNL A   1      33.056  23.975  25.243  1.00  0.00     0.274 C 
ATOM      8  N   UNL A   1      31.762  24.663  25.011  1.00  0.00    -0.320 N 
ATOM      9  C   UNL A   1      30.604  23.845  25.380  1.00  0.00     0.263 C 
ATOM     10  H   UNL A   1      31.779  25.458  25.651  1.00  0.00     0.349 HD
ATOM     11  C   UNL A   1      30.705  23.370  26.829  1.00  0.00     0.062 C 
ATOM     12  C   UNL A   1      33.194  23.374  26.651  1.00  0.00     0.076 C 
ATOM     13  C   UNL A   1      31.974  22.555  27.045  1.00  0.00     0.012 C 
BRANCH   8  14
ATOM     14  C   UNL A   1      31.622  25.248  23.657  1.00  0.00     0.321 C 
BRANCH  14  15
ATOM     15  C   UNL A   1      31.064  26.646  23.625  1.00  0.00     0.106 A 
ATOM     16  C   UNL A   1      29.391  28.083  23.329  1.00  0.00     0.093 A 
ATOM     17  N   UNL A   1      29.738  26.817  23.248  1.00  0.00    -0.240 NA
ATOM     18  S   UNL A   1      30.647  29.152  23.814  1.00  0.00    -0.127 S 
ATOM     19  C   UNL A   1      31.702  27.816  23.992  1.00  0.00     0.096 A 
BRANCH  16  20
ATOM     20  C   UNL A   1      28.005  28.605  23.105  1.00  0.00     0.067 C 
BRANCH  20  21
ATOM     21  C   UNL A   1      27.945  30.096  22.765  1.00  0.00     0.004 C 
ATOM     22  C   UNL A   1      28.169  30.410  21.291  1.00  0.00     0.004 C 
ENDBRANCH  20  21
ENDBRANCH  16  20
ENDBRANCH  14  15
ENDBRANCH   8  14
ENDBRANCH   4   7
ENDBRANCH   2   3
ENDBRANCH   1   2
BRANCH   1  23
ATOM     23  C   UNL A   1      36.401  21.595  24.397  1.00  0.00     0.023 C 
BRANCH  23  24
ATOM     24  C   UNL A   1      37.199  21.870  25.666  1.00  0.00     0.116 C 
BRANCH  24  25
ATOM     25  N   UNL A   1      38.238  20.877  25.902  1.00  0.00    -0.352 N 
ATOM     26  C   UNL A   1      39.523  21.071  26.345  1.00  0.00     0.251 C 
ATOM     27  H   UNL A   1      37.985  19.942  25.720  1.00  0.00     0.163 HD
ATOM     28  O   UNL A   1      40.322  20.138  26.353  1.00  0.00    -0.269 OA
BRANCH  26  29
ATOM     29  C   UNL A   1      39.940  22.418  26.784  1.00  0.00     0.039 A 
ATOM     30  C   UNL A   1      40.943  22.535  27.749  1.00  0.00     0.014 A 
ATOM     31  C   UNL A   1      39.365  23.559  26.219  1.00  0.00     0.014 A 
ATOM     32  C   UNL A   1      41.411  23.800  28.105  1.00  0.00     0.010 A 
ATOM     33  C   UNL A   1      39.885  24.813  26.519  1.00  0.00     0.010 A 
ATOM     34  C   UNL A   1      40.909  24.948  27.469  1.00  0.00    -0.014 A 
BRANCH  34  35
ATOM     35  C   UNL A   1      41.444  26.298  27.779  1.00  0.00     0.031 A 
ATOM     36  C   UNL A   1      42.850  26.663  27.383  1.00  0.00     0.074 A 
ATOM     37  C   UNL A   1      40.696  27.163  28.493  1.00  0.00     0.049 A 
ATOM     38  N   UNL A   1      43.508  27.769  27.613  1.00  0.00    -0.248 NA
ATOM     39  C   UNL A   1      43.628  25.640  26.664  1.00  0.00     0.031 C 
ATOM     40  C   UNL A   1      39.352  26.893  29.009  1.00  0.00     0.029 A 
ATOM     41  N   UNL A   1      40.971  28.433  28.932  1.00  0.00    -0.354 N 
ATOM     42  C   UNL A   1      44.784  27.565  27.101  1.00  0.00     0.074 A 
ATOM     43  C   UNL A   1      44.820  26.214  26.581  1.00  0.00     0.031 C 
ATOM     44  C   UNL A   1      38.920  27.966  29.690  1.00  0.00     0.029 A 
ATOM     45  C   UNL A   1      39.961  28.989  29.682  1.00  0.00     0.049 A 
ATOM     46  H   UNL A   1      41.812  28.902  28.730  1.00  0.00     0.167 HD
ATOM     47  C   UNL A   1      45.823  28.431  27.039  1.00  0.00     0.034 A 
ATOM     48  C   UNL A   1      39.884  30.186  30.297  1.00  0.00     0.034 A 
ATOM     49  C   UNL A   1      45.767  29.787  27.511  1.00  0.00     0.049 A 
ATOM     50  C   UNL A   1      41.031  31.149  30.164  1.00  0.00     0.074 A 
ATOM     51  C   UNL A   1      46.732  30.773  27.409  1.00  0.00     0.029 A 
ATOM     52  N   UNL A   1      44.690  30.349  28.177  1.00  0.00    -0.354 N 
ATOM     53  N   UNL A   1      42.168  30.997  29.528  1.00  0.00    -0.248 NA
ATOM     54  C   UNL A   1      40.871  32.467  30.797  1.00  0.00     0.031 C 
ATOM     55  C   UNL A   1      46.245  31.927  28.032  1.00  0.00     0.029 A 
ATOM     56  C   UNL A   1      44.966  31.667  28.499  1.00  0.00     0.049 A 
ATOM     57  H   UNL A   1      43.851  29.880  28.391  1.00  0.00     0.167 HD
ATOM     58  C   UNL A   1      42.841  32.207  29.654  1.00  0.00     0.074 A 
ATOM     59  C   UNL A   1      41.975  33.090  30.407  1.00  0.00     0.031 C 
ATOM     60  C   UNL A   1      44.072  32.551  29.199  1.00  0.00     0.034 A 
BRANCH  47  61
ATOM     61  C   UNL A   1      47.093  27.955  26.382  1.00  0.00     0.023 A 
ATOM     62  C   UNL A   1      48.102  27.362  27.169  1.00  0.00     0.012 A 
ATOM     63  C   UNL A   1      47.265  28.040  24.987  1.00  0.00     0.148 A 
ATOM     64  C   UNL A   1      49.276  26.892  26.584  1.00  0.00     0.002 A 
ATOM     65  C   UNL A   1      48.420  27.528  24.405  1.00  0.00     0.091 A 
ATOM     66  F   UNL A   1      46.306  28.627  24.257  1.00  0.00    -0.205 F 
ATOM     67  C   UNL A   1      49.430  26.965  25.203  1.00  0.00     0.022 A 
BRANCH  65  68
ATOM     68  S   UNL A   1      48.680  27.502  22.628  1.00  0.00     0.127 S 
ATOM     69  O   UNL A   1      49.994  28.132  22.513  1.00  0.00    -0.237 OA
ATOM     70  O   UNL A   1      48.664  26.068  22.336  1.00  0.00    -0.237 OA
ATOM     71  O   UNL A   1      47.574  28.251  22.049  1.00  0.00    -0.744 OA
ENDBRANCH  65  68
ENDBRANCH  47  61
BRANCH  48  72
ATOM     72  C   UNL A   1      38.643  30.569  31.028  1.00  0.00     0.023 A 
ATOM     73  C   UNL A   1      38.517  30.241  32.393  1.00  0.00     0.012 A 
ATOM     74  C   UNL A   1      37.603  31.274  30.393  1.00  0.00     0.148 A 
ATOM     75  C   UNL A   1      37.365  30.579  33.102  1.00  0.00     0.002 A 
ATOM     76  C   UNL A   1      36.480  31.655  31.120  1.00  0.00     0.091 A 
ATOM     77  F   UNL A   1      37.736  31.567  29.091  1.00  0.00    -0.205 F 
ATOM     78  C   UNL A   1      36.351  31.293  32.470  1.00  0.00     0.022 A 
BRANCH  76  79
ATOM     79  S   UNL A   1      35.189  32.690  30.422  1.00  0.00     0.127 S 
ATOM     80  O   UNL A   1      35.929  33.903  30.084  1.00  0.00    -0.237 OA
ATOM     81  O   UNL A   1      34.751  31.895  29.274  1.00  0.00    -0.237 OA
ATOM     82  O   UNL A   1      34.188  32.828  31.470  1.00  0.00    -0.744 OA
ENDBRANCH  76  79
ENDBRANCH  48  72
BRANCH  60  83
ATOM     83  C   UNL A   1      44.547  33.955  29.466  1.00  0.00     0.023 A 
ATOM     84  C   UNL A   1      45.330  34.224  30.607  1.00  0.00     0.012 A 
ATOM     85  C   UNL A   1      44.282  34.990  28.549  1.00  0.00     0.148 A 
ATOM     86  C   UNL A   1      45.813  35.510  30.846  1.00  0.00     0.002 A 
ATOM     87  C   UNL A   1      44.807  36.258  28.768  1.00  0.00     0.091 A 
ATOM     88  F   UNL A   1      43.519  34.718  27.480  1.00  0.00    -0.205 F 
ATOM     89  C   UNL A   1      45.563  36.522  29.922  1.00  0.00     0.022 A 
BRANCH  87  90
ATOM     90  S   UNL A   1      44.618  37.595  27.584  1.00  0.00     0.127 S 
ATOM     91  O   UNL A   1      44.714  38.772  28.445  1.00  0.00    -0.237 OA
ATOM     92  O   UNL A   1      45.764  37.392  26.698  1.00  0.00    -0.237 OA
ATOM     93  O   UNL A   1      43.322  37.386  26.951  1.00  0.00    -0.744 OA
ENDBRANCH  87  90
ENDBRANCH  60  83
ENDBRANCH  34  35
ENDBRANCH  26  29
ENDBRANCH  24  25
ENDBRANCH  23  24
ENDBRANCH   1  23
TORSDOF 18
ENDMDL
MODEL 2
REMARK VINA RESULT:     -11.1      2.898      8.832
REMARK SMILES CCCc1nc(C[N@H+]2CCCC[C@@H]2C(=O)NCCCCNC(=O)c2ccc(-c3c4nc(c(-c5cccc(S(=O)(=O)[O-])c5F)c5ccc([nH]5)c(-c5cccc(S(=O)(=O)[O-])c5F)c5nc(c(-c6cccc(S(=O)(=O)[O-])c6F)c6ccc3[nH]6)C=C5)C=C4)cc2)cs1
REMARK SMILES IDX 18 1 17 2 16 3 14 4 15 5 13 7 8 8 9 9 10 11 12 12 11 13 7 14
REMARK SMILES IDX 6 15 4 16 5 17 88 18 87 19 3 20 2 21 1 22 19 23 20 24 21 25
REMARK SMILES IDX 22 26 23 28 24 29 25 30 86 31 26 32 85 33 27 34 28 35 29 36
REMARK SMILES IDX 79 37 30 38 84 39 78 40 80 41 31 42 83 43 77 44 76 45 32 47
REMARK SMILES IDX 64 48 44 49 63 50 45 51 48 52 62 53 81 54 46 55 47 56 61 58
REMARK SMILES IDX 82 59 49 60 33 61 34 62 42 63 35 64 37 65 43 66 36 67 38 68
REMARK SMILES IDX 39 69 40 70 41 71 65 72 66 73 74 74 67 75 69 76 75 77 68 78
REMARK SMILES IDX 70 79 71 80 72 81 73 82 50 83 51 84 59 85 52 86 54 87 60 88
REMARK SMILES IDX 53 89 55 90 56 91 57 92 58 93
REMARK H PARENT 16 6 8 10 21 27 80 46 48 57
REMARK Flexibility Score: inf
ROOT
ATOM      1  C   UNL A   1      39.228  23.158  26.282  1.00  0.00     0.023 C 
ENDROOT
BRANCH   1   2
ATOM      2  C   UNL A   1      37.807  23.721  26.268  1.00  0.00     0.116 C 
BRANCH   2   3
ATOM      3  N   UNL A   1      37.231  23.627  24.939  1.00  0.00    -0.351 N 
ATOM      4  C   UNL A   1      35.944  23.827  24.534  1.00  0.00     0.278 C 
ATOM      5  O   UNL A   1      35.674  23.628  23.344  1.00  0.00    -0.268 OA
ATOM      6  H   UNL A   1      37.863  23.382  24.225  1.00  0.00     0.163 HD
BRANCH   4   7
ATOM      7  C   UNL A   1      34.859  24.342  25.506  1.00  0.00     0.274 C 
ATOM      8  N   UNL A   1      33.722  23.391  25.571  1.00  0.00    -0.320 N 
ATOM      9  C   UNL A   1      32.617  23.877  26.402  1.00  0.00     0.263 C 
ATOM     10  H   UNL A   1      33.374  23.346  24.613  1.00  0.00     0.349 HD
ATOM     11  C   UNL A   1      32.139  25.252  25.934  1.00  0.00     0.062 C 
ATOM     12  C   UNL A   1      34.447  25.778  25.143  1.00  0.00     0.076 C 
ATOM     13  C   UNL A   1      33.276  26.266  25.983  1.00  0.00     0.012 C 
BRANCH   8  14
ATOM     14  C   UNL A   1      34.110  22.005  25.918  1.00  0.00     0.321 C 
BRANCH  14  15
ATOM     15  C   UNL A   1      33.470  20.937  25.073  1.00  0.00     0.106 A 
ATOM     16  C   UNL A   1      32.730  18.861  24.766  1.00  0.00     0.093 A 
ATOM     17  N   UNL A   1      33.363  19.656  25.600  1.00  0.00    -0.240 NA
ATOM     18  S   UNL A   1      32.268  19.587  23.277  1.00  0.00    -0.127 S 
ATOM     19  C   UNL A   1      32.899  21.081  23.822  1.00  0.00     0.096 A 
BRANCH  16  20
ATOM     20  C   UNL A   1      32.343  17.445  25.063  1.00  0.00     0.067 C 
BRANCH  20  21
ATOM     21  C   UNL A   1      33.506  16.452  25.000  1.00  0.00     0.004 C 
ATOM     22  C   UNL A   1      34.199  16.387  23.645  1.00  0.00     0.004 C 
ENDBRANCH  20  21
ENDBRANCH  16  20
ENDBRANCH  14  15
ENDBRANCH   8  14
ENDBRANCH   4   7
ENDBRANCH   2   3
ENDBRANCH   1   2
BRANCH   1  23
ATOM     23  C   UNL A   1      39.317  21.689  26.693  1.00  0.00     0.023 C 
BRANCH  23  24
ATOM     24  C   UNL A   1      39.361  20.700  25.534  1.00  0.00     0.116 C 
BRANCH  24  25
ATOM     25  N   UNL A   1      40.228  19.561  25.800  1.00  0.00    -0.352 N 
ATOM     26  C   UNL A   1      41.560  19.557  26.132  1.00  0.00     0.251 C 
ATOM     27  H   UNL A   1      39.802  18.675  25.734  1.00  0.00     0.163 HD
ATOM     28  O   UNL A   1      42.183  18.500  26.182  1.00  0.00    -0.269 OA
BRANCH  26  29
ATOM     29  C   UNL A   1      42.241  20.840  26.400  1.00  0.00     0.039 A 
ATOM     30  C   UNL A   1      42.585  21.662  25.325  1.00  0.00     0.014 A 
ATOM     31  C   UNL A   1      42.509  21.242  27.712  1.00  0.00     0.014 A 
ATOM     32  C   UNL A   1      43.145  22.917  25.569  1.00  0.00     0.010 A 
ATOM     33  C   UNL A   1      42.995  22.521  27.955  1.00  0.00     0.010 A 
ATOM     34  C   UNL A   1      43.324  23.370  26.887  1.00  0.00    -0.014 A 
BRANCH  34  35
ATOM     35  C   UNL A   1      43.849  24.730  27.171  1.00  0.00     0.031 A 
ATOM     36  C   UNL A   1      42.933  25.797  27.707  1.00  0.00     0.074 A 
ATOM     37  C   UNL A   1      45.127  25.028  26.863  1.00  0.00     0.049 A 
ATOM     38  N   UNL A   1      43.194  27.052  27.965  1.00  0.00    -0.248 NA
ATOM     39  C   UNL A   1      41.533  25.413  27.955  1.00  0.00     0.031 C 
ATOM     40  C   UNL A   1      46.088  24.104  26.257  1.00  0.00     0.029 A 
ATOM     41  N   UNL A   1      45.828  26.200  26.990  1.00  0.00    -0.354 N 
ATOM     42  C   UNL A   1      41.990  27.615  28.370  1.00  0.00     0.074 A 
ATOM     43  C   UNL A   1      40.988  26.574  28.289  1.00  0.00     0.031 C 
ATOM     44  C   UNL A   1      47.254  24.743  26.070  1.00  0.00     0.029 A 
ATOM     45  C   UNL A   1      47.118  26.126  26.517  1.00  0.00     0.049 A 
ATOM     46  H   UNL A   1      45.445  27.017  27.383  1.00  0.00     0.167 HD
ATOM     47  C   UNL A   1      41.743  28.875  28.802  1.00  0.00     0.034 A 
ATOM     48  C   UNL A   1      48.081  27.067  26.448  1.00  0.00     0.034 A 
ATOM     49  C   UNL A   1      42.751  29.891  28.930  1.00  0.00     0.049 A 
ATOM     50  C   UNL A   1      47.796  28.442  26.987  1.00  0.00     0.074 A 
ATOM     51  C   UNL A   1      42.624  31.168  29.446  1.00  0.00     0.029 A 
ATOM     52  N   UNL A   1      44.072  29.749  28.535  1.00  0.00    -0.354 N 
ATOM     53  N   UNL A   1      46.694  28.906  27.524  1.00  0.00    -0.248 NA
ATOM     54  C   UNL A   1      48.900  29.413  26.950  1.00  0.00     0.031 C 
ATOM     55  C   UNL A   1      43.865  31.806  29.345  1.00  0.00     0.029 A 
ATOM     56  C   UNL A   1      44.771  30.917  28.789  1.00  0.00     0.049 A 
ATOM     57  H   UNL A   1      44.457  28.938  28.132  1.00  0.00     0.167 HD
ATOM     58  C   UNL A   1      46.981  30.208  27.920  1.00  0.00     0.074 A 
ATOM     59  C   UNL A   1      48.369  30.451  27.582  1.00  0.00     0.031 C 
ATOM     60  C   UNL A   1      46.166  31.125  28.499  1.00  0.00     0.034 A 
BRANCH  47  61
ATOM     61  C   UNL A   1      40.337  29.206  29.229  1.00  0.00     0.023 A 
ATOM     62  C   UNL A   1      39.403  29.638  28.264  1.00  0.00     0.012 A 
ATOM     63  C   UNL A   1      39.923  29.038  30.564  1.00  0.00     0.148 A 
ATOM     64  C   UNL A   1      38.089  29.929  28.627  1.00  0.00     0.002 A 
ATOM     65  C   UNL A   1      38.599  29.287  30.909  1.00  0.00     0.091 A 
ATOM     66  F   UNL A   1      40.830  28.648  31.472  1.00  0.00    -0.205 F 
ATOM     67  C   UNL A   1      37.685  29.743  29.945  1.00  0.00     0.022 A 
BRANCH  65  68
ATOM     68  S   UNL A   1      37.959  29.002  32.564  1.00  0.00     0.127 S 
ATOM     69  O   UNL A   1      38.828  29.861  33.367  1.00  0.00    -0.237 OA
ATOM     70  O   UNL A   1      36.579  29.472  32.445  1.00  0.00    -0.237 OA
ATOM     71  O   UNL A   1      38.095  27.573  32.806  1.00  0.00    -0.744 OA
ENDBRANCH  65  68
ENDBRANCH  47  61
BRANCH  48  72
ATOM     72  C   UNL A   1      49.428  26.716  25.917  1.00  0.00     0.023 A 
ATOM     73  C   UNL A   1      50.302  25.944  26.708  1.00  0.00     0.012 A 
ATOM     74  C   UNL A   1      49.839  27.117  24.631  1.00  0.00     0.148 A 
ATOM     75  C   UNL A   1      51.573  25.607  26.242  1.00  0.00     0.002 A 
ATOM     76  C   UNL A   1      51.086  26.731  24.151  1.00  0.00     0.091 A 
ATOM     77  F   UNL A   1      48.999  27.861  23.898  1.00  0.00    -0.205 F 
ATOM     78  C   UNL A   1      51.962  25.991  24.962  1.00  0.00     0.022 A 
BRANCH  76  79
ATOM     79  S   UNL A   1      51.615  27.068  22.468  1.00  0.00     0.127 S 
ATOM     80  O   UNL A   1      51.882  28.503  22.521  1.00  0.00    -0.237 OA
ATOM     81  O   UNL A   1      52.803  26.222  22.349  1.00  0.00    -0.237 OA
ATOM     82  O   UNL A   1      50.504  26.660  21.620  1.00  0.00    -0.744 OA
ENDBRANCH  76  79
ENDBRANCH  48  72
BRANCH  60  83
ATOM     83  C   UNL A   1      46.757  32.467  28.842  1.00  0.00     0.023 A 
ATOM     84  C   UNL A   1      47.340  32.672  30.108  1.00  0.00     0.012 A 
ATOM     85  C   UNL A   1      46.802  33.498  27.884  1.00  0.00     0.148 A 
ATOM     86  C   UNL A   1      47.930  33.895  30.426  1.00  0.00     0.002 A 
ATOM     87  C   UNL A   1      47.434  34.697  28.190  1.00  0.00     0.091 A 
ATOM     88  F   UNL A   1      46.225  33.290  26.691  1.00  0.00    -0.205 F 
ATOM     89  C   UNL A   1      47.987  34.902  29.465  1.00  0.00     0.022 A 
BRANCH  87  90
ATOM     90  S   UNL A   1      47.641  36.010  26.983  1.00  0.00     0.127 S 
ATOM     91  O   UNL A   1      48.209  35.286  25.848  1.00  0.00    -0.237 OA
ATOM     92  O   UNL A   1      46.267  36.472  26.785  1.00  0.00    -0.237 OA
ATOM     93  O   UNL A   1      48.522  36.990  27.605  1.00  0.00    -0.744 OA
ENDBRANCH  87  90
ENDBRANCH  60  83
ENDBRANCH  34  35
ENDBRANCH  26  29
ENDBRANCH  24  25
ENDBRANCH  23  24
ENDBRANCH   1  23
TORSDOF 18
ENDMDL
MODEL 3
REMARK VINA RESULT:     -11.0      5.006      9.526
REMARK SMILES CCCc1nc(C[N@H+]2CCCC[C@@H]2C(=O)NCCCCNC(=O)c2ccc(-c3c4nc(c(-c5cccc(S(=O)(=O)[O-])c5F)c5ccc([nH]5)c(-c5cccc(S(=O)(=O)[O-])c5F)c5nc(c(-c6cccc(S(=O)(=O)[O-])c6F)c6ccc3[nH]6)C=C5)C=C4)cc2)cs1
REMARK SMILES IDX 18 1 17 2 16 3 14 4 15 5 13 7 8 8 9 9 10 11 12 12 11 13 7 14
REMARK SMILES IDX 6 15 4 16 5 17 88 18 87 19 3 20 2 21 1 22 19 23 20 24 21 25
REMARK SMILES IDX 22 26 23 28 24 29 25 30 86 31 26 32 85 33 27 34 28 35 29 36
REMARK SMILES IDX 79 37 30 38 84 39 78 40 80 41 31 42 83 43 77 44 76 45 32 47
REMARK SMILES IDX 64 48 44 49 63 50 45 51 48 52 62 53 81 54 46 55 47 56 61 58
REMARK SMILES IDX 82 59 49 60 33 61 34 62 42 63 35 64 37 65 43 66 36 67 38 68
REMARK SMILES IDX 39 69 40 70 41 71 65 72 66 73 74 74 67 75 69 76 75 77 68 78
REMARK SMILES IDX 70 79 71 80 72 81 73 82 50 83 51 84 59 85 52 86 54 87 60 88
REMARK SMILES IDX 53 89 55 90 56 91 57 92 58 93
REMARK H PARENT 16 6 8 10 21 27 80 46 48 57
REMARK Flexibility Score: inf
ROOT
ATOM      1  C   UNL A   1      33.648  27.130  24.308  1.00  0.00     0.023 C 
ENDROOT
BRANCH   1   2
ATOM      2  C   UNL A   1      34.128  25.688  24.159  1.00  0.00     0.116 C 
BRANCH   2   3
ATOM      3  N   UNL A   1      33.720  25.140  22.878  1.00  0.00    -0.351 N 
ATOM      4  C   UNL A   1      33.772  23.855  22.426  1.00  0.00     0.278 C 
ATOM      5  O   UNL A   1      33.420  23.636  21.261  1.00  0.00    -0.268 OA
ATOM      6  H   UNL A   1      33.352  25.795  22.241  1.00  0.00     0.163 HD
BRANCH   4   7
ATOM      7  C   UNL A   1      34.201  22.689  23.345  1.00  0.00     0.274 C 
ATOM      8  N   UNL A   1      33.376  22.666  24.578  1.00  0.00    -0.320 N 
ATOM      9  C   UNL A   1      33.806  21.642  25.534  1.00  0.00     0.263 C 
ATOM     10  H   UNL A   1      33.549  23.571  25.017  1.00  0.00     0.349 HD
ATOM     11  C   UNL A   1      35.286  21.799  25.883  1.00  0.00     0.062 C 
ATOM     12  C   UNL A   1      35.714  22.742  23.611  1.00  0.00     0.076 C 
ATOM     13  C   UNL A   1      36.150  21.700  24.632  1.00  0.00     0.012 C 
BRANCH   8  14
ATOM     14  C   UNL A   1      31.917  22.619  24.331  1.00  0.00     0.321 C 
BRANCH  14  15
ATOM     15  C   UNL A   1      31.151  23.817  24.824  1.00  0.00     0.106 A 
ATOM     16  C   UNL A   1      29.901  25.624  24.474  1.00  0.00     0.093 A 
ATOM     17  N   UNL A   1      30.582  24.667  23.884  1.00  0.00    -0.240 NA
ATOM     18  S   UNL A   1      29.943  25.594  26.193  1.00  0.00    -0.127 S 
ATOM     19  C   UNL A   1      30.878  24.162  26.135  1.00  0.00     0.096 A 
BRANCH  16  20
ATOM     20  C   UNL A   1      29.069  26.646  23.761  1.00  0.00     0.067 C 
BRANCH  20  21
ATOM     21  C   UNL A   1      29.784  27.977  23.520  1.00  0.00     0.004 C 
ATOM     22  C   UNL A   1      30.764  27.958  22.353  1.00  0.00     0.004 C 
ENDBRANCH  20  21
ENDBRANCH  16  20
ENDBRANCH  14  15
ENDBRANCH   8  14
ENDBRANCH   4   7
ENDBRANCH   2   3
ENDBRANCH   1   2
BRANCH   1  23
ATOM     23  C   UNL A   1      33.152  27.485  25.710  1.00  0.00     0.023 C 
BRANCH  23  24
ATOM     24  C   UNL A   1      34.175  28.189  26.593  1.00  0.00     0.116 C 
BRANCH  24  25
ATOM     25  N   UNL A   1      33.800  29.561  26.904  1.00  0.00    -0.352 N 
ATOM     26  C   UNL A   1      34.462  30.473  27.689  1.00  0.00     0.251 C 
ATOM     27  H   UNL A   1      32.960  29.877  26.498  1.00  0.00     0.163 HD
ATOM     28  O   UNL A   1      33.935  31.547  27.969  1.00  0.00    -0.269 OA
BRANCH  26  29
ATOM     29  C   UNL A   1      35.801  30.137  28.214  1.00  0.00     0.039 A 
ATOM     30  C   UNL A   1      35.910  29.613  29.504  1.00  0.00     0.014 A 
ATOM     31  C   UNL A   1      36.939  30.309  27.422  1.00  0.00     0.014 A 
ATOM     32  C   UNL A   1      37.158  29.205  29.978  1.00  0.00     0.010 A 
ATOM     33  C   UNL A   1      38.167  29.832  27.867  1.00  0.00     0.010 A 
ATOM     34  C   UNL A   1      38.291  29.281  29.151  1.00  0.00    -0.014 A 
BRANCH  34  35
ATOM     35  C   UNL A   1      39.614  28.785  29.608  1.00  0.00     0.031 A 
ATOM     36  C   UNL A   1      40.346  29.494  30.716  1.00  0.00     0.074 A 
ATOM     37  C   UNL A   1      40.194  27.751  28.967  1.00  0.00     0.049 A 
ATOM     38  N   UNL A   1      41.529  29.243  31.213  1.00  0.00    -0.248 NA
ATOM     39  C   UNL A   1      39.676  30.657  31.322  1.00  0.00     0.031 C 
ATOM     40  C   UNL A   1      39.624  27.038  27.822  1.00  0.00     0.029 A 
ATOM     41  N   UNL A   1      41.406  27.140  29.169  1.00  0.00    -0.354 N 
ATOM     42  C   UNL A   1      41.760  30.231  32.162  1.00  0.00     0.074 A 
ATOM     43  C   UNL A   1      40.610  31.111  32.145  1.00  0.00     0.031 C 
ATOM     44  C   UNL A   1      40.482  26.084  27.428  1.00  0.00     0.029 A 
ATOM     45  C   UNL A   1      41.672  26.133  28.270  1.00  0.00     0.049 A 
ATOM     46  H   UNL A   1      42.025  27.397  29.888  1.00  0.00     0.167 HD
ATOM     47  C   UNL A   1      42.818  30.379  32.995  1.00  0.00     0.034 A 
ATOM     48  C   UNL A   1      42.755  25.341  28.138  1.00  0.00     0.034 A 
ATOM     49  C   UNL A   1      43.933  29.475  33.043  1.00  0.00     0.049 A 
ATOM     50  C   UNL A   1      43.891  25.490  29.113  1.00  0.00     0.074 A 
ATOM     51  C   UNL A   1      45.008  29.482  33.914  1.00  0.00     0.029 A 
ATOM     52  N   UNL A   1      44.122  28.404  32.183  1.00  0.00    -0.354 N 
ATOM     53  N   UNL A   1      44.014  26.328  30.115  1.00  0.00    -0.248 NA
ATOM     54  C   UNL A   1      45.020  24.559  28.968  1.00  0.00     0.031 C 
ATOM     55  C   UNL A   1      45.858  28.425  33.568  1.00  0.00     0.029 A 
ATOM     56  C   UNL A   1      45.299  27.746  32.497  1.00  0.00     0.049 A 
ATOM     57  H   UNL A   1      43.510  28.150  31.456  1.00  0.00     0.167 HD
ATOM     58  C   UNL A   1      45.214  26.002  30.739  1.00  0.00     0.074 A 
ATOM     59  C   UNL A   1      45.768  24.875  30.016  1.00  0.00     0.031 C 
ATOM     60  C   UNL A   1      45.809  26.591  31.805  1.00  0.00     0.034 A 
BRANCH  47  61
ATOM     61  C   UNL A   1      42.788  31.530  33.967  1.00  0.00     0.023 A 
ATOM     62  C   UNL A   1      43.369  32.761  33.602  1.00  0.00     0.012 A 
ATOM     63  C   UNL A   1      42.139  31.413  35.211  1.00  0.00     0.148 A 
ATOM     64  C   UNL A   1      43.336  33.849  34.473  1.00  0.00     0.002 A 
ATOM     65  C   UNL A   1      42.070  32.517  36.055  1.00  0.00     0.091 A 
ATOM     66  F   UNL A   1      41.611  30.229  35.551  1.00  0.00    -0.205 F 
ATOM     67  C   UNL A   1      42.677  33.730  35.693  1.00  0.00     0.022 A 
BRANCH  65  68
ATOM     68  S   UNL A   1      41.176  32.489  37.614  1.00  0.00     0.127 S 
ATOM     69  O   UNL A   1      42.034  31.631  38.430  1.00  0.00    -0.237 OA
ATOM     70  O   UNL A   1      41.185  33.901  37.998  1.00  0.00    -0.237 OA
ATOM     71  O   UNL A   1      39.859  31.950  37.312  1.00  0.00    -0.744 OA
ENDBRANCH  65  68
ENDBRANCH  47  61
BRANCH  48  72
ATOM     72  C   UNL A   1      42.781  24.284  27.088  1.00  0.00     0.023 A 
ATOM     73  C   UNL A   1      43.483  24.520  25.889  1.00  0.00     0.012 A 
ATOM     74  C   UNL A   1      42.142  23.044  27.277  1.00  0.00     0.148 A 
ATOM     75  C   UNL A   1      43.518  23.554  24.883  1.00  0.00     0.002 A 
ATOM     76  C   UNL A   1      42.228  22.064  26.293  1.00  0.00     0.091 A 
ATOM     77  F   UNL A   1      41.470  22.842  28.419  1.00  0.00    -0.205 F 
ATOM     78  C   UNL A   1      42.900  22.323  25.088  1.00  0.00     0.022 A 
BRANCH  76  79
ATOM     79  S   UNL A   1      41.575  20.407  26.528  1.00  0.00     0.127 S 
ATOM     80  O   UNL A   1      42.138  20.046  27.826  1.00  0.00    -0.237 OA
ATOM     81  O   UNL A   1      40.132  20.647  26.526  1.00  0.00    -0.237 OA
ATOM     82  O   UNL A   1      42.054  19.633  25.390  1.00  0.00    -0.744 OA
ENDBRANCH  76  79
ENDBRANCH  48  72
BRANCH  60  83
ATOM     83  C   UNL A   1      47.112  26.009  32.287  1.00  0.00     0.023 A 
ATOM     84  C   UNL A   1      48.329  26.476  31.749  1.00  0.00     0.012 A 
ATOM     85  C   UNL A   1      47.134  25.056  33.323  1.00  0.00     0.148 A 
ATOM     86  C   UNL A   1      49.545  25.978  32.215  1.00  0.00     0.002 A 
ATOM     87  C   UNL A   1      48.351  24.600  33.815  1.00  0.00     0.091 A 
ATOM     88  F   UNL A   1      45.966  24.610  33.808  1.00  0.00    -0.205 F 
ATOM     89  C   UNL A   1      49.557  25.051  33.254  1.00  0.00     0.022 A 
BRANCH  87  90
ATOM     90  S   UNL A   1      48.463  23.482  35.216  1.00  0.00     0.127 S 
ATOM     91  O   UNL A   1      48.989  24.360  36.259  1.00  0.00    -0.237 OA
ATOM     92  O   UNL A   1      47.069  23.078  35.405  1.00  0.00    -0.237 OA
ATOM     93  O   UNL A   1      49.350  22.405  34.797  1.00  0.00    -0.744 OA
ENDBRANCH  87  90
ENDBRANCH  60  83
ENDBRANCH  34  35
ENDBRANCH  26  29
ENDBRANCH  24  25
ENDBRANCH  23  24
ENDBRANCH   1  23
TORSDOF 18
ENDMDL
