MODEL 1
REMARK VINA RESULT:     -11.2      0.000      0.000
REMARK SMILES C[C@@](NC(=O)CCOC1CC[NH2+]CC1)(C(=O)NCCCCNC(=O)c1ccc(-c2c3nc(c(-c4cccc(S(=O)(=O)[O-])c4F)c4ccc([nH]4)c(-c4cccc(S(=O)(=O)[O-])c4F)c4nc(c(-c5cccc(S(=O)(=O)[O-])c5F)c5ccc2[nH]5)C=C4)C=C3)cc1)C(F)(F)F
REMARK SMILES IDX 18 1 17 2 15 3 16 4 2 6 1 7 3 8 4 9 5 11 6 12 7 13 8 14 9 15
REMARK SMILES IDX 10 16 14 17 11 18 13 19 12 20 88 23 89 24 90 25 91 26 19 27
REMARK SMILES IDX 20 28 21 29 22 30 23 31 24 33 25 34 26 35 87 36 27 37 86 38
REMARK SMILES IDX 28 39 29 40 30 41 80 42 31 43 85 44 79 45 81 46 32 47 84 48
REMARK SMILES IDX 78 49 77 50 33 52 65 53 45 54 64 55 46 56 49 57 63 58 82 59
REMARK SMILES IDX 47 60 48 61 62 63 83 64 50 65 34 66 35 67 43 68 36 69 38 70
REMARK SMILES IDX 44 71 37 72 39 73 40 74 41 75 42 76 66 77 67 78 75 79 68 80
REMARK SMILES IDX 70 81 76 82 69 83 71 84 72 85 73 86 74 87 51 88 52 89 60 90
REMARK SMILES IDX 53 91 55 92 61 93 54 94 56 95 57 96 58 97 59 98
REMARK H PARENT 17 5 3 10 12 21 12 22 22 32 81 51 49 62
REMARK Flexibility Score: inf
ROOT
ATOM      1  C   UNL A   1      31.009  27.576  24.072  1.00  0.00     0.116 C 
ENDROOT
BRANCH   1   2
ATOM      2  N   UNL A   1      30.107  26.853  24.955  1.00  0.00    -0.354 N 
ATOM      3  C   UNL A   1      30.185  25.662  25.624  1.00  0.00     0.254 C 
ATOM      4  O   UNL A   1      29.391  25.576  26.569  1.00  0.00    -0.272 OA
ATOM      5  H   UNL A   1      29.254  27.322  25.102  1.00  0.00     0.163 HD
BRANCH   3   6
ATOM      6  C   UNL A   1      31.219  24.523  25.383  1.00  0.00     0.212 C 
ATOM      7  C   UNL A   1      30.833  23.230  26.128  1.00  0.00     0.056 C 
BRANCH   6   8
ATOM      8  N   UNL A   1      31.497  24.107  23.969  1.00  0.00    -0.334 N 
ATOM      9  C   UNL A   1      31.903  22.915  23.465  1.00  0.00     0.223 C 
ATOM     10  H   UNL A   1      31.361  24.813  23.298  1.00  0.00     0.164 HD
ATOM     11  O   UNL A   1      31.205  22.421  22.577  1.00  0.00    -0.275 OA
BRANCH   9  12
ATOM     12  C   UNL A   1      33.205  22.279  23.874  1.00  0.00     0.128 C 
BRANCH  12  13
ATOM     13  C   UNL A   1      34.468  22.724  23.141  1.00  0.00     0.170 C 
BRANCH  13  14
ATOM     14  O   UNL A   1      35.700  22.746  23.864  1.00  0.00    -0.377 OA
BRANCH  14  15
ATOM     15  C   UNL A   1      35.686  22.275  25.217  1.00  0.00     0.129 C 
ATOM     16  C   UNL A   1      36.157  23.402  26.130  1.00  0.00     0.093 C 
ATOM     17  C   UNL A   1      36.608  21.067  25.413  1.00  0.00     0.093 C 
ATOM     18  C   UNL A   1      37.621  23.721  25.851  1.00  0.00     0.263 C 
ATOM     19  C   UNL A   1      38.070  21.431  25.208  1.00  0.00     0.263 C 
ATOM     20  N   UNL A   1      38.472  22.547  26.068  1.00  0.00    -0.346 N 
ATOM     21  H   UNL A   1      38.397  22.258  27.043  1.00  0.00     0.346 HD
ATOM     22  H   UNL A   1      39.433  22.800  25.839  1.00  0.00     0.346 HD
ENDBRANCH  14  15
ENDBRANCH  13  14
ENDBRANCH  12  13
ENDBRANCH   9  12
ENDBRANCH   6   8
BRANCH   6  23
ATOM     23  C   UNL A   1      32.539  25.024  26.042  1.00  0.00     0.420 C 
ATOM     24  F   UNL A   1      33.440  25.450  25.128  1.00  0.00    -0.168 F 
ATOM     25  F   UNL A   1      32.266  26.103  26.834  1.00  0.00    -0.168 F 
ATOM     26  F   UNL A   1      33.129  24.115  26.843  1.00  0.00    -0.168 F 
ENDBRANCH   6  23
ENDBRANCH   3   6
ENDBRANCH   1   2
BRANCH   1  27
ATOM     27  C   UNL A   1      31.075  29.091  24.295  1.00  0.00     0.023 C 
BRANCH  27  28
ATOM     28  C   UNL A   1      32.265  29.651  25.089  1.00  0.00     0.023 C 
BRANCH  28  29
ATOM     29  C   UNL A   1      32.047  30.004  26.563  1.00  0.00     0.116 C 
BRANCH  29  30
ATOM     30  N   UNL A   1      32.074  31.430  26.853  1.00  0.00    -0.352 N 
ATOM     31  C   UNL A   1      33.055  32.224  27.417  1.00  0.00     0.251 C 
ATOM     32  H   UNL A   1      31.252  31.913  26.605  1.00  0.00     0.163 HD
ATOM     33  O   UNL A   1      32.839  33.415  27.583  1.00  0.00    -0.269 OA
BRANCH  31  34
ATOM     34  C   UNL A   1      34.342  31.640  27.876  1.00  0.00     0.039 A 
ATOM     35  C   UNL A   1      35.423  32.503  28.091  1.00  0.00     0.014 A 
ATOM     36  C   UNL A   1      34.497  30.272  28.097  1.00  0.00     0.014 A 
ATOM     37  C   UNL A   1      36.614  32.011  28.641  1.00  0.00     0.010 A 
ATOM     38  C   UNL A   1      35.660  29.793  28.707  1.00  0.00     0.010 A 
ATOM     39  C   UNL A   1      36.721  30.661  29.012  1.00  0.00    -0.014 A 
BRANCH  39  40
ATOM     40  C   UNL A   1      37.893  30.161  29.787  1.00  0.00     0.031 A 
ATOM     41  C   UNL A   1      38.149  30.622  31.197  1.00  0.00     0.074 A 
ATOM     42  C   UNL A   1      38.797  29.367  29.176  1.00  0.00     0.049 A 
ATOM     43  N   UNL A   1      39.155  30.340  31.986  1.00  0.00    -0.248 NA
ATOM     44  C   UNL A   1      37.163  31.539  31.789  1.00  0.00     0.031 C 
ATOM     45  C   UNL A   1      38.721  28.911  27.786  1.00  0.00     0.029 A 
ATOM     46  N   UNL A   1      39.975  28.825  29.633  1.00  0.00    -0.354 N 
ATOM     47  C   UNL A   1      38.946  31.071  33.149  1.00  0.00     0.074 A 
ATOM     48  C   UNL A   1      37.728  31.829  32.953  1.00  0.00     0.031 C 
ATOM     49  C   UNL A   1      39.798  28.160  27.505  1.00  0.00     0.029 A 
ATOM     50  C   UNL A   1      40.659  28.101  28.681  1.00  0.00     0.049 A 
ATOM     51  H   UNL A   1      40.300  28.944  30.555  1.00  0.00     0.167 HD
ATOM     52  C   UNL A   1      39.684  31.093  34.286  1.00  0.00     0.034 A 
ATOM     53  C   UNL A   1      41.846  27.464  28.742  1.00  0.00     0.034 A 
ATOM     54  C   UNL A   1      40.866  30.303  34.504  1.00  0.00     0.049 A 
ATOM     55  C   UNL A   1      42.617  27.464  30.035  1.00  0.00     0.074 A 
ATOM     56  C   UNL A   1      41.618  30.181  35.660  1.00  0.00     0.029 A 
ATOM     57  N   UNL A   1      41.474  29.504  33.549  1.00  0.00    -0.354 N 
ATOM     58  N   UNL A   1      42.308  28.021  31.179  1.00  0.00    -0.248 NA
ATOM     59  C   UNL A   1      43.884  26.716  30.055  1.00  0.00     0.031 C 
ATOM     60  C   UNL A   1      42.691  29.322  35.398  1.00  0.00     0.029 A 
ATOM     61  C   UNL A   1      42.595  28.894  34.085  1.00  0.00     0.049 A 
ATOM     62  H   UNL A   1      41.155  29.387  32.625  1.00  0.00     0.167 HD
ATOM     63  C   UNL A   1      43.318  27.660  32.064  1.00  0.00     0.074 A 
ATOM     64  C   UNL A   1      44.239  26.821  31.329  1.00  0.00     0.031 C 
ATOM     65  C   UNL A   1      43.475  28.008  33.366  1.00  0.00     0.034 A 
BRANCH  52  66
ATOM     66  C   UNL A   1      39.199  31.960  35.420  1.00  0.00     0.023 A 
ATOM     67  C   UNL A   1      39.396  33.355  35.357  1.00  0.00     0.012 A 
ATOM     68  C   UNL A   1      38.488  31.412  36.504  1.00  0.00     0.148 A 
ATOM     69  C   UNL A   1      38.924  34.186  36.371  1.00  0.00     0.002 A 
ATOM     70  C   UNL A   1      37.982  32.252  37.492  1.00  0.00     0.091 A 
ATOM     71  F   UNL A   1      38.324  30.082  36.557  1.00  0.00    -0.205 F 
ATOM     72  C   UNL A   1      38.209  33.637  37.431  1.00  0.00     0.022 A 
BRANCH  70  73
ATOM     73  S   UNL A   1      36.983  31.651  38.858  1.00  0.00     0.127 S 
ATOM     74  O   UNL A   1      37.893  31.825  39.988  1.00  0.00    -0.237 OA
ATOM     75  O   UNL A   1      35.847  32.573  38.840  1.00  0.00    -0.237 OA
ATOM     76  O   UNL A   1      36.646  30.272  38.531  1.00  0.00    -0.744 OA
ENDBRANCH  70  73
ENDBRANCH  52  66
BRANCH  53  77
ATOM     77  C   UNL A   1      42.346  26.703  27.561  1.00  0.00     0.023 A 
ATOM     78  C   UNL A   1      43.028  27.393  26.540  1.00  0.00     0.012 A 
ATOM     79  C   UNL A   1      42.173  25.311  27.451  1.00  0.00     0.148 A 
ATOM     80  C   UNL A   1      43.498  26.716  25.414  1.00  0.00     0.002 A 
ATOM     81  C   UNL A   1      42.693  24.633  26.354  1.00  0.00     0.091 A 
ATOM     82  F   UNL A   1      41.508  24.673  28.425  1.00  0.00    -0.205 F 
ATOM     83  C   UNL A   1      43.341  25.336  25.326  1.00  0.00     0.022 A 
BRANCH  81  84
ATOM     84  S   UNL A   1      42.653  22.842  26.224  1.00  0.00     0.127 S 
ATOM     85  O   UNL A   1      43.564  22.444  27.294  1.00  0.00    -0.237 OA
ATOM     86  O   UNL A   1      41.242  22.549  26.476  1.00  0.00    -0.237 OA
ATOM     87  O   UNL A   1      43.092  22.539  24.869  1.00  0.00    -0.744 OA
ENDBRANCH  81  84
ENDBRANCH  53  77
BRANCH  65  88
ATOM     88  C   UNL A   1      44.668  27.456  34.101  1.00  0.00     0.023 A 
ATOM     89  C   UNL A   1      45.901  28.136  34.044  1.00  0.00     0.012 A 
ATOM     90  C   UNL A   1      44.549  26.310  34.911  1.00  0.00     0.148 A 
ATOM     91  C   UNL A   1      47.004  27.667  34.758  1.00  0.00     0.002 A 
ATOM     92  C   UNL A   1      45.638  25.874  35.656  1.00  0.00     0.091 A 
ATOM     93  F   UNL A   1      43.373  25.663  34.937  1.00  0.00    -0.205 F 
ATOM     94  C   UNL A   1      46.869  26.545  35.574  1.00  0.00     0.022 A 
BRANCH  92  95
ATOM     95  S   UNL A   1      45.529  24.495  36.804  1.00  0.00     0.127 S 
ATOM     96  O   UNL A   1      45.242  23.381  35.904  1.00  0.00    -0.237 OA
ATOM     97  O   UNL A   1      46.868  24.474  37.394  1.00  0.00    -0.237 OA
ATOM     98  O   UNL A   1      44.466  24.839  37.739  1.00  0.00    -0.744 OA
ENDBRANCH  92  95
ENDBRANCH  65  88
ENDBRANCH  39  40
ENDBRANCH  31  34
ENDBRANCH  29  30
ENDBRANCH  28  29
ENDBRANCH  27  28
ENDBRANCH   1  27
TORSDOF 20
ENDMDL
MODEL 2
REMARK VINA RESULT:     -11.0      4.985      7.819
REMARK SMILES C[C@@](NC(=O)CCOC1CC[NH2+]CC1)(C(=O)NCCCCNC(=O)c1ccc(-c2c3nc(c(-c4cccc(S(=O)(=O)[O-])c4F)c4ccc([nH]4)c(-c4cccc(S(=O)(=O)[O-])c4F)c4nc(c(-c5cccc(S(=O)(=O)[O-])c5F)c5ccc2[nH]5)C=C4)C=C3)cc1)C(F)(F)F
REMARK SMILES IDX 18 1 17 2 15 3 16 4 2 6 1 7 3 8 4 9 5 11 6 12 7 13 8 14 9 15
REMARK SMILES IDX 10 16 14 17 11 18 13 19 12 20 88 23 89 24 90 25 91 26 19 27
REMARK SMILES IDX 20 28 21 29 22 30 23 31 24 33 25 34 26 35 87 36 27 37 86 38
REMARK SMILES IDX 28 39 29 40 30 41 80 42 31 43 85 44 79 45 81 46 32 47 84 48
REMARK SMILES IDX 78 49 77 50 33 52 65 53 45 54 64 55 46 56 49 57 63 58 82 59
REMARK SMILES IDX 47 60 48 61 62 63 83 64 50 65 34 66 35 67 43 68 36 69 38 70
REMARK SMILES IDX 44 71 37 72 39 73 40 74 41 75 42 76 66 77 67 78 75 79 68 80
REMARK SMILES IDX 70 81 76 82 69 83 71 84 72 85 73 86 74 87 51 88 52 89 60 90
REMARK SMILES IDX 53 91 55 92 61 93 54 94 56 95 57 96 58 97 59 98
REMARK H PARENT 17 5 3 10 12 21 12 22 22 32 81 51 49 62
REMARK Flexibility Score: inf
ROOT
ATOM      1  C   UNL A   1      34.558  23.185  23.267  1.00  0.00     0.116 C 
ENDROOT
BRANCH   1   2
ATOM      2  N   UNL A   1      33.627  22.279  23.924  1.00  0.00    -0.354 N 
ATOM      3  C   UNL A   1      32.926  22.325  25.098  1.00  0.00     0.254 C 
ATOM      4  O   UNL A   1      31.956  21.557  25.121  1.00  0.00    -0.272 OA
ATOM      5  H   UNL A   1      33.469  21.453  23.413  1.00  0.00     0.163 HD
BRANCH   3   6
ATOM      6  C   UNL A   1      33.164  23.299  26.289  1.00  0.00     0.212 C 
ATOM      7  C   UNL A   1      34.391  24.202  26.056  1.00  0.00     0.056 C 
BRANCH   6   8
ATOM      8  N   UNL A   1      32.050  24.224  26.680  1.00  0.00    -0.334 N 
ATOM      9  C   UNL A   1      30.825  24.412  26.126  1.00  0.00     0.223 C 
ATOM     10  H   UNL A   1      32.237  24.785  27.466  1.00  0.00     0.164 HD
ATOM     11  O   UNL A   1      29.854  24.295  26.877  1.00  0.00    -0.275 OA
BRANCH   9  12
ATOM     12  C   UNL A   1      30.655  24.863  24.701  1.00  0.00     0.128 C 
BRANCH  12  13
ATOM     13  C   UNL A   1      31.145  26.263  24.341  1.00  0.00     0.170 C 
BRANCH  13  14
ATOM     14  O   UNL A   1      32.253  26.802  25.064  1.00  0.00    -0.377 OA
BRANCH  14  15
ATOM     15  C   UNL A   1      32.536  28.197  24.906  1.00  0.00     0.129 C 
ATOM     16  C   UNL A   1      33.964  28.461  25.371  1.00  0.00     0.093 C 
ATOM     17  C   UNL A   1      31.583  29.072  25.727  1.00  0.00     0.093 C 
ATOM     18  C   UNL A   1      34.076  28.216  26.871  1.00  0.00     0.263 C 
ATOM     19  C   UNL A   1      31.772  28.867  27.221  1.00  0.00     0.263 C 
ATOM     20  N   UNL A   1      33.164  29.084  27.622  1.00  0.00    -0.346 N 
ATOM     21  H   UNL A   1      33.413  30.058  27.446  1.00  0.00     0.346 HD
ATOM     22  H   UNL A   1      33.252  28.862  28.614  1.00  0.00     0.346 HD
ENDBRANCH  14  15
ENDBRANCH  13  14
ENDBRANCH  12  13
ENDBRANCH   9  12
ENDBRANCH   6   8
BRANCH   6  23
ATOM     23  C   UNL A   1      33.523  22.384  27.498  1.00  0.00     0.420 C 
ATOM     24  F   UNL A   1      33.965  21.168  27.109  1.00  0.00    -0.168 F 
ATOM     25  F   UNL A   1      34.548  22.951  28.202  1.00  0.00    -0.168 F 
ATOM     26  F   UNL A   1      32.515  22.221  28.378  1.00  0.00    -0.168 F 
ENDBRANCH   6  23
ENDBRANCH   3   6
ENDBRANCH   1   2
BRANCH   1  27
ATOM     27  C   UNL A   1      35.923  22.585  22.914  1.00  0.00     0.023 C 
BRANCH  27  28
ATOM     28  C   UNL A   1      37.014  22.595  23.995  1.00  0.00     0.023 C 
BRANCH  28  29
ATOM     29  C   UNL A   1      36.835  21.678  25.209  1.00  0.00     0.116 C 
BRANCH  29  30
ATOM     30  N   UNL A   1      37.919  20.728  25.415  1.00  0.00    -0.352 N 
ATOM     31  C   UNL A   1      39.155  20.877  26.014  1.00  0.00     0.251 C 
ATOM     32  H   UNL A   1      37.740  19.824  25.068  1.00  0.00     0.163 HD
ATOM     33  O   UNL A   1      39.920  19.924  26.053  1.00  0.00    -0.269 OA
BRANCH  31  34
ATOM     34  C   UNL A   1      39.589  22.189  26.559  1.00  0.00     0.039 A 
ATOM     35  C   UNL A   1      40.613  22.207  27.514  1.00  0.00     0.014 A 
ATOM     36  C   UNL A   1      39.011  23.390  26.146  1.00  0.00     0.014 A 
ATOM     37  C   UNL A   1      41.135  23.428  27.960  1.00  0.00     0.010 A 
ATOM     38  C   UNL A   1      39.576  24.605  26.540  1.00  0.00     0.010 A 
ATOM     39  C   UNL A   1      40.663  24.639  27.430  1.00  0.00    -0.014 A 
BRANCH  39  40
ATOM     40  C   UNL A   1      41.341  25.933  27.729  1.00  0.00     0.031 A 
ATOM     41  C   UNL A   1      40.635  27.027  28.484  1.00  0.00     0.074 A 
ATOM     42  C   UNL A   1      42.569  26.166  27.218  1.00  0.00     0.049 A 
ATOM     43  N   UNL A   1      41.054  28.235  28.768  1.00  0.00    -0.248 NA
ATOM     44  C   UNL A   1      39.273  26.739  28.960  1.00  0.00     0.031 C 
ATOM     45  C   UNL A   1      43.336  25.228  26.395  1.00  0.00     0.029 A 
ATOM     46  N   UNL A   1      43.378  27.276  27.290  1.00  0.00    -0.354 N 
ATOM     47  C   UNL A   1      39.999  28.863  29.418  1.00  0.00     0.074 A 
ATOM     48  C   UNL A   1      38.911  27.910  29.467  1.00  0.00     0.031 C 
ATOM     49  C   UNL A   1      44.500  25.796  26.041  1.00  0.00     0.029 A 
ATOM     50  C   UNL A   1      44.555  27.149  26.585  1.00  0.00     0.049 A 
ATOM     51  H   UNL A   1      43.139  28.085  27.797  1.00  0.00     0.167 HD
ATOM     52  C   UNL A   1      39.946  30.109  29.950  1.00  0.00     0.034 A 
ATOM     53  C   UNL A   1      45.565  28.022  26.392  1.00  0.00     0.034 A 
ATOM     54  C   UNL A   1      41.043  31.040  29.949  1.00  0.00     0.049 A 
ATOM     55  C   UNL A   1      45.500  29.380  27.038  1.00  0.00     0.074 A 
ATOM     56  C   UNL A   1      41.115  32.283  30.555  1.00  0.00     0.029 A 
ATOM     57  N   UNL A   1      42.256  30.838  29.311  1.00  0.00    -0.354 N 
ATOM     58  N   UNL A   1      44.562  29.886  27.799  1.00  0.00    -0.248 NA
ATOM     59  C   UNL A   1      46.649  30.273  26.828  1.00  0.00     0.031 C 
ATOM     60  C   UNL A   1      42.366  32.840  30.267  1.00  0.00     0.029 A 
ATOM     61  C   UNL A   1      43.080  31.935  29.499  1.00  0.00     0.049 A 
ATOM     62  H   UNL A   1      42.497  30.033  28.798  1.00  0.00     0.167 HD
ATOM     63  C   UNL A   1      45.023  31.138  28.191  1.00  0.00     0.074 A 
ATOM     64  C   UNL A   1      46.333  31.306  27.599  1.00  0.00     0.031 C 
ATOM     65  C   UNL A   1      44.409  32.071  28.959  1.00  0.00     0.034 A 
BRANCH  52  66
ATOM     66  C   UNL A   1      38.672  30.524  30.639  1.00  0.00     0.023 A 
ATOM     67  C   UNL A   1      38.537  30.315  32.028  1.00  0.00     0.012 A 
ATOM     68  C   UNL A   1      37.644  31.181  29.937  1.00  0.00     0.148 A 
ATOM     69  C   UNL A   1      37.387  30.724  32.699  1.00  0.00     0.002 A 
ATOM     70  C   UNL A   1      36.517  31.624  30.622  1.00  0.00     0.091 A 
ATOM     71  F   UNL A   1      37.781  31.355  28.614  1.00  0.00    -0.205 F 
ATOM     72  C   UNL A   1      36.383  31.386  32.000  1.00  0.00     0.022 A 
BRANCH  70  73
ATOM     73  S   UNL A   1      35.202  32.555  29.826  1.00  0.00     0.127 S 
ATOM     74  O   UNL A   1      34.710  31.591  28.845  1.00  0.00    -0.237 OA
ATOM     75  O   UNL A   1      34.289  32.814  30.939  1.00  0.00    -0.237 OA
ATOM     76  O   UNL A   1      35.833  33.746  29.273  1.00  0.00    -0.744 OA
ENDBRANCH  70  73
ENDBRANCH  52  66
BRANCH  53  77
ATOM     77  C   UNL A   1      46.767  27.611  25.610  1.00  0.00     0.023 A 
ATOM     78  C   UNL A   1      46.790  27.835  24.220  1.00  0.00     0.012 A 
ATOM     79  C   UNL A   1      47.887  27.025  26.230  1.00  0.00     0.148 A 
ATOM     80  C   UNL A   1      47.892  27.452  23.456  1.00  0.00     0.002 A 
ATOM     81  C   UNL A   1      49.005  26.696  25.471  1.00  0.00     0.091 A 
ATOM     82  F   UNL A   1      47.841  26.805  27.551  1.00  0.00    -0.205 F 
ATOM     83  C   UNL A   1      49.003  26.893  24.081  1.00  0.00     0.022 A 
BRANCH  81  84
ATOM     84  S   UNL A   1      50.526  26.097  26.213  1.00  0.00     0.127 S 
ATOM     85  O   UNL A   1      51.392  25.950  25.046  1.00  0.00    -0.237 OA
ATOM     86  O   UNL A   1      50.883  27.198  27.109  1.00  0.00    -0.237 OA
ATOM     87  O   UNL A   1      50.166  24.864  26.899  1.00  0.00    -0.744 OA
ENDBRANCH  81  84
ENDBRANCH  53  77
BRANCH  65  88
ATOM     88  C   UNL A   1      45.152  33.350  29.242  1.00  0.00     0.023 A 
ATOM     89  C   UNL A   1      45.996  33.435  30.367  1.00  0.00     0.012 A 
ATOM     90  C   UNL A   1      45.074  34.440  28.353  1.00  0.00     0.148 A 
ATOM     91  C   UNL A   1      46.729  34.595  30.618  1.00  0.00     0.002 A 
ATOM     92  C   UNL A   1      45.843  35.575  28.583  1.00  0.00     0.091 A 
ATOM     93  F   UNL A   1      44.249  34.349  27.298  1.00  0.00    -0.205 F 
ATOM     94  C   UNL A   1      46.663  35.659  29.720  1.00  0.00     0.022 A 
BRANCH  92  95
ATOM     95  S   UNL A   1      45.892  36.954  27.431  1.00  0.00     0.127 S 
ATOM     96  O   UNL A   1      46.835  37.857  28.087  1.00  0.00    -0.237 OA
ATOM     97  O   UNL A   1      46.399  36.324  26.211  1.00  0.00    -0.237 OA
ATOM     98  O   UNL A   1      44.521  37.439  27.333  1.00  0.00    -0.744 OA
ENDBRANCH  92  95
ENDBRANCH  65  88
ENDBRANCH  39  40
ENDBRANCH  31  34
ENDBRANCH  29  30
ENDBRANCH  28  29
ENDBRANCH  27  28
ENDBRANCH   1  27
TORSDOF 20
ENDMDL
MODEL 3
REMARK VINA RESULT:     -10.8      5.035     10.006
REMARK SMILES C[C@@](NC(=O)CCOC1CC[NH2+]CC1)(C(=O)NCCCCNC(=O)c1ccc(-c2c3nc(c(-c4cccc(S(=O)(=O)[O-])c4F)c4ccc([nH]4)c(-c4cccc(S(=O)(=O)[O-])c4F)c4nc(c(-c5cccc(S(=O)(=O)[O-])c5F)c5ccc2[nH]5)C=C4)C=C3)cc1)C(F)(F)F
REMARK SMILES IDX 18 1 17 2 15 3 16 4 2 6 1 7 3 8 4 9 5 11 6 12 7 13 8 14 9 15
REMARK SMILES IDX 10 16 14 17 11 18 13 19 12 20 88 23 89 24 90 25 91 26 19 27
REMARK SMILES IDX 20 28 21 29 22 30 23 31 24 33 25 34 26 35 87 36 27 37 86 38
REMARK SMILES IDX 28 39 29 40 30 41 80 42 31 43 85 44 79 45 81 46 32 47 84 48
REMARK SMILES IDX 78 49 77 50 33 52 65 53 45 54 64 55 46 56 49 57 63 58 82 59
REMARK SMILES IDX 47 60 48 61 62 63 83 64 50 65 34 66 35 67 43 68 36 69 38 70
REMARK SMILES IDX 44 71 37 72 39 73 40 74 41 75 42 76 66 77 67 78 75 79 68 80
REMARK SMILES IDX 70 81 76 82 69 83 71 84 72 85 73 86 74 87 51 88 52 89 60 90
REMARK SMILES IDX 53 91 55 92 61 93 54 94 56 95 57 96 58 97 59 98
REMARK H PARENT 17 5 3 10 12 21 12 22 22 32 81 51 49 62
REMARK Flexibility Score: inf
ROOT
ATOM      1  C   UNL A   1      34.679  24.258  23.557  1.00  0.00     0.116 C 
ENDROOT
BRANCH   1   2
ATOM      2  N   UNL A   1      33.534  24.562  22.712  1.00  0.00    -0.354 N 
ATOM      3  C   UNL A   1      32.557  25.519  22.745  1.00  0.00     0.254 C 
ATOM      4  O   UNL A   1      31.998  25.688  21.654  1.00  0.00    -0.272 OA
ATOM      5  H   UNL A   1      33.441  23.942  21.952  1.00  0.00     0.163 HD
BRANCH   3   6
ATOM      6  C   UNL A   1      32.200  26.445  23.944  1.00  0.00     0.212 C 
ATOM      7  C   UNL A   1      30.910  27.248  23.686  1.00  0.00     0.056 C 
BRANCH   6   8
ATOM      8  N   UNL A   1      32.021  25.818  25.294  1.00  0.00    -0.334 N 
ATOM      9  C   UNL A   1      32.002  24.512  25.665  1.00  0.00     0.223 C 
ATOM     10  H   UNL A   1      31.898  26.457  26.033  1.00  0.00     0.164 HD
ATOM     11  O   UNL A   1      32.790  24.176  26.551  1.00  0.00    -0.275 OA
BRANCH   9  12
ATOM     12  C   UNL A   1      30.989  23.543  25.117  1.00  0.00     0.128 C 
BRANCH  12  13
ATOM     13  C   UNL A   1      30.769  22.243  25.884  1.00  0.00     0.170 C 
BRANCH  13  14
ATOM     14  O   UNL A   1      31.362  21.046  25.376  1.00  0.00    -0.377 OA
BRANCH  14  15
ATOM     15  C   UNL A   1      32.612  21.165  24.686  1.00  0.00     0.129 C 
ATOM     16  C   UNL A   1      32.414  20.717  23.241  1.00  0.00     0.093 C 
ATOM     17  C   UNL A   1      33.703  20.298  25.323  1.00  0.00     0.093 C 
ATOM     18  C   UNL A   1      32.092  19.228  23.197  1.00  0.00     0.263 C 
ATOM     19  C   UNL A   1      33.397  18.815  25.193  1.00  0.00     0.263 C 
ATOM     20  N   UNL A   1      33.168  18.433  23.797  1.00  0.00    -0.346 N 
ATOM     21  H   UNL A   1      34.026  18.582  23.267  1.00  0.00     0.346 HD
ATOM     22  H   UNL A   1      32.893  17.451  23.773  1.00  0.00     0.346 HD
ENDBRANCH  14  15
ENDBRANCH  13  14
ENDBRANCH  12  13
ENDBRANCH   9  12
ENDBRANCH   6   8
BRANCH   6  23
ATOM     23  C   UNL A   1      33.354  27.491  24.010  1.00  0.00     0.420 C 
ATOM     24  F   UNL A   1      33.958  27.666  22.814  1.00  0.00    -0.168 F 
ATOM     25  F   UNL A   1      32.839  28.708  24.355  1.00  0.00    -0.168 F 
ATOM     26  F   UNL A   1      34.293  27.210  24.936  1.00  0.00    -0.168 F 
ENDBRANCH   6  23
ENDBRANCH   3   6
ENDBRANCH   1   2
BRANCH   1  27
ATOM     27  C   UNL A   1      35.416  22.956  23.224  1.00  0.00     0.023 C 
BRANCH  27  28
ATOM     28  C   UNL A   1      36.820  22.753  23.813  1.00  0.00     0.023 C 
BRANCH  28  29
ATOM     29  C   UNL A   1      36.932  22.235  25.250  1.00  0.00     0.116 C 
BRANCH  29  30
ATOM     30  N   UNL A   1      38.041  21.319  25.479  1.00  0.00    -0.352 N 
ATOM     31  C   UNL A   1      39.250  21.502  26.122  1.00  0.00     0.251 C 
ATOM     32  H   UNL A   1      37.906  20.415  25.113  1.00  0.00     0.163 HD
ATOM     33  O   UNL A   1      40.046  20.577  26.173  1.00  0.00    -0.269 OA
BRANCH  31  34
ATOM     34  C   UNL A   1      39.619  22.820  26.700  1.00  0.00     0.039 A 
ATOM     35  C   UNL A   1      40.702  22.878  27.584  1.00  0.00     0.014 A 
ATOM     36  C   UNL A   1      38.922  23.987  26.386  1.00  0.00     0.014 A 
ATOM     37  C   UNL A   1      41.159  24.117  28.054  1.00  0.00     0.010 A 
ATOM     38  C   UNL A   1      39.418  25.226  26.800  1.00  0.00     0.010 A 
ATOM     39  C   UNL A   1      40.558  25.308  27.616  1.00  0.00    -0.014 A 
BRANCH  39  40
ATOM     40  C   UNL A   1      41.154  26.639  27.932  1.00  0.00     0.031 A 
ATOM     41  C   UNL A   1      42.586  26.952  27.590  1.00  0.00     0.074 A 
ATOM     42  C   UNL A   1      40.430  27.535  28.634  1.00  0.00     0.049 A 
ATOM     43  N   UNL A   1      43.280  28.030  27.855  1.00  0.00    -0.248 NA
ATOM     44  C   UNL A   1      43.347  25.911  26.882  1.00  0.00     0.031 C 
ATOM     45  C   UNL A   1      39.058  27.330  29.107  1.00  0.00     0.029 A 
ATOM     46  N   UNL A   1      40.753  28.787  29.101  1.00  0.00    -0.354 N 
ATOM     47  C   UNL A   1      44.564  27.786  27.385  1.00  0.00     0.074 A 
ATOM     48  C   UNL A   1      44.560  26.446  26.837  1.00  0.00     0.031 C 
ATOM     49  C   UNL A   1      38.658  28.415  29.791  1.00  0.00     0.029 A 
ATOM     50  C   UNL A   1      39.750  29.383  29.833  1.00  0.00     0.049 A 
ATOM     51  H   UNL A   1      41.621  29.218  28.929  1.00  0.00     0.167 HD
ATOM     52  C   UNL A   1      45.642  28.608  27.383  1.00  0.00     0.034 A 
ATOM     53  C   UNL A   1      39.709  30.569  30.472  1.00  0.00     0.034 A 
ATOM     54  C   UNL A   1      45.635  29.958  27.879  1.00  0.00     0.049 A 
ATOM     55  C   UNL A   1      40.905  31.482  30.409  1.00  0.00     0.074 A 
ATOM     56  C   UNL A   1      46.650  30.899  27.824  1.00  0.00     0.029 A 
ATOM     57  N   UNL A   1      44.569  30.561  28.526  1.00  0.00    -0.354 N 
ATOM     58  N   UNL A   1      42.051  31.297  29.802  1.00  0.00    -0.248 NA
ATOM     59  C   UNL A   1      40.787  32.781  31.087  1.00  0.00     0.031 C 
ATOM     60  C   UNL A   1      46.201  32.065  28.453  1.00  0.00     0.029 A 
ATOM     61  C   UNL A   1      44.902  31.857  28.882  1.00  0.00     0.049 A 
ATOM     62  H   UNL A   1      43.701  30.132  28.705  1.00  0.00     0.167 HD
ATOM     63  C   UNL A   1      42.776  32.469  29.992  1.00  0.00     0.074 A 
ATOM     64  C   UNL A   1      41.931  33.365  30.753  1.00  0.00     0.031 C 
ATOM     65  C   UNL A   1      44.034  32.768  29.585  1.00  0.00     0.034 A 
BRANCH  52  66
ATOM     66  C   UNL A   1      46.917  28.091  26.767  1.00  0.00     0.023 A 
ATOM     67  C   UNL A   1      47.910  27.533  27.597  1.00  0.00     0.012 A 
ATOM     68  C   UNL A   1      47.102  28.087  25.371  1.00  0.00     0.148 A 
ATOM     69  C   UNL A   1      49.082  27.012  27.053  1.00  0.00     0.002 A 
ATOM     70  C   UNL A   1      48.255  27.526  24.831  1.00  0.00     0.091 A 
ATOM     71  F   UNL A   1      46.155  28.637  24.597  1.00  0.00    -0.205 F 
ATOM     72  C   UNL A   1      49.250  26.999  25.671  1.00  0.00     0.022 A 
BRANCH  70  73
ATOM     73  S   UNL A   1      48.531  27.392  23.061  1.00  0.00     0.127 S 
ATOM     74  O   UNL A   1      49.912  27.853  22.941  1.00  0.00    -0.237 OA
ATOM     75  O   UNL A   1      48.343  25.960  22.827  1.00  0.00    -0.237 OA
ATOM     76  O   UNL A   1      47.529  28.243  22.434  1.00  0.00    -0.744 OA
ENDBRANCH  70  73
ENDBRANCH  52  66
BRANCH  53  77
ATOM     77  C   UNL A   1      38.462  31.001  31.165  1.00  0.00     0.023 A 
ATOM     78  C   UNL A   1      38.345  30.802  32.555  1.00  0.00     0.012 A 
ATOM     79  C   UNL A   1      37.407  31.623  30.470  1.00  0.00     0.148 A 
ATOM     80  C   UNL A   1      37.187  31.183  33.234  1.00  0.00     0.002 A 
ATOM     81  C   UNL A   1      36.279  32.050  31.162  1.00  0.00     0.091 A 
ATOM     82  F   UNL A   1      37.529  31.790  29.146  1.00  0.00    -0.205 F 
ATOM     83  C   UNL A   1      36.159  31.816  32.541  1.00  0.00     0.022 A 
BRANCH  81  84
ATOM     84  S   UNL A   1      34.968  32.991  30.373  1.00  0.00     0.127 S 
ATOM     85  O   UNL A   1      34.068  33.249  31.493  1.00  0.00    -0.237 OA
ATOM     86  O   UNL A   1      35.690  34.165  29.880  1.00  0.00    -0.237 OA
ATOM     87  O   UNL A   1      34.447  32.129  29.322  1.00  0.00    -0.744 OA
ENDBRANCH  81  84
ENDBRANCH  53  77
BRANCH  65  88
ATOM     88  C   UNL A   1      44.575  34.134  29.918  1.00  0.00     0.023 A 
ATOM     89  C   UNL A   1      45.332  34.320  31.091  1.00  0.00     0.012 A 
ATOM     90  C   UNL A   1      44.398  35.214  29.032  1.00  0.00     0.148 A 
ATOM     91  C   UNL A   1      45.881  35.566  31.392  1.00  0.00     0.002 A 
ATOM     92  C   UNL A   1      44.987  36.442  29.313  1.00  0.00     0.091 A 
ATOM     93  F   UNL A   1      43.656  35.025  27.930  1.00  0.00    -0.205 F 
ATOM     94  C   UNL A   1      45.721  36.623  30.497  1.00  0.00     0.022 A 
BRANCH  92  95
ATOM     95  S   UNL A   1      44.911  37.830  28.174  1.00  0.00     0.127 S 
ATOM     96  O   UNL A   1      43.483  38.139  28.177  1.00  0.00    -0.237 OA
ATOM     97  O   UNL A   1      45.752  38.825  28.838  1.00  0.00    -0.237 OA
ATOM     98  O   UNL A   1      45.444  37.337  26.911  1.00  0.00    -0.744 OA
ENDBRANCH  92  95
ENDBRANCH  65  88
ENDBRANCH  39  40
ENDBRANCH  31  34
ENDBRANCH  29  30
ENDBRANCH  28  29
ENDBRANCH  27  28
ENDBRANCH   1  27
TORSDOF 20
ENDMDL
