MODEL 1
REMARK VINA RESULT:     -10.7      0.000      0.000
REMARK SMILES C[C@@H](Cc1ccco1)C(=O)NCCCCNC(=O)c1ccc(-c2c3nc(c(-c4cccc(S(=O)(=O)[O-])c4F)c4ccc([nH]4)c(-c4cccc(S(=O)(=O)[O-])c4F)c4nc(c(-c5cccc(S(=O)(=O)[O-])c5F)c5ccc2[nH]5)C=C4)C=C3)cc1
REMARK SMILES IDX 14 1 13 2 12 3 11 4 9 5 10 6 2 8 1 9 3 10 4 11 5 12 8 13
REMARK SMILES IDX 6 14 7 15 15 16 16 17 17 18 18 20 19 21 20 22 81 23 21 24
REMARK SMILES IDX 80 25 22 26 23 27 24 28 74 29 25 30 79 31 73 32 75 33 26 34
REMARK SMILES IDX 78 35 72 36 71 37 27 39 59 40 39 41 58 42 40 43 43 44 57 45
REMARK SMILES IDX 76 46 41 47 42 48 56 50 77 51 44 52 28 53 29 54 37 55 30 56
REMARK SMILES IDX 32 57 38 58 31 59 33 60 34 61 35 62 36 63 60 64 61 65 69 66
REMARK SMILES IDX 62 67 64 68 70 69 63 70 65 71 66 72 67 73 68 74 45 75 46 76
REMARK SMILES IDX 54 77 47 78 49 79 55 80 48 81 50 82 51 83 52 84 53 85
REMARK H PARENT 11 7 16 19 75 38 43 49
REMARK Flexibility Score: inf
ROOT
ATOM      1  C   UNL A   1      31.775  29.160  27.027  1.00  0.00     0.023 C 
ENDROOT
BRANCH   1   2
ATOM      2  C   UNL A   1      32.147  27.692  26.845  1.00  0.00     0.023 C 
BRANCH   2   3
ATOM      3  C   UNL A   1      33.530  27.439  26.265  1.00  0.00     0.116 C 
BRANCH   3   4
ATOM      4  N   UNL A   1      33.584  26.372  25.293  1.00  0.00    -0.356 N 
ATOM      5  C   UNL A   1      33.396  26.418  23.947  1.00  0.00     0.223 C 
ATOM      6  O   UNL A   1      33.715  25.417  23.296  1.00  0.00    -0.275 OA
ATOM      7  H   UNL A   1      33.787  25.481  25.658  1.00  0.00     0.163 HD
BRANCH   5   8
ATOM      8  C   UNL A   1      32.789  27.622  23.220  1.00  0.00     0.083 C 
ATOM      9  C   UNL A   1      33.709  28.248  22.174  1.00  0.00     0.018 C 
BRANCH   8  10
ATOM     10  C   UNL A   1      31.310  27.479  22.835  1.00  0.00     0.088 C 
BRANCH  10  11
ATOM     11  C   UNL A   1      30.475  28.709  22.844  1.00  0.00     0.104 A 
ATOM     12  C   UNL A   1      29.860  29.453  23.832  1.00  0.00     0.045 A 
ATOM     13  O   UNL A   1      30.209  29.260  21.624  1.00  0.00    -0.469 OA
ATOM     14  C   UNL A   1      29.230  30.543  23.180  1.00  0.00     0.042 A 
ATOM     15  C   UNL A   1      29.455  30.368  21.836  1.00  0.00     0.195 A 
ENDBRANCH  10  11
ENDBRANCH   8  10
ENDBRANCH   5   8
ENDBRANCH   3   4
ENDBRANCH   2   3
ENDBRANCH   1   2
BRANCH   1  16
ATOM     16  C   UNL A   1      32.593  30.162  26.219  1.00  0.00     0.116 C 
BRANCH  16  17
ATOM     17  N   UNL A   1      32.458  31.544  26.666  1.00  0.00    -0.352 N 
ATOM     18  C   UNL A   1      33.325  32.294  27.432  1.00  0.00     0.251 C 
ATOM     19  H   UNL A   1      31.635  32.004  26.381  1.00  0.00     0.163 HD
ATOM     20  O   UNL A   1      33.033  33.433  27.768  1.00  0.00    -0.269 OA
BRANCH  18  21
ATOM     21  C   UNL A   1      34.597  31.683  27.877  1.00  0.00     0.039 A 
ATOM     22  C   UNL A   1      35.728  32.493  28.011  1.00  0.00     0.014 A 
ATOM     23  C   UNL A   1      34.645  30.336  28.242  1.00  0.00     0.014 A 
ATOM     24  C   UNL A   1      36.880  31.972  28.606  1.00  0.00     0.010 A 
ATOM     25  C   UNL A   1      35.764  29.844  28.904  1.00  0.00     0.010 A 
ATOM     26  C   UNL A   1      36.889  30.659  29.104  1.00  0.00    -0.014 A 
BRANCH  26  27
ATOM     27  C   UNL A   1      38.046  30.124  29.870  1.00  0.00     0.031 A 
ATOM     28  C   UNL A   1      38.313  30.602  31.271  1.00  0.00     0.074 A 
ATOM     29  C   UNL A   1      38.922  29.297  29.264  1.00  0.00     0.049 A 
ATOM     30  N   UNL A   1      39.317  30.323  32.060  1.00  0.00    -0.248 NA
ATOM     31  C   UNL A   1      37.341  31.547  31.849  1.00  0.00     0.031 C 
ATOM     32  C   UNL A   1      38.832  28.835  27.877  1.00  0.00     0.029 A 
ATOM     33  N   UNL A   1      40.082  28.725  29.726  1.00  0.00    -0.354 N 
ATOM     34  C   UNL A   1      39.123  31.084  33.207  1.00  0.00     0.074 A 
ATOM     35  C   UNL A   1      37.923  31.864  32.996  1.00  0.00     0.031 C 
ATOM     36  C   UNL A   1      39.889  28.052  27.603  1.00  0.00     0.029 A 
ATOM     37  C   UNL A   1      40.744  27.973  28.783  1.00  0.00     0.049 A 
ATOM     38  H   UNL A   1      40.409  28.841  30.648  1.00  0.00     0.167 HD
ATOM     39  C   UNL A   1      39.853  31.106  34.347  1.00  0.00     0.034 A 
ATOM     40  C   UNL A   1      41.909  27.301  28.856  1.00  0.00     0.034 A 
ATOM     41  C   UNL A   1      41.011  30.286  34.578  1.00  0.00     0.049 A 
ATOM     42  C   UNL A   1      42.664  27.284  30.159  1.00  0.00     0.074 A 
ATOM     43  C   UNL A   1      41.762  30.165  35.733  1.00  0.00     0.029 A 
ATOM     44  N   UNL A   1      41.584  29.444  33.637  1.00  0.00    -0.354 N 
ATOM     45  N   UNL A   1      42.369  27.877  31.289  1.00  0.00    -0.248 NA
ATOM     46  C   UNL A   1      43.891  26.475  30.208  1.00  0.00     0.031 C 
ATOM     47  C   UNL A   1      42.795  29.252  35.489  1.00  0.00     0.029 A 
ATOM     48  C   UNL A   1      42.678  28.798  34.185  1.00  0.00     0.049 A 
ATOM     49  H   UNL A   1      41.259  29.323  32.716  1.00  0.00     0.167 HD
ATOM     50  C   UNL A   1      43.351  27.489  32.193  1.00  0.00     0.074 A 
ATOM     51  C   UNL A   1      44.239  26.589  31.483  1.00  0.00     0.031 C 
ATOM     52  C   UNL A   1      43.516  27.857  33.486  1.00  0.00     0.034 A 
BRANCH  39  53
ATOM     53  C   UNL A   1      39.372  31.993  35.464  1.00  0.00     0.023 A 
ATOM     54  C   UNL A   1      38.438  31.486  36.392  1.00  0.00     0.012 A 
ATOM     55  C   UNL A   1      39.871  33.299  35.630  1.00  0.00     0.148 A 
ATOM     56  C   UNL A   1      37.984  32.274  37.446  1.00  0.00     0.002 A 
ATOM     57  C   UNL A   1      39.444  34.064  36.709  1.00  0.00     0.091 A 
ATOM     58  F   UNL A   1      40.739  33.773  34.725  1.00  0.00    -0.205 F 
ATOM     59  C   UNL A   1      38.493  33.558  37.611  1.00  0.00     0.022 A 
BRANCH  57  60
ATOM     60  S   UNL A   1      40.097  35.704  37.050  1.00  0.00     0.127 S 
ATOM     61  O   UNL A   1      39.654  36.448  35.874  1.00  0.00    -0.237 OA
ATOM     62  O   UNL A   1      39.409  36.059  38.292  1.00  0.00    -0.237 OA
ATOM     63  O   UNL A   1      41.537  35.539  37.184  1.00  0.00    -0.744 OA
ENDBRANCH  57  60
ENDBRANCH  39  53
BRANCH  40  64
ATOM     64  C   UNL A   1      42.391  26.516  27.683  1.00  0.00     0.023 A 
ATOM     65  C   UNL A   1      43.239  27.135  26.744  1.00  0.00     0.012 A 
ATOM     66  C   UNL A   1      42.047  25.162  27.510  1.00  0.00     0.148 A 
ATOM     67  C   UNL A   1      43.711  26.429  25.637  1.00  0.00     0.002 A 
ATOM     68  C   UNL A   1      42.563  24.450  26.432  1.00  0.00     0.091 A 
ATOM     69  F   UNL A   1      41.226  24.594  28.405  1.00  0.00    -0.205 F 
ATOM     70  C   UNL A   1      43.383  25.084  25.487  1.00  0.00     0.022 A 
BRANCH  68  71
ATOM     71  S   UNL A   1      42.300  22.683  26.237  1.00  0.00     0.127 S 
ATOM     72  O   UNL A   1      40.846  22.607  26.122  1.00  0.00    -0.237 OA
ATOM     73  O   UNL A   1      43.031  22.399  25.002  1.00  0.00    -0.237 OA
ATOM     74  O   UNL A   1      42.878  22.071  27.426  1.00  0.00    -0.744 OA
ENDBRANCH  68  71
ENDBRANCH  40  64
BRANCH  52  75
ATOM     75  C   UNL A   1      44.680  27.270  34.240  1.00  0.00     0.023 A 
ATOM     76  C   UNL A   1      45.911  27.954  34.261  1.00  0.00     0.012 A 
ATOM     77  C   UNL A   1      44.530  26.090  34.993  1.00  0.00     0.148 A 
ATOM     78  C   UNL A   1      46.984  27.459  34.999  1.00  0.00     0.002 A 
ATOM     79  C   UNL A   1      45.590  25.627  35.763  1.00  0.00     0.091 A 
ATOM     80  F   UNL A   1      43.357  25.443  34.945  1.00  0.00    -0.205 F 
ATOM     81  C   UNL A   1      46.820  26.304  35.759  1.00  0.00     0.022 A 
BRANCH  79  82
ATOM     82  S   UNL A   1      45.438  24.199  36.844  1.00  0.00     0.127 S 
ATOM     83  O   UNL A   1      44.961  23.173  35.918  1.00  0.00    -0.237 OA
ATOM     84  O   UNL A   1      46.812  24.009  37.308  1.00  0.00    -0.237 OA
ATOM     85  O   UNL A   1      44.500  24.588  37.888  1.00  0.00    -0.744 OA
ENDBRANCH  79  82
ENDBRANCH  52  75
ENDBRANCH  26  27
ENDBRANCH  18  21
ENDBRANCH  16  17
ENDBRANCH   1  16
TORSDOF 16
ENDMDL
MODEL 2
REMARK VINA RESULT:     -10.7      3.273      5.680
REMARK SMILES C[C@@H](Cc1ccco1)C(=O)NCCCCNC(=O)c1ccc(-c2c3nc(c(-c4cccc(S(=O)(=O)[O-])c4F)c4ccc([nH]4)c(-c4cccc(S(=O)(=O)[O-])c4F)c4nc(c(-c5cccc(S(=O)(=O)[O-])c5F)c5ccc2[nH]5)C=C4)C=C3)cc1
REMARK SMILES IDX 14 1 13 2 12 3 11 4 9 5 10 6 2 8 1 9 3 10 4 11 5 12 8 13
REMARK SMILES IDX 6 14 7 15 15 16 16 17 17 18 18 20 19 21 20 22 81 23 21 24
REMARK SMILES IDX 80 25 22 26 23 27 24 28 74 29 25 30 79 31 73 32 75 33 26 34
REMARK SMILES IDX 78 35 72 36 71 37 27 39 59 40 39 41 58 42 40 43 43 44 57 45
REMARK SMILES IDX 76 46 41 47 42 48 56 50 77 51 44 52 28 53 29 54 37 55 30 56
REMARK SMILES IDX 32 57 38 58 31 59 33 60 34 61 35 62 36 63 60 64 61 65 69 66
REMARK SMILES IDX 62 67 64 68 70 69 63 70 65 71 66 72 67 73 68 74 45 75 46 76
REMARK SMILES IDX 54 77 47 78 49 79 55 80 48 81 50 82 51 83 52 84 53 85
REMARK H PARENT 11 7 16 19 75 38 43 49
REMARK Flexibility Score: inf
ROOT
ATOM      1  C   UNL A   1      35.127  34.595  28.955  1.00  0.00     0.023 C 
ENDROOT
BRANCH   1   2
ATOM      2  C   UNL A   1      33.635  34.886  28.840  1.00  0.00     0.023 C 
BRANCH   2   3
ATOM      3  C   UNL A   1      33.185  36.219  29.418  1.00  0.00     0.116 C 
BRANCH   3   4
ATOM      4  N   UNL A   1      32.274  36.109  30.533  1.00  0.00    -0.356 N 
ATOM      5  C   UNL A   1      32.472  36.408  31.845  1.00  0.00     0.223 C 
ATOM      6  O   UNL A   1      31.475  36.445  32.574  1.00  0.00    -0.275 OA
ATOM      7  H   UNL A   1      31.378  35.767  30.311  1.00  0.00     0.163 HD
BRANCH   5   8
ATOM      8  C   UNL A   1      33.854  36.666  32.452  1.00  0.00     0.083 C 
ATOM      9  C   UNL A   1      34.092  38.116  32.867  1.00  0.00     0.018 C 
BRANCH   8  10
ATOM     10  C   UNL A   1      34.359  35.584  33.418  1.00  0.00     0.088 C 
BRANCH  10  11
ATOM     11  C   UNL A   1      34.956  34.358  32.826  1.00  0.00     0.104 A 
ATOM     12  C   UNL A   1      36.247  33.939  32.568  1.00  0.00     0.045 A 
ATOM     13  O   UNL A   1      34.073  33.406  32.405  1.00  0.00    -0.469 OA
ATOM     14  C   UNL A   1      36.143  32.641  32.009  1.00  0.00     0.042 A 
ATOM     15  C   UNL A   1      34.799  32.371  31.912  1.00  0.00     0.195 A 
ENDBRANCH  10  11
ENDBRANCH   8  10
ENDBRANCH   5   8
ENDBRANCH   3   4
ENDBRANCH   2   3
ENDBRANCH   1   2
BRANCH   1  16
ATOM     16  C   UNL A   1      35.584  33.233  28.440  1.00  0.00     0.116 C 
BRANCH  16  17
ATOM     17  N   UNL A   1      34.505  32.389  27.940  1.00  0.00    -0.352 N 
ATOM     18  C   UNL A   1      34.485  31.020  27.774  1.00  0.00     0.251 C 
ATOM     19  H   UNL A   1      33.679  32.861  27.687  1.00  0.00     0.163 HD
ATOM     20  O   UNL A   1      33.509  30.467  27.285  1.00  0.00    -0.269 OA
BRANCH  18  21
ATOM     21  C   UNL A   1      35.679  30.235  28.157  1.00  0.00     0.039 A 
ATOM     22  C   UNL A   1      36.727  30.105  27.241  1.00  0.00     0.014 A 
ATOM     23  C   UNL A   1      35.794  29.706  29.444  1.00  0.00     0.014 A 
ATOM     24  C   UNL A   1      37.931  29.529  27.653  1.00  0.00     0.010 A 
ATOM     25  C   UNL A   1      37.018  29.207  29.873  1.00  0.00     0.010 A 
ATOM     26  C   UNL A   1      38.104  29.123  28.987  1.00  0.00    -0.014 A 
BRANCH  26  27
ATOM     27  C   UNL A   1      39.417  28.643  29.492  1.00  0.00     0.031 A 
ATOM     28  C   UNL A   1      40.132  29.396  30.580  1.00  0.00     0.074 A 
ATOM     29  C   UNL A   1      40.021  27.597  28.891  1.00  0.00     0.049 A 
ATOM     30  N   UNL A   1      41.320  29.187  31.085  1.00  0.00    -0.248 NA
ATOM     31  C   UNL A   1      39.434  30.560  31.153  1.00  0.00     0.031 C 
ATOM     32  C   UNL A   1      39.479  26.840  27.759  1.00  0.00     0.029 A 
ATOM     33  N   UNL A   1      41.240  27.009  29.125  1.00  0.00    -0.354 N 
ATOM     34  C   UNL A   1      41.529  30.210  32.001  1.00  0.00     0.074 A 
ATOM     35  C   UNL A   1      40.361  31.061  31.957  1.00  0.00     0.031 C 
ATOM     36  C   UNL A   1      40.359  25.892  27.400  1.00  0.00     0.029 A 
ATOM     37  C   UNL A   1      41.537  25.985  28.256  1.00  0.00     0.049 A 
ATOM     38  H   UNL A   1      41.845  27.295  29.848  1.00  0.00     0.167 HD
ATOM     39  C   UNL A   1      42.581  30.406  32.831  1.00  0.00     0.034 A 
ATOM     40  C   UNL A   1      42.635  25.210  28.157  1.00  0.00     0.034 A 
ATOM     41  C   UNL A   1      43.715  29.526  32.917  1.00  0.00     0.049 A 
ATOM     42  C   UNL A   1      43.760  25.403  29.139  1.00  0.00     0.074 A 
ATOM     43  C   UNL A   1      44.785  29.586  33.791  1.00  0.00     0.029 A 
ATOM     44  N   UNL A   1      43.925  28.426  32.100  1.00  0.00    -0.354 N 
ATOM     45  N   UNL A   1      43.862  26.274  30.113  1.00  0.00    -0.248 NA
ATOM     46  C   UNL A   1      44.902  24.484  29.034  1.00  0.00     0.031 C 
ATOM     47  C   UNL A   1      45.646  28.521  33.500  1.00  0.00     0.029 A 
ATOM     48  C   UNL A   1      45.106  27.796  32.451  1.00  0.00     0.049 A 
ATOM     49  H   UNL A   1      43.322  28.135  31.378  1.00  0.00     0.167 HD
ATOM     50  C   UNL A   1      45.059  25.988  30.758  1.00  0.00     0.074 A 
ATOM     51  C   UNL A   1      45.637  24.846  30.077  1.00  0.00     0.031 C 
ATOM     52  C   UNL A   1      45.639  26.623  31.806  1.00  0.00     0.034 A 
BRANCH  39  53
ATOM     53  C   UNL A   1      42.516  31.580  33.771  1.00  0.00     0.023 A 
ATOM     54  C   UNL A   1      42.951  32.845  33.325  1.00  0.00     0.012 A 
ATOM     55  C   UNL A   1      41.984  31.450  35.069  1.00  0.00     0.148 A 
ATOM     56  C   UNL A   1      42.890  33.955  34.164  1.00  0.00     0.002 A 
ATOM     57  C   UNL A   1      41.887  32.571  35.886  1.00  0.00     0.091 A 
ATOM     58  F   UNL A   1      41.597  30.236  35.485  1.00  0.00    -0.205 F 
ATOM     59  C   UNL A   1      42.350  33.821  35.439  1.00  0.00     0.022 A 
BRANCH  57  60
ATOM     60  S   UNL A   1      41.137  32.517  37.518  1.00  0.00     0.127 S 
ATOM     61  O   UNL A   1      41.185  33.923  37.911  1.00  0.00    -0.237 OA
ATOM     62  O   UNL A   1      39.795  32.010  37.225  1.00  0.00    -0.237 OA
ATOM     63  O   UNL A   1      41.964  31.614  38.306  1.00  0.00    -0.744 OA
ENDBRANCH  57  60
ENDBRANCH  39  53
BRANCH  40  64
ATOM     64  C   UNL A   1      42.688  24.122  27.138  1.00  0.00     0.023 A 
ATOM     65  C   UNL A   1      43.405  24.332  25.944  1.00  0.00     0.012 A 
ATOM     66  C   UNL A   1      42.069  22.877  27.356  1.00  0.00     0.148 A 
ATOM     67  C   UNL A   1      43.478  23.335  24.972  1.00  0.00     0.002 A 
ATOM     68  C   UNL A   1      42.190  21.868  26.406  1.00  0.00     0.091 A 
ATOM     69  F   UNL A   1      41.378  22.698  28.491  1.00  0.00    -0.205 F 
ATOM     70  C   UNL A   1      42.881  22.100  25.207  1.00  0.00     0.022 A 
BRANCH  68  71
ATOM     71  S   UNL A   1      41.566  20.206  26.687  1.00  0.00     0.127 S 
ATOM     72  O   UNL A   1      40.140  20.451  26.887  1.00  0.00    -0.237 OA
ATOM     73  O   UNL A   1      41.906  19.535  25.432  1.00  0.00    -0.237 OA
ATOM     74  O   UNL A   1      42.297  19.709  27.845  1.00  0.00    -0.744 OA
ENDBRANCH  68  71
ENDBRANCH  40  64
BRANCH  52  75
ATOM     75  C   UNL A   1      46.952  26.089  32.310  1.00  0.00     0.023 A 
ATOM     76  C   UNL A   1      48.157  26.617  31.807  1.00  0.00     0.012 A 
ATOM     77  C   UNL A   1      46.993  25.128  33.339  1.00  0.00     0.148 A 
ATOM     78  C   UNL A   1      49.384  26.178  32.302  1.00  0.00     0.002 A 
ATOM     79  C   UNL A   1      48.219  24.728  33.858  1.00  0.00     0.091 A 
ATOM     80  F   UNL A   1      45.836  24.622  33.791  1.00  0.00    -0.205 F 
ATOM     81  C   UNL A   1      49.415  25.245  33.334  1.00  0.00     0.022 A 
BRANCH  79  82
ATOM     82  S   UNL A   1      48.348  23.599  35.251  1.00  0.00     0.127 S 
ATOM     83  O   UNL A   1      47.306  24.105  36.142  1.00  0.00    -0.237 OA
ATOM     84  O   UNL A   1      48.050  22.306  34.635  1.00  0.00    -0.237 OA
ATOM     85  O   UNL A   1      49.713  23.729  35.742  1.00  0.00    -0.744 OA
ENDBRANCH  79  82
ENDBRANCH  52  75
ENDBRANCH  26  27
ENDBRANCH  18  21
ENDBRANCH  16  17
ENDBRANCH   1  16
TORSDOF 16
ENDMDL
MODEL 3
REMARK VINA RESULT:     -10.5      1.926      3.010
REMARK SMILES C[C@@H](Cc1ccco1)C(=O)NCCCCNC(=O)c1ccc(-c2c3nc(c(-c4cccc(S(=O)(=O)[O-])c4F)c4ccc([nH]4)c(-c4cccc(S(=O)(=O)[O-])c4F)c4nc(c(-c5cccc(S(=O)(=O)[O-])c5F)c5ccc2[nH]5)C=C4)C=C3)cc1
REMARK SMILES IDX 14 1 13 2 12 3 11 4 9 5 10 6 2 8 1 9 3 10 4 11 5 12 8 13
REMARK SMILES IDX 6 14 7 15 15 16 16 17 17 18 18 20 19 21 20 22 81 23 21 24
REMARK SMILES IDX 80 25 22 26 23 27 24 28 74 29 25 30 79 31 73 32 75 33 26 34
REMARK SMILES IDX 78 35 72 36 71 37 27 39 59 40 39 41 58 42 40 43 43 44 57 45
REMARK SMILES IDX 76 46 41 47 42 48 56 50 77 51 44 52 28 53 29 54 37 55 30 56
REMARK SMILES IDX 32 57 38 58 31 59 33 60 34 61 35 62 36 63 60 64 61 65 69 66
REMARK SMILES IDX 62 67 64 68 70 69 63 70 65 71 66 72 67 73 68 74 45 75 46 76
REMARK SMILES IDX 54 77 47 78 49 79 55 80 48 81 50 82 51 83 52 84 53 85
REMARK H PARENT 11 7 16 19 75 38 43 49
REMARK Flexibility Score: inf
ROOT
ATOM      1  C   UNL A   1      31.615  28.763  26.765  1.00  0.00     0.023 C 
ENDROOT
BRANCH   1   2
ATOM      2  C   UNL A   1      31.835  27.274  26.525  1.00  0.00     0.023 C 
BRANCH   2   3
ATOM      3  C   UNL A   1      30.691  26.551  25.829  1.00  0.00     0.116 C 
BRANCH   3   4
ATOM      4  N   UNL A   1      30.289  25.319  26.466  1.00  0.00    -0.356 N 
ATOM      5  C   UNL A   1      30.905  24.107  26.472  1.00  0.00     0.223 C 
ATOM      6  O   UNL A   1      30.487  23.263  27.272  1.00  0.00    -0.275 OA
ATOM      7  H   UNL A   1      29.445  25.364  26.970  1.00  0.00     0.163 HD
BRANCH   5   8
ATOM      8  C   UNL A   1      32.051  23.739  25.526  1.00  0.00     0.083 C 
ATOM      9  C   UNL A   1      33.426  23.713  26.191  1.00  0.00     0.018 C 
BRANCH   8  10
ATOM     10  C   UNL A   1      31.747  22.604  24.536  1.00  0.00     0.088 C 
BRANCH  10  11
ATOM     11  C   UNL A   1      32.549  21.358  24.653  1.00  0.00     0.104 A 
ATOM     12  C   UNL A   1      33.787  20.958  24.188  1.00  0.00     0.045 A 
ATOM     13  O   UNL A   1      31.971  20.337  25.350  1.00  0.00    -0.469 OA
ATOM     14  C   UNL A   1      33.992  19.642  24.673  1.00  0.00     0.042 A 
ATOM     15  C   UNL A   1      32.849  19.303  25.357  1.00  0.00     0.195 A 
ENDBRANCH  10  11
ENDBRANCH   8  10
ENDBRANCH   5   8
ENDBRANCH   3   4
ENDBRANCH   2   3
ENDBRANCH   1   2
BRANCH   1  16
ATOM     16  C   UNL A   1      32.691  29.695  26.213  1.00  0.00     0.116 C 
BRANCH  16  17
ATOM     17  N   UNL A   1      32.528  31.092  26.599  1.00  0.00    -0.352 N 
ATOM     18  C   UNL A   1      33.383  31.891  27.329  1.00  0.00     0.251 C 
ATOM     19  H   UNL A   1      31.696  31.522  26.299  1.00  0.00     0.163 HD
ATOM     20  O   UNL A   1      33.068  33.039  27.616  1.00  0.00    -0.269 OA
BRANCH  18  21
ATOM     21  C   UNL A   1      34.668  31.326  27.796  1.00  0.00     0.039 A 
ATOM     22  C   UNL A   1      35.751  32.185  28.002  1.00  0.00     0.014 A 
ATOM     23  C   UNL A   1      34.772  29.969  28.108  1.00  0.00     0.014 A 
ATOM     24  C   UNL A   1      36.907  31.698  28.617  1.00  0.00     0.010 A 
ATOM     25  C   UNL A   1      35.891  29.507  28.790  1.00  0.00     0.010 A 
ATOM     26  C   UNL A   1      36.966  30.367  29.063  1.00  0.00    -0.014 A 
BRANCH  26  27
ATOM     27  C   UNL A   1      38.121  29.859  29.848  1.00  0.00     0.031 A 
ATOM     28  C   UNL A   1      38.387  30.384  31.233  1.00  0.00     0.074 A 
ATOM     29  C   UNL A   1      38.999  29.012  29.272  1.00  0.00     0.049 A 
ATOM     30  N   UNL A   1      39.389  30.133  32.032  1.00  0.00    -0.248 NA
ATOM     31  C   UNL A   1      37.413  31.347  31.777  1.00  0.00     0.031 C 
ATOM     32  C   UNL A   1      38.912  28.503  27.901  1.00  0.00     0.029 A 
ATOM     33  N   UNL A   1      40.158  28.456  29.755  1.00  0.00    -0.354 N 
ATOM     34  C   UNL A   1      39.193  30.931  33.152  1.00  0.00     0.074 A 
ATOM     35  C   UNL A   1      37.993  31.704  32.914  1.00  0.00     0.031 C 
ATOM     36  C   UNL A   1      39.968  27.711  27.656  1.00  0.00     0.029 A 
ATOM     37  C   UNL A   1      40.822  27.673  28.839  1.00  0.00     0.049 A 
ATOM     38  H   UNL A   1      40.484  28.603  30.673  1.00  0.00     0.167 HD
ATOM     39  C   UNL A   1      39.922  30.992  34.292  1.00  0.00     0.034 A 
ATOM     40  C   UNL A   1      41.987  27.004  28.937  1.00  0.00     0.034 A 
ATOM     41  C   UNL A   1      41.079  30.181  34.553  1.00  0.00     0.049 A 
ATOM     42  C   UNL A   1      42.740  27.031  30.240  1.00  0.00     0.074 A 
ATOM     43  C   UNL A   1      41.829  30.100  35.712  1.00  0.00     0.029 A 
ATOM     44  N   UNL A   1      41.654  29.308  33.642  1.00  0.00    -0.354 N 
ATOM     45  N   UNL A   1      42.443  27.663  31.349  1.00  0.00    -0.248 NA
ATOM     46  C   UNL A   1      43.967  26.225  30.319  1.00  0.00     0.031 C 
ATOM     47  C   UNL A   1      42.862  29.179  35.501  1.00  0.00     0.029 A 
ATOM     48  C   UNL A   1      42.747  28.682  34.213  1.00  0.00     0.049 A 
ATOM     49  H   UNL A   1      41.330  29.155  32.725  1.00  0.00     0.167 HD
ATOM     50  C   UNL A   1      43.424  27.305  32.267  1.00  0.00     0.074 A 
ATOM     51  C   UNL A   1      44.312  26.382  31.590  1.00  0.00     0.031 C 
ATOM     52  C   UNL A   1      43.586  27.717  33.548  1.00  0.00     0.034 A 
BRANCH  39  53
ATOM     53  C   UNL A   1      39.438  31.917  35.378  1.00  0.00     0.023 A 
ATOM     54  C   UNL A   1      38.438  31.471  36.267  1.00  0.00     0.012 A 
ATOM     55  C   UNL A   1      39.999  33.197  35.554  1.00  0.00     0.148 A 
ATOM     56  C   UNL A   1      37.979  32.294  37.292  1.00  0.00     0.002 A 
ATOM     57  C   UNL A   1      39.565  33.996  36.605  1.00  0.00     0.091 A 
ATOM     58  F   UNL A   1      40.931  33.613  34.685  1.00  0.00    -0.205 F 
ATOM     59  C   UNL A   1      38.549  33.552  37.467  1.00  0.00     0.022 A 
BRANCH  57  60
ATOM     60  S   UNL A   1      40.289  35.602  36.960  1.00  0.00     0.127 S 
ATOM     61  O   UNL A   1      39.681  36.435  35.925  1.00  0.00    -0.237 OA
ATOM     62  O   UNL A   1      39.806  35.866  38.317  1.00  0.00    -0.237 OA
ATOM     63  O   UNL A   1      41.729  35.422  36.857  1.00  0.00    -0.744 OA
ENDBRANCH  57  60
ENDBRANCH  39  53
BRANCH  40  64
ATOM     64  C   UNL A   1      42.471  26.180  27.792  1.00  0.00     0.023 A 
ATOM     65  C   UNL A   1      43.406  26.731  26.894  1.00  0.00     0.012 A 
ATOM     66  C   UNL A   1      42.042  24.852  27.605  1.00  0.00     0.148 A 
ATOM     67  C   UNL A   1      43.882  25.988  25.815  1.00  0.00     0.002 A 
ATOM     68  C   UNL A   1      42.560  24.098  26.558  1.00  0.00     0.091 A 
ATOM     69  F   UNL A   1      41.140  24.348  28.460  1.00  0.00    -0.205 F 
ATOM     70  C   UNL A   1      43.468  24.668  25.653  1.00  0.00     0.022 A 
BRANCH  68  71
ATOM     71  S   UNL A   1      42.184  22.352  26.354  1.00  0.00     0.127 S 
ATOM     72  O   UNL A   1      42.619  21.801  27.636  1.00  0.00    -0.237 OA
ATOM     73  O   UNL A   1      40.735  22.373  26.151  1.00  0.00    -0.237 OA
ATOM     74  O   UNL A   1      42.943  21.926  25.187  1.00  0.00    -0.744 OA
ENDBRANCH  68  71
ENDBRANCH  40  64
BRANCH  52  75
ATOM     75  C   UNL A   1      44.749  27.157  34.323  1.00  0.00     0.023 A 
ATOM     76  C   UNL A   1      45.972  27.856  34.345  1.00  0.00     0.012 A 
ATOM     77  C   UNL A   1      44.605  25.987  35.094  1.00  0.00     0.148 A 
ATOM     78  C   UNL A   1      47.043  27.385  35.103  1.00  0.00     0.002 A 
ATOM     79  C   UNL A   1      45.663  25.548  35.881  1.00  0.00     0.091 A 
ATOM     80  F   UNL A   1      43.441  25.324  35.043  1.00  0.00    -0.205 F 
ATOM     81  C   UNL A   1      46.885  26.241  35.880  1.00  0.00     0.022 A 
BRANCH  79  82
ATOM     82  S   UNL A   1      45.517  24.136  36.983  1.00  0.00     0.127 S 
ATOM     83  O   UNL A   1      44.608  24.648  38.006  1.00  0.00    -0.237 OA
ATOM     84  O   UNL A   1      44.938  23.115  36.109  1.00  0.00    -0.237 OA
ATOM     85  O   UNL A   1      46.871  23.842  37.434  1.00  0.00    -0.744 OA
ENDBRANCH  79  82
ENDBRANCH  52  75
ENDBRANCH  26  27
ENDBRANCH  18  21
ENDBRANCH  16  17
ENDBRANCH   1  16
TORSDOF 16
ENDMDL
