MODEL 1
REMARK VINA RESULT:     -12.4      0.000      0.000
REMARK SMILES O=C(NCCCCNC(=O)c1cc(NC(=S)NC(=O)c2ccccc2F)ccc1Cl)c1ccc(-c2c3nc(c(-c4cccc(S(=O)(=O)[O-])c4F)c4ccc([nH]4)c(-c4cccc(S(=O)(=O)[O-])c4F)c4nc(c(-c5cccc(S(=O)(=O)[O-])c5F)c5ccc2[nH]5)C=C4)C=C3)cc1
REMARK SMILES IDX 6 1 5 2 4 3 3 4 1 5 2 6 31 8 32 9 93 10 33 11 92 12 34 13
REMARK SMILES IDX 35 14 36 15 86 16 37 17 91 18 85 19 87 20 38 21 90 22 84 23
REMARK SMILES IDX 83 24 39 26 71 27 51 28 70 29 52 30 55 31 69 32 88 33 53 34
REMARK SMILES IDX 54 35 68 37 89 38 56 39 40 40 41 41 49 42 42 43 44 44 50 45
REMARK SMILES IDX 43 46 45 47 46 48 47 49 48 50 72 51 73 52 81 53 74 54 76 55
REMARK SMILES IDX 82 56 75 57 77 58 78 59 79 60 80 61 57 62 58 63 66 64 59 65
REMARK SMILES IDX 61 66 67 67 60 68 62 69 63 70 64 71 65 72 7 73 8 74 9 75
REMARK SMILES IDX 10 77 11 78 12 79 29 80 13 81 28 82 30 83 27 84 14 85 15 87
REMARK SMILES IDX 16 88 17 89 18 90 19 92 20 93 21 94 25 95 22 96 24 97 26 98
REMARK SMILES IDX 23 99
REMARK H PARENT 3 7 87 25 55 36 8 76 14 86 17 91
REMARK Flexibility Score: inf
ROOT
ATOM      1  C   UNL A   1      31.677  30.696  26.501  1.00  0.00     0.023 C 
ENDROOT
BRANCH   1   2
ATOM      2  C   UNL A   1      31.403  32.162  26.822  1.00  0.00     0.023 C 
BRANCH   2   3
ATOM      3  C   UNL A   1      32.648  33.026  26.875  1.00  0.00     0.116 C 
BRANCH   3   4
ATOM      4  N   UNL A   1      32.454  34.253  27.642  1.00  0.00    -0.352 N 
ATOM      5  O   UNL A   1      32.785  35.673  29.369  1.00  0.00    -0.269 OA
ATOM      6  C   UNL A   1      33.149  34.683  28.746  1.00  0.00     0.251 C 
ATOM      7  H   UNL A   1      31.734  34.846  27.327  1.00  0.00     0.163 HD
BRANCH   6   8
ATOM      8  C   UNL A   1      34.313  33.889  29.171  1.00  0.00     0.039 A 
ATOM      9  C   UNL A   1      34.101  32.742  29.938  1.00  0.00     0.014 A 
ATOM     10  C   UNL A   1      35.602  34.359  28.922  1.00  0.00     0.014 A 
ATOM     11  C   UNL A   1      35.163  32.193  30.630  1.00  0.00     0.010 A 
ATOM     12  C   UNL A   1      36.689  33.701  29.500  1.00  0.00     0.010 A 
ATOM     13  C   UNL A   1      36.475  32.634  30.385  1.00  0.00    -0.014 A 
BRANCH  13  14
ATOM     14  C   UNL A   1      37.590  31.859  30.981  1.00  0.00     0.031 A 
ATOM     15  C   UNL A   1      38.401  30.879  30.188  1.00  0.00     0.074 A 
ATOM     16  C   UNL A   1      37.875  32.091  32.278  1.00  0.00     0.049 A 
ATOM     17  N   UNL A   1      39.442  30.188  30.573  1.00  0.00    -0.248 NA
ATOM     18  C   UNL A   1      37.996  30.625  28.796  1.00  0.00     0.031 C 
ATOM     19  C   UNL A   1      37.116  32.994  33.149  1.00  0.00     0.029 A 
ATOM     20  N   UNL A   1      38.876  31.619  33.083  1.00  0.00    -0.354 N 
ATOM     21  C   UNL A   1      39.791  29.385  29.496  1.00  0.00     0.074 A 
ATOM     22  C   UNL A   1      38.845  29.670  28.438  1.00  0.00     0.031 C 
ATOM     23  C   UNL A   1      37.718  33.067  34.341  1.00  0.00     0.029 A 
ATOM     24  C   UNL A   1      38.841  32.141  34.355  1.00  0.00     0.049 A 
ATOM     25  H   UNL A   1      39.552  30.970  32.783  1.00  0.00     0.167 HD
ATOM     26  C   UNL A   1      40.808  28.495  29.405  1.00  0.00     0.034 A 
ATOM     27  C   UNL A   1      39.605  31.888  35.433  1.00  0.00     0.034 A 
ATOM     28  C   UNL A   1      41.749  28.243  30.467  1.00  0.00     0.049 A 
ATOM     29  C   UNL A   1      40.728  30.908  35.302  1.00  0.00     0.074 A 
ATOM     30  C   UNL A   1      42.859  27.417  30.447  1.00  0.00     0.029 A 
ATOM     31  N   UNL A   1      41.682  28.791  31.740  1.00  0.00    -0.354 N 
ATOM     32  N   UNL A   1      41.105  30.237  34.242  1.00  0.00    -0.248 NA
ATOM     33  C   UNL A   1      41.540  30.662  36.499  1.00  0.00     0.031 C 
ATOM     34  C   UNL A   1      43.426  27.417  31.724  1.00  0.00     0.029 A 
ATOM     35  C   UNL A   1      42.713  28.296  32.523  1.00  0.00     0.049 A 
ATOM     36  H   UNL A   1      41.003  29.434  32.043  1.00  0.00     0.167 HD
ATOM     37  C   UNL A   1      42.217  29.506  34.633  1.00  0.00     0.074 A 
ATOM     38  C   UNL A   1      42.457  29.826  36.027  1.00  0.00     0.031 C 
ATOM     39  C   UNL A   1      42.964  28.647  33.899  1.00  0.00     0.034 A 
BRANCH  26  40
ATOM     40  C   UNL A   1      40.975  27.727  28.117  1.00  0.00     0.023 A 
ATOM     41  C   UNL A   1      41.496  28.366  26.974  1.00  0.00     0.012 A 
ATOM     42  C   UNL A   1      40.701  26.344  28.069  1.00  0.00     0.148 A 
ATOM     43  C   UNL A   1      41.711  27.650  25.795  1.00  0.00     0.002 A 
ATOM     44  C   UNL A   1      40.967  25.627  26.908  1.00  0.00     0.091 A 
ATOM     45  F   UNL A   1      40.191  25.755  29.159  1.00  0.00    -0.205 F 
ATOM     46  C   UNL A   1      41.458  26.280  25.767  1.00  0.00     0.022 A 
BRANCH  44  47
ATOM     47  S   UNL A   1      40.766  23.845  26.802  1.00  0.00     0.127 S 
ATOM     48  O   UNL A   1      41.697  23.507  25.726  1.00  0.00    -0.237 OA
ATOM     49  O   UNL A   1      41.189  23.408  28.133  1.00  0.00    -0.237 OA
ATOM     50  O   UNL A   1      39.359  23.614  26.505  1.00  0.00    -0.744 OA
ENDBRANCH  44  47
ENDBRANCH  26  40
BRANCH  27  51
ATOM     51  C   UNL A   1      39.319  32.618  36.696  1.00  0.00     0.023 A 
ATOM     52  C   UNL A   1      39.866  33.897  36.900  1.00  0.00     0.012 A 
ATOM     53  C   UNL A   1      38.389  32.106  37.625  1.00  0.00     0.148 A 
ATOM     54  C   UNL A   1      39.490  34.656  38.009  1.00  0.00     0.002 A 
ATOM     55  C   UNL A   1      37.971  32.892  38.689  1.00  0.00     0.091 A 
ATOM     56  F   UNL A   1      37.881  30.885  37.403  1.00  0.00    -0.205 F 
ATOM     57  C   UNL A   1      38.532  34.162  38.893  1.00  0.00     0.022 A 
BRANCH  55  58
ATOM     58  S   UNL A   1      36.625  32.409  39.774  1.00  0.00     0.127 S 
ATOM     59  O   UNL A   1      36.682  33.448  40.801  1.00  0.00    -0.237 OA
ATOM     60  O   UNL A   1      35.474  32.492  38.876  1.00  0.00    -0.237 OA
ATOM     61  O   UNL A   1      36.941  31.063  40.229  1.00  0.00    -0.744 OA
ENDBRANCH  55  58
ENDBRANCH  27  51
BRANCH  39  62
ATOM     62  C   UNL A   1      44.152  28.002  34.560  1.00  0.00     0.023 A 
ATOM     63  C   UNL A   1      45.358  28.716  34.699  1.00  0.00     0.012 A 
ATOM     64  C   UNL A   1      44.019  26.738  35.168  1.00  0.00     0.148 A 
ATOM     65  C   UNL A   1      46.417  28.175  35.427  1.00  0.00     0.002 A 
ATOM     66  C   UNL A   1      45.055  26.231  35.938  1.00  0.00     0.091 A 
ATOM     67  F   UNL A   1      42.868  26.070  35.002  1.00  0.00    -0.205 F 
ATOM     68  C   UNL A   1      46.259  26.943  36.062  1.00  0.00     0.022 A 
BRANCH  66  69
ATOM     69  S   UNL A   1      44.903  24.712  36.884  1.00  0.00     0.127 S 
ATOM     70  O   UNL A   1      46.216  24.625  37.521  1.00  0.00    -0.237 OA
ATOM     71  O   UNL A   1      43.802  25.026  37.794  1.00  0.00    -0.237 OA
ATOM     72  O   UNL A   1      44.615  23.660  35.918  1.00  0.00    -0.744 OA
ENDBRANCH  66  69
ENDBRANCH  39  62
ENDBRANCH  13  14
ENDBRANCH   6   8
ENDBRANCH   3   4
ENDBRANCH   2   3
ENDBRANCH   1   2
BRANCH   1  73
ATOM     73  C   UNL A   1      33.078  30.225  26.888  1.00  0.00     0.116 C 
BRANCH  73  74
ATOM     74  N   UNL A   1      33.796  29.703  25.746  1.00  0.00    -0.352 N 
ATOM     75  C   UNL A   1      33.546  28.631  24.944  1.00  0.00     0.252 C 
ATOM     76  H   UNL A   1      34.606  30.210  25.508  1.00  0.00     0.163 HD
ATOM     77  O   UNL A   1      34.267  28.458  23.965  1.00  0.00    -0.269 OA
BRANCH  75  78
ATOM     78  C   UNL A   1      32.347  27.720  25.191  1.00  0.00     0.060 A 
ATOM     79  C   UNL A   1      31.905  26.184  26.415  1.00  0.00     0.041 A 
ATOM     80  C   UNL A   1      31.143  28.016  23.865  1.00  0.00     0.053 A 
ATOM     81  C   UNL A   1      30.588  25.138  26.162  1.00  0.00     0.041 A 
ATOM     82  C   UNL A   1      29.729  26.929  23.756  1.00  0.00     0.023 A 
ATOM     83  Cl  UNL A   1      31.305  29.275  22.706  1.00  0.00    -0.083 Cl
ATOM     84  C   UNL A   1      29.480  25.531  24.865  1.00  0.00     0.028 A 
BRANCH  81  85
ATOM     85  N   UNL A   1      30.847  23.906  26.785  1.00  0.00    -0.332 N 
ATOM     86  H   UNL A   1      30.297  23.717  27.578  1.00  0.00     0.169 HD
BRANCH  85  87
ATOM     87  C   UNL A   1      31.759  22.916  26.454  1.00  0.00     0.177 C 
ATOM     88  S   UNL A   1      32.917  22.565  27.624  1.00  0.00    -0.040 S 
BRANCH  87  89
ATOM     89  N   UNL A   1      31.843  22.129  25.248  1.00  0.00    -0.299 N 
ATOM     90  C   UNL A   1      32.500  21.597  23.997  1.00  0.00     0.260 C 
ATOM     91  H   UNL A   1      30.969  21.677  25.233  1.00  0.00     0.172 HD
ATOM     92  O   UNL A   1      31.893  20.775  23.316  1.00  0.00    -0.269 OA
BRANCH  90  93
ATOM     93  C   UNL A   1      33.892  22.042  23.571  1.00  0.00     0.075 A 
ATOM     94  C   UNL A   1      33.710  23.768  23.337  1.00  0.00     0.017 A 
ATOM     95  C   UNL A   1      35.155  21.317  24.629  1.00  0.00     0.135 A 
ATOM     96  C   UNL A   1      34.634  24.849  24.395  1.00  0.00     0.001 A 
ATOM     97  C   UNL A   1      36.147  22.280  25.762  1.00  0.00     0.040 A 
ATOM     98  F   UNL A   1      35.060  20.007  24.909  1.00  0.00    -0.206 F 
ATOM     99  C   UNL A   1      35.917  24.078  25.755  1.00  0.00     0.003 A 
ENDBRANCH  90  93
ENDBRANCH  87  89
ENDBRANCH  85  87
ENDBRANCH  81  85
ENDBRANCH  75  78
ENDBRANCH  73  74
ENDBRANCH   1  73
TORSDOF 18
ENDMDL
MODEL 2
REMARK VINA RESULT:     -12.2      5.865      9.858
REMARK SMILES O=C(NCCCCNC(=O)c1cc(NC(=S)NC(=O)c2ccccc2F)ccc1Cl)c1ccc(-c2c3nc(c(-c4cccc(S(=O)(=O)[O-])c4F)c4ccc([nH]4)c(-c4cccc(S(=O)(=O)[O-])c4F)c4nc(c(-c5cccc(S(=O)(=O)[O-])c5F)c5ccc2[nH]5)C=C4)C=C3)cc1
REMARK SMILES IDX 6 1 5 2 4 3 3 4 1 5 2 6 31 8 32 9 93 10 33 11 92 12 34 13
REMARK SMILES IDX 35 14 36 15 86 16 37 17 91 18 85 19 87 20 38 21 90 22 84 23
REMARK SMILES IDX 83 24 39 26 71 27 51 28 70 29 52 30 55 31 69 32 88 33 53 34
REMARK SMILES IDX 54 35 68 37 89 38 56 39 40 40 41 41 49 42 42 43 44 44 50 45
REMARK SMILES IDX 43 46 45 47 46 48 47 49 48 50 72 51 73 52 81 53 74 54 76 55
REMARK SMILES IDX 82 56 75 57 77 58 78 59 79 60 80 61 57 62 58 63 66 64 59 65
REMARK SMILES IDX 61 66 67 67 60 68 62 69 63 70 64 71 65 72 7 73 8 74 9 75
REMARK SMILES IDX 10 77 11 78 12 79 29 80 13 81 28 82 30 83 27 84 14 85 15 87
REMARK SMILES IDX 16 88 17 89 18 90 19 92 20 93 21 94 25 95 22 96 24 97 26 98
REMARK SMILES IDX 23 99
REMARK H PARENT 3 7 87 25 55 36 8 76 14 86 17 91
REMARK Flexibility Score: inf
ROOT
ATOM      1  C   UNL A   1      39.155  22.858  26.541  1.00  0.00     0.023 C 
ENDROOT
BRANCH   1   2
ATOM      2  C   UNL A   1      39.297  21.454  25.961  1.00  0.00     0.023 C 
BRANCH   2   3
ATOM      3  C   UNL A   1      39.978  20.467  26.890  1.00  0.00     0.116 C 
BRANCH   3   4
ATOM      4  N   UNL A   1      40.997  19.667  26.218  1.00  0.00    -0.352 N 
ATOM      5  O   UNL A   1      42.947  19.311  25.132  1.00  0.00    -0.269 OA
ATOM      6  C   UNL A   1      42.249  20.057  25.807  1.00  0.00     0.251 C 
ATOM      7  H   UNL A   1      40.756  18.731  26.036  1.00  0.00     0.163 HD
BRANCH   6   8
ATOM      8  C   UNL A   1      42.694  21.412  26.172  1.00  0.00     0.039 A 
ATOM      9  C   UNL A   1      42.947  21.698  27.514  1.00  0.00     0.014 A 
ATOM     10  C   UNL A   1      42.724  22.416  25.204  1.00  0.00     0.014 A 
ATOM     11  C   UNL A   1      43.018  23.018  27.916  1.00  0.00     0.010 A 
ATOM     12  C   UNL A   1      42.955  23.734  25.600  1.00  0.00     0.010 A 
ATOM     13  C   UNL A   1      43.070  24.049  26.963  1.00  0.00    -0.014 A 
BRANCH  13  14
ATOM     14  C   UNL A   1      43.376  25.420  27.439  1.00  0.00     0.031 A 
ATOM     15  C   UNL A   1      44.749  26.014  27.348  1.00  0.00     0.074 A 
ATOM     16  C   UNL A   1      42.351  26.140  27.940  1.00  0.00     0.049 A 
ATOM     17  N   UNL A   1      45.133  27.222  27.668  1.00  0.00    -0.248 NA
ATOM     18  C   UNL A   1      45.835  25.153  26.853  1.00  0.00     0.031 C 
ATOM     19  C   UNL A   1      40.985  25.635  28.112  1.00  0.00     0.029 A 
ATOM     20  N   UNL A   1      42.281  27.436  28.371  1.00  0.00    -0.354 N 
ATOM     21  C   UNL A   1      46.505  27.258  27.460  1.00  0.00     0.074 A 
ATOM     22  C   UNL A   1      46.891  25.945  26.989  1.00  0.00     0.031 C 
ATOM     23  C   UNL A   1      40.199  26.628  28.541  1.00  0.00     0.029 A 
ATOM     24  C   UNL A   1      41.020  27.807  28.773  1.00  0.00     0.049 A 
ATOM     25  H   UNL A   1      43.056  28.043  28.392  1.00  0.00     0.167 HD
ATOM     26  C   UNL A   1      47.356  28.295  27.645  1.00  0.00     0.034 A 
ATOM     27  C   UNL A   1      40.566  28.957  29.302  1.00  0.00     0.034 A 
ATOM     28  C   UNL A   1      46.945  29.600  28.097  1.00  0.00     0.049 A 
ATOM     29  C   UNL A   1      41.526  30.089  29.488  1.00  0.00     0.074 A 
ATOM     30  C   UNL A   1      47.718  30.737  28.244  1.00  0.00     0.029 A 
ATOM     31  N   UNL A   1      45.658  29.938  28.495  1.00  0.00    -0.354 N 
ATOM     32  N   UNL A   1      42.801  30.136  29.186  1.00  0.00    -0.248 NA
ATOM     33  C   UNL A   1      40.993  31.328  30.064  1.00  0.00     0.031 C 
ATOM     34  C   UNL A   1      46.916  31.743  28.789  1.00  0.00     0.029 A 
ATOM     35  C   UNL A   1      45.625  31.257  28.917  1.00  0.00     0.049 A 
ATOM     36  H   UNL A   1      44.885  29.331  28.480  1.00  0.00     0.167 HD
ATOM     37  C   UNL A   1      43.219  31.417  29.510  1.00  0.00     0.074 A 
ATOM     38  C   UNL A   1      42.059  32.118  30.024  1.00  0.00     0.031 C 
ATOM     39  C   UNL A   1      44.457  31.956  29.394  1.00  0.00     0.034 A 
BRANCH  26  40
ATOM     40  C   UNL A   1      48.821  28.079  27.356  1.00  0.00     0.023 A 
ATOM     41  C   UNL A   1      49.327  28.296  26.058  1.00  0.00     0.012 A 
ATOM     42  C   UNL A   1      49.715  27.751  28.397  1.00  0.00     0.148 A 
ATOM     43  C   UNL A   1      50.690  28.157  25.794  1.00  0.00     0.002 A 
ATOM     44  C   UNL A   1      51.078  27.666  28.137  1.00  0.00     0.091 A 
ATOM     45  F   UNL A   1      49.217  27.531  29.622  1.00  0.00    -0.205 F 
ATOM     46  C   UNL A   1      51.565  27.855  26.835  1.00  0.00     0.022 A 
BRANCH  44  47
ATOM     47  S   UNL A   1      52.294  27.376  29.427  1.00  0.00     0.127 S 
ATOM     48  O   UNL A   1      51.871  26.076  29.945  1.00  0.00    -0.237 OA
ATOM     49  O   UNL A   1      53.546  27.351  28.670  1.00  0.00    -0.237 OA
ATOM     50  O   UNL A   1      52.169  28.489  30.358  1.00  0.00    -0.744 OA
ENDBRANCH  44  47
ENDBRANCH  26  40
BRANCH  27  51
ATOM     51  C   UNL A   1      39.124  29.062  29.650  1.00  0.00     0.023 A 
ATOM     52  C   UNL A   1      38.705  28.794  30.965  1.00  0.00     0.012 A 
ATOM     53  C   UNL A   1      38.196  29.569  28.717  1.00  0.00     0.148 A 
ATOM     54  C   UNL A   1      37.384  29.030  31.346  1.00  0.00     0.002 A 
ATOM     55  C   UNL A   1      36.902  29.863  29.120  1.00  0.00     0.091 A 
ATOM     56  F   UNL A   1      38.626  29.820  27.472  1.00  0.00    -0.205 F 
ATOM     57  C   UNL A   1      36.488  29.579  30.431  1.00  0.00     0.022 A 
BRANCH  55  58
ATOM     58  S   UNL A   1      35.735  30.726  28.063  1.00  0.00     0.127 S 
ATOM     59  O   UNL A   1      36.474  31.943  27.733  1.00  0.00    -0.237 OA
ATOM     60  O   UNL A   1      35.579  29.780  26.957  1.00  0.00    -0.237 OA
ATOM     61  O   UNL A   1      34.536  30.920  28.865  1.00  0.00    -0.744 OA
ENDBRANCH  55  58
ENDBRANCH  27  51
BRANCH  39  62
ATOM     62  C   UNL A   1      44.640  33.397  29.789  1.00  0.00     0.023 A 
ATOM     63  C   UNL A   1      45.106  33.723  31.077  1.00  0.00     0.012 A 
ATOM     64  C   UNL A   1      44.482  34.415  28.828  1.00  0.00     0.148 A 
ATOM     65  C   UNL A   1      45.404  35.045  31.405  1.00  0.00     0.002 A 
ATOM     66  C   UNL A   1      44.835  35.719  29.143  1.00  0.00     0.091 A 
ATOM     67  F   UNL A   1      44.017  34.080  27.616  1.00  0.00    -0.205 F 
ATOM     68  C   UNL A   1      45.288  36.039  30.434  1.00  0.00     0.022 A 
BRANCH  66  69
ATOM     69  S   UNL A   1      44.827  37.042  27.928  1.00  0.00     0.127 S 
ATOM     70  O   UNL A   1      45.700  36.497  26.889  1.00  0.00    -0.237 OA
ATOM     71  O   UNL A   1      43.413  37.114  27.562  1.00  0.00    -0.237 OA
ATOM     72  O   UNL A   1      45.342  38.222  28.610  1.00  0.00    -0.744 OA
ENDBRANCH  66  69
ENDBRANCH  39  62
ENDBRANCH  13  14
ENDBRANCH   6   8
ENDBRANCH   3   4
ENDBRANCH   2   3
ENDBRANCH   1   2
BRANCH   1  73
ATOM     73  C   UNL A   1      37.920  23.613  26.050  1.00  0.00     0.116 C 
BRANCH  73  74
ATOM     74  N   UNL A   1      37.691  23.393  24.639  1.00  0.00    -0.352 N 
ATOM     75  C   UNL A   1      36.542  23.177  23.940  1.00  0.00     0.252 C 
ATOM     76  H   UNL A   1      38.508  23.400  24.088  1.00  0.00     0.163 HD
ATOM     77  O   UNL A   1      36.610  23.117  22.715  1.00  0.00    -0.269 OA
BRANCH  75  78
ATOM     78  C   UNL A   1      35.190  23.107  24.643  1.00  0.00     0.060 A 
ATOM     79  C   UNL A   1      33.766  24.413  25.209  1.00  0.00     0.041 A 
ATOM     80  C   UNL A   1      34.987  21.422  25.289  1.00  0.00     0.053 A 
ATOM     81  C   UNL A   1      32.539  24.032  26.324  1.00  0.00     0.041 A 
ATOM     82  C   UNL A   1      33.596  21.096  26.362  1.00  0.00     0.023 A 
ATOM     83  Cl  UNL A   1      36.072  20.138  24.934  1.00  0.00    -0.083 Cl
ATOM     84  C   UNL A   1      32.427  22.370  26.866  1.00  0.00     0.028 A 
BRANCH  81  85
ATOM     85  N   UNL A   1      32.080  25.212  26.931  1.00  0.00    -0.332 N 
ATOM     86  H   UNL A   1      32.297  25.300  27.886  1.00  0.00     0.169 HD
BRANCH  85  87
ATOM     87  C   UNL A   1      31.369  26.271  26.391  1.00  0.00     0.177 C 
ATOM     88  S   UNL A   1      30.034  25.856  25.454  1.00  0.00    -0.040 S 
BRANCH  87  89
ATOM     89  N   UNL A   1      31.604  27.687  26.535  1.00  0.00    -0.299 N 
ATOM     90  C   UNL A   1      31.924  29.082  26.056  1.00  0.00     0.260 C 
ATOM     91  H   UNL A   1      31.490  27.820  27.503  1.00  0.00     0.172 HD
ATOM     92  O   UNL A   1      31.936  29.999  26.874  1.00  0.00    -0.269 OA
BRANCH  90  93
ATOM     93  C   UNL A   1      32.217  29.382  24.592  1.00  0.00     0.075 A 
ATOM     94  C   UNL A   1      33.647  28.426  24.264  1.00  0.00     0.017 A 
ATOM     95  C   UNL A   1      30.717  29.287  23.601  1.00  0.00     0.135 A 
ATOM     96  C   UNL A   1      33.515  27.121  23.072  1.00  0.00     0.001 A 
ATOM     97  C   UNL A   1      30.436  28.015  22.378  1.00  0.00     0.040 A 
ATOM     98  F   UNL A   1      29.615  29.893  24.074  1.00  0.00    -0.206 F 
ATOM     99  C   UNL A   1      31.778  26.834  22.077  1.00  0.00     0.003 A 
ENDBRANCH  90  93
ENDBRANCH  87  89
ENDBRANCH  85  87
ENDBRANCH  81  85
ENDBRANCH  75  78
ENDBRANCH  73  74
ENDBRANCH   1  73
TORSDOF 18
ENDMDL
MODEL 3
REMARK VINA RESULT:     -12.1      1.711      7.701
REMARK SMILES O=C(NCCCCNC(=O)c1cc(NC(=S)NC(=O)c2ccccc2F)ccc1Cl)c1ccc(-c2c3nc(c(-c4cccc(S(=O)(=O)[O-])c4F)c4ccc([nH]4)c(-c4cccc(S(=O)(=O)[O-])c4F)c4nc(c(-c5cccc(S(=O)(=O)[O-])c5F)c5ccc2[nH]5)C=C4)C=C3)cc1
REMARK SMILES IDX 6 1 5 2 4 3 3 4 1 5 2 6 31 8 32 9 93 10 33 11 92 12 34 13
REMARK SMILES IDX 35 14 36 15 86 16 37 17 91 18 85 19 87 20 38 21 90 22 84 23
REMARK SMILES IDX 83 24 39 26 71 27 51 28 70 29 52 30 55 31 69 32 88 33 53 34
REMARK SMILES IDX 54 35 68 37 89 38 56 39 40 40 41 41 49 42 42 43 44 44 50 45
REMARK SMILES IDX 43 46 45 47 46 48 47 49 48 50 72 51 73 52 81 53 74 54 76 55
REMARK SMILES IDX 82 56 75 57 77 58 78 59 79 60 80 61 57 62 58 63 66 64 59 65
REMARK SMILES IDX 61 66 67 67 60 68 62 69 63 70 64 71 65 72 7 73 8 74 9 75
REMARK SMILES IDX 10 77 11 78 12 79 29 80 13 81 28 82 30 83 27 84 14 85 15 87
REMARK SMILES IDX 16 88 17 89 18 90 19 92 20 93 21 94 25 95 22 96 24 97 26 98
REMARK SMILES IDX 23 99
REMARK H PARENT 3 7 87 25 55 36 8 76 14 86 17 91
REMARK Flexibility Score: inf
ROOT
ATOM      1  C   UNL A   1      31.611  27.718  26.787  1.00  0.00     0.023 C 
ENDROOT
BRANCH   1   2
ATOM      2  C   UNL A   1      31.789  29.142  27.306  1.00  0.00     0.023 C 
BRANCH   2   3
ATOM      3  C   UNL A   1      32.578  30.044  26.377  1.00  0.00     0.116 C 
BRANCH   3   4
ATOM      4  N   UNL A   1      32.302  31.461  26.594  1.00  0.00    -0.352 N 
ATOM      5  O   UNL A   1      32.608  33.497  27.527  1.00  0.00    -0.269 OA
ATOM      6  C   UNL A   1      33.035  32.368  27.320  1.00  0.00     0.251 C 
ATOM      7  H   UNL A   1      31.487  31.809  26.166  1.00  0.00     0.163 HD
BRANCH   6   8
ATOM      8  C   UNL A   1      34.324  31.918  27.870  1.00  0.00     0.039 A 
ATOM      9  C   UNL A   1      34.418  30.627  28.393  1.00  0.00     0.014 A 
ATOM     10  C   UNL A   1      35.382  32.820  27.986  1.00  0.00     0.014 A 
ATOM     11  C   UNL A   1      35.484  30.313  29.214  1.00  0.00     0.010 A 
ATOM     12  C   UNL A   1      36.527  32.437  28.686  1.00  0.00     0.010 A 
ATOM     13  C   UNL A   1      36.573  31.194  29.334  1.00  0.00    -0.014 A 
BRANCH  13  14
ATOM     14  C   UNL A   1      37.782  30.709  30.042  1.00  0.00     0.031 A 
ATOM     15  C   UNL A   1      38.078  31.070  31.466  1.00  0.00     0.074 A 
ATOM     16  C   UNL A   1      38.610  29.894  29.357  1.00  0.00     0.049 A 
ATOM     17  N   UNL A   1      39.066  30.660  32.219  1.00  0.00    -0.248 NA
ATOM     18  C   UNL A   1      37.171  32.016  32.134  1.00  0.00     0.031 C 
ATOM     19  C   UNL A   1      38.433  29.519  27.950  1.00  0.00     0.029 A 
ATOM     20  N   UNL A   1      39.736  29.218  29.739  1.00  0.00    -0.354 N 
ATOM     21  C   UNL A   1      38.931  31.326  33.429  1.00  0.00     0.074 A 
ATOM     22  C   UNL A   1      37.764  32.175  33.311  1.00  0.00     0.031 C 
ATOM     23  C   UNL A   1      39.369  28.627  27.610  1.00  0.00     0.029 A 
ATOM     24  C   UNL A   1      40.272  28.446  28.737  1.00  0.00     0.049 A 
ATOM     25  H   UNL A   1      40.125  29.280  30.642  1.00  0.00     0.167 HD
ATOM     26  C   UNL A   1      39.711  31.231  34.532  1.00  0.00     0.034 A 
ATOM     27  C   UNL A   1      41.387  27.692  28.705  1.00  0.00     0.034 A 
ATOM     28  C   UNL A   1      40.857  30.364  34.632  1.00  0.00     0.049 A 
ATOM     29  C   UNL A   1      42.224  27.598  29.940  1.00  0.00     0.074 A 
ATOM     30  C   UNL A   1      41.666  30.140  35.731  1.00  0.00     0.029 A 
ATOM     31  N   UNL A   1      41.369  29.596  33.595  1.00  0.00    -0.354 N 
ATOM     32  N   UNL A   1      42.021  28.156  31.108  1.00  0.00    -0.248 NA
ATOM     33  C   UNL A   1      43.429  26.765  29.866  1.00  0.00     0.031 C 
ATOM     34  C   UNL A   1      42.703  29.288  35.343  1.00  0.00     0.029 A 
ATOM     35  C   UNL A   1      42.503  28.922  34.022  1.00  0.00     0.049 A 
ATOM     36  H   UNL A   1      40.986  29.539  32.692  1.00  0.00     0.167 HD
ATOM     37  C   UNL A   1      43.056  27.720  31.921  1.00  0.00     0.074 A 
ATOM     38  C   UNL A   1      43.882  26.844  31.112  1.00  0.00     0.031 C 
ATOM     39  C   UNL A   1      43.297  28.026  33.219  1.00  0.00     0.034 A 
BRANCH  26  40
ATOM     40  C   UNL A   1      39.359  32.076  35.731  1.00  0.00     0.023 A 
ATOM     41  C   UNL A   1      39.785  33.418  35.802  1.00  0.00     0.012 A 
ATOM     42  C   UNL A   1      38.525  31.564  36.747  1.00  0.00     0.148 A 
ATOM     43  C   UNL A   1      39.415  34.226  36.878  1.00  0.00     0.002 A 
ATOM     44  C   UNL A   1      38.117  32.390  37.789  1.00  0.00     0.091 A 
ATOM     45  F   UNL A   1      38.143  30.282  36.675  1.00  0.00    -0.205 F 
ATOM     46  C   UNL A   1      38.572  33.716  37.863  1.00  0.00     0.022 A 
BRANCH  44  47
ATOM     47  S   UNL A   1      36.958  31.855  39.053  1.00  0.00     0.127 S 
ATOM     48  O   UNL A   1      37.683  32.190  40.278  1.00  0.00    -0.237 OA
ATOM     49  O   UNL A   1      35.797  32.703  38.783  1.00  0.00    -0.237 OA
ATOM     50  O   UNL A   1      36.740  30.434  38.826  1.00  0.00    -0.744 OA
ENDBRANCH  44  47
ENDBRANCH  26  40
BRANCH  27  51
ATOM     51  C   UNL A   1      41.717  26.962  27.452  1.00  0.00     0.023 A 
ATOM     52  C   UNL A   1      42.348  27.643  26.397  1.00  0.00     0.012 A 
ATOM     53  C   UNL A   1      41.541  25.565  27.368  1.00  0.00     0.148 A 
ATOM     54  C   UNL A   1      42.799  26.945  25.276  1.00  0.00     0.002 A 
ATOM     55  C   UNL A   1      42.050  24.869  26.282  1.00  0.00     0.091 A 
ATOM     56  F   UNL A   1      40.940  24.942  28.393  1.00  0.00    -0.205 F 
ATOM     57  C   UNL A   1      42.666  25.558  25.226  1.00  0.00     0.022 A 
BRANCH  55  58
ATOM     58  S   UNL A   1      42.076  23.075  26.213  1.00  0.00     0.127 S 
ATOM     59  O   UNL A   1      42.722  22.835  24.924  1.00  0.00    -0.237 OA
ATOM     60  O   UNL A   1      42.890  22.743  27.382  1.00  0.00    -0.237 OA
ATOM     61  O   UNL A   1      40.686  22.651  26.304  1.00  0.00    -0.744 OA
ENDBRANCH  55  58
ENDBRANCH  27  51
BRANCH  39  62
ATOM     62  C   UNL A   1      44.484  27.385  33.886  1.00  0.00     0.023 A 
ATOM     63  C   UNL A   1      45.738  28.024  33.864  1.00  0.00     0.012 A 
ATOM     64  C   UNL A   1      44.313  26.216  34.654  1.00  0.00     0.148 A 
ATOM     65  C   UNL A   1      46.808  27.503  34.592  1.00  0.00     0.002 A 
ATOM     66  C   UNL A   1      45.364  25.736  35.422  1.00  0.00     0.091 A 
ATOM     67  F   UNL A   1      43.114  25.615  34.641  1.00  0.00    -0.205 F 
ATOM     68  C   UNL A   1      46.616  26.372  35.385  1.00  0.00     0.022 A 
BRANCH  66  69
ATOM     69  S   UNL A   1      45.181  24.357  36.557  1.00  0.00     0.127 S 
ATOM     70  O   UNL A   1      46.546  24.197  37.055  1.00  0.00    -0.237 OA
ATOM     71  O   UNL A   1      44.233  24.890  37.536  1.00  0.00    -0.237 OA
ATOM     72  O   UNL A   1      44.678  23.242  35.765  1.00  0.00    -0.744 OA
ENDBRANCH  66  69
ENDBRANCH  39  62
ENDBRANCH  13  14
ENDBRANCH   6   8
ENDBRANCH   3   4
ENDBRANCH   2   3
ENDBRANCH   1   2
BRANCH   1  73
ATOM     73  C   UNL A   1      31.666  27.599  25.265  1.00  0.00     0.116 C 
BRANCH  73  74
ATOM     74  N   UNL A   1      30.341  27.499  24.693  1.00  0.00    -0.352 N 
ATOM     75  C   UNL A   1      29.782  26.556  23.884  1.00  0.00     0.252 C 
ATOM     76  H   UNL A   1      29.739  28.242  24.930  1.00  0.00     0.163 HD
ATOM     77  O   UNL A   1      28.588  26.655  23.615  1.00  0.00    -0.269 OA
BRANCH  75  78
ATOM     78  C   UNL A   1      30.586  25.353  23.399  1.00  0.00     0.060 A 
ATOM     79  C   UNL A   1      30.714  23.397  23.860  1.00  0.00     0.041 A 
ATOM     80  C   UNL A   1      31.877  25.965  22.278  1.00  0.00     0.053 A 
ATOM     81  C   UNL A   1      32.006  22.405  23.368  1.00  0.00     0.041 A 
ATOM     82  C   UNL A   1      33.125  24.811  21.725  1.00  0.00     0.023 A 
ATOM     83  Cl  UNL A   1      31.966  27.594  21.740  1.00  0.00    -0.083 Cl
ATOM     84  C   UNL A   1      33.183  23.095  22.271  1.00  0.00     0.028 A 
BRANCH  81  85
ATOM     85  N   UNL A   1      32.124  21.324  24.256  1.00  0.00    -0.332 N 
ATOM     86  H   UNL A   1      31.413  21.263  24.934  1.00  0.00     0.169 HD
BRANCH  85  87
ATOM     87  C   UNL A   1      33.087  20.330  24.325  1.00  0.00     0.177 C 
ATOM     88  S   UNL A   1      32.536  18.758  24.084  1.00  0.00    -0.040 S 
BRANCH  87  89
ATOM     89  N   UNL A   1      34.505  20.457  24.557  1.00  0.00    -0.299 N 
ATOM     90  C   UNL A   1      35.746  21.026  25.199  1.00  0.00     0.260 C 
ATOM     91  H   UNL A   1      34.878  19.783  23.943  1.00  0.00     0.172 HD
ATOM     92  O   UNL A   1      36.839  20.559  24.889  1.00  0.00    -0.269 OA
BRANCH  90  93
ATOM     93  C   UNL A   1      35.676  22.149  26.226  1.00  0.00     0.075 A 
ATOM     94  C   UNL A   1      36.041  23.579  25.284  1.00  0.00     0.017 A 
ATOM     95  C   UNL A   1      34.207  21.992  27.256  1.00  0.00     0.135 A 
ATOM     96  C   UNL A   1      34.778  24.814  25.131  1.00  0.00     0.001 A 
ATOM     97  C   UNL A   1      32.845  23.147  27.192  1.00  0.00     0.040 A 
ATOM     98  F   UNL A   1      33.917  20.777  27.751  1.00  0.00    -0.206 F 
ATOM     99  C   UNL A   1      33.019  24.585  26.101  1.00  0.00     0.003 A 
ENDBRANCH  90  93
ENDBRANCH  87  89
ENDBRANCH  85  87
ENDBRANCH  81  85
ENDBRANCH  75  78
ENDBRANCH  73  74
ENDBRANCH   1  73
TORSDOF 18
ENDMDL
