MODEL 1
REMARK VINA RESULT:     -11.7      0.000      0.000
REMARK SMILES C/C=C/c1cncc(-c2ccc([C@@H](C)C(=O)NCCCCNC(=O)c3ccc(-c4c5nc(c(-c6cccc(S(=O)(=O)[O-])c6F)c6ccc([nH]6)c(-c6cccc(S(=O)(=O)[O-])c6F)c6nc(c(-c7cccc(S(=O)(=O)[O-])c7F)c7ccc4[nH]7)C=C6)C=C5)cc3)cc2)c1
REMARK SMILES IDX 19 1 18 2 17 3 15 4 16 5 13 7 14 8 12 9 9 10 10 11 89 12
REMARK SMILES IDX 11 13 88 14 8 15 4 16 5 17 90 18 6 19 7 20 3 21 1 22 2 23
REMARK SMILES IDX 20 24 21 25 22 26 23 27 24 29 25 30 26 31 87 32 27 33 86 34
REMARK SMILES IDX 28 35 29 36 30 37 80 38 31 39 85 40 79 41 81 42 32 43 84 44
REMARK SMILES IDX 78 45 77 46 33 48 65 49 45 50 64 51 46 52 49 53 63 54 82 55
REMARK SMILES IDX 47 56 48 57 62 59 83 60 50 61 34 62 35 63 43 64 36 65 38 66
REMARK SMILES IDX 44 67 37 68 39 69 40 70 41 71 42 72 66 73 67 74 75 75 68 76
REMARK SMILES IDX 70 77 76 78 69 79 71 80 72 81 73 82 74 83 51 84 52 85 60 86
REMARK SMILES IDX 53 87 55 88 61 89 54 90 56 91 57 92 58 93 59 94
REMARK H PARENT 17 6 22 28 81 47 49 58
REMARK Flexibility Score: inf
ROOT
ATOM      1  C   UNL A   1      33.038  29.836  26.337  1.00  0.00     0.023 C 
ENDROOT
BRANCH   1   2
ATOM      2  C   UNL A   1      32.204  29.525  25.095  1.00  0.00     0.116 C 
BRANCH   2   3
ATOM      3  N   UNL A   1      31.366  28.357  25.271  1.00  0.00    -0.356 N 
ATOM      4  C   UNL A   1      31.329  27.166  24.613  1.00  0.00     0.227 C 
ATOM      5  O   UNL A   1      30.454  26.364  24.961  1.00  0.00    -0.274 OA
ATOM      6  H   UNL A   1      30.705  28.439  25.996  1.00  0.00     0.163 HD
BRANCH   4   7
ATOM      7  C   UNL A   1      32.314  26.775  23.501  1.00  0.00     0.105 C 
ATOM      8  C   UNL A   1      31.654  26.561  22.138  1.00  0.00     0.023 C 
BRANCH   7   9
ATOM      9  C   UNL A   1      33.334  25.730  23.928  1.00  0.00    -0.036 A 
ATOM     10  C   UNL A   1      35.364  23.818  24.588  1.00  0.00    -0.017 A 
ATOM     11  C   UNL A   1      34.974  24.827  25.484  1.00  0.00     0.009 A 
ATOM     12  C   UNL A   1      34.688  23.776  23.357  1.00  0.00     0.009 A 
ATOM     13  C   UNL A   1      33.957  25.740  25.177  1.00  0.00     0.005 A 
ATOM     14  C   UNL A   1      33.709  24.724  23.026  1.00  0.00     0.005 A 
BRANCH  10  15
ATOM     15  C   UNL A   1      36.434  22.853  24.935  1.00  0.00     0.001 A 
ATOM     16  C   UNL A   1      38.624  22.292  25.874  1.00  0.00    -0.007 A 
ATOM     17  C   UNL A   1      38.363  20.966  25.548  1.00  0.00     0.119 A 
ATOM     18  C   UNL A   1      37.636  23.237  25.558  1.00  0.00     0.020 A 
ATOM     19  N   UNL A   1      37.233  20.535  24.950  1.00  0.00    -0.263 NA
ATOM     20  C   UNL A   1      36.310  21.486  24.661  1.00  0.00     0.119 A 
BRANCH  16  21
ATOM     21  C   UNL A   1      39.927  22.647  26.450  1.00  0.00     0.005 C 
ATOM     22  C   UNL A   1      41.735  22.565  28.170  1.00  0.00     0.035 C 
ATOM     23  C   UNL A   1      40.394  22.195  27.623  1.00  0.00    -0.030 C 
ENDBRANCH  16  21
ENDBRANCH  10  15
ENDBRANCH   7   9
ENDBRANCH   4   7
ENDBRANCH   2   3
ENDBRANCH   1   2
BRANCH   1  24
ATOM     24  C   UNL A   1      32.544  31.018  27.170  1.00  0.00     0.023 C 
BRANCH  24  25
ATOM     25  C   UNL A   1      33.527  32.175  27.320  1.00  0.00     0.116 C 
BRANCH  25  26
ATOM     26  N   UNL A   1      32.898  33.458  27.604  1.00  0.00    -0.352 N 
ATOM     27  C   UNL A   1      33.241  34.383  28.568  1.00  0.00     0.251 C 
ATOM     28  H   UNL A   1      32.131  33.696  27.035  1.00  0.00     0.163 HD
ATOM     29  O   UNL A   1      32.572  35.394  28.728  1.00  0.00    -0.269 OA
BRANCH  27  30
ATOM     30  C   UNL A   1      34.404  34.107  29.440  1.00  0.00     0.039 A 
ATOM     31  C   UNL A   1      34.207  33.379  30.616  1.00  0.00     0.014 A 
ATOM     32  C   UNL A   1      35.689  34.493  29.051  1.00  0.00     0.014 A 
ATOM     33  C   UNL A   1      35.313  32.954  31.355  1.00  0.00     0.010 A 
ATOM     34  C   UNL A   1      36.789  34.009  29.749  1.00  0.00     0.010 A 
ATOM     35  C   UNL A   1      36.615  33.222  30.898  1.00  0.00    -0.014 A 
BRANCH  35  36
ATOM     36  C   UNL A   1      37.807  32.643  31.565  1.00  0.00     0.031 A 
ATOM     37  C   UNL A   1      38.544  31.491  30.942  1.00  0.00     0.074 A 
ATOM     38  C   UNL A   1      38.144  33.069  32.799  1.00  0.00     0.049 A 
ATOM     39  N   UNL A   1      39.547  30.802  31.419  1.00  0.00    -0.248 NA
ATOM     40  C   UNL A   1      38.068  31.032  29.628  1.00  0.00     0.031 C 
ATOM     41  C   UNL A   1      37.440  34.107  33.556  1.00  0.00     0.029 A 
ATOM     42  N   UNL A   1      39.136  32.654  33.651  1.00  0.00    -0.354 N 
ATOM     43  C   UNL A   1      39.798  29.805  30.485  1.00  0.00     0.074 A 
ATOM     44  C   UNL A   1      38.820  29.958  29.431  1.00  0.00     0.031 C 
ATOM     45  C   UNL A   1      38.018  34.244  34.758  1.00  0.00     0.029 A 
ATOM     46  C   UNL A   1      39.117  33.288  34.871  1.00  0.00     0.049 A 
ATOM     47  H   UNL A   1      39.801  31.968  33.412  1.00  0.00     0.167 HD
ATOM     48  C   UNL A   1      40.775  28.866  30.488  1.00  0.00     0.034 A 
ATOM     49  C   UNL A   1      39.888  33.117  35.963  1.00  0.00     0.034 A 
ATOM     50  C   UNL A   1      41.778  28.750  31.512  1.00  0.00     0.049 A 
ATOM     51  C   UNL A   1      41.003  32.110  35.920  1.00  0.00     0.074 A 
ATOM     52  C   UNL A   1      42.885  27.922  31.544  1.00  0.00     0.029 A 
ATOM     53  N   UNL A   1      41.790  29.479  32.692  1.00  0.00    -0.354 N 
ATOM     54  N   UNL A   1      41.350  31.307  34.942  1.00  0.00    -0.248 NA
ATOM     55  C   UNL A   1      41.854  32.006  37.113  1.00  0.00     0.031 C 
ATOM     56  C   UNL A   1      43.559  28.138  32.752  1.00  0.00     0.029 A 
ATOM     57  C   UNL A   1      42.875  29.107  33.468  1.00  0.00     0.049 A 
ATOM     58  H   UNL A   1      41.124  30.160  32.941  1.00  0.00     0.167 HD
ATOM     59  C   UNL A   1      42.467  30.614  35.395  1.00  0.00     0.074 A 
ATOM     60  C   UNL A   1      42.757  31.115  36.724  1.00  0.00     0.031 C 
ATOM     61  C   UNL A   1      43.174  29.638  34.774  1.00  0.00     0.034 A 
BRANCH  48  62
ATOM     62  C   UNL A   1      40.841  27.935  29.307  1.00  0.00     0.023 A 
ATOM     63  C   UNL A   1      40.064  26.758  29.312  1.00  0.00     0.012 A 
ATOM     64  C   UNL A   1      41.640  28.229  28.187  1.00  0.00     0.148 A 
ATOM     65  C   UNL A   1      40.115  25.867  28.241  1.00  0.00     0.002 A 
ATOM     66  C   UNL A   1      41.654  27.355  27.103  1.00  0.00     0.091 A 
ATOM     67  F   UNL A   1      42.394  29.337  28.207  1.00  0.00    -0.205 F 
ATOM     68  C   UNL A   1      40.901  26.170  27.134  1.00  0.00     0.022 A 
BRANCH  66  69
ATOM     69  S   UNL A   1      42.585  27.702  25.607  1.00  0.00     0.127 S 
ATOM     70  O   UNL A   1      43.950  27.789  26.120  1.00  0.00    -0.237 OA
ATOM     71  O   UNL A   1      42.316  26.518  24.789  1.00  0.00    -0.237 OA
ATOM     72  O   UNL A   1      42.027  28.938  25.074  1.00  0.00    -0.744 OA
ENDBRANCH  66  69
ENDBRANCH  48  62
BRANCH  49  73
ATOM     73  C   UNL A   1      39.666  33.977  37.157  1.00  0.00     0.023 A 
ATOM     74  C   UNL A   1      39.988  35.347  37.088  1.00  0.00     0.012 A 
ATOM     75  C   UNL A   1      39.075  33.468  38.330  1.00  0.00     0.148 A 
ATOM     76  C   UNL A   1      39.739  36.191  38.170  1.00  0.00     0.002 A 
ATOM     77  C   UNL A   1      38.781  34.325  39.385  1.00  0.00     0.091 A 
ATOM     78  F   UNL A   1      38.786  32.160  38.378  1.00  0.00    -0.205 F 
ATOM     79  C   UNL A   1      39.125  35.684  39.312  1.00  0.00     0.022 A 
BRANCH  77  80
ATOM     80  S   UNL A   1      37.868  33.792  40.838  1.00  0.00     0.127 S 
ATOM     81  O   UNL A   1      38.886  33.046  41.574  1.00  0.00    -0.237 OA
ATOM     82  O   UNL A   1      37.485  35.069  41.438  1.00  0.00    -0.237 OA
ATOM     83  O   UNL A   1      36.751  33.006  40.333  1.00  0.00    -0.744 OA
ENDBRANCH  77  80
ENDBRANCH  49  73
BRANCH  61  84
ATOM     84  C   UNL A   1      44.332  29.033  35.525  1.00  0.00     0.023 A 
ATOM     85  C   UNL A   1      45.617  29.590  35.375  1.00  0.00     0.012 A 
ATOM     86  C   UNL A   1      44.139  27.971  36.429  1.00  0.00     0.148 A 
ATOM     87  C   UNL A   1      46.698  29.084  36.096  1.00  0.00     0.002 A 
ATOM     88  C   UNL A   1      45.212  27.500  37.176  1.00  0.00     0.091 A 
ATOM     89  F   UNL A   1      42.912  27.441  36.541  1.00  0.00    -0.205 F 
ATOM     90  C   UNL A   1      46.493  28.048  37.005  1.00  0.00     0.022 A 
BRANCH  88  91
ATOM     91  S   UNL A   1      45.024  26.229  38.433  1.00  0.00     0.127 S 
ATOM     92  O   UNL A   1      44.805  25.035  37.619  1.00  0.00    -0.237 OA
ATOM     93  O   UNL A   1      46.317  26.272  39.118  1.00  0.00    -0.237 OA
ATOM     94  O   UNL A   1      43.895  26.644  39.254  1.00  0.00    -0.744 OA
ENDBRANCH  88  91
ENDBRANCH  61  84
ENDBRANCH  35  36
ENDBRANCH  27  30
ENDBRANCH  25  26
ENDBRANCH  24  25
ENDBRANCH   1  24
TORSDOF 17
ENDMDL
MODEL 2
REMARK VINA RESULT:     -11.3      4.211     10.475
REMARK SMILES C/C=C/c1cncc(-c2ccc([C@@H](C)C(=O)NCCCCNC(=O)c3ccc(-c4c5nc(c(-c6cccc(S(=O)(=O)[O-])c6F)c6ccc([nH]6)c(-c6cccc(S(=O)(=O)[O-])c6F)c6nc(c(-c7cccc(S(=O)(=O)[O-])c7F)c7ccc4[nH]7)C=C6)C=C5)cc3)cc2)c1
REMARK SMILES IDX 19 1 18 2 17 3 15 4 16 5 13 7 14 8 12 9 9 10 10 11 89 12
REMARK SMILES IDX 11 13 88 14 8 15 4 16 5 17 90 18 6 19 7 20 3 21 1 22 2 23
REMARK SMILES IDX 20 24 21 25 22 26 23 27 24 29 25 30 26 31 87 32 27 33 86 34
REMARK SMILES IDX 28 35 29 36 30 37 80 38 31 39 85 40 79 41 81 42 32 43 84 44
REMARK SMILES IDX 78 45 77 46 33 48 65 49 45 50 64 51 46 52 49 53 63 54 82 55
REMARK SMILES IDX 47 56 48 57 62 59 83 60 50 61 34 62 35 63 43 64 36 65 38 66
REMARK SMILES IDX 44 67 37 68 39 69 40 70 41 71 42 72 66 73 67 74 75 75 68 76
REMARK SMILES IDX 70 77 76 78 69 79 71 80 72 81 73 82 74 83 51 84 52 85 60 86
REMARK SMILES IDX 53 87 55 88 61 89 54 90 56 91 57 92 58 93 59 94
REMARK H PARENT 17 6 22 28 81 47 49 58
REMARK Flexibility Score: inf
ROOT
ATOM      1  C   UNL A   1      37.992  33.477  29.775  1.00  0.00     0.023 C 
ENDROOT
BRANCH   1   2
ATOM      2  C   UNL A   1      38.910  34.585  30.288  1.00  0.00     0.116 C 
BRANCH   2   3
ATOM      3  N   UNL A   1      39.932  34.944  29.326  1.00  0.00    -0.356 N 
ATOM      4  C   UNL A   1      41.287  34.813  29.357  1.00  0.00     0.227 C 
ATOM      5  O   UNL A   1      41.913  35.265  28.391  1.00  0.00    -0.274 OA
ATOM      6  H   UNL A   1      39.585  35.358  28.502  1.00  0.00     0.163 HD
BRANCH   4   7
ATOM      7  C   UNL A   1      42.050  34.126  30.500  1.00  0.00     0.105 C 
ATOM      8  C   UNL A   1      42.625  35.098  31.531  1.00  0.00     0.023 C 
BRANCH   7   9
ATOM      9  C   UNL A   1      42.977  33.013  30.033  1.00  0.00    -0.036 A 
ATOM     10  C   UNL A   1      44.757  30.880  29.334  1.00  0.00    -0.017 A 
ATOM     11  C   UNL A   1      43.402  30.868  28.964  1.00  0.00     0.009 A 
ATOM     12  C   UNL A   1      45.205  32.006  30.043  1.00  0.00     0.009 A 
ATOM     13  C   UNL A   1      42.539  31.927  29.274  1.00  0.00     0.005 A 
ATOM     14  C   UNL A   1      44.329  33.042  30.403  1.00  0.00     0.005 A 
BRANCH  10  15
ATOM     15  C   UNL A   1      45.659  29.755  28.987  1.00  0.00     0.001 A 
ATOM     16  C   UNL A   1      46.311  27.854  27.589  1.00  0.00    -0.007 A 
ATOM     17  C   UNL A   1      47.411  27.689  28.424  1.00  0.00     0.119 A 
ATOM     18  C   UNL A   1      45.432  28.906  27.887  1.00  0.00     0.020 A 
ATOM     19  N   UNL A   1      47.682  28.466  29.493  1.00  0.00    -0.263 NA
ATOM     20  C   UNL A   1      46.801  29.467  29.742  1.00  0.00     0.119 A 
BRANCH  16  21
ATOM     21  C   UNL A   1      46.082  26.892  26.504  1.00  0.00     0.005 C 
ATOM     22  C   UNL A   1      46.607  24.884  25.115  1.00  0.00     0.035 C 
ATOM     23  C   UNL A   1      46.883  25.854  26.220  1.00  0.00    -0.030 C 
ENDBRANCH  16  21
ENDBRANCH  10  15
ENDBRANCH   7   9
ENDBRANCH   4   7
ENDBRANCH   2   3
ENDBRANCH   1   2
BRANCH   1  24
ATOM     24  C   UNL A   1      36.593  33.933  29.365  1.00  0.00     0.023 C 
BRANCH  24  25
ATOM     25  C   UNL A   1      35.439  33.116  29.940  1.00  0.00     0.116 C 
BRANCH  25  26
ATOM     26  N   UNL A   1      34.558  32.539  28.933  1.00  0.00    -0.352 N 
ATOM     27  C   UNL A   1      34.717  31.360  28.234  1.00  0.00     0.251 C 
ATOM     28  H   UNL A   1      33.746  33.054  28.726  1.00  0.00     0.163 HD
ATOM     29  O   UNL A   1      33.918  31.038  27.367  1.00  0.00    -0.269 OA
BRANCH  27  30
ATOM     30  C   UNL A   1      35.900  30.517  28.516  1.00  0.00     0.039 A 
ATOM     31  C   UNL A   1      37.017  30.623  27.683  1.00  0.00     0.014 A 
ATOM     32  C   UNL A   1      35.930  29.693  29.643  1.00  0.00     0.014 A 
ATOM     33  C   UNL A   1      38.202  29.974  28.038  1.00  0.00     0.010 A 
ATOM     34  C   UNL A   1      37.129  29.107  30.031  1.00  0.00     0.010 A 
ATOM     35  C   UNL A   1      38.281  29.253  29.242  1.00  0.00    -0.014 A 
BRANCH  35  36
ATOM     36  C   UNL A   1      39.567  28.696  29.730  1.00  0.00     0.031 A 
ATOM     37  C   UNL A   1      40.328  29.383  30.828  1.00  0.00     0.074 A 
ATOM     38  C   UNL A   1      40.114  27.643  29.089  1.00  0.00     0.049 A 
ATOM     39  N   UNL A   1      41.503  29.094  31.320  1.00  0.00    -0.248 NA
ATOM     40  C   UNL A   1      39.700  30.572  31.426  1.00  0.00     0.031 C 
ATOM     41  C   UNL A   1      39.524  26.954  27.939  1.00  0.00     0.029 A 
ATOM     42  N   UNL A   1      41.307  26.994  29.287  1.00  0.00    -0.354 N 
ATOM     43  C   UNL A   1      41.775  30.084  32.256  1.00  0.00     0.074 A 
ATOM     44  C   UNL A   1      40.656  31.001  32.238  1.00  0.00     0.031 C 
ATOM     45  C   UNL A   1      40.357  25.986  27.531  1.00  0.00     0.029 A 
ATOM     46  C   UNL A   1      41.552  25.998  28.371  1.00  0.00     0.049 A 
ATOM     47  H   UNL A   1      41.929  27.220  30.017  1.00  0.00     0.167 HD
ATOM     48  C   UNL A   1      42.844  30.202  33.080  1.00  0.00     0.034 A 
ATOM     49  C   UNL A   1      42.619  25.190  28.217  1.00  0.00     0.034 A 
ATOM     50  C   UNL A   1      43.929  29.260  33.133  1.00  0.00     0.049 A 
ATOM     51  C   UNL A   1      43.767  25.301  29.180  1.00  0.00     0.074 A 
ATOM     52  C   UNL A   1      44.990  29.216  34.018  1.00  0.00     0.029 A 
ATOM     53  N   UNL A   1      44.097  28.199  32.255  1.00  0.00    -0.354 N 
ATOM     54  N   UNL A   1      43.916  26.124  30.191  1.00  0.00    -0.248 NA
ATOM     55  C   UNL A   1      44.878  24.355  29.007  1.00  0.00     0.031 C 
ATOM     56  C   UNL A   1      45.810  28.138  33.666  1.00  0.00     0.029 A 
ATOM     57  C   UNL A   1      45.254  27.505  32.566  1.00  0.00     0.049 A 
ATOM     58  H   UNL A   1      43.484  27.974  31.518  1.00  0.00     0.167 HD
ATOM     59  C   UNL A   1      45.128  25.786  30.783  1.00  0.00     0.074 A 
ATOM     60  C   UNL A   1      45.657  24.662  30.036  1.00  0.00     0.031 C 
ATOM     61  C   UNL A   1      45.753  26.366  31.837  1.00  0.00     0.034 A 
BRANCH  48  62
ATOM     62  C   UNL A   1      42.850  31.362  34.040  1.00  0.00     0.023 A 
ATOM     63  C   UNL A   1      43.559  32.533  33.702  1.00  0.00     0.012 A 
ATOM     64  C   UNL A   1      42.141  31.311  35.254  1.00  0.00     0.148 A 
ATOM     65  C   UNL A   1      43.598  33.619  34.575  1.00  0.00     0.002 A 
ATOM     66  C   UNL A   1      42.151  32.415  36.103  1.00  0.00     0.091 A 
ATOM     67  F   UNL A   1      41.495  30.181  35.575  1.00  0.00    -0.205 F 
ATOM     68  C   UNL A   1      42.887  33.564  35.770  1.00  0.00     0.022 A 
BRANCH  66  69
ATOM     69  S   UNL A   1      41.205  32.455  37.630  1.00  0.00     0.127 S 
ATOM     70  O   UNL A   1      41.240  33.878  37.962  1.00  0.00    -0.237 OA
ATOM     71  O   UNL A   1      39.895  31.963  37.199  1.00  0.00    -0.237 OA
ATOM     72  O   UNL A   1      41.906  31.571  38.550  1.00  0.00    -0.744 OA
ENDBRANCH  66  69
ENDBRANCH  48  62
BRANCH  49  73
ATOM     73  C   UNL A   1      42.606  24.159  27.142  1.00  0.00     0.023 A 
ATOM     74  C   UNL A   1      43.265  24.424  25.927  1.00  0.00     0.012 A 
ATOM     75  C   UNL A   1      42.010  22.898  27.341  1.00  0.00     0.148 A 
ATOM     76  C   UNL A   1      43.320  23.458  24.922  1.00  0.00     0.002 A 
ATOM     77  C   UNL A   1      42.113  21.922  26.357  1.00  0.00     0.091 A 
ATOM     78  F   UNL A   1      41.378  22.671  28.502  1.00  0.00    -0.205 F 
ATOM     79  C   UNL A   1      42.756  22.204  25.141  1.00  0.00     0.022 A 
BRANCH  77  80
ATOM     80  S   UNL A   1      41.539  20.237  26.603  1.00  0.00     0.127 S 
ATOM     81  O   UNL A   1      42.012  19.579  25.388  1.00  0.00    -0.237 OA
ATOM     82  O   UNL A   1      42.244  19.854  27.826  1.00  0.00    -0.237 OA
ATOM     83  O   UNL A   1      40.093  20.331  26.748  1.00  0.00    -0.744 OA
ENDBRANCH  77  80
ENDBRANCH  49  73
BRANCH  61  84
ATOM     84  C   UNL A   1      47.090  25.807  32.247  1.00  0.00     0.023 A 
ATOM     85  C   UNL A   1      48.259  26.287  31.624  1.00  0.00     0.012 A 
ATOM     86  C   UNL A   1      47.198  24.870  33.292  1.00  0.00     0.148 A 
ATOM     87  C   UNL A   1      49.514  25.825  32.018  1.00  0.00     0.002 A 
ATOM     88  C   UNL A   1      48.455  24.446  33.710  1.00  0.00     0.091 A 
ATOM     89  F   UNL A   1      46.073  24.409  33.859  1.00  0.00    -0.205 F 
ATOM     90  C   UNL A   1      49.613  24.916  33.068  1.00  0.00     0.022 A 
BRANCH  88  91
ATOM     91  S   UNL A   1      48.682  23.344  35.111  1.00  0.00     0.127 S 
ATOM     92  O   UNL A   1      48.258  24.187  36.226  1.00  0.00    -0.237 OA
ATOM     93  O   UNL A   1      47.769  22.245  34.795  1.00  0.00    -0.237 OA
ATOM     94  O   UNL A   1      50.091  22.975  35.104  1.00  0.00    -0.744 OA
ENDBRANCH  88  91
ENDBRANCH  61  84
ENDBRANCH  35  36
ENDBRANCH  27  30
ENDBRANCH  25  26
ENDBRANCH  24  25
ENDBRANCH   1  24
TORSDOF 17
ENDMDL
MODEL 3
REMARK VINA RESULT:     -11.1      4.254     11.129
REMARK SMILES C/C=C/c1cncc(-c2ccc([C@@H](C)C(=O)NCCCCNC(=O)c3ccc(-c4c5nc(c(-c6cccc(S(=O)(=O)[O-])c6F)c6ccc([nH]6)c(-c6cccc(S(=O)(=O)[O-])c6F)c6nc(c(-c7cccc(S(=O)(=O)[O-])c7F)c7ccc4[nH]7)C=C6)C=C5)cc3)cc2)c1
REMARK SMILES IDX 19 1 18 2 17 3 15 4 16 5 13 7 14 8 12 9 9 10 10 11 89 12
REMARK SMILES IDX 11 13 88 14 8 15 4 16 5 17 90 18 6 19 7 20 3 21 1 22 2 23
REMARK SMILES IDX 20 24 21 25 22 26 23 27 24 29 25 30 26 31 87 32 27 33 86 34
REMARK SMILES IDX 28 35 29 36 30 37 80 38 31 39 85 40 79 41 81 42 32 43 84 44
REMARK SMILES IDX 78 45 77 46 33 48 65 49 45 50 64 51 46 52 49 53 63 54 82 55
REMARK SMILES IDX 47 56 48 57 62 59 83 60 50 61 34 62 35 63 43 64 36 65 38 66
REMARK SMILES IDX 44 67 37 68 39 69 40 70 41 71 42 72 66 73 67 74 75 75 68 76
REMARK SMILES IDX 70 77 76 78 69 79 71 80 72 81 73 82 74 83 51 84 52 85 60 86
REMARK SMILES IDX 53 87 55 88 61 89 54 90 56 91 57 92 58 93 59 94
REMARK H PARENT 17 6 22 28 81 47 49 58
REMARK Flexibility Score: inf
ROOT
ATOM      1  C   UNL A   1      34.646  33.024  32.648  1.00  0.00     0.023 C 
ENDROOT
BRANCH   1   2
ATOM      2  C   UNL A   1      35.195  34.443  32.504  1.00  0.00     0.116 C 
BRANCH   2   3
ATOM      3  N   UNL A   1      36.026  34.829  33.626  1.00  0.00    -0.356 N 
ATOM      4  C   UNL A   1      37.214  34.341  34.078  1.00  0.00     0.227 C 
ATOM      5  O   UNL A   1      37.670  34.850  35.109  1.00  0.00    -0.274 OA
ATOM      6  H   UNL A   1      35.669  35.578  34.156  1.00  0.00     0.163 HD
BRANCH   4   7
ATOM      7  C   UNL A   1      38.005  33.230  33.370  1.00  0.00     0.105 C 
ATOM      8  C   UNL A   1      38.564  32.169  34.318  1.00  0.00     0.023 C 
BRANCH   7   9
ATOM      9  C   UNL A   1      38.953  33.744  32.297  1.00  0.00    -0.036 A 
ATOM     10  C   UNL A   1      40.860  34.574  30.326  1.00  0.00    -0.017 A 
ATOM     11  C   UNL A   1      39.562  34.165  29.978  1.00  0.00     0.009 A 
ATOM     12  C   UNL A   1      41.170  34.583  31.695  1.00  0.00     0.009 A 
ATOM     13  C   UNL A   1      38.617  33.793  30.943  1.00  0.00     0.005 A 
ATOM     14  C   UNL A   1      40.244  34.158  32.659  1.00  0.00     0.005 A 
BRANCH  10  15
ATOM     15  C   UNL A   1      41.842  34.976  29.290  1.00  0.00     0.001 A 
ATOM     16  C   UNL A   1      42.675  36.510  27.574  1.00  0.00    -0.007 A 
ATOM     17  C   UNL A   1      43.739  35.634  27.386  1.00  0.00     0.119 A 
ATOM     18  C   UNL A   1      41.722  36.163  28.544  1.00  0.00     0.020 A 
ATOM     19  N   UNL A   1      43.908  34.481  28.067  1.00  0.00    -0.263 NA
ATOM     20  C   UNL A   1      42.959  34.188  28.990  1.00  0.00     0.119 A 
BRANCH  16  21
ATOM     21  C   UNL A   1      42.559  37.693  26.713  1.00  0.00     0.005 C 
ATOM     22  C   UNL A   1      42.445  40.142  26.241  1.00  0.00     0.035 C 
ATOM     23  C   UNL A   1      42.548  38.960  27.151  1.00  0.00    -0.030 C 
ENDBRANCH  16  21
ENDBRANCH  10  15
ENDBRANCH   7   9
ENDBRANCH   4   7
ENDBRANCH   2   3
ENDBRANCH   1   2
BRANCH   1  24
ATOM     24  C   UNL A   1      35.115  32.037  31.580  1.00  0.00     0.023 C 
BRANCH  24  25
ATOM     25  C   UNL A   1      35.392  32.637  30.205  1.00  0.00     0.116 C 
BRANCH  25  26
ATOM     26  N   UNL A   1      34.558  32.096  29.140  1.00  0.00    -0.352 N 
ATOM     27  C   UNL A   1      34.797  30.994  28.344  1.00  0.00     0.251 C 
ATOM     28  H   UNL A   1      33.717  32.575  28.966  1.00  0.00     0.163 HD
ATOM     29  O   UNL A   1      34.027  30.699  27.442  1.00  0.00    -0.269 OA
BRANCH  27  30
ATOM     30  C   UNL A   1      36.028  30.205  28.570  1.00  0.00     0.039 A 
ATOM     31  C   UNL A   1      37.116  30.394  27.713  1.00  0.00     0.014 A 
ATOM     32  C   UNL A   1      36.130  29.350  29.669  1.00  0.00     0.014 A 
ATOM     33  C   UNL A   1      38.342  29.796  28.017  1.00  0.00     0.010 A 
ATOM     34  C   UNL A   1      37.368  28.815  30.007  1.00  0.00     0.010 A 
ATOM     35  C   UNL A   1      38.489  29.044  29.195  1.00  0.00    -0.014 A 
BRANCH  35  36
ATOM     36  C   UNL A   1      39.814  28.539  29.633  1.00  0.00     0.031 A 
ATOM     37  C   UNL A   1      40.589  29.257  30.701  1.00  0.00     0.074 A 
ATOM     38  C   UNL A   1      40.378  27.508  28.970  1.00  0.00     0.049 A 
ATOM     39  N   UNL A   1      41.793  29.016  31.147  1.00  0.00    -0.248 NA
ATOM     40  C   UNL A   1      39.937  30.421  31.323  1.00  0.00     0.031 C 
ATOM     41  C   UNL A   1      39.772  26.795  27.844  1.00  0.00     0.029 A 
ATOM     42  N   UNL A   1      41.603  26.908  29.122  1.00  0.00    -0.354 N 
ATOM     43  C   UNL A   1      42.061  30.017  32.072  1.00  0.00     0.074 A 
ATOM     44  C   UNL A   1      40.906  30.888  32.098  1.00  0.00     0.031 C 
ATOM     45  C   UNL A   1      40.627  25.861  27.403  1.00  0.00     0.029 A 
ATOM     46  C   UNL A   1      41.851  25.922  28.196  1.00  0.00     0.049 A 
ATOM     47  H   UNL A   1      42.243  27.159  29.827  1.00  0.00     0.167 HD
ATOM     48  C   UNL A   1      43.155  30.178  32.854  1.00  0.00     0.034 A 
ATOM     49  C   UNL A   1      42.944  25.157  28.000  1.00  0.00     0.034 A 
ATOM     50  C   UNL A   1      44.278  29.280  32.865  1.00  0.00     0.049 A 
ATOM     51  C   UNL A   1      44.122  25.315  28.919  1.00  0.00     0.074 A 
ATOM     52  C   UNL A   1      45.373  29.280  33.708  1.00  0.00     0.029 A 
ATOM     53  N   UNL A   1      44.455  28.226  31.980  1.00  0.00    -0.354 N 
ATOM     54  N   UNL A   1      44.277  26.144  29.924  1.00  0.00    -0.248 NA
ATOM     55  C   UNL A   1      45.262  24.414  28.702  1.00  0.00     0.031 C 
ATOM     56  C   UNL A   1      46.222  28.235  33.325  1.00  0.00     0.029 A 
ATOM     57  C   UNL A   1      45.650  27.579  32.246  1.00  0.00     0.049 A 
ATOM     58  H   UNL A   1      43.823  27.976  31.268  1.00  0.00     0.167 HD
ATOM     59  C   UNL A   1      45.524  25.855  30.468  1.00  0.00     0.074 A 
ATOM     60  C   UNL A   1      46.068  24.753  29.701  1.00  0.00     0.031 C 
ATOM     61  C   UNL A   1      46.165  26.461  31.497  1.00  0.00     0.034 A 
BRANCH  48  62
ATOM     62  C   UNL A   1      43.152  31.339  33.814  1.00  0.00     0.023 A 
ATOM     63  C   UNL A   1      43.731  32.562  33.419  1.00  0.00     0.012 A 
ATOM     64  C   UNL A   1      42.560  31.234  35.087  1.00  0.00     0.148 A 
ATOM     65  C   UNL A   1      43.758  33.651  34.289  1.00  0.00     0.002 A 
ATOM     66  C   UNL A   1      42.555  32.338  35.935  1.00  0.00     0.091 A 
ATOM     67  F   UNL A   1      42.040  30.057  35.460  1.00  0.00    -0.205 F 
ATOM     68  C   UNL A   1      43.163  33.542  35.542  1.00  0.00     0.022 A 
BRANCH  66  69
ATOM     69  S   UNL A   1      41.749  32.307  37.540  1.00  0.00     0.127 S 
ATOM     70  O   UNL A   1      42.549  31.314  38.254  1.00  0.00    -0.237 OA
ATOM     71  O   UNL A   1      41.928  33.683  38.007  1.00  0.00    -0.237 OA
ATOM     72  O   UNL A   1      40.365  31.937  37.278  1.00  0.00    -0.744 OA
ENDBRANCH  66  69
ENDBRANCH  48  62
BRANCH  49  73
ATOM     73  C   UNL A   1      42.930  24.125  26.927  1.00  0.00     0.023 A 
ATOM     74  C   UNL A   1      43.638  24.365  25.733  1.00  0.00     0.012 A 
ATOM     75  C   UNL A   1      42.285  22.886  27.107  1.00  0.00     0.148 A 
ATOM     76  C   UNL A   1      43.692  23.396  24.732  1.00  0.00     0.002 A 
ATOM     77  C   UNL A   1      42.386  21.905  26.127  1.00  0.00     0.091 A 
ATOM     78  F   UNL A   1      41.608  22.683  28.245  1.00  0.00    -0.205 F 
ATOM     79  C   UNL A   1      43.078  22.163  24.933  1.00  0.00     0.022 A 
BRANCH  77  80
ATOM     80  S   UNL A   1      41.747  20.241  26.355  1.00  0.00     0.127 S 
ATOM     81  O   UNL A   1      40.307  20.454  26.229  1.00  0.00    -0.237 OA
ATOM     82  O   UNL A   1      42.364  19.525  25.238  1.00  0.00    -0.237 OA
ATOM     83  O   UNL A   1      42.211  19.818  27.669  1.00  0.00    -0.744 OA
ENDBRANCH  77  80
ENDBRANCH  49  73
BRANCH  61  84
ATOM     84  C   UNL A   1      47.539  25.956  31.855  1.00  0.00     0.023 A 
ATOM     85  C   UNL A   1      48.652  26.402  31.116  1.00  0.00     0.012 A 
ATOM     86  C   UNL A   1      47.738  25.106  32.960  1.00  0.00     0.148 A 
ATOM     87  C   UNL A   1      49.940  25.993  31.457  1.00  0.00     0.002 A 
ATOM     88  C   UNL A   1      49.029  24.736  33.320  1.00  0.00     0.091 A 
ATOM     89  F   UNL A   1      46.663  24.674  33.638  1.00  0.00    -0.205 F 
ATOM     90  C   UNL A   1      50.129  25.170  32.565  1.00  0.00     0.022 A 
BRANCH  88  91
ATOM     91  S   UNL A   1      49.373  23.752  34.784  1.00  0.00     0.127 S 
ATOM     92  O   UNL A   1      48.558  24.422  35.794  1.00  0.00    -0.237 OA
ATOM     93  O   UNL A   1      48.891  22.427  34.390  1.00  0.00    -0.237 OA
ATOM     94  O   UNL A   1      50.814  23.830  34.986  1.00  0.00    -0.744 OA
ENDBRANCH  88  91
ENDBRANCH  61  84
ENDBRANCH  35  36
ENDBRANCH  27  30
ENDBRANCH  25  26
ENDBRANCH  24  25
ENDBRANCH   1  24
TORSDOF 17
ENDMDL
