MODEL 1
REMARK VINA RESULT:     -11.9      0.000      0.000
REMARK SMILES O=C(CC1(CC(=O)Nc2ccc(F)cc2F)CCCCC1)NCCCCNC(=O)c1ccc(-c2c3nc(c(-c4cccc(S(=O)(=O)[O-])c4F)c4ccc([nH]4)c(-c4cccc(S(=O)(=O)[O-])c4F)c4nc(c(-c5cccc(S(=O)(=O)[O-])c5F)c5ccc2[nH]5)C=C4)C=C3)cc1
REMARK SMILES IDX 24 1 23 2 22 3 1 4 2 5 3 7 4 8 17 9 21 10 18 11 20 12 19 13
REMARK SMILES IDX 5 14 6 15 7 16 8 17 9 19 10 20 15 21 11 22 14 23 16 24 12 25
REMARK SMILES IDX 13 26 25 27 26 28 27 29 28 30 29 32 30 33 31 34 92 35 32 36
REMARK SMILES IDX 91 37 33 38 34 39 35 40 85 41 36 42 90 43 84 44 86 45 37 46
REMARK SMILES IDX 89 47 83 48 82 49 38 51 70 52 50 53 69 54 51 55 54 56 68 57
REMARK SMILES IDX 87 58 52 59 53 60 67 62 88 63 55 64 39 65 40 66 48 67 41 68
REMARK SMILES IDX 43 69 49 70 42 71 44 72 45 73 46 74 47 75 71 76 72 77 80 78
REMARK SMILES IDX 73 79 75 80 81 81 74 82 76 83 77 84 78 85 79 86 56 87 57 88
REMARK SMILES IDX 65 89 58 90 60 91 66 92 59 93 61 94 62 95 63 96 64 97
REMARK H PARENT 22 6 8 18 27 31 86 50 54 61
REMARK Flexibility Score: inf
ROOT
ATOM      1  C   UNL A   1      36.563  20.758  24.744  1.00  0.00     0.023 C 
ENDROOT
BRANCH   1   2
ATOM      2  C   UNL A   1      37.013  22.114  24.197  1.00  0.00     0.116 C 
BRANCH   2   3
ATOM      3  N   UNL A   1      35.916  22.978  23.815  1.00  0.00    -0.356 N 
ATOM      4  O   UNL A   1      35.717  23.997  25.872  1.00  0.00    -0.275 OA
ATOM      5  C   UNL A   1      35.393  23.911  24.693  1.00  0.00     0.220 C 
ATOM      6  H   UNL A   1      35.534  22.901  22.912  1.00  0.00     0.163 HD
BRANCH   5   7
ATOM      7  C   UNL A   1      34.439  24.896  24.036  1.00  0.00     0.107 C 
BRANCH   7   8
ATOM      8  C   UNL A   1      32.923  24.564  24.247  1.00  0.00    -0.012 C 
ATOM      9  C   UNL A   1      32.807  23.063  24.683  1.00  0.00     0.008 C 
ATOM     10  C   UNL A   1      32.299  25.338  25.425  1.00  0.00     0.008 C 
ATOM     11  C   UNL A   1      31.390  22.615  25.073  1.00  0.00     0.001 C 
ATOM     12  C   UNL A   1      30.825  25.016  25.648  1.00  0.00     0.001 C 
ATOM     13  C   UNL A   1      30.682  23.557  26.048  1.00  0.00     0.000 C 
BRANCH   8  14
ATOM     14  C   UNL A   1      32.155  24.782  22.901  1.00  0.00     0.108 C 
BRANCH  14  15
ATOM     15  C   UNL A   1      32.682  25.733  21.811  1.00  0.00     0.225 C 
ATOM     16  O   UNL A   1      33.256  25.255  20.825  1.00  0.00    -0.275 OA
ATOM     17  N   UNL A   1      32.409  27.074  21.802  1.00  0.00    -0.324 N 
ATOM     18  H   UNL A   1      32.389  27.485  20.908  1.00  0.00     0.170 HD
BRANCH  17  19
ATOM     19  C   UNL A   1      32.153  27.954  22.859  1.00  0.00     0.077 A 
ATOM     20  C   UNL A   1      30.838  28.223  23.231  1.00  0.00     0.032 A 
ATOM     21  C   UNL A   1      33.187  28.447  23.657  1.00  0.00     0.149 A 
ATOM     22  C   UNL A   1      30.573  29.152  24.239  1.00  0.00     0.041 A 
ATOM     23  C   UNL A   1      32.930  29.337  24.699  1.00  0.00     0.080 A 
ATOM     24  F   UNL A   1      34.455  28.102  23.394  1.00  0.00    -0.205 F 
ATOM     25  C   UNL A   1      31.620  29.712  24.954  1.00  0.00     0.126 A 
ATOM     26  F   UNL A   1      31.348  30.622  25.899  1.00  0.00    -0.207 F 
ENDBRANCH  17  19
ENDBRANCH  14  15
ENDBRANCH   8  14
ENDBRANCH   7   8
ENDBRANCH   5   7
ENDBRANCH   2   3
ENDBRANCH   1   2
BRANCH   1  27
ATOM     27  C   UNL A   1      37.673  19.731  24.993  1.00  0.00     0.023 C 
BRANCH  27  28
ATOM     28  C   UNL A   1      38.887  20.237  25.771  1.00  0.00     0.116 C 
BRANCH  28  29
ATOM     29  N   UNL A   1      39.964  19.271  25.869  1.00  0.00    -0.352 N 
ATOM     30  C   UNL A   1      41.303  19.457  26.143  1.00  0.00     0.251 C 
ATOM     31  H   UNL A   1      39.699  18.335  25.717  1.00  0.00     0.163 HD
ATOM     32  O   UNL A   1      42.062  18.495  26.093  1.00  0.00    -0.269 OA
BRANCH  30  33
ATOM     33  C   UNL A   1      41.845  20.802  26.462  1.00  0.00     0.039 A 
ATOM     34  C   UNL A   1      42.068  21.696  25.410  1.00  0.00     0.014 A 
ATOM     35  C   UNL A   1      42.171  21.184  27.766  1.00  0.00     0.014 A 
ATOM     36  C   UNL A   1      42.544  22.985  25.672  1.00  0.00     0.010 A 
ATOM     37  C   UNL A   1      42.575  22.496  28.035  1.00  0.00     0.010 A 
ATOM     38  C   UNL A   1      42.765  23.415  26.991  1.00  0.00    -0.014 A 
BRANCH  38  39
ATOM     39  C   UNL A   1      43.166  24.822  27.282  1.00  0.00     0.031 A 
ATOM     40  C   UNL A   1      42.203  25.787  27.922  1.00  0.00     0.074 A 
ATOM     41  C   UNL A   1      44.389  25.256  26.913  1.00  0.00     0.049 A 
ATOM     42  N   UNL A   1      42.375  27.052  28.214  1.00  0.00    -0.248 NA
ATOM     43  C   UNL A   1      40.866  25.273  28.260  1.00  0.00     0.031 C 
ATOM     44  C   UNL A   1      45.398  24.449  26.224  1.00  0.00     0.029 A 
ATOM     45  N   UNL A   1      44.984  26.488  27.040  1.00  0.00    -0.354 N 
ATOM     46  C   UNL A   1      41.166  27.493  28.741  1.00  0.00     0.074 A 
ATOM     47  C   UNL A   1      40.258  26.366  28.698  1.00  0.00     0.031 C 
ATOM     48  C   UNL A   1      46.484  25.203  25.993  1.00  0.00     0.029 A 
ATOM     49  C   UNL A   1      46.240  26.556  26.482  1.00  0.00     0.049 A 
ATOM     50  H   UNL A   1      44.553  27.250  27.490  1.00  0.00     0.167 HD
ATOM     51  C   UNL A   1      40.845  28.712  29.240  1.00  0.00     0.034 A 
ATOM     52  C   UNL A   1      47.096  27.591  26.360  1.00  0.00     0.034 A 
ATOM     53  C   UNL A   1      41.753  29.826  29.309  1.00  0.00     0.049 A 
ATOM     54  C   UNL A   1      46.722  28.931  26.934  1.00  0.00     0.074 A 
ATOM     55  C   UNL A   1      41.541  31.075  29.866  1.00  0.00     0.029 A 
ATOM     56  N   UNL A   1      43.040  29.835  28.795  1.00  0.00    -0.354 N 
ATOM     57  N   UNL A   1      45.627  29.281  27.563  1.00  0.00    -0.248 NA
ATOM     58  C   UNL A   1      47.717  30.007  26.816  1.00  0.00     0.031 C 
ATOM     59  C   UNL A   1      42.687  31.851  29.657  1.00  0.00     0.029 A 
ATOM     60  C   UNL A   1      43.628  31.071  29.007  1.00  0.00     0.049 A 
ATOM     61  H   UNL A   1      43.473  29.074  28.344  1.00  0.00     0.167 HD
ATOM     62  C   UNL A   1      45.815  30.605  27.946  1.00  0.00     0.074 A 
ATOM     63  C   UNL A   1      47.137  30.986  27.498  1.00  0.00     0.031 C 
ATOM     64  C   UNL A   1      44.963  31.432  28.600  1.00  0.00     0.034 A 
BRANCH  51  65
ATOM     65  C   UNL A   1      39.454  28.898  29.795  1.00  0.00     0.023 A 
ATOM     66  C   UNL A   1      39.164  28.472  31.107  1.00  0.00     0.012 A 
ATOM     67  C   UNL A   1      38.454  29.549  29.045  1.00  0.00     0.148 A 
ATOM     68  C   UNL A   1      37.891  28.653  31.650  1.00  0.00     0.002 A 
ATOM     69  C   UNL A   1      37.204  29.769  29.610  1.00  0.00     0.091 A 
ATOM     70  F   UNL A   1      38.743  29.934  27.793  1.00  0.00    -0.205 F 
ATOM     71  C   UNL A   1      36.917  29.310  30.906  1.00  0.00     0.022 A 
BRANCH  69  72
ATOM     72  S   UNL A   1      35.904  30.678  28.766  1.00  0.00     0.127 S 
ATOM     73  O   UNL A   1      35.259  29.619  27.991  1.00  0.00    -0.237 OA
ATOM     74  O   UNL A   1      35.109  31.186  29.884  1.00  0.00    -0.237 OA
ATOM     75  O   UNL A   1      36.576  31.705  27.981  1.00  0.00    -0.744 OA
ENDBRANCH  69  72
ENDBRANCH  51  65
BRANCH  52  76
ATOM     76  C   UNL A   1      48.416  27.389  25.694  1.00  0.00     0.023 A 
ATOM     77  C   UNL A   1      49.541  27.044  26.468  1.00  0.00     0.012 A 
ATOM     78  C   UNL A   1      48.554  27.518  24.299  1.00  0.00     0.148 A 
ATOM     79  C   UNL A   1      50.789  26.866  25.867  1.00  0.00     0.002 A 
ATOM     80  C   UNL A   1      49.785  27.280  23.700  1.00  0.00     0.091 A 
ATOM     81  F   UNL A   1      47.473  27.859  23.584  1.00  0.00    -0.205 F 
ATOM     82  C   UNL A   1      50.908  26.972  24.484  1.00  0.00     0.022 A 
BRANCH  80  83
ATOM     83  S   UNL A   1      49.999  27.260  21.918  1.00  0.00     0.127 S 
ATOM     84  O   UNL A   1      49.814  28.669  21.579  1.00  0.00    -0.237 OA
ATOM     85  O   UNL A   1      51.371  26.768  21.786  1.00  0.00    -0.237 OA
ATOM     86  O   UNL A   1      48.983  26.349  21.409  1.00  0.00    -0.744 OA
ENDBRANCH  80  83
ENDBRANCH  52  76
BRANCH  64  87
ATOM     87  C   UNL A   1      45.441  32.826  28.916  1.00  0.00     0.023 A 
ATOM     88  C   UNL A   1      46.253  33.057  30.044  1.00  0.00     0.012 A 
ATOM     89  C   UNL A   1      45.141  33.898  28.051  1.00  0.00     0.148 A 
ATOM     90  C   UNL A   1      46.729  34.338  30.326  1.00  0.00     0.002 A 
ATOM     91  C   UNL A   1      45.661  35.161  28.309  1.00  0.00     0.091 A 
ATOM     92  F   UNL A   1      44.352  33.664  26.993  1.00  0.00    -0.205 F 
ATOM     93  C   UNL A   1      46.443  35.386  29.454  1.00  0.00     0.022 A 
BRANCH  91  94
ATOM     94  S   UNL A   1      45.428  36.549  27.193  1.00  0.00     0.127 S 
ATOM     95  O   UNL A   1      45.926  37.664  27.996  1.00  0.00    -0.237 OA
ATOM     96  O   UNL A   1      46.280  36.181  26.062  1.00  0.00    -0.237 OA
ATOM     97  O   UNL A   1      44.003  36.587  26.890  1.00  0.00    -0.744 OA
ENDBRANCH  91  94
ENDBRANCH  64  87
ENDBRANCH  38  39
ENDBRANCH  30  33
ENDBRANCH  28  29
ENDBRANCH  27  28
ENDBRANCH   1  27
TORSDOF 18
ENDMDL
MODEL 2
REMARK VINA RESULT:     -11.7      5.268      9.038
REMARK SMILES O=C(CC1(CC(=O)Nc2ccc(F)cc2F)CCCCC1)NCCCCNC(=O)c1ccc(-c2c3nc(c(-c4cccc(S(=O)(=O)[O-])c4F)c4ccc([nH]4)c(-c4cccc(S(=O)(=O)[O-])c4F)c4nc(c(-c5cccc(S(=O)(=O)[O-])c5F)c5ccc2[nH]5)C=C4)C=C3)cc1
REMARK SMILES IDX 24 1 23 2 22 3 1 4 2 5 3 7 4 8 17 9 21 10 18 11 20 12 19 13
REMARK SMILES IDX 5 14 6 15 7 16 8 17 9 19 10 20 15 21 11 22 14 23 16 24 12 25
REMARK SMILES IDX 13 26 25 27 26 28 27 29 28 30 29 32 30 33 31 34 92 35 32 36
REMARK SMILES IDX 91 37 33 38 34 39 35 40 85 41 36 42 90 43 84 44 86 45 37 46
REMARK SMILES IDX 89 47 83 48 82 49 38 51 70 52 50 53 69 54 51 55 54 56 68 57
REMARK SMILES IDX 87 58 52 59 53 60 67 62 88 63 55 64 39 65 40 66 48 67 41 68
REMARK SMILES IDX 43 69 49 70 42 71 44 72 45 73 46 74 47 75 71 76 72 77 80 78
REMARK SMILES IDX 73 79 75 80 81 81 74 82 76 83 77 84 78 85 79 86 56 87 57 88
REMARK SMILES IDX 65 89 58 90 60 91 66 92 59 93 61 94 62 95 63 96 64 97
REMARK H PARENT 22 6 8 18 27 31 86 50 54 61
REMARK Flexibility Score: inf
ROOT
ATOM      1  C   UNL A   1      33.372  28.215  24.330  1.00  0.00     0.023 C 
ENDROOT
BRANCH   1   2
ATOM      2  C   UNL A   1      32.527  27.407  23.344  1.00  0.00     0.116 C 
BRANCH   2   3
ATOM      3  N   UNL A   1      32.399  26.009  23.700  1.00  0.00    -0.356 N 
ATOM      4  O   UNL A   1      33.883  25.245  22.111  1.00  0.00    -0.275 OA
ATOM      5  C   UNL A   1      33.156  25.034  23.076  1.00  0.00     0.220 C 
ATOM      6  H   UNL A   1      31.760  25.747  24.401  1.00  0.00     0.163 HD
BRANCH   5   7
ATOM      7  C   UNL A   1      33.080  23.677  23.757  1.00  0.00     0.107 C 
BRANCH   7   8
ATOM      8  C   UNL A   1      34.382  23.266  24.524  1.00  0.00    -0.012 C 
ATOM      9  C   UNL A   1      35.371  22.616  23.496  1.00  0.00     0.008 C 
ATOM     10  C   UNL A   1      35.163  24.477  25.069  1.00  0.00     0.008 C 
ATOM     11  C   UNL A   1      36.761  22.287  24.061  1.00  0.00     0.001 C 
ATOM     12  C   UNL A   1      36.439  24.090  25.810  1.00  0.00     0.001 C 
ATOM     13  C   UNL A   1      37.407  23.434  24.840  1.00  0.00     0.000 C 
BRANCH   8  14
ATOM     14  C   UNL A   1      34.020  22.224  25.635  1.00  0.00     0.108 C 
BRANCH  14  15
ATOM     15  C   UNL A   1      32.559  21.840  25.941  1.00  0.00     0.225 C 
ATOM     16  O   UNL A   1      31.893  22.568  26.687  1.00  0.00    -0.275 OA
ATOM     17  N   UNL A   1      31.913  20.817  25.303  1.00  0.00    -0.324 N 
ATOM     18  H   UNL A   1      30.939  20.930  25.225  1.00  0.00     0.170 HD
BRANCH  17  19
ATOM     19  C   UNL A   1      32.414  19.637  24.744  1.00  0.00     0.077 A 
ATOM     20  C   UNL A   1      32.820  18.596  25.576  1.00  0.00     0.032 A 
ATOM     21  C   UNL A   1      32.366  19.411  23.367  1.00  0.00     0.149 A 
ATOM     22  C   UNL A   1      33.385  17.443  25.027  1.00  0.00     0.041 A 
ATOM     23  C   UNL A   1      32.881  18.240  22.811  1.00  0.00     0.080 A 
ATOM     24  F   UNL A   1      31.863  20.350  22.554  1.00  0.00    -0.205 F 
ATOM     25  C   UNL A   1      33.424  17.280  23.651  1.00  0.00     0.126 A 
ATOM     26  F   UNL A   1      33.992  16.180  23.143  1.00  0.00    -0.207 F 
ENDBRANCH  17  19
ENDBRANCH  14  15
ENDBRANCH   8  14
ENDBRANCH   7   8
ENDBRANCH   5   7
ENDBRANCH   2   3
ENDBRANCH   1   2
BRANCH   1  27
ATOM     27  C   UNL A   1      32.621  28.822  25.521  1.00  0.00     0.023 C 
BRANCH  27  28
ATOM     28  C   UNL A   1      33.461  29.101  26.765  1.00  0.00     0.116 C 
BRANCH  28  29
ATOM     29  N   UNL A   1      33.571  30.510  27.093  1.00  0.00    -0.352 N 
ATOM     30  C   UNL A   1      34.550  31.186  27.790  1.00  0.00     0.251 C 
ATOM     31  H   UNL A   1      32.832  31.072  26.767  1.00  0.00     0.163 HD
ATOM     32  O   UNL A   1      34.398  32.379  28.027  1.00  0.00    -0.269 OA
BRANCH  30  33
ATOM     33  C   UNL A   1      35.763  30.489  28.289  1.00  0.00     0.039 A 
ATOM     34  C   UNL A   1      36.935  30.569  27.530  1.00  0.00     0.014 A 
ATOM     35  C   UNL A   1      35.758  29.733  29.464  1.00  0.00     0.014 A 
ATOM     36  C   UNL A   1      38.109  29.957  27.984  1.00  0.00     0.010 A 
ATOM     37  C   UNL A   1      36.947  29.185  29.953  1.00  0.00     0.010 A 
ATOM     38  C   UNL A   1      38.140  29.291  29.220  1.00  0.00    -0.014 A 
BRANCH  38  39
ATOM     39  C   UNL A   1      39.414  28.733  29.759  1.00  0.00     0.031 A 
ATOM     40  C   UNL A   1      40.086  29.348  30.959  1.00  0.00     0.074 A 
ATOM     41  C   UNL A   1      40.008  27.700  29.126  1.00  0.00     0.049 A 
ATOM     42  N   UNL A   1      41.211  29.011  31.537  1.00  0.00    -0.248 NA
ATOM     43  C   UNL A   1      39.418  30.503  31.580  1.00  0.00     0.031 C 
ATOM     44  C   UNL A   1      39.505  27.051  27.914  1.00  0.00     0.029 A 
ATOM     45  N   UNL A   1      41.176  27.029  29.398  1.00  0.00    -0.354 N 
ATOM     46  C   UNL A   1      41.403  29.925  32.567  1.00  0.00     0.074 A 
ATOM     47  C   UNL A   1      40.292  30.851  32.514  1.00  0.00     0.031 C 
ATOM     48  C   UNL A   1      40.355  26.077  27.550  1.00  0.00     0.029 A 
ATOM     49  C   UNL A   1      41.481  26.053  28.477  1.00  0.00     0.049 A 
ATOM     50  H   UNL A   1      41.742  27.227  30.179  1.00  0.00     0.167 HD
ATOM     51  C   UNL A   1      42.394  29.977  33.491  1.00  0.00     0.034 A 
ATOM     52  C   UNL A   1      42.552  25.239  28.376  1.00  0.00     0.034 A 
ATOM     53  C   UNL A   1      43.486  29.041  33.563  1.00  0.00     0.049 A 
ATOM     54  C   UNL A   1      43.632  25.307  29.421  1.00  0.00     0.074 A 
ATOM     55  C   UNL A   1      44.495  28.969  34.508  1.00  0.00     0.029 A 
ATOM     56  N   UNL A   1      43.723  28.024  32.652  1.00  0.00    -0.354 N 
ATOM     57  N   UNL A   1      43.714  26.084  30.473  1.00  0.00    -0.248 NA
ATOM     58  C   UNL A   1      44.749  24.359  29.285  1.00  0.00     0.031 C 
ATOM     59  C   UNL A   1      45.362  27.931  34.148  1.00  0.00     0.029 A 
ATOM     60  C   UNL A   1      44.869  27.330  33.002  1.00  0.00     0.049 A 
ATOM     61  H   UNL A   1      43.159  27.825  31.869  1.00  0.00     0.167 HD
ATOM     62  C   UNL A   1      44.869  25.696  31.144  1.00  0.00     0.074 A 
ATOM     63  C   UNL A   1      45.442  24.601  30.390  1.00  0.00     0.031 C 
ATOM     64  C   UNL A   1      45.411  26.209  32.276  1.00  0.00     0.034 A 
BRANCH  51  65
ATOM     65  C   UNL A   1      42.325  31.066  34.533  1.00  0.00     0.023 A 
ATOM     66  C   UNL A   1      41.711  30.804  35.775  1.00  0.00     0.012 A 
ATOM     67  C   UNL A   1      42.922  32.322  34.312  1.00  0.00     0.148 A 
ATOM     68  C   UNL A   1      41.654  31.786  36.763  1.00  0.00     0.002 A 
ATOM     69  C   UNL A   1      42.903  33.280  35.318  1.00  0.00     0.091 A 
ATOM     70  F   UNL A   1      43.489  32.560  33.120  1.00  0.00    -0.205 F 
ATOM     71  C   UNL A   1      42.259  33.019  36.538  1.00  0.00     0.022 A 
BRANCH  69  72
ATOM     72  S   UNL A   1      43.725  34.870  35.160  1.00  0.00     0.127 S 
ATOM     73  O   UNL A   1      43.090  35.411  33.959  1.00  0.00    -0.237 OA
ATOM     74  O   UNL A   1      43.344  35.539  36.404  1.00  0.00    -0.237 OA
ATOM     75  O   UNL A   1      45.146  34.578  35.037  1.00  0.00    -0.744 OA
ENDBRANCH  69  72
ENDBRANCH  51  65
BRANCH  52  76
ATOM     76  C   UNL A   1      42.635  24.258  27.256  1.00  0.00     0.023 A 
ATOM     77  C   UNL A   1      43.362  24.584  26.094  1.00  0.00     0.012 A 
ATOM     78  C   UNL A   1      42.015  22.997  27.346  1.00  0.00     0.148 A 
ATOM     79  C   UNL A   1      43.440  23.686  25.028  1.00  0.00     0.002 A 
ATOM     80  C   UNL A   1      42.146  22.084  26.307  1.00  0.00     0.091 A 
ATOM     81  F   UNL A   1      41.318  22.711  28.455  1.00  0.00    -0.205 F 
ATOM     82  C   UNL A   1      42.842  22.433  25.139  1.00  0.00     0.022 A 
BRANCH  80  83
ATOM     83  S   UNL A   1      41.527  20.403  26.420  1.00  0.00     0.127 S 
ATOM     84  O   UNL A   1      42.000  19.998  27.741  1.00  0.00    -0.237 OA
ATOM     85  O   UNL A   1      40.082  20.607  26.317  1.00  0.00    -0.237 OA
ATOM     86  O   UNL A   1      42.114  19.691  25.292  1.00  0.00    -0.744 OA
ENDBRANCH  80  83
ENDBRANCH  52  76
BRANCH  64  87
ATOM     87  C   UNL A   1      46.670  25.571  32.804  1.00  0.00     0.023 A 
ATOM     88  C   UNL A   1      47.930  26.040  32.386  1.00  0.00     0.012 A 
ATOM     89  C   UNL A   1      46.600  24.548  33.772  1.00  0.00     0.148 A 
ATOM     90  C   UNL A   1      49.102  25.477  32.895  1.00  0.00     0.002 A 
ATOM     91  C   UNL A   1      47.771  24.029  34.314  1.00  0.00     0.091 A 
ATOM     92  F   UNL A   1      45.392  24.102  34.145  1.00  0.00    -0.205 F 
ATOM     93  C   UNL A   1      49.022  24.482  33.867  1.00  0.00     0.022 A 
BRANCH  91  94
ATOM     94  S   UNL A   1      47.767  22.815  35.637  1.00  0.00     0.127 S 
ATOM     95  O   UNL A   1      49.196  22.655  35.900  1.00  0.00    -0.237 OA
ATOM     96  O   UNL A   1      47.026  23.508  36.691  1.00  0.00    -0.237 OA
ATOM     97  O   UNL A   1      47.097  21.637  35.101  1.00  0.00    -0.744 OA
ENDBRANCH  91  94
ENDBRANCH  64  87
ENDBRANCH  38  39
ENDBRANCH  30  33
ENDBRANCH  28  29
ENDBRANCH  27  28
ENDBRANCH   1  27
TORSDOF 18
ENDMDL
MODEL 3
REMARK VINA RESULT:     -11.7      2.121      7.833
REMARK SMILES O=C(CC1(CC(=O)Nc2ccc(F)cc2F)CCCCC1)NCCCCNC(=O)c1ccc(-c2c3nc(c(-c4cccc(S(=O)(=O)[O-])c4F)c4ccc([nH]4)c(-c4cccc(S(=O)(=O)[O-])c4F)c4nc(c(-c5cccc(S(=O)(=O)[O-])c5F)c5ccc2[nH]5)C=C4)C=C3)cc1
REMARK SMILES IDX 24 1 23 2 22 3 1 4 2 5 3 7 4 8 17 9 21 10 18 11 20 12 19 13
REMARK SMILES IDX 5 14 6 15 7 16 8 17 9 19 10 20 15 21 11 22 14 23 16 24 12 25
REMARK SMILES IDX 13 26 25 27 26 28 27 29 28 30 29 32 30 33 31 34 92 35 32 36
REMARK SMILES IDX 91 37 33 38 34 39 35 40 85 41 36 42 90 43 84 44 86 45 37 46
REMARK SMILES IDX 89 47 83 48 82 49 38 51 70 52 50 53 69 54 51 55 54 56 68 57
REMARK SMILES IDX 87 58 52 59 53 60 67 62 88 63 55 64 39 65 40 66 48 67 41 68
REMARK SMILES IDX 43 69 49 70 42 71 44 72 45 73 46 74 47 75 71 76 72 77 80 78
REMARK SMILES IDX 73 79 75 80 81 81 74 82 76 83 77 84 78 85 79 86 56 87 57 88
REMARK SMILES IDX 65 89 58 90 60 91 66 92 59 93 61 94 62 95 63 96 64 97
REMARK H PARENT 22 6 8 18 27 31 86 50 54 61
REMARK Flexibility Score: inf
ROOT
ATOM      1  C   UNL A   1      34.790  21.621  25.692  1.00  0.00     0.023 C 
ENDROOT
BRANCH   1   2
ATOM      2  C   UNL A   1      33.806  22.356  24.781  1.00  0.00     0.116 C 
BRANCH   2   3
ATOM      3  N   UNL A   1      34.051  23.780  24.694  1.00  0.00    -0.356 N 
ATOM      4  O   UNL A   1      32.774  24.332  26.531  1.00  0.00    -0.275 OA
ATOM      5  C   UNL A   1      33.550  24.657  25.639  1.00  0.00     0.220 C 
ATOM      6  H   UNL A   1      34.585  24.133  23.947  1.00  0.00     0.163 HD
BRANCH   5   7
ATOM      7  C   UNL A   1      34.125  26.061  25.532  1.00  0.00     0.107 C 
BRANCH   7   8
ATOM      8  C   UNL A   1      33.049  27.192  25.419  1.00  0.00    -0.012 C 
ATOM      9  C   UNL A   1      32.450  27.443  26.845  1.00  0.00     0.008 C 
ATOM     10  C   UNL A   1      33.652  28.556  25.029  1.00  0.00     0.008 C 
ATOM     11  C   UNL A   1      31.478  28.630  26.935  1.00  0.00     0.001 C 
ATOM     12  C   UNL A   1      32.614  29.669  24.925  1.00  0.00     0.001 C 
ATOM     13  C   UNL A   1      31.999  29.916  26.292  1.00  0.00     0.000 C 
BRANCH   8  14
ATOM     14  C   UNL A   1      31.913  26.729  24.446  1.00  0.00     0.108 C 
BRANCH  14  15
ATOM     15  C   UNL A   1      32.036  26.893  22.919  1.00  0.00     0.225 C 
ATOM     16  O   UNL A   1      33.009  26.394  22.340  1.00  0.00    -0.275 OA
ATOM     17  N   UNL A   1      31.041  27.429  22.149  1.00  0.00    -0.324 N 
ATOM     18  H   UNL A   1      31.012  27.096  21.223  1.00  0.00     0.170 HD
BRANCH  17  19
ATOM     19  C   UNL A   1      30.058  28.373  22.465  1.00  0.00     0.077 A 
ATOM     20  C   UNL A   1      30.194  29.687  22.021  1.00  0.00     0.032 A 
ATOM     21  C   UNL A   1      28.861  27.995  23.076  1.00  0.00     0.149 A 
ATOM     22  C   UNL A   1      29.253  30.649  22.391  1.00  0.00     0.041 A 
ATOM     23  C   UNL A   1      27.890  28.941  23.404  1.00  0.00     0.080 A 
ATOM     24  F   UNL A   1      28.654  26.712  23.400  1.00  0.00    -0.205 F 
ATOM     25  C   UNL A   1      28.117  30.272  23.090  1.00  0.00     0.126 A 
ATOM     26  F   UNL A   1      27.239  31.213  23.458  1.00  0.00    -0.207 F 
ENDBRANCH  17  19
ENDBRANCH  14  15
ENDBRANCH   8  14
ENDBRANCH   7   8
ENDBRANCH   5   7
ENDBRANCH   2   3
ENDBRANCH   1   2
BRANCH   1  27
ATOM     27  C   UNL A   1      35.791  20.693  24.993  1.00  0.00     0.023 C 
BRANCH  27  28
ATOM     28  C   UNL A   1      37.230  21.200  24.919  1.00  0.00     0.116 C 
BRANCH  28  29
ATOM     29  N   UNL A   1      38.214  20.239  25.378  1.00  0.00    -0.352 N 
ATOM     30  C   UNL A   1      39.415  20.436  26.027  1.00  0.00     0.251 C 
ATOM     31  H   UNL A   1      37.991  19.297  25.198  1.00  0.00     0.163 HD
ATOM     32  O   UNL A   1      40.139  19.473  26.249  1.00  0.00    -0.269 OA
BRANCH  30  33
ATOM     33  C   UNL A   1      39.860  21.796  26.428  1.00  0.00     0.039 A 
ATOM     34  C   UNL A   1      40.901  21.907  27.355  1.00  0.00     0.014 A 
ATOM     35  C   UNL A   1      39.251  22.953  25.939  1.00  0.00     0.014 A 
ATOM     36  C   UNL A   1      41.374  23.170  27.731  1.00  0.00     0.010 A 
ATOM     37  C   UNL A   1      39.772  24.211  26.257  1.00  0.00     0.010 A 
ATOM     38  C   UNL A   1      40.843  24.336  27.156  1.00  0.00    -0.014 A 
BRANCH  38  39
ATOM     39  C   UNL A   1      41.418  25.676  27.470  1.00  0.00     0.031 A 
ATOM     40  C   UNL A   1      42.837  26.020  27.099  1.00  0.00     0.074 A 
ATOM     41  C   UNL A   1      40.677  26.575  28.152  1.00  0.00     0.049 A 
ATOM     42  N   UNL A   1      43.505  27.123  27.325  1.00  0.00    -0.248 NA
ATOM     43  C   UNL A   1      43.613  24.984  26.398  1.00  0.00     0.031 C 
ATOM     44  C   UNL A   1      39.313  26.352  28.635  1.00  0.00     0.029 A 
ATOM     45  N   UNL A   1      40.974  27.847  28.581  1.00  0.00    -0.354 N 
ATOM     46  C   UNL A   1      44.784  26.907  26.825  1.00  0.00     0.074 A 
ATOM     47  C   UNL A   1      44.807  25.554  26.312  1.00  0.00     0.031 C 
ATOM     48  C   UNL A   1      38.891  27.446  29.288  1.00  0.00     0.029 A 
ATOM     49  C   UNL A   1      39.963  28.436  29.305  1.00  0.00     0.049 A 
ATOM     50  H   UNL A   1      41.829  28.294  28.387  1.00  0.00     0.167 HD
ATOM     51  C   UNL A   1      45.836  27.761  26.772  1.00  0.00     0.034 A 
ATOM     52  C   UNL A   1      39.906  29.631  29.928  1.00  0.00     0.034 A 
ATOM     53  C   UNL A   1      45.808  29.116  27.257  1.00  0.00     0.049 A 
ATOM     54  C   UNL A   1      41.081  30.566  29.842  1.00  0.00     0.074 A 
ATOM     55  C   UNL A   1      46.800  30.078  27.178  1.00  0.00     0.029 A 
ATOM     56  N   UNL A   1      44.742  29.699  27.924  1.00  0.00    -0.354 N 
ATOM     57  N   UNL A   1      42.229  30.394  29.233  1.00  0.00    -0.248 NA
ATOM     58  C   UNL A   1      40.940  31.875  30.498  1.00  0.00     0.031 C 
ATOM     59  C   UNL A   1      46.347  31.231  27.828  1.00  0.00     0.029 A 
ATOM     60  C   UNL A   1      45.057  31.001  28.275  1.00  0.00     0.049 A 
ATOM     61  H   UNL A   1      43.886  29.253  28.120  1.00  0.00     0.167 HD
ATOM     62  C   UNL A   1      42.931  31.583  29.400  1.00  0.00     0.074 A 
ATOM     63  C   UNL A   1      42.071  32.474  30.150  1.00  0.00     0.031 C 
ATOM     64  C   UNL A   1      44.180  31.901  28.980  1.00  0.00     0.034 A 
BRANCH  51  65
ATOM     65  C   UNL A   1      47.107  27.267  26.125  1.00  0.00     0.023 A 
ATOM     66  C   UNL A   1      47.323  27.492  24.750  1.00  0.00     0.012 A 
ATOM     67  C   UNL A   1      48.113  26.640  26.887  1.00  0.00     0.148 A 
ATOM     68  C   UNL A   1      48.499  27.065  24.134  1.00  0.00     0.002 A 
ATOM     69  C   UNL A   1      49.302  26.260  26.276  1.00  0.00     0.091 A 
ATOM     70  F   UNL A   1      47.885  26.420  28.190  1.00  0.00    -0.205 F 
ATOM     71  C   UNL A   1      49.492  26.460  24.899  1.00  0.00     0.022 A 
BRANCH  69  72
ATOM     72  S   UNL A   1      50.676  25.547  27.188  1.00  0.00     0.127 S 
ATOM     73  O   UNL A   1      50.096  24.290  27.660  1.00  0.00    -0.237 OA
ATOM     74  O   UNL A   1      51.692  25.396  26.146  1.00  0.00    -0.237 OA
ATOM     75  O   UNL A   1      51.011  26.509  28.229  1.00  0.00    -0.744 OA
ENDBRANCH  69  72
ENDBRANCH  51  65
BRANCH  52  76
ATOM     76  C   UNL A   1      38.668  30.028  30.660  1.00  0.00     0.023 A 
ATOM     77  C   UNL A   1      38.488  29.626  31.998  1.00  0.00     0.012 A 
ATOM     78  C   UNL A   1      37.680  30.817  30.041  1.00  0.00     0.148 A 
ATOM     79  C   UNL A   1      37.331  29.974  32.696  1.00  0.00     0.002 A 
ATOM     80  C   UNL A   1      36.558  31.211  30.760  1.00  0.00     0.091 A 
ATOM     81  F   UNL A   1      37.864  31.179  28.764  1.00  0.00    -0.205 F 
ATOM     82  C   UNL A   1      36.371  30.775  32.081  1.00  0.00     0.022 A 
BRANCH  80  83
ATOM     83  S   UNL A   1      35.341  32.352  30.096  1.00  0.00     0.127 S 
ATOM     84  O   UNL A   1      34.401  32.468  31.208  1.00  0.00    -0.237 OA
ATOM     85  O   UNL A   1      36.152  33.544  29.844  1.00  0.00    -0.237 OA
ATOM     86  O   UNL A   1      34.821  31.716  28.892  1.00  0.00    -0.744 OA
ENDBRANCH  80  83
ENDBRANCH  52  76
BRANCH  64  87
ATOM     87  C   UNL A   1      44.688  33.288  29.279  1.00  0.00     0.023 A 
ATOM     88  C   UNL A   1      45.466  33.525  30.430  1.00  0.00     0.012 A 
ATOM     89  C   UNL A   1      44.452  34.347  28.377  1.00  0.00     0.148 A 
ATOM     90  C   UNL A   1      45.969  34.798  30.697  1.00  0.00     0.002 A 
ATOM     91  C   UNL A   1      45.001  35.600  28.623  1.00  0.00     0.091 A 
ATOM     92  F   UNL A   1      43.695  34.108  27.297  1.00  0.00    -0.205 F 
ATOM     93  C   UNL A   1      45.748  35.831  29.789  1.00  0.00     0.022 A 
BRANCH  91  94
ATOM     94  S   UNL A   1      44.850  36.964  27.464  1.00  0.00     0.127 S 
ATOM     95  O   UNL A   1      44.992  38.121  28.347  1.00  0.00    -0.237 OA
ATOM     96  O   UNL A   1      45.984  36.735  26.569  1.00  0.00    -0.237 OA
ATOM     97  O   UNL A   1      43.543  36.817  26.836  1.00  0.00    -0.744 OA
ENDBRANCH  91  94
ENDBRANCH  64  87
ENDBRANCH  38  39
ENDBRANCH  30  33
ENDBRANCH  28  29
ENDBRANCH  27  28
ENDBRANCH   1  27
TORSDOF 18
ENDMDL
