MODEL 1
REMARK VINA RESULT:     -10.9      0.000      0.000
REMARK SMILES O=C(NCCCCNC(=O)[C@H]1CC[C@@H](C(F)F)[NH2+]1)c1ccc(-c2c3nc(c(-c4cccc(S(=O)(=O)[O-])c4F)c4ccc([nH]4)c(-c4cccc(S(=O)(=O)[O-])c4F)c4nc(c(-c5cccc(S(=O)(=O)[O-])c5F)c5ccc2[nH]5)C=C4)C=C3)cc1
REMARK SMILES IDX 4 1 3 2 1 3 2 4 19 6 20 7 81 8 21 9 80 10 22 11 23 12 24 13
REMARK SMILES IDX 74 14 25 15 79 16 73 17 75 18 26 19 78 20 72 21 71 22 27 24
REMARK SMILES IDX 59 25 39 26 58 27 40 28 43 29 57 30 76 31 41 32 42 33 56 35
REMARK SMILES IDX 77 36 44 37 28 38 29 39 37 40 30 41 32 42 38 43 31 44 33 45
REMARK SMILES IDX 34 46 35 47 36 48 60 49 61 50 69 51 62 52 64 53 70 54 63 55
REMARK SMILES IDX 65 56 66 57 67 58 68 59 45 60 46 61 54 62 47 63 49 64 55 65
REMARK SMILES IDX 48 66 50 67 51 68 52 69 53 70 5 71 6 72 7 73 8 74 9 75 10 77
REMARK SMILES IDX 11 78 12 79 18 80 13 81 14 82 15 85 16 86 17 87
REMARK H PARENT 3 5 75 23 43 34 8 76 18 83 18 84
REMARK Flexibility Score: inf
ROOT
ATOM      1  C   UNL A   1      32.806  29.598  25.436  1.00  0.00     0.116 C 
ENDROOT
BRANCH   1   2
ATOM      2  N   UNL A   1      32.329  30.886  25.913  1.00  0.00    -0.352 N 
ATOM      3  O   UNL A   1      32.204  32.660  27.292  1.00  0.00    -0.269 OA
ATOM      4  C   UNL A   1      32.824  31.664  26.932  1.00  0.00     0.251 C 
ATOM      5  H   UNL A   1      31.546  31.251  25.440  1.00  0.00     0.163 HD
BRANCH   4   6
ATOM      6  C   UNL A   1      34.084  31.278  27.606  1.00  0.00     0.039 A 
ATOM      7  C   UNL A   1      34.285  29.969  28.050  1.00  0.00     0.014 A 
ATOM      8  C   UNL A   1      35.077  32.244  27.793  1.00  0.00     0.014 A 
ATOM      9  C   UNL A   1      35.422  29.655  28.788  1.00  0.00     0.010 A 
ATOM     10  C   UNL A   1      36.252  31.908  28.473  1.00  0.00     0.010 A 
ATOM     11  C   UNL A   1      36.423  30.619  29.001  1.00  0.00    -0.014 A 
BRANCH  11  12
ATOM     12  C   UNL A   1      37.669  30.237  29.712  1.00  0.00     0.031 A 
ATOM     13  C   UNL A   1      37.963  30.734  31.098  1.00  0.00     0.074 A 
ATOM     14  C   UNL A   1      38.546  29.431  29.081  1.00  0.00     0.049 A 
ATOM     15  N   UNL A   1      38.995  30.476  31.861  1.00  0.00    -0.248 NA
ATOM     16  C   UNL A   1      36.980  31.641  31.711  1.00  0.00     0.031 C 
ATOM     17  C   UNL A   1      38.389  28.924  27.716  1.00  0.00     0.029 A 
ATOM     18  N   UNL A   1      39.742  28.902  29.496  1.00  0.00    -0.354 N 
ATOM     19  C   UNL A   1      38.807  31.210  33.025  1.00  0.00     0.074 A 
ATOM     20  C   UNL A   1      37.563  31.934  32.867  1.00  0.00     0.031 C 
ATOM     21  C   UNL A   1      39.434  28.141  27.414  1.00  0.00     0.029 A 
ATOM     22  C   UNL A   1      40.357  28.126  28.542  1.00  0.00     0.049 A 
ATOM     23  H   UNL A   1      40.121  29.062  30.391  1.00  0.00     0.167 HD
ATOM     24  C   UNL A   1      39.588  31.261  34.131  1.00  0.00     0.034 A 
ATOM     25  C   UNL A   1      41.540  27.482  28.566  1.00  0.00     0.034 A 
ATOM     26  C   UNL A   1      40.806  30.511  34.295  1.00  0.00     0.049 A 
ATOM     27  C   UNL A   1      42.375  27.541  29.813  1.00  0.00     0.074 A 
ATOM     28  C   UNL A   1      41.635  30.447  35.403  1.00  0.00     0.029 A 
ATOM     29  N   UNL A   1      41.376  29.699  33.326  1.00  0.00    -0.354 N 
ATOM     30  N   UNL A   1      42.113  28.134  30.952  1.00  0.00    -0.248 NA
ATOM     31  C   UNL A   1      43.654  26.819  29.789  1.00  0.00     0.031 C 
ATOM     32  C   UNL A   1      42.711  29.608  35.098  1.00  0.00     0.029 A 
ATOM     33  C   UNL A   1      42.548  29.138  33.805  1.00  0.00     0.049 A 
ATOM     34  H   UNL A   1      41.002  29.545  32.428  1.00  0.00     0.167 HD
ATOM     35  C   UNL A   1      43.183  27.843  31.788  1.00  0.00     0.074 A 
ATOM     36  C   UNL A   1      44.083  26.994  31.033  1.00  0.00     0.031 C 
ATOM     37  C   UNL A   1      43.410  28.258  33.058  1.00  0.00     0.034 A 
BRANCH  24  38
ATOM     38  C   UNL A   1      39.129  32.120  35.279  1.00  0.00     0.023 A 
ATOM     39  C   UNL A   1      38.224  31.590  36.221  1.00  0.00     0.012 A 
ATOM     40  C   UNL A   1      39.646  33.417  35.474  1.00  0.00     0.148 A 
ATOM     41  C   UNL A   1      37.823  32.342  37.324  1.00  0.00     0.002 A 
ATOM     42  C   UNL A   1      39.269  34.148  36.595  1.00  0.00     0.091 A 
ATOM     43  F   UNL A   1      40.488  33.914  34.557  1.00  0.00    -0.205 F 
ATOM     44  C   UNL A   1      38.353  33.615  37.517  1.00  0.00     0.022 A 
BRANCH  42  45
ATOM     45  S   UNL A   1      39.951  35.769  36.967  1.00  0.00     0.127 S 
ATOM     46  O   UNL A   1      39.239  36.113  38.196  1.00  0.00    -0.237 OA
ATOM     47  O   UNL A   1      41.373  35.475  37.149  1.00  0.00    -0.237 OA
ATOM     48  O   UNL A   1      39.650  36.601  35.811  1.00  0.00    -0.744 OA
ENDBRANCH  42  45
ENDBRANCH  24  38
BRANCH  25  49
ATOM     49  C   UNL A   1      41.965  26.684  27.384  1.00  0.00     0.023 A 
ATOM     50  C   UNL A   1      42.677  27.313  26.345  1.00  0.00     0.012 A 
ATOM     51  C   UNL A   1      41.728  25.298  27.314  1.00  0.00     0.148 A 
ATOM     52  C   UNL A   1      43.130  26.579  25.250  1.00  0.00     0.002 A 
ATOM     53  C   UNL A   1      42.233  24.562  26.249  1.00  0.00     0.091 A 
ATOM     54  F   UNL A   1      41.031  24.720  28.303  1.00  0.00    -0.205 F 
ATOM     55  C   UNL A   1      42.922  25.203  25.207  1.00  0.00     0.022 A 
BRANCH  53  56
ATOM     56  S   UNL A   1      42.136  22.768  26.197  1.00  0.00     0.127 S 
ATOM     57  O   UNL A   1      42.699  22.476  24.883  1.00  0.00    -0.237 OA
ATOM     58  O   UNL A   1      42.979  22.383  27.331  1.00  0.00    -0.237 OA
ATOM     59  O   UNL A   1      40.724  22.453  26.373  1.00  0.00    -0.744 OA
ENDBRANCH  53  56
ENDBRANCH  25  49
BRANCH  37  60
ATOM     60  C   UNL A   1      44.678  27.791  33.721  1.00  0.00     0.023 A 
ATOM     61  C   UNL A   1      45.833  28.596  33.651  1.00  0.00     0.012 A 
ATOM     62  C   UNL A   1      44.710  26.597  34.466  1.00  0.00     0.148 A 
ATOM     63  C   UNL A   1      47.009  28.204  34.288  1.00  0.00     0.002 A 
ATOM     64  C   UNL A   1      45.874  26.233  35.134  1.00  0.00     0.091 A 
ATOM     65  F   UNL A   1      43.607  25.835  34.502  1.00  0.00    -0.205 F 
ATOM     66  C   UNL A   1      47.026  27.031  35.037  1.00  0.00     0.022 A 
BRANCH  64  67
ATOM     67  S   UNL A   1      45.960  24.784  36.191  1.00  0.00     0.127 S 
ATOM     68  O   UNL A   1      44.900  25.058  37.160  1.00  0.00    -0.237 OA
ATOM     69  O   UNL A   1      45.667  23.697  35.257  1.00  0.00    -0.237 OA
ATOM     70  O   UNL A   1      47.313  24.765  36.731  1.00  0.00    -0.744 OA
ENDBRANCH  64  67
ENDBRANCH  37  60
ENDBRANCH  11  12
ENDBRANCH   4   6
ENDBRANCH   1   2
BRANCH   1  71
ATOM     71  C   UNL A   1      32.063  29.116  24.195  1.00  0.00     0.023 C 
BRANCH  71  72
ATOM     72  C   UNL A   1      31.176  27.883  24.398  1.00  0.00     0.023 C 
BRANCH  72  73
ATOM     73  C   UNL A   1      30.197  27.611  23.258  1.00  0.00     0.116 C 
BRANCH  73  74
ATOM     74  N   UNL A   1      28.911  28.232  23.505  1.00  0.00    -0.351 N 
ATOM     75  C   UNL A   1      28.343  29.314  22.890  1.00  0.00     0.278 C 
ATOM     76  H   UNL A   1      28.370  27.818  24.214  1.00  0.00     0.163 HD
ATOM     77  O   UNL A   1      27.267  29.729  23.327  1.00  0.00    -0.268 OA
BRANCH  75  78
ATOM     78  C   UNL A   1      29.039  29.913  21.648  1.00  0.00     0.273 C 
ATOM     79  C   UNL A   1      28.019  30.507  20.694  1.00  0.00     0.082 C 
ATOM     80  N   UNL A   1      29.902  31.067  22.000  1.00  0.00    -0.329 N 
ATOM     81  C   UNL A   1      27.719  31.862  21.316  1.00  0.00     0.078 C 
ATOM     82  C   UNL A   1      29.022  32.276  22.007  1.00  0.00     0.251 C 
ATOM     83  H   UNL A   1      30.644  31.176  21.309  1.00  0.00     0.347 HD
ATOM     84  H   UNL A   1      30.344  30.930  22.910  1.00  0.00     0.347 HD
BRANCH  82  85
ATOM     85  C   UNL A   1      28.833  32.922  23.400  1.00  0.00     0.399 C 
ATOM     86  F   UNL A   1      29.575  32.217  24.306  1.00  0.00    -0.204 F 
ATOM     87  F   UNL A   1      29.322  34.187  23.439  1.00  0.00    -0.204 F 
ENDBRANCH  82  85
ENDBRANCH  75  78
ENDBRANCH  73  74
ENDBRANCH  72  73
ENDBRANCH  71  72
ENDBRANCH   1  71
TORSDOF 15
ENDMDL
MODEL 2
REMARK VINA RESULT:     -10.9      1.485      8.012
REMARK SMILES O=C(NCCCCNC(=O)[C@H]1CC[C@@H](C(F)F)[NH2+]1)c1ccc(-c2c3nc(c(-c4cccc(S(=O)(=O)[O-])c4F)c4ccc([nH]4)c(-c4cccc(S(=O)(=O)[O-])c4F)c4nc(c(-c5cccc(S(=O)(=O)[O-])c5F)c5ccc2[nH]5)C=C4)C=C3)cc1
REMARK SMILES IDX 4 1 3 2 1 3 2 4 19 6 20 7 81 8 21 9 80 10 22 11 23 12 24 13
REMARK SMILES IDX 74 14 25 15 79 16 73 17 75 18 26 19 78 20 72 21 71 22 27 24
REMARK SMILES IDX 59 25 39 26 58 27 40 28 43 29 57 30 76 31 41 32 42 33 56 35
REMARK SMILES IDX 77 36 44 37 28 38 29 39 37 40 30 41 32 42 38 43 31 44 33 45
REMARK SMILES IDX 34 46 35 47 36 48 60 49 61 50 69 51 62 52 64 53 70 54 63 55
REMARK SMILES IDX 65 56 66 57 67 58 68 59 45 60 46 61 54 62 47 63 49 64 55 65
REMARK SMILES IDX 48 66 50 67 51 68 52 69 53 70 5 71 6 72 7 73 8 74 9 75 10 77
REMARK SMILES IDX 11 78 12 79 18 80 13 81 14 82 15 85 16 86 17 87
REMARK H PARENT 3 5 75 23 43 34 8 76 18 83 18 84
REMARK Flexibility Score: inf
ROOT
ATOM      1  C   UNL A   1      32.479  29.533  25.618  1.00  0.00     0.116 C 
ENDROOT
BRANCH   1   2
ATOM      2  N   UNL A   1      32.062  30.876  25.986  1.00  0.00    -0.352 N 
ATOM      3  O   UNL A   1      32.034  32.769  27.202  1.00  0.00    -0.269 OA
ATOM      4  C   UNL A   1      32.609  31.722  26.921  1.00  0.00     0.251 C 
ATOM      5  H   UNL A   1      31.281  31.227  25.499  1.00  0.00     0.163 HD
BRANCH   4   6
ATOM      6  C   UNL A   1      33.869  31.349  27.602  1.00  0.00     0.039 A 
ATOM      7  C   UNL A   1      34.160  30.013  27.886  1.00  0.00     0.014 A 
ATOM      8  C   UNL A   1      34.771  32.355  27.958  1.00  0.00     0.014 A 
ATOM      9  C   UNL A   1      35.290  29.694  28.632  1.00  0.00     0.010 A 
ATOM     10  C   UNL A   1      35.943  32.026  28.646  1.00  0.00     0.010 A 
ATOM     11  C   UNL A   1      36.198  30.695  29.014  1.00  0.00    -0.014 A 
BRANCH  11  12
ATOM     12  C   UNL A   1      37.444  30.321  29.731  1.00  0.00     0.031 A 
ATOM     13  C   UNL A   1      38.478  29.437  29.093  1.00  0.00     0.074 A 
ATOM     14  C   UNL A   1      37.631  30.788  30.981  1.00  0.00     0.049 A 
ATOM     15  N   UNL A   1      39.625  29.036  29.577  1.00  0.00    -0.248 NA
ATOM     16  C   UNL A   1      38.190  28.932  27.741  1.00  0.00     0.031 C 
ATOM     17  C   UNL A   1      36.674  31.616  31.720  1.00  0.00     0.029 A 
ATOM     18  N   UNL A   1      38.678  30.632  31.853  1.00  0.00    -0.354 N 
ATOM     19  C   UNL A   1      40.182  28.207  28.611  1.00  0.00     0.074 A 
ATOM     20  C   UNL A   1      39.241  28.154  27.511  1.00  0.00     0.031 C 
ATOM     21  C   UNL A   1      37.186  31.913  32.922  1.00  0.00     0.029 A 
ATOM     22  C   UNL A   1      38.484  31.262  33.060  1.00  0.00     0.049 A 
ATOM     23  H   UNL A   1      39.490  30.120  31.635  1.00  0.00     0.167 HD
ATOM     24  C   UNL A   1      41.376  27.565  28.630  1.00  0.00     0.034 A 
ATOM     25  C   UNL A   1      39.257  31.303  34.161  1.00  0.00     0.034 A 
ATOM     26  C   UNL A   1      42.322  27.651  29.711  1.00  0.00     0.049 A 
ATOM     27  C   UNL A   1      40.584  30.598  34.145  1.00  0.00     0.074 A 
ATOM     28  C   UNL A   1      43.584  27.088  29.796  1.00  0.00     0.029 A 
ATOM     29  N   UNL A   1      42.112  28.335  30.898  1.00  0.00    -0.354 N 
ATOM     30  N   UNL A   1      41.149  29.930  33.169  1.00  0.00    -0.248 NA
ATOM     31  C   UNL A   1      41.391  30.676  35.370  1.00  0.00     0.031 C 
ATOM     32  C   UNL A   1      44.131  27.422  31.040  1.00  0.00     0.029 A 
ATOM     33  C   UNL A   1      43.214  28.203  31.726  1.00  0.00     0.049 A 
ATOM     34  H   UNL A   1      41.297  28.841  31.121  1.00  0.00     0.167 HD
ATOM     35  C   UNL A   1      42.385  29.524  33.653  1.00  0.00     0.074 A 
ATOM     36  C   UNL A   1      42.499  30.047  35.000  1.00  0.00     0.031 C 
ATOM     37  C   UNL A   1      43.332  28.768  33.045  1.00  0.00     0.034 A 
BRANCH  24  38
ATOM     38  C   UNL A   1      41.756  26.749  27.422  1.00  0.00     0.023 A 
ATOM     39  C   UNL A   1      42.305  27.396  26.297  1.00  0.00     0.012 A 
ATOM     40  C   UNL A   1      41.646  25.344  27.426  1.00  0.00     0.148 A 
ATOM     41  C   UNL A   1      42.717  26.661  25.185  1.00  0.00     0.002 A 
ATOM     42  C   UNL A   1      42.092  24.615  26.329  1.00  0.00     0.091 A 
ATOM     43  F   UNL A   1      41.101  24.748  28.496  1.00  0.00    -0.205 F 
ATOM     44  C   UNL A   1      42.620  25.272  25.205  1.00  0.00     0.022 A 
BRANCH  42  45
ATOM     45  S   UNL A   1      42.074  22.819  26.290  1.00  0.00     0.127 S 
ATOM     46  O   UNL A   1      40.640  22.538  26.346  1.00  0.00    -0.237 OA
ATOM     47  O   UNL A   1      42.702  22.528  25.001  1.00  0.00    -0.237 OA
ATOM     48  O   UNL A   1      42.845  22.388  27.448  1.00  0.00    -0.744 OA
ENDBRANCH  42  45
ENDBRANCH  24  38
BRANCH  25  49
ATOM     49  C   UNL A   1      38.809  32.088  35.344  1.00  0.00     0.023 A 
ATOM     50  C   UNL A   1      38.844  33.495  35.293  1.00  0.00     0.012 A 
ATOM     51  C   UNL A   1      38.289  31.454  36.488  1.00  0.00     0.148 A 
ATOM     52  C   UNL A   1      38.384  34.255  36.368  1.00  0.00     0.002 A 
ATOM     53  C   UNL A   1      37.779  32.217  37.531  1.00  0.00     0.091 A 
ATOM     54  F   UNL A   1      38.283  30.114  36.526  1.00  0.00    -0.205 F 
ATOM     55  C   UNL A   1      37.839  33.619  37.480  1.00  0.00     0.022 A 
BRANCH  53  56
ATOM     56  S   UNL A   1      36.927  31.475  38.928  1.00  0.00     0.127 S 
ATOM     57  O   UNL A   1      35.735  32.311  39.030  1.00  0.00    -0.237 OA
ATOM     58  O   UNL A   1      36.686  30.112  38.451  1.00  0.00    -0.237 OA
ATOM     59  O   UNL A   1      37.863  31.559  40.041  1.00  0.00    -0.744 OA
ENDBRANCH  53  56
ENDBRANCH  25  49
BRANCH  37  60
ATOM     60  C   UNL A   1      44.584  28.468  33.826  1.00  0.00     0.023 A 
ATOM     61  C   UNL A   1      45.681  29.348  33.741  1.00  0.00     0.012 A 
ATOM     62  C   UNL A   1      44.651  27.359  34.691  1.00  0.00     0.148 A 
ATOM     63  C   UNL A   1      46.837  29.113  34.483  1.00  0.00     0.002 A 
ATOM     64  C   UNL A   1      45.791  27.154  35.460  1.00  0.00     0.091 A 
ATOM     65  F   UNL A   1      43.605  26.522  34.741  1.00  0.00    -0.205 F 
ATOM     66  C   UNL A   1      46.888  28.024  35.349  1.00  0.00     0.022 A 
BRANCH  64  67
ATOM     67  S   UNL A   1      45.910  25.827  36.664  1.00  0.00     0.127 S 
ATOM     68  O   UNL A   1      45.853  24.642  35.810  1.00  0.00    -0.237 OA
ATOM     69  O   UNL A   1      47.215  26.076  37.277  1.00  0.00    -0.237 OA
ATOM     70  O   UNL A   1      44.778  26.005  37.565  1.00  0.00    -0.744 OA
ENDBRANCH  64  67
ENDBRANCH  37  60
ENDBRANCH  11  12
ENDBRANCH   4   6
ENDBRANCH   1   2
BRANCH   1  71
ATOM     71  C   UNL A   1      31.852  29.056  24.312  1.00  0.00     0.023 C 
BRANCH  71  72
ATOM     72  C   UNL A   1      30.839  27.915  24.450  1.00  0.00     0.023 C 
BRANCH  72  73
ATOM     73  C   UNL A   1      29.938  27.715  23.233  1.00  0.00     0.116 C 
BRANCH  73  74
ATOM     74  N   UNL A   1      28.654  28.364  23.413  1.00  0.00    -0.351 N 
ATOM     75  C   UNL A   1      28.141  29.455  22.767  1.00  0.00     0.278 C 
ATOM     76  H   UNL A   1      28.070  27.964  24.095  1.00  0.00     0.163 HD
ATOM     77  O   UNL A   1      27.054  29.894  23.147  1.00  0.00    -0.268 OA
BRANCH  75  78
ATOM     78  C   UNL A   1      28.912  30.035  21.560  1.00  0.00     0.273 C 
ATOM     79  C   UNL A   1      27.965  30.739  20.605  1.00  0.00     0.082 C 
ATOM     80  N   UNL A   1      29.856  31.103  21.968  1.00  0.00    -0.329 N 
ATOM     81  C   UNL A   1      27.761  32.094  21.266  1.00  0.00     0.078 C 
ATOM     82  C   UNL A   1      29.077  32.379  21.997  1.00  0.00     0.251 C 
ATOM     83  H   UNL A   1      30.621  31.173  21.296  1.00  0.00     0.347 HD
ATOM     84  H   UNL A   1      30.265  30.902  22.882  1.00  0.00     0.347 HD
BRANCH  82  85
ATOM     85  C   UNL A   1      28.909  32.993  23.407  1.00  0.00     0.399 C 
ATOM     86  F   UNL A   1      29.308  32.068  24.331  1.00  0.00    -0.204 F 
ATOM     87  F   UNL A   1      29.723  34.063  23.591  1.00  0.00    -0.204 F 
ENDBRANCH  82  85
ENDBRANCH  75  78
ENDBRANCH  73  74
ENDBRANCH  72  73
ENDBRANCH  71  72
ENDBRANCH   1  71
TORSDOF 15
ENDMDL
MODEL 3
REMARK VINA RESULT:     -10.8      1.679      2.048
REMARK SMILES O=C(NCCCCNC(=O)[C@H]1CC[C@@H](C(F)F)[NH2+]1)c1ccc(-c2c3nc(c(-c4cccc(S(=O)(=O)[O-])c4F)c4ccc([nH]4)c(-c4cccc(S(=O)(=O)[O-])c4F)c4nc(c(-c5cccc(S(=O)(=O)[O-])c5F)c5ccc2[nH]5)C=C4)C=C3)cc1
REMARK SMILES IDX 4 1 3 2 1 3 2 4 19 6 20 7 81 8 21 9 80 10 22 11 23 12 24 13
REMARK SMILES IDX 74 14 25 15 79 16 73 17 75 18 26 19 78 20 72 21 71 22 27 24
REMARK SMILES IDX 59 25 39 26 58 27 40 28 43 29 57 30 76 31 41 32 42 33 56 35
REMARK SMILES IDX 77 36 44 37 28 38 29 39 37 40 30 41 32 42 38 43 31 44 33 45
REMARK SMILES IDX 34 46 35 47 36 48 60 49 61 50 69 51 62 52 64 53 70 54 63 55
REMARK SMILES IDX 65 56 66 57 67 58 68 59 45 60 46 61 54 62 47 63 49 64 55 65
REMARK SMILES IDX 48 66 50 67 51 68 52 69 53 70 5 71 6 72 7 73 8 74 9 75 10 77
REMARK SMILES IDX 11 78 12 79 18 80 13 81 14 82 15 85 16 86 17 87
REMARK H PARENT 3 5 75 23 43 34 8 76 18 83 18 84
REMARK Flexibility Score: inf
ROOT
ATOM      1  C   UNL A   1      32.934  29.508  25.949  1.00  0.00     0.116 C 
ENDROOT
BRANCH   1   2
ATOM      2  N   UNL A   1      32.613  30.889  26.269  1.00  0.00    -0.352 N 
ATOM      3  O   UNL A   1      32.730  32.827  27.409  1.00  0.00    -0.269 OA
ATOM      4  C   UNL A   1      33.228  31.732  27.163  1.00  0.00     0.251 C 
ATOM      5  H   UNL A   1      31.851  31.274  25.777  1.00  0.00     0.163 HD
BRANCH   4   6
ATOM      6  C   UNL A   1      34.470  31.302  27.843  1.00  0.00     0.039 A 
ATOM      7  C   UNL A   1      34.610  29.994  28.314  1.00  0.00     0.014 A 
ATOM      8  C   UNL A   1      35.508  32.223  28.009  1.00  0.00     0.014 A 
ATOM      9  C   UNL A   1      35.734  29.643  29.057  1.00  0.00     0.010 A 
ATOM     10  C   UNL A   1      36.667  31.847  28.694  1.00  0.00     0.010 A 
ATOM     11  C   UNL A   1      36.778  30.562  29.249  1.00  0.00    -0.014 A 
BRANCH  11  12
ATOM     12  C   UNL A   1      38.007  30.137  29.965  1.00  0.00     0.031 A 
ATOM     13  C   UNL A   1      38.300  30.606  31.362  1.00  0.00     0.074 A 
ATOM     14  C   UNL A   1      38.868  29.317  29.332  1.00  0.00     0.049 A 
ATOM     15  N   UNL A   1      39.318  30.310  32.130  1.00  0.00    -0.248 NA
ATOM     16  C   UNL A   1      37.335  31.530  31.978  1.00  0.00     0.031 C 
ATOM     17  C   UNL A   1      38.711  28.834  27.958  1.00  0.00     0.029 A 
ATOM     18  N   UNL A   1      40.045  28.750  29.750  1.00  0.00    -0.354 N 
ATOM     19  C   UNL A   1      39.138  31.032  33.303  1.00  0.00     0.074 A 
ATOM     20  C   UNL A   1      37.915  31.791  33.144  1.00  0.00     0.031 C 
ATOM     21  C   UNL A   1      39.739  28.028  27.654  1.00  0.00     0.029 A 
ATOM     22  C   UNL A   1      40.650  27.972  28.791  1.00  0.00     0.049 A 
ATOM     23  H   UNL A   1      40.420  28.887  30.651  1.00  0.00     0.167 HD
ATOM     24  C   UNL A   1      39.909  31.046  34.417  1.00  0.00     0.034 A 
ATOM     25  C   UNL A   1      41.814  27.296  28.817  1.00  0.00     0.034 A 
ATOM     26  C   UNL A   1      41.105  30.262  34.582  1.00  0.00     0.049 A 
ATOM     27  C   UNL A   1      42.638  27.315  30.073  1.00  0.00     0.074 A 
ATOM     28  C   UNL A   1      41.920  30.160  35.697  1.00  0.00     0.029 A 
ATOM     29  N   UNL A   1      41.662  29.449  33.607  1.00  0.00    -0.354 N 
ATOM     30  N   UNL A   1      42.381  27.899  31.217  1.00  0.00    -0.248 NA
ATOM     31  C   UNL A   1      43.898  26.560  30.051  1.00  0.00     0.031 C 
ATOM     32  C   UNL A   1      42.977  29.296  35.390  1.00  0.00     0.029 A 
ATOM     33  C   UNL A   1      42.814  28.850  34.088  1.00  0.00     0.049 A 
ATOM     34  H   UNL A   1      41.294  29.317  32.703  1.00  0.00     0.167 HD
ATOM     35  C   UNL A   1      43.434  27.568  32.059  1.00  0.00     0.074 A 
ATOM     36  C   UNL A   1      44.319  26.706  31.301  1.00  0.00     0.031 C 
ATOM     37  C   UNL A   1      43.660  27.958  33.337  1.00  0.00     0.034 A 
BRANCH  24  38
ATOM     38  C   UNL A   1      39.462  31.901  35.573  1.00  0.00     0.023 A 
ATOM     39  C   UNL A   1      39.821  33.264  35.605  1.00  0.00     0.012 A 
ATOM     40  C   UNL A   1      38.626  31.385  36.584  1.00  0.00     0.148 A 
ATOM     41  C   UNL A   1      39.376  34.093  36.634  1.00  0.00     0.002 A 
ATOM     42  C   UNL A   1      38.156  32.226  37.587  1.00  0.00     0.091 A 
ATOM     43  F   UNL A   1      38.312  30.082  36.551  1.00  0.00    -0.205 F 
ATOM     44  C   UNL A   1      38.537  33.578  37.617  1.00  0.00     0.022 A 
BRANCH  42  45
ATOM     45  S   UNL A   1      37.014  31.671  38.858  1.00  0.00     0.127 S 
ATOM     46  O   UNL A   1      37.820  31.830  40.068  1.00  0.00    -0.237 OA
ATOM     47  O   UNL A   1      35.914  32.627  38.729  1.00  0.00    -0.237 OA
ATOM     48  O   UNL A   1      36.667  30.300  38.509  1.00  0.00    -0.744 OA
ENDBRANCH  42  45
ENDBRANCH  24  38
BRANCH  25  49
ATOM     49  C   UNL A   1      42.230  26.504  27.627  1.00  0.00     0.023 A 
ATOM     50  C   UNL A   1      43.032  27.108  26.640  1.00  0.00     0.012 A 
ATOM     51  C   UNL A   1      41.893  25.142  27.501  1.00  0.00     0.148 A 
ATOM     52  C   UNL A   1      43.476  26.374  25.541  1.00  0.00     0.002 A 
ATOM     53  C   UNL A   1      42.387  24.403  26.434  1.00  0.00     0.091 A 
ATOM     54  F   UNL A   1      41.113  24.590  28.441  1.00  0.00    -0.205 F 
ATOM     55  C   UNL A   1      43.167  25.020  25.444  1.00  0.00     0.022 A 
BRANCH  53  56
ATOM     56  S   UNL A   1      42.158  22.624  26.319  1.00  0.00     0.127 S 
ATOM     57  O   UNL A   1      42.940  22.148  27.456  1.00  0.00    -0.237 OA
ATOM     58  O   UNL A   1      40.708  22.492  26.469  1.00  0.00    -0.237 OA
ATOM     59  O   UNL A   1      42.656  22.255  25.001  1.00  0.00    -0.744 OA
ENDBRANCH  53  56
ENDBRANCH  25  49
BRANCH  37  60
ATOM     60  C   UNL A   1      44.909  27.448  34.005  1.00  0.00     0.023 A 
ATOM     61  C   UNL A   1      46.086  28.220  33.955  1.00  0.00     0.012 A 
ATOM     62  C   UNL A   1      44.901  26.245  34.736  1.00  0.00     0.148 A 
ATOM     63  C   UNL A   1      47.245  27.788  34.597  1.00  0.00     0.002 A 
ATOM     64  C   UNL A   1      46.047  25.841  35.410  1.00  0.00     0.091 A 
ATOM     65  F   UNL A   1      43.776  25.514  34.754  1.00  0.00    -0.205 F 
ATOM     66  C   UNL A   1      47.223  26.606  35.333  1.00  0.00     0.022 A 
BRANCH  64  67
ATOM     67  S   UNL A   1      46.084  24.377  36.451  1.00  0.00     0.127 S 
ATOM     68  O   UNL A   1      47.455  24.404  36.956  1.00  0.00    -0.237 OA
ATOM     69  O   UNL A   1      45.058  24.678  37.451  1.00  0.00    -0.237 OA
ATOM     70  O   UNL A   1      45.759  23.258  35.575  1.00  0.00    -0.744 OA
ENDBRANCH  64  67
ENDBRANCH  37  60
ENDBRANCH  11  12
ENDBRANCH   4   6
ENDBRANCH   1   2
BRANCH   1  71
ATOM     71  C   UNL A   1      31.698  28.617  25.871  1.00  0.00     0.023 C 
BRANCH  71  72
ATOM     72  C   UNL A   1      31.689  27.609  24.718  1.00  0.00     0.023 C 
BRANCH  72  73
ATOM     73  C   UNL A   1      30.401  27.593  23.897  1.00  0.00     0.116 C 
BRANCH  73  74
ATOM     74  N   UNL A   1      30.513  28.434  22.721  1.00  0.00    -0.351 N 
ATOM     75  C   UNL A   1      29.746  29.503  22.349  1.00  0.00     0.278 C 
ATOM     76  H   UNL A   1      31.243  28.202  22.104  1.00  0.00     0.163 HD
ATOM     77  O   UNL A   1      29.967  30.019  21.251  1.00  0.00    -0.268 OA
BRANCH  75  78
ATOM     78  C   UNL A   1      28.696  30.047  23.344  1.00  0.00     0.273 C 
ATOM     79  C   UNL A   1      29.264  31.204  24.145  1.00  0.00     0.082 C 
ATOM     80  N   UNL A   1      27.531  30.643  22.647  1.00  0.00    -0.329 N 
ATOM     81  C   UNL A   1      29.129  32.379  23.189  1.00  0.00     0.078 C 
ATOM     82  C   UNL A   1      27.887  32.065  22.350  1.00  0.00     0.251 C 
ATOM     83  H   UNL A   1      26.706  30.605  23.245  1.00  0.00     0.347 HD
ATOM     84  H   UNL A   1      27.315  30.132  21.789  1.00  0.00     0.347 HD
BRANCH  82  85
ATOM     85  C   UNL A   1      28.032  32.387  20.843  1.00  0.00     0.399 C 
ATOM     86  F   UNL A   1      27.536  31.333  20.128  1.00  0.00    -0.204 F 
ATOM     87  F   UNL A   1      27.278  33.455  20.482  1.00  0.00    -0.204 F 
ENDBRANCH  82  85
ENDBRANCH  75  78
ENDBRANCH  73  74
ENDBRANCH  72  73
ENDBRANCH  71  72
ENDBRANCH   1  71
TORSDOF 15
ENDMDL
