MODEL 1
REMARK VINA RESULT:     -12.1      0.000      0.000
REMARK SMILES O=C(Cc1ccccc1Nc1c(F)cccc1C(F)(F)F)NCCCCNC(=O)c1ccc(-c2c3nc(c(-c4cccc(S(=O)(=O)[O-])c4F)c4ccc([nH]4)c(-c4cccc(S(=O)(=O)[O-])c4F)c4nc(c(-c5cccc(S(=O)(=O)[O-])c5F)c5ccc2[nH]5)C=C4)C=C3)cc1
REMARK SMILES IDX 24 1 23 2 22 3 1 4 2 5 3 7 4 8 5 9 9 10 6 11 8 12 7 13 10 14
REMARK SMILES IDX 11 16 12 17 17 18 13 19 14 20 16 21 15 22 18 23 19 24 20 25
REMARK SMILES IDX 21 26 25 27 26 28 27 29 28 30 29 32 30 33 31 34 92 35 32 36
REMARK SMILES IDX 91 37 33 38 34 39 35 40 85 41 36 42 90 43 84 44 86 45 37 46
REMARK SMILES IDX 89 47 83 48 82 49 38 51 70 52 50 53 69 54 51 55 54 56 68 57
REMARK SMILES IDX 87 58 52 59 53 60 67 62 88 63 55 64 39 65 40 66 48 67 41 68
REMARK SMILES IDX 43 69 49 70 42 71 44 72 45 73 46 74 47 75 71 76 72 77 80 78
REMARK SMILES IDX 73 79 75 80 81 81 74 82 76 83 77 84 78 85 79 86 56 87 57 88
REMARK SMILES IDX 65 89 58 90 60 91 66 92 59 93 61 94 62 95 63 96 64 97
REMARK H PARENT 22 6 10 15 27 31 86 50 54 61
REMARK Flexibility Score: inf
ROOT
ATOM      1  C   UNL A   1      31.652  30.573  26.247  1.00  0.00     0.023 C 
ENDROOT
BRANCH   1   2
ATOM      2  C   UNL A   1      32.379  29.767  27.325  1.00  0.00     0.116 C 
BRANCH   2   3
ATOM      3  N   UNL A   1      32.570  28.386  26.933  1.00  0.00    -0.356 N 
ATOM      4  O   UNL A   1      34.792  28.532  26.344  1.00  0.00    -0.275 OA
ATOM      5  C   UNL A   1      33.765  27.872  26.476  1.00  0.00     0.224 C 
ATOM      6  H   UNL A   1      31.798  27.777  26.996  1.00  0.00     0.163 HD
BRANCH   5   7
ATOM      7  C   UNL A   1      33.709  26.391  26.124  1.00  0.00     0.137 C 
BRANCH   7   8
ATOM      8  C   UNL A   1      33.606  26.172  24.629  1.00  0.00    -0.015 A 
ATOM      9  C   UNL A   1      33.651  27.303  23.788  1.00  0.00     0.006 A 
ATOM     10  C   UNL A   1      33.409  24.892  24.069  1.00  0.00     0.042 A 
ATOM     11  C   UNL A   1      33.466  27.180  22.414  1.00  0.00     0.000 A 
ATOM     12  C   UNL A   1      33.215  24.798  22.682  1.00  0.00     0.026 A 
ATOM     13  C   UNL A   1      33.237  25.928  21.863  1.00  0.00     0.002 A 
BRANCH  10  14
ATOM     14  N   UNL A   1      33.474  23.734  24.875  1.00  0.00    -0.352 N 
ATOM     15  H   UNL A   1      32.771  23.667  25.561  1.00  0.00     0.167 HD
BRANCH  14  16
ATOM     16  C   UNL A   1      34.385  22.654  24.851  1.00  0.00     0.087 A 
ATOM     17  C   UNL A   1      35.716  22.928  25.230  1.00  0.00     0.147 A 
ATOM     18  C   UNL A   1      34.045  21.318  24.568  1.00  0.00     0.082 A 
ATOM     19  F   UNL A   1      36.081  24.196  25.475  1.00  0.00    -0.205 F 
ATOM     20  C   UNL A   1      36.672  21.927  25.385  1.00  0.00     0.041 A 
ATOM     21  C   UNL A   1      35.020  20.306  24.755  1.00  0.00     0.015 A 
ATOM     22  C   UNL A   1      36.318  20.606  25.165  1.00  0.00     0.004 A 
BRANCH  18  23
ATOM     23  C   UNL A   1      32.704  20.874  24.027  1.00  0.00     0.418 C 
ATOM     24  F   UNL A   1      32.696  19.528  23.765  1.00  0.00    -0.166 F 
ATOM     25  F   UNL A   1      31.695  21.054  24.926  1.00  0.00    -0.166 F 
ATOM     26  F   UNL A   1      32.308  21.449  22.863  1.00  0.00    -0.166 F 
ENDBRANCH  18  23
ENDBRANCH  14  16
ENDBRANCH  10  14
ENDBRANCH   7   8
ENDBRANCH   5   7
ENDBRANCH   2   3
ENDBRANCH   1   2
BRANCH   1  27
ATOM     27  C   UNL A   1      31.534  32.077  26.518  1.00  0.00     0.023 C 
BRANCH  27  28
ATOM     28  C   UNL A   1      32.668  32.695  27.331  1.00  0.00     0.116 C 
BRANCH  28  29
ATOM     29  N   UNL A   1      32.428  34.090  27.667  1.00  0.00    -0.352 N 
ATOM     30  C   UNL A   1      33.033  34.882  28.613  1.00  0.00     0.251 C 
ATOM     31  H   UNL A   1      31.726  34.533  27.136  1.00  0.00     0.163 HD
ATOM     32  O   UNL A   1      32.583  36.004  28.842  1.00  0.00    -0.269 OA
BRANCH  30  33
ATOM     33  C   UNL A   1      34.204  34.390  29.376  1.00  0.00     0.039 A 
ATOM     34  C   UNL A   1      33.988  33.715  30.581  1.00  0.00     0.014 A 
ATOM     35  C   UNL A   1      35.509  34.595  28.920  1.00  0.00     0.014 A 
ATOM     36  C   UNL A   1      35.072  33.189  31.291  1.00  0.00     0.010 A 
ATOM     37  C   UNL A   1      36.581  34.004  29.589  1.00  0.00     0.010 A 
ATOM     38  C   UNL A   1      36.376  33.294  30.782  1.00  0.00    -0.014 A 
BRANCH  38  39
ATOM     39  C   UNL A   1      37.528  32.649  31.469  1.00  0.00     0.031 A 
ATOM     40  C   UNL A   1      38.246  31.486  30.838  1.00  0.00     0.074 A 
ATOM     41  C   UNL A   1      37.881  33.059  32.705  1.00  0.00     0.049 A 
ATOM     42  N   UNL A   1      39.228  30.765  31.316  1.00  0.00    -0.248 NA
ATOM     43  C   UNL A   1      37.785  31.059  29.507  1.00  0.00     0.031 C 
ATOM     44  C   UNL A   1      37.221  34.124  33.462  1.00  0.00     0.029 A 
ATOM     45  N   UNL A   1      38.861  32.609  33.555  1.00  0.00    -0.354 N 
ATOM     46  C   UNL A   1      39.481  29.784  30.363  1.00  0.00     0.074 A 
ATOM     47  C   UNL A   1      38.523  29.979  29.296  1.00  0.00     0.031 C 
ATOM     48  C   UNL A   1      37.813  34.246  34.661  1.00  0.00     0.029 A 
ATOM     49  C   UNL A   1      38.870  33.246  34.775  1.00  0.00     0.049 A 
ATOM     50  H   UNL A   1      39.497  31.895  33.315  1.00  0.00     0.167 HD
ATOM     51  C   UNL A   1      40.438  28.825  30.362  1.00  0.00     0.034 A 
ATOM     52  C   UNL A   1      39.630  33.042  35.869  1.00  0.00     0.034 A 
ATOM     53  C   UNL A   1      41.407  28.648  31.409  1.00  0.00     0.049 A 
ATOM     54  C   UNL A   1      40.701  31.985  35.834  1.00  0.00     0.074 A 
ATOM     55  C   UNL A   1      42.465  27.755  31.461  1.00  0.00     0.029 A 
ATOM     56  N   UNL A   1      41.434  29.365  32.595  1.00  0.00    -0.354 N 
ATOM     57  N   UNL A   1      41.020  31.167  34.861  1.00  0.00    -0.248 NA
ATOM     58  C   UNL A   1      41.539  31.847  37.033  1.00  0.00     0.031 C 
ATOM     59  C   UNL A   1      43.109  27.910  32.692  1.00  0.00     0.029 A 
ATOM     60  C   UNL A   1      42.479  28.928  33.391  1.00  0.00     0.049 A 
ATOM     61  H   UNL A   1      40.802  30.081  32.837  1.00  0.00     0.167 HD
ATOM     62  C   UNL A   1      42.117  30.444  35.315  1.00  0.00     0.074 A 
ATOM     63  C   UNL A   1      42.420  30.935  36.643  1.00  0.00     0.031 C 
ATOM     64  C   UNL A   1      42.804  29.454  34.693  1.00  0.00     0.034 A 
BRANCH  51  65
ATOM     65  C   UNL A   1      40.512  27.912  29.162  1.00  0.00     0.023 A 
ATOM     66  C   UNL A   1      39.623  26.822  29.060  1.00  0.00     0.012 A 
ATOM     67  C   UNL A   1      41.415  28.165  28.113  1.00  0.00     0.148 A 
ATOM     68  C   UNL A   1      39.660  25.975  27.953  1.00  0.00     0.002 A 
ATOM     69  C   UNL A   1      41.413  27.345  26.990  1.00  0.00     0.091 A 
ATOM     70  F   UNL A   1      42.264  29.196  28.233  1.00  0.00    -0.205 F 
ATOM     71  C   UNL A   1      40.547  26.242  26.915  1.00  0.00     0.022 A 
BRANCH  69  72
ATOM     72  S   UNL A   1      42.459  27.651  25.561  1.00  0.00     0.127 S 
ATOM     73  O   UNL A   1      41.902  28.905  25.052  1.00  0.00    -0.237 OA
ATOM     74  O   UNL A   1      43.782  27.775  26.172  1.00  0.00    -0.237 OA
ATOM     75  O   UNL A   1      42.297  26.498  24.688  1.00  0.00    -0.744 OA
ENDBRANCH  69  72
ENDBRANCH  51  65
BRANCH  52  76
ATOM     76  C   UNL A   1      39.435  33.890  37.079  1.00  0.00     0.023 A 
ATOM     77  C   UNL A   1      39.866  35.231  37.068  1.00  0.00     0.012 A 
ATOM     78  C   UNL A   1      38.805  33.382  38.231  1.00  0.00     0.148 A 
ATOM     79  C   UNL A   1      39.706  36.039  38.194  1.00  0.00     0.002 A 
ATOM     80  C   UNL A   1      38.595  34.208  39.328  1.00  0.00     0.091 A 
ATOM     81  F   UNL A   1      38.411  32.100  38.226  1.00  0.00    -0.205 F 
ATOM     82  C   UNL A   1      39.062  35.532  39.320  1.00  0.00     0.022 A 
BRANCH  80  83
ATOM     83  S   UNL A   1      37.658  33.680  40.767  1.00  0.00     0.127 S 
ATOM     84  O   UNL A   1      37.516  34.932  41.507  1.00  0.00    -0.237 OA
ATOM     85  O   UNL A   1      36.425  33.182  40.154  1.00  0.00    -0.237 OA
ATOM     86  O   UNL A   1      38.466  32.655  41.410  1.00  0.00    -0.744 OA
ENDBRANCH  80  83
ENDBRANCH  52  76
BRANCH  64  87
ATOM     87  C   UNL A   1      43.985  28.859  35.415  1.00  0.00     0.023 A 
ATOM     88  C   UNL A   1      45.269  29.414  35.251  1.00  0.00     0.012 A 
ATOM     89  C   UNL A   1      43.806  27.788  36.315  1.00  0.00     0.148 A 
ATOM     90  C   UNL A   1      46.362  28.891  35.943  1.00  0.00     0.002 A 
ATOM     91  C   UNL A   1      44.889  27.308  37.041  1.00  0.00     0.091 A 
ATOM     92  F   UNL A   1      42.579  27.261  36.446  1.00  0.00    -0.205 F 
ATOM     93  C   UNL A   1      46.170  27.848  36.845  1.00  0.00     0.022 A 
BRANCH  91  94
ATOM     94  S   UNL A   1      44.721  26.034  38.296  1.00  0.00     0.127 S 
ATOM     95  O   UNL A   1      46.118  25.681  38.552  1.00  0.00    -0.237 OA
ATOM     96  O   UNL A   1      44.065  26.758  39.385  1.00  0.00    -0.237 OA
ATOM     97  O   UNL A   1      43.913  24.980  37.696  1.00  0.00    -0.744 OA
ENDBRANCH  91  94
ENDBRANCH  64  87
ENDBRANCH  38  39
ENDBRANCH  30  33
ENDBRANCH  28  29
ENDBRANCH  27  28
ENDBRANCH   1  27
TORSDOF 18
ENDMDL
MODEL 2
REMARK VINA RESULT:     -12.1      2.576      3.763
REMARK SMILES O=C(Cc1ccccc1Nc1c(F)cccc1C(F)(F)F)NCCCCNC(=O)c1ccc(-c2c3nc(c(-c4cccc(S(=O)(=O)[O-])c4F)c4ccc([nH]4)c(-c4cccc(S(=O)(=O)[O-])c4F)c4nc(c(-c5cccc(S(=O)(=O)[O-])c5F)c5ccc2[nH]5)C=C4)C=C3)cc1
REMARK SMILES IDX 24 1 23 2 22 3 1 4 2 5 3 7 4 8 5 9 9 10 6 11 8 12 7 13 10 14
REMARK SMILES IDX 11 16 12 17 17 18 13 19 14 20 16 21 15 22 18 23 19 24 20 25
REMARK SMILES IDX 21 26 25 27 26 28 27 29 28 30 29 32 30 33 31 34 92 35 32 36
REMARK SMILES IDX 91 37 33 38 34 39 35 40 85 41 36 42 90 43 84 44 86 45 37 46
REMARK SMILES IDX 89 47 83 48 82 49 38 51 70 52 50 53 69 54 51 55 54 56 68 57
REMARK SMILES IDX 87 58 52 59 53 60 67 62 88 63 55 64 39 65 40 66 48 67 41 68
REMARK SMILES IDX 43 69 49 70 42 71 44 72 45 73 46 74 47 75 71 76 72 77 80 78
REMARK SMILES IDX 73 79 75 80 81 81 74 82 76 83 77 84 78 85 79 86 56 87 57 88
REMARK SMILES IDX 65 89 58 90 60 91 66 92 59 93 61 94 62 95 63 96 64 97
REMARK H PARENT 22 6 10 15 27 31 86 50 54 61
REMARK Flexibility Score: inf
ROOT
ATOM      1  C   UNL A   1      31.951  27.090  26.360  1.00  0.00     0.023 C 
ENDROOT
BRANCH   1   2
ATOM      2  C   UNL A   1      31.618  25.740  25.723  1.00  0.00     0.116 C 
BRANCH   2   3
ATOM      3  N   UNL A   1      32.343  24.653  26.348  1.00  0.00    -0.356 N 
ATOM      4  O   UNL A   1      34.246  24.762  25.054  1.00  0.00    -0.275 OA
ATOM      5  C   UNL A   1      33.606  24.249  25.969  1.00  0.00     0.224 C 
ATOM      6  H   UNL A   1      31.908  24.172  27.090  1.00  0.00     0.163 HD
BRANCH   5   7
ATOM      7  C   UNL A   1      34.154  23.081  26.778  1.00  0.00     0.137 C 
BRANCH   7   8
ATOM      8  C   UNL A   1      35.437  22.540  26.185  1.00  0.00    -0.015 A 
ATOM      9  C   UNL A   1      36.591  23.347  26.250  1.00  0.00     0.006 A 
ATOM     10  C   UNL A   1      35.493  21.293  25.526  1.00  0.00     0.042 A 
ATOM     11  C   UNL A   1      37.778  22.949  25.641  1.00  0.00     0.000 A 
ATOM     12  C   UNL A   1      36.699  20.921  24.911  1.00  0.00     0.026 A 
ATOM     13  C   UNL A   1      37.828  21.741  24.961  1.00  0.00     0.002 A 
BRANCH  10  14
ATOM     14  N   UNL A   1      34.386  20.416  25.544  1.00  0.00    -0.352 N 
ATOM     15  H   UNL A   1      33.916  20.360  26.407  1.00  0.00     0.167 HD
BRANCH  14  16
ATOM     16  C   UNL A   1      33.843  19.608  24.519  1.00  0.00     0.087 A 
ATOM     17  C   UNL A   1      34.324  18.286  24.420  1.00  0.00     0.147 A 
ATOM     18  C   UNL A   1      32.802  19.994  23.655  1.00  0.00     0.082 A 
ATOM     19  F   UNL A   1      35.339  17.896  25.207  1.00  0.00    -0.205 F 
ATOM     20  C   UNL A   1      33.771  17.350  23.549  1.00  0.00     0.041 A 
ATOM     21  C   UNL A   1      32.230  19.025  22.792  1.00  0.00     0.015 A 
ATOM     22  C   UNL A   1      32.705  17.716  22.743  1.00  0.00     0.004 A 
BRANCH  18  23
ATOM     23  C   UNL A   1      32.261  21.403  23.543  1.00  0.00     0.418 C 
ATOM     24  F   UNL A   1      33.276  22.312  23.390  1.00  0.00    -0.166 F 
ATOM     25  F   UNL A   1      31.478  21.574  22.441  1.00  0.00    -0.166 F 
ATOM     26  F   UNL A   1      31.555  21.858  24.610  1.00  0.00    -0.166 F 
ENDBRANCH  18  23
ENDBRANCH  14  16
ENDBRANCH  10  14
ENDBRANCH   7   8
ENDBRANCH   5   7
ENDBRANCH   2   3
ENDBRANCH   1   2
BRANCH   1  27
ATOM     27  C   UNL A   1      31.775  28.308  25.447  1.00  0.00     0.023 C 
BRANCH  27  28
ATOM     28  C   UNL A   1      32.892  29.346  25.502  1.00  0.00     0.116 C 
BRANCH  28  29
ATOM     29  N   UNL A   1      32.451  30.625  26.035  1.00  0.00    -0.352 N 
ATOM     30  C   UNL A   1      33.009  31.406  27.018  1.00  0.00     0.251 C 
ATOM     31  H   UNL A   1      31.627  30.985  25.631  1.00  0.00     0.163 HD
ATOM     32  O   UNL A   1      32.398  32.391  27.431  1.00  0.00    -0.269 OA
BRANCH  30  33
ATOM     33  C   UNL A   1      34.326  31.060  27.604  1.00  0.00     0.039 A 
ATOM     34  C   UNL A   1      35.278  32.071  27.767  1.00  0.00     0.014 A 
ATOM     35  C   UNL A   1      34.632  29.751  27.984  1.00  0.00     0.014 A 
ATOM     36  C   UNL A   1      36.506  31.783  28.371  1.00  0.00     0.010 A 
ATOM     37  C   UNL A   1      35.826  29.482  28.655  1.00  0.00     0.010 A 
ATOM     38  C   UNL A   1      36.776  30.494  28.857  1.00  0.00    -0.014 A 
BRANCH  38  39
ATOM     39  C   UNL A   1      38.033  30.194  29.596  1.00  0.00     0.031 A 
ATOM     40  C   UNL A   1      39.067  29.271  29.010  1.00  0.00     0.074 A 
ATOM     41  C   UNL A   1      38.210  30.690  30.838  1.00  0.00     0.049 A 
ATOM     42  N   UNL A   1      40.190  28.850  29.535  1.00  0.00    -0.248 NA
ATOM     43  C   UNL A   1      38.794  28.728  27.669  1.00  0.00     0.031 C 
ATOM     44  C   UNL A   1      37.253  31.536  31.554  1.00  0.00     0.029 A 
ATOM     45  N   UNL A   1      39.241  30.531  31.731  1.00  0.00    -0.354 N 
ATOM     46  C   UNL A   1      40.740  27.972  28.607  1.00  0.00     0.074 A 
ATOM     47  C   UNL A   1      39.809  27.892  27.503  1.00  0.00     0.031 C 
ATOM     48  C   UNL A   1      37.741  31.822  32.772  1.00  0.00     0.029 A 
ATOM     49  C   UNL A   1      39.026  31.152  32.940  1.00  0.00     0.049 A 
ATOM     50  H   UNL A   1      40.057  30.020  31.526  1.00  0.00     0.167 HD
ATOM     51  C   UNL A   1      41.923  27.313  28.656  1.00  0.00     0.034 A 
ATOM     52  C   UNL A   1      39.769  31.170  34.065  1.00  0.00     0.034 A 
ATOM     53  C   UNL A   1      42.862  27.415  29.741  1.00  0.00     0.049 A 
ATOM     54  C   UNL A   1      41.089  30.448  34.085  1.00  0.00     0.074 A 
ATOM     55  C   UNL A   1      44.121  26.848  29.846  1.00  0.00     0.029 A 
ATOM     56  N   UNL A   1      42.642  28.117  30.916  1.00  0.00    -0.354 N 
ATOM     57  N   UNL A   1      41.659  29.745  33.138  1.00  0.00    -0.248 NA
ATOM     58  C   UNL A   1      41.885  30.551  35.317  1.00  0.00     0.031 C 
ATOM     59  C   UNL A   1      44.648  27.180  31.098  1.00  0.00     0.029 A 
ATOM     60  C   UNL A   1      43.735  27.988  31.757  1.00  0.00     0.049 A 
ATOM     61  H   UNL A   1      41.829  28.632  31.123  1.00  0.00     0.167 HD
ATOM     62  C   UNL A   1      42.894  29.354  33.643  1.00  0.00     0.074 A 
ATOM     63  C   UNL A   1      42.997  29.916  34.974  1.00  0.00     0.031 C 
ATOM     64  C   UNL A   1      43.850  28.589  33.061  1.00  0.00     0.034 A 
BRANCH  51  65
ATOM     65  C   UNL A   1      42.293  26.451  27.474  1.00  0.00     0.023 A 
ATOM     66  C   UNL A   1      42.943  27.031  26.364  1.00  0.00     0.012 A 
ATOM     67  C   UNL A   1      42.053  25.064  27.485  1.00  0.00     0.148 A 
ATOM     68  C   UNL A   1      43.310  26.252  25.268  1.00  0.00     0.002 A 
ATOM     69  C   UNL A   1      42.467  24.286  26.409  1.00  0.00     0.091 A 
ATOM     70  F   UNL A   1      41.420  24.531  28.540  1.00  0.00    -0.205 F 
ATOM     71  C   UNL A   1      43.081  24.879  25.294  1.00  0.00     0.022 A 
BRANCH  69  72
ATOM     72  S   UNL A   1      42.294  22.497  26.381  1.00  0.00     0.127 S 
ATOM     73  O   UNL A   1      42.730  22.181  25.022  1.00  0.00    -0.237 OA
ATOM     74  O   UNL A   1      43.223  22.083  27.432  1.00  0.00    -0.237 OA
ATOM     75  O   UNL A   1      40.893  22.224  26.665  1.00  0.00    -0.744 OA
ENDBRANCH  69  72
ENDBRANCH  51  65
BRANCH  52  76
ATOM     76  C   UNL A   1      39.300  31.936  35.254  1.00  0.00     0.023 A 
ATOM     77  C   UNL A   1      38.451  31.317  36.191  1.00  0.00     0.012 A 
ATOM     78  C   UNL A   1      39.709  33.266  35.472  1.00  0.00     0.148 A 
ATOM     79  C   UNL A   1      37.989  32.019  37.305  1.00  0.00     0.002 A 
ATOM     80  C   UNL A   1      39.293  33.941  36.613  1.00  0.00     0.091 A 
ATOM     81  F   UNL A   1      40.510  33.840  34.563  1.00  0.00    -0.205 F 
ATOM     82  C   UNL A   1      38.417  33.327  37.522  1.00  0.00     0.022 A 
BRANCH  80  83
ATOM     83  S   UNL A   1      39.901  35.576  37.041  1.00  0.00     0.127 S 
ATOM     84  O   UNL A   1      39.434  36.374  35.909  1.00  0.00    -0.237 OA
ATOM     85  O   UNL A   1      39.208  35.832  38.304  1.00  0.00    -0.237 OA
ATOM     86  O   UNL A   1      41.346  35.440  37.164  1.00  0.00    -0.744 OA
ENDBRANCH  80  83
ENDBRANCH  52  76
BRANCH  64  87
ATOM     87  C   UNL A   1      45.120  28.344  33.836  1.00  0.00     0.023 A 
ATOM     88  C   UNL A   1      46.186  29.261  33.757  1.00  0.00     0.012 A 
ATOM     89  C   UNL A   1      45.227  27.236  34.702  1.00  0.00     0.148 A 
ATOM     90  C   UNL A   1      47.351  29.062  34.497  1.00  0.00     0.002 A 
ATOM     91  C   UNL A   1      46.368  27.073  35.477  1.00  0.00     0.091 A 
ATOM     92  F   UNL A   1      44.208  26.364  34.752  1.00  0.00    -0.205 F 
ATOM     93  C   UNL A   1      47.437  27.976  35.365  1.00  0.00     0.022 A 
BRANCH  91  94
ATOM     94  S   UNL A   1      46.529  25.761  36.693  1.00  0.00     0.127 S 
ATOM     95  O   UNL A   1      47.575  26.291  37.567  1.00  0.00    -0.237 OA
ATOM     96  O   UNL A   1      45.194  25.727  37.290  1.00  0.00    -0.237 OA
ATOM     97  O   UNL A   1      46.890  24.562  35.948  1.00  0.00    -0.744 OA
ENDBRANCH  91  94
ENDBRANCH  64  87
ENDBRANCH  38  39
ENDBRANCH  30  33
ENDBRANCH  28  29
ENDBRANCH  27  28
ENDBRANCH   1  27
TORSDOF 18
ENDMDL
MODEL 3
REMARK VINA RESULT:     -12.0      6.511     11.680
REMARK SMILES O=C(Cc1ccccc1Nc1c(F)cccc1C(F)(F)F)NCCCCNC(=O)c1ccc(-c2c3nc(c(-c4cccc(S(=O)(=O)[O-])c4F)c4ccc([nH]4)c(-c4cccc(S(=O)(=O)[O-])c4F)c4nc(c(-c5cccc(S(=O)(=O)[O-])c5F)c5ccc2[nH]5)C=C4)C=C3)cc1
REMARK SMILES IDX 24 1 23 2 22 3 1 4 2 5 3 7 4 8 5 9 9 10 6 11 8 12 7 13 10 14
REMARK SMILES IDX 11 16 12 17 17 18 13 19 14 20 16 21 15 22 18 23 19 24 20 25
REMARK SMILES IDX 21 26 25 27 26 28 27 29 28 30 29 32 30 33 31 34 92 35 32 36
REMARK SMILES IDX 91 37 33 38 34 39 35 40 85 41 36 42 90 43 84 44 86 45 37 46
REMARK SMILES IDX 89 47 83 48 82 49 38 51 70 52 50 53 69 54 51 55 54 56 68 57
REMARK SMILES IDX 87 58 52 59 53 60 67 62 88 63 55 64 39 65 40 66 48 67 41 68
REMARK SMILES IDX 43 69 49 70 42 71 44 72 45 73 46 74 47 75 71 76 72 77 80 78
REMARK SMILES IDX 73 79 75 80 81 81 74 82 76 83 77 84 78 85 79 86 56 87 57 88
REMARK SMILES IDX 65 89 58 90 60 91 66 92 59 93 61 94 62 95 63 96 64 97
REMARK H PARENT 22 6 10 15 27 31 86 50 54 61
REMARK Flexibility Score: inf
ROOT
ATOM      1  C   UNL A   1      36.784  20.747  24.779  1.00  0.00     0.023 C 
ENDROOT
BRANCH   1   2
ATOM      2  C   UNL A   1      37.257  22.155  24.416  1.00  0.00     0.116 C 
BRANCH   2   3
ATOM      3  N   UNL A   1      36.446  23.178  25.045  1.00  0.00    -0.356 N 
ATOM      4  O   UNL A   1      35.134  23.699  23.224  1.00  0.00    -0.275 OA
ATOM      5  C   UNL A   1      35.441  23.869  24.401  1.00  0.00     0.224 C 
ATOM      6  H   UNL A   1      36.623  23.392  25.990  1.00  0.00     0.163 HD
BRANCH   5   7
ATOM      7  C   UNL A   1      34.736  24.896  25.277  1.00  0.00     0.137 C 
BRANCH   7   8
ATOM      8  C   UNL A   1      33.303  24.499  25.566  1.00  0.00    -0.015 A 
ATOM      9  C   UNL A   1      33.070  23.549  26.581  1.00  0.00     0.006 A 
ATOM     10  C   UNL A   1      32.218  25.004  24.818  1.00  0.00     0.042 A 
ATOM     11  C   UNL A   1      31.787  23.070  26.831  1.00  0.00     0.000 A 
ATOM     12  C   UNL A   1      30.936  24.496  25.085  1.00  0.00     0.026 A 
ATOM     13  C   UNL A   1      30.722  23.537  26.075  1.00  0.00     0.002 A 
BRANCH  10  14
ATOM     14  N   UNL A   1      32.409  26.038  23.876  1.00  0.00    -0.352 N 
ATOM     15  H   UNL A   1      33.105  25.861  23.201  1.00  0.00     0.167 HD
BRANCH  14  16
ATOM     16  C   UNL A   1      31.760  27.287  23.745  1.00  0.00     0.087 A 
ATOM     17  C   UNL A   1      30.929  27.465  22.620  1.00  0.00     0.147 A 
ATOM     18  C   UNL A   1      31.810  28.324  24.696  1.00  0.00     0.082 A 
ATOM     19  F   UNL A   1      30.885  26.509  21.679  1.00  0.00    -0.205 F 
ATOM     20  C   UNL A   1      30.127  28.591  22.451  1.00  0.00     0.041 A 
ATOM     21  C   UNL A   1      30.968  29.452  24.526  1.00  0.00     0.015 A 
ATOM     22  C   UNL A   1      30.131  29.582  23.419  1.00  0.00     0.004 A 
BRANCH  18  23
ATOM     23  C   UNL A   1      32.741  28.347  25.887  1.00  0.00     0.418 C 
ATOM     24  F   UNL A   1      34.026  28.042  25.519  1.00  0.00    -0.166 F 
ATOM     25  F   UNL A   1      32.831  29.584  26.454  1.00  0.00    -0.166 F 
ATOM     26  F   UNL A   1      32.457  27.471  26.885  1.00  0.00    -0.166 F 
ENDBRANCH  18  23
ENDBRANCH  14  16
ENDBRANCH  10  14
ENDBRANCH   7   8
ENDBRANCH   5   7
ENDBRANCH   2   3
ENDBRANCH   1   2
BRANCH   1  27
ATOM     27  C   UNL A   1      37.897  19.715  24.994  1.00  0.00     0.023 C 
BRANCH  27  28
ATOM     28  C   UNL A   1      39.129  20.214  25.744  1.00  0.00     0.116 C 
BRANCH  28  29
ATOM     29  N   UNL A   1      40.175  19.209  25.846  1.00  0.00    -0.352 N 
ATOM     30  C   UNL A   1      41.521  19.363  26.082  1.00  0.00     0.251 C 
ATOM     31  H   UNL A   1      39.874  18.278  25.728  1.00  0.00     0.163 HD
ATOM     32  O   UNL A   1      42.268  18.390  25.985  1.00  0.00    -0.269 OA
BRANCH  30  33
ATOM     33  C   UNL A   1      42.082  20.690  26.426  1.00  0.00     0.039 A 
ATOM     34  C   UNL A   1      42.504  21.532  25.393  1.00  0.00     0.014 A 
ATOM     35  C   UNL A   1      42.205  21.107  27.754  1.00  0.00     0.014 A 
ATOM     36  C   UNL A   1      42.982  22.813  25.687  1.00  0.00     0.010 A 
ATOM     37  C   UNL A   1      42.610  22.411  28.040  1.00  0.00     0.010 A 
ATOM     38  C   UNL A   1      43.003  23.280  27.011  1.00  0.00    -0.014 A 
BRANCH  38  39
ATOM     39  C   UNL A   1      43.409  24.675  27.333  1.00  0.00     0.031 A 
ATOM     40  C   UNL A   1      42.416  25.651  27.906  1.00  0.00     0.074 A 
ATOM     41  C   UNL A   1      44.656  25.092  27.032  1.00  0.00     0.049 A 
ATOM     42  N   UNL A   1      42.576  26.919  28.191  1.00  0.00    -0.248 NA
ATOM     43  C   UNL A   1      41.060  25.146  28.171  1.00  0.00     0.031 C 
ATOM     44  C   UNL A   1      45.693  24.271  26.404  1.00  0.00     0.029 A 
ATOM     45  N   UNL A   1      45.255  26.319  27.185  1.00  0.00    -0.354 N 
ATOM     46  C   UNL A   1      41.338  27.369  28.637  1.00  0.00     0.074 A 
ATOM     47  C   UNL A   1      40.428  26.248  28.549  1.00  0.00     0.031 C 
ATOM     48  C   UNL A   1      46.797  25.014  26.227  1.00  0.00     0.029 A 
ATOM     49  C   UNL A   1      46.539  26.372  26.693  1.00  0.00     0.049 A 
ATOM     50  H   UNL A   1      44.807  27.089  27.606  1.00  0.00     0.167 HD
ATOM     51  C   UNL A   1      40.994  28.594  29.102  1.00  0.00     0.034 A 
ATOM     52  C   UNL A   1      47.408  27.399  26.610  1.00  0.00     0.034 A 
ATOM     53  C   UNL A   1      41.906  29.701  29.215  1.00  0.00     0.049 A 
ATOM     54  C   UNL A   1      47.010  28.745  27.154  1.00  0.00     0.074 A 
ATOM     55  C   UNL A   1      41.671  30.958  29.747  1.00  0.00     0.029 A 
ATOM     56  N   UNL A   1      43.221  29.693  28.778  1.00  0.00    -0.354 N 
ATOM     57  N   UNL A   1      45.880  29.108  27.709  1.00  0.00    -0.248 NA
ATOM     58  C   UNL A   1      48.018  29.813  27.091  1.00  0.00     0.031 C 
ATOM     59  C   UNL A   1      42.835  31.719  29.602  1.00  0.00     0.029 A 
ATOM     60  C   UNL A   1      43.808  30.925  29.016  1.00  0.00     0.049 A 
ATOM     61  H   UNL A   1      43.673  28.925  28.360  1.00  0.00     0.167 HD
ATOM     62  C   UNL A   1      46.053  30.432  28.096  1.00  0.00     0.074 A 
ATOM     63  C   UNL A   1      47.405  30.801  27.729  1.00  0.00     0.031 C 
ATOM     64  C   UNL A   1      45.168  31.270  28.691  1.00  0.00     0.034 A 
BRANCH  51  65
ATOM     65  C   UNL A   1      39.573  28.793  29.567  1.00  0.00     0.023 A 
ATOM     66  C   UNL A   1      39.193  28.354  30.852  1.00  0.00     0.012 A 
ATOM     67  C   UNL A   1      38.632  29.463  28.762  1.00  0.00     0.148 A 
ATOM     68  C   UNL A   1      37.889  28.542  31.312  1.00  0.00     0.002 A 
ATOM     69  C   UNL A   1      37.349  29.690  29.246  1.00  0.00     0.091 A 
ATOM     70  F   UNL A   1      39.005  29.859  27.536  1.00  0.00    -0.205 F 
ATOM     71  C   UNL A   1      36.972  29.218  30.514  1.00  0.00     0.022 A 
BRANCH  69  72
ATOM     72  S   UNL A   1      36.116  30.623  28.330  1.00  0.00     0.127 S 
ATOM     73  O   UNL A   1      36.817  31.885  28.095  1.00  0.00    -0.237 OA
ATOM     74  O   UNL A   1      35.932  29.797  27.136  1.00  0.00    -0.237 OA
ATOM     75  O   UNL A   1      34.950  30.709  29.196  1.00  0.00    -0.744 OA
ENDBRANCH  69  72
ENDBRANCH  51  65
BRANCH  52  76
ATOM     76  C   UNL A   1      48.762  27.183  26.026  1.00  0.00     0.023 A 
ATOM     77  C   UNL A   1      49.794  26.663  26.831  1.00  0.00     0.012 A 
ATOM     78  C   UNL A   1      49.026  27.468  24.672  1.00  0.00     0.148 A 
ATOM     79  C   UNL A   1      51.072  26.465  26.309  1.00  0.00     0.002 A 
ATOM     80  C   UNL A   1      50.285  27.213  24.143  1.00  0.00     0.091 A 
ATOM     81  F   UNL A   1      48.033  27.971  23.925  1.00  0.00    -0.205 F 
ATOM     82  C   UNL A   1      51.316  26.730  24.964  1.00  0.00     0.022 A 
BRANCH  80  83
ATOM     83  S   UNL A   1      50.650  27.397  22.394  1.00  0.00     0.127 S 
ATOM     84  O   UNL A   1      50.695  28.851  22.250  1.00  0.00    -0.237 OA
ATOM     85  O   UNL A   1      51.946  26.727  22.286  1.00  0.00    -0.237 OA
ATOM     86  O   UNL A   1      49.566  26.726  21.691  1.00  0.00    -0.744 OA
ENDBRANCH  80  83
ENDBRANCH  52  76
BRANCH  64  87
ATOM     87  C   UNL A   1      45.639  32.661  29.029  1.00  0.00     0.023 A 
ATOM     88  C   UNL A   1      46.287  32.911  30.254  1.00  0.00     0.012 A 
ATOM     89  C   UNL A   1      45.500  33.709  28.096  1.00  0.00     0.148 A 
ATOM     90  C   UNL A   1      46.757  34.188  30.561  1.00  0.00     0.002 A 
ATOM     91  C   UNL A   1      46.018  34.965  28.386  1.00  0.00     0.091 A 
ATOM     92  F   UNL A   1      44.865  33.457  26.942  1.00  0.00    -0.205 F 
ATOM     93  C   UNL A   1      46.634  35.211  29.623  1.00  0.00     0.022 A 
BRANCH  91  94
ATOM     94  S   UNL A   1      45.994  36.316  27.202  1.00  0.00     0.127 S 
ATOM     95  O   UNL A   1      44.563  36.604  27.108  1.00  0.00    -0.237 OA
ATOM     96  O   UNL A   1      46.779  37.342  27.889  1.00  0.00    -0.237 OA
ATOM     97  O   UNL A   1      46.606  35.798  25.986  1.00  0.00    -0.744 OA
ENDBRANCH  91  94
ENDBRANCH  64  87
ENDBRANCH  38  39
ENDBRANCH  30  33
ENDBRANCH  28  29
ENDBRANCH  27  28
ENDBRANCH   1  27
TORSDOF 18
ENDMDL
