MODEL 1
REMARK VINA RESULT:     -10.9      0.000      0.000
REMARK SMILES O=C(COc1ccnc(NCc2ccc(Br)cc2)n1)NCCCCNC(=O)c1ccc(-c2c3nc(c(-c4cccc(S(=O)(=O)[O-])c4F)c4ccc([nH]4)c(-c4cccc(S(=O)(=O)[O-])c4F)c4nc(c(-c5cccc(S(=O)(=O)[O-])c5F)c5ccc2[nH]5)C=C4)C=C3)cc1
REMARK SMILES IDX 21 1 20 2 1 3 2 4 3 6 4 7 5 8 6 9 19 10 7 11 9 12 8 13 10 14
REMARK SMILES IDX 11 16 12 17 13 18 18 19 14 20 17 21 15 22 16 23 22 24 23 25
REMARK SMILES IDX 24 26 25 27 26 28 27 30 28 31 29 32 90 33 30 34 89 35 31 36
REMARK SMILES IDX 32 37 33 38 83 39 34 40 88 41 82 42 84 43 35 44 87 45 81 46
REMARK SMILES IDX 80 47 36 49 68 50 48 51 67 52 49 53 52 54 66 55 85 56 50 57
REMARK SMILES IDX 51 58 65 60 86 61 53 62 37 63 38 64 46 65 39 66 41 67 47 68
REMARK SMILES IDX 40 69 42 70 43 71 44 72 45 73 69 74 70 75 78 76 71 77 73 78
REMARK SMILES IDX 79 79 72 80 74 81 75 82 76 83 77 84 54 85 55 86 63 87 56 88
REMARK SMILES IDX 58 89 64 90 57 91 59 92 60 93 61 94 62 95
REMARK H PARENT 20 5 10 15 25 29 84 48 52 59
REMARK Flexibility Score: inf
ROOT
ATOM      1  C   UNL A   1      31.119  27.549  27.320  1.00  0.00     0.116 C 
ENDROOT
BRANCH   1   2
ATOM      2  N   UNL A   1      30.797  27.163  25.962  1.00  0.00    -0.353 N 
ATOM      3  O   UNL A   1      30.079  25.031  26.452  1.00  0.00    -0.271 OA
ATOM      4  C   UNL A   1      30.204  25.954  25.652  1.00  0.00     0.258 C 
ATOM      5  H   UNL A   1      31.009  27.787  25.230  1.00  0.00     0.163 HD
BRANCH   4   6
ATOM      6  C   UNL A   1      29.647  25.889  24.227  1.00  0.00     0.331 C 
BRANCH   6   7
ATOM      7  O   UNL A   1      30.108  26.961  23.402  1.00  0.00    -0.467 OA
BRANCH   7   8
ATOM      8  C   UNL A   1      31.294  26.658  22.775  1.00  0.00     0.218 A 
ATOM      9  C   UNL A   1      32.235  27.634  22.549  1.00  0.00     0.088 A 
ATOM     10  N   UNL A   1      31.507  25.353  22.540  1.00  0.00    -0.177 NA
ATOM     11  C   UNL A   1      33.410  27.199  22.001  1.00  0.00     0.121 A 
ATOM     12  C   UNL A   1      32.702  25.024  22.029  1.00  0.00     0.226 A 
ATOM     13  N   UNL A   1      33.660  25.911  21.728  1.00  0.00    -0.221 NA
BRANCH  12  14
ATOM     14  N   UNL A   1      33.031  23.727  21.775  1.00  0.00    -0.350 N 
ATOM     15  H   UNL A   1      33.222  23.471  20.843  1.00  0.00     0.164 HD
BRANCH  14  16
ATOM     16  C   UNL A   1      33.115  22.713  22.783  1.00  0.00     0.152 C 
BRANCH  16  17
ATOM     17  C   UNL A   1      34.333  22.985  23.636  1.00  0.00    -0.029 A 
ATOM     18  C   UNL A   1      34.212  23.408  24.967  1.00  0.00     0.007 A 
ATOM     19  C   UNL A   1      35.614  22.848  23.076  1.00  0.00     0.007 A 
ATOM     20  C   UNL A   1      35.353  23.669  25.731  1.00  0.00     0.016 A 
ATOM     21  C   UNL A   1      36.754  23.108  23.839  1.00  0.00     0.016 A 
ATOM     22  C   UNL A   1      36.617  23.514  25.164  1.00  0.00     0.017 A 
ATOM     23  Br  UNL A   1      38.160  23.858  26.201  1.00  0.00    -0.051 Br
ENDBRANCH  16  17
ENDBRANCH  14  16
ENDBRANCH  12  14
ENDBRANCH   7   8
ENDBRANCH   6   7
ENDBRANCH   4   6
ENDBRANCH   1   2
BRANCH   1  24
ATOM     24  C   UNL A   1      32.497  28.183  27.461  1.00  0.00     0.023 C 
BRANCH  24  25
ATOM     25  C   UNL A   1      33.465  27.896  26.311  1.00  0.00     0.023 C 
BRANCH  25  26
ATOM     26  C   UNL A   1      34.269  29.091  25.807  1.00  0.00     0.116 C 
BRANCH  26  27
ATOM     27  N   UNL A   1      33.812  30.360  26.353  1.00  0.00    -0.352 N 
ATOM     28  C   UNL A   1      34.313  31.089  27.407  1.00  0.00     0.251 C 
ATOM     29  H   UNL A   1      33.030  30.754  25.903  1.00  0.00     0.163 HD
ATOM     30  O   UNL A   1      33.700  32.076  27.808  1.00  0.00    -0.269 OA
BRANCH  28  31
ATOM     31  C   UNL A   1      35.567  30.674  28.078  1.00  0.00     0.039 A 
ATOM     32  C   UNL A   1      35.506  29.704  29.083  1.00  0.00     0.014 A 
ATOM     33  C   UNL A   1      36.797  31.232  27.722  1.00  0.00     0.014 A 
ATOM     34  C   UNL A   1      36.685  29.243  29.676  1.00  0.00     0.010 A 
ATOM     35  C   UNL A   1      37.976  30.716  28.260  1.00  0.00     0.010 A 
ATOM     36  C   UNL A   1      37.935  29.715  29.242  1.00  0.00    -0.014 A 
BRANCH  36  37
ATOM     37  C   UNL A   1      39.203  29.160  29.787  1.00  0.00     0.031 A 
ATOM     38  C   UNL A   1      39.871  29.796  30.977  1.00  0.00     0.074 A 
ATOM     39  C   UNL A   1      39.804  28.129  29.157  1.00  0.00     0.049 A 
ATOM     40  N   UNL A   1      41.006  29.489  31.549  1.00  0.00    -0.248 NA
ATOM     41  C   UNL A   1      39.185  30.946  31.591  1.00  0.00     0.031 C 
ATOM     42  C   UNL A   1      39.305  27.469  27.948  1.00  0.00     0.029 A 
ATOM     43  N   UNL A   1      40.981  27.474  29.428  1.00  0.00    -0.354 N 
ATOM     44  C   UNL A   1      41.187  30.419  32.565  1.00  0.00     0.074 A 
ATOM     45  C   UNL A   1      40.062  31.327  32.508  1.00  0.00     0.031 C 
ATOM     46  C   UNL A   1      40.166  26.507  27.583  1.00  0.00     0.029 A 
ATOM     47  C   UNL A   1      41.296  26.501  28.507  1.00  0.00     0.049 A 
ATOM     48  H   UNL A   1      41.546  27.681  30.207  1.00  0.00     0.167 HD
ATOM     49  C   UNL A   1      42.183  30.498  33.481  1.00  0.00     0.034 A 
ATOM     50  C   UNL A   1      42.378  25.703  28.406  1.00  0.00     0.034 A 
ATOM     51  C   UNL A   1      43.286  29.578  33.557  1.00  0.00     0.049 A 
ATOM     52  C   UNL A   1      43.457  25.794  29.449  1.00  0.00     0.074 A 
ATOM     53  C   UNL A   1      44.301  29.527  34.497  1.00  0.00     0.029 A 
ATOM     54  N   UNL A   1      43.528  28.554  32.655  1.00  0.00    -0.354 N 
ATOM     55  N   UNL A   1      43.533  26.585  30.492  1.00  0.00    -0.248 NA
ATOM     56  C   UNL A   1      44.585  24.859  29.324  1.00  0.00     0.031 C 
ATOM     57  C   UNL A   1      45.174  28.494  34.143  1.00  0.00     0.029 A 
ATOM     58  C   UNL A   1      44.682  27.874  33.007  1.00  0.00     0.049 A 
ATOM     59  H   UNL A   1      42.962  28.341  31.877  1.00  0.00     0.167 HD
ATOM     60  C   UNL A   1      44.693  26.217  31.166  1.00  0.00     0.074 A 
ATOM     61  C   UNL A   1      45.276  25.120  30.425  1.00  0.00     0.031 C 
ATOM     62  C   UNL A   1      45.230  26.750  32.291  1.00  0.00     0.034 A 
BRANCH  49  63
ATOM     63  C   UNL A   1      42.101  31.596  34.512  1.00  0.00     0.023 A 
ATOM     64  C   UNL A   1      42.941  32.723  34.398  1.00  0.00     0.012 A 
ATOM     65  C   UNL A   1      41.156  31.545  35.554  1.00  0.00     0.148 A 
ATOM     66  C   UNL A   1      42.870  33.762  35.326  1.00  0.00     0.002 A 
ATOM     67  C   UNL A   1      41.057  32.605  36.448  1.00  0.00     0.091 A 
ATOM     68  F   UNL A   1      40.376  30.458  35.659  1.00  0.00    -0.205 F 
ATOM     69  C   UNL A   1      41.922  33.707  36.342  1.00  0.00     0.022 A 
BRANCH  67  70
ATOM     70  S   UNL A   1      39.815  32.671  37.744  1.00  0.00     0.127 S 
ATOM     71  O   UNL A   1      39.318  34.039  37.606  1.00  0.00    -0.237 OA
ATOM     72  O   UNL A   1      38.873  31.635  37.318  1.00  0.00    -0.237 OA
ATOM     73  O   UNL A   1      40.515  32.384  38.988  1.00  0.00    -0.744 OA
ENDBRANCH  67  70
ENDBRANCH  49  63
BRANCH  50  74
ATOM     74  C   UNL A   1      42.472  24.714  27.295  1.00  0.00     0.023 A 
ATOM     75  C   UNL A   1      43.162  25.055  26.115  1.00  0.00     0.012 A 
ATOM     76  C   UNL A   1      41.899  23.432  27.407  1.00  0.00     0.148 A 
ATOM     77  C   UNL A   1      43.248  24.153  25.054  1.00  0.00     0.002 A 
ATOM     78  C   UNL A   1      42.040  22.517  26.371  1.00  0.00     0.091 A 
ATOM     79  F   UNL A   1      41.238  23.129  28.533  1.00  0.00    -0.205 F 
ATOM     80  C   UNL A   1      42.696  22.882  25.185  1.00  0.00     0.022 A 
BRANCH  78  81
ATOM     81  S   UNL A   1      41.479  20.816  26.505  1.00  0.00     0.127 S 
ATOM     82  O   UNL A   1      42.357  20.135  25.557  1.00  0.00    -0.237 OA
ATOM     83  O   UNL A   1      41.745  20.522  27.914  1.00  0.00    -0.237 OA
ATOM     84  O   UNL A   1      40.066  20.839  26.153  1.00  0.00    -0.744 OA
ENDBRANCH  78  81
ENDBRANCH  50  74
BRANCH  62  85
ATOM     85  C   UNL A   1      46.496  26.130  32.826  1.00  0.00     0.023 A 
ATOM     86  C   UNL A   1      47.750  26.673  32.479  1.00  0.00     0.012 A 
ATOM     87  C   UNL A   1      46.435  25.050  33.729  1.00  0.00     0.148 A 
ATOM     88  C   UNL A   1      48.925  26.127  32.996  1.00  0.00     0.002 A 
ATOM     89  C   UNL A   1      47.607  24.546  34.281  1.00  0.00     0.091 A 
ATOM     90  F   UNL A   1      45.235  24.537  34.033  1.00  0.00    -0.205 F 
ATOM     91  C   UNL A   1      48.853  25.073  33.905  1.00  0.00     0.022 A 
BRANCH  89  92
ATOM     92  S   UNL A   1      47.607  23.258  35.533  1.00  0.00     0.127 S 
ATOM     93  O   UNL A   1      47.007  22.139  34.808  1.00  0.00    -0.237 OA
ATOM     94  O   UNL A   1      49.034  23.104  35.818  1.00  0.00    -0.237 OA
ATOM     95  O   UNL A   1      46.820  23.775  36.644  1.00  0.00    -0.744 OA
ENDBRANCH  89  92
ENDBRANCH  62  85
ENDBRANCH  36  37
ENDBRANCH  28  31
ENDBRANCH  26  27
ENDBRANCH  25  26
ENDBRANCH  24  25
ENDBRANCH   1  24
TORSDOF 19
ENDMDL
MODEL 2
REMARK VINA RESULT:     -10.5      2.263      3.242
REMARK SMILES O=C(COc1ccnc(NCc2ccc(Br)cc2)n1)NCCCCNC(=O)c1ccc(-c2c3nc(c(-c4cccc(S(=O)(=O)[O-])c4F)c4ccc([nH]4)c(-c4cccc(S(=O)(=O)[O-])c4F)c4nc(c(-c5cccc(S(=O)(=O)[O-])c5F)c5ccc2[nH]5)C=C4)C=C3)cc1
REMARK SMILES IDX 21 1 20 2 1 3 2 4 3 6 4 7 5 8 6 9 19 10 7 11 9 12 8 13 10 14
REMARK SMILES IDX 11 16 12 17 13 18 18 19 14 20 17 21 15 22 16 23 22 24 23 25
REMARK SMILES IDX 24 26 25 27 26 28 27 30 28 31 29 32 90 33 30 34 89 35 31 36
REMARK SMILES IDX 32 37 33 38 83 39 34 40 88 41 82 42 84 43 35 44 87 45 81 46
REMARK SMILES IDX 80 47 36 49 68 50 48 51 67 52 49 53 52 54 66 55 85 56 50 57
REMARK SMILES IDX 51 58 65 60 86 61 53 62 37 63 38 64 46 65 39 66 41 67 47 68
REMARK SMILES IDX 40 69 42 70 43 71 44 72 45 73 69 74 70 75 78 76 71 77 73 78
REMARK SMILES IDX 79 79 72 80 74 81 75 82 76 83 77 84 54 85 55 86 63 87 56 88
REMARK SMILES IDX 58 89 64 90 57 91 59 92 60 93 61 94 62 95
REMARK H PARENT 20 5 10 15 25 29 84 48 52 59
REMARK Flexibility Score: inf
ROOT
ATOM      1  C   UNL A   1      32.302  27.631  25.344  1.00  0.00     0.116 C 
ENDROOT
BRANCH   1   2
ATOM      2  N   UNL A   1      33.439  26.869  24.869  1.00  0.00    -0.353 N 
ATOM      3  O   UNL A   1      33.291  25.173  26.419  1.00  0.00    -0.271 OA
ATOM      4  C   UNL A   1      33.781  25.637  25.394  1.00  0.00     0.258 C 
ATOM      5  H   UNL A   1      33.989  27.243  24.144  1.00  0.00     0.163 HD
BRANCH   4   6
ATOM      6  C   UNL A   1      34.786  24.862  24.538  1.00  0.00     0.331 C 
BRANCH   6   7
ATOM      7  O   UNL A   1      35.855  24.304  25.306  1.00  0.00    -0.467 OA
BRANCH   7   8
ATOM      8  C   UNL A   1      35.988  22.950  25.101  1.00  0.00     0.218 A 
ATOM      9  C   UNL A   1      37.167  22.428  24.624  1.00  0.00     0.088 A 
ATOM     10  N   UNL A   1      34.960  22.198  25.524  1.00  0.00    -0.177 NA
ATOM     11  C   UNL A   1      37.213  21.064  24.547  1.00  0.00     0.121 A 
ATOM     12  C   UNL A   1      35.113  20.869  25.434  1.00  0.00     0.226 A 
ATOM     13  N   UNL A   1      36.204  20.271  24.935  1.00  0.00    -0.221 NA
BRANCH  12  14
ATOM     14  N   UNL A   1      34.142  20.013  25.856  1.00  0.00    -0.350 N 
ATOM     15  H   UNL A   1      34.261  19.572  26.729  1.00  0.00     0.164 HD
BRANCH  14  16
ATOM     16  C   UNL A   1      32.958  19.716  25.106  1.00  0.00     0.152 C 
BRANCH  16  17
ATOM     17  C   UNL A   1      32.318  21.019  24.686  1.00  0.00    -0.029 A 
ATOM     18  C   UNL A   1      32.510  21.544  23.400  1.00  0.00     0.007 A 
ATOM     19  C   UNL A   1      31.546  21.741  25.610  1.00  0.00     0.007 A 
ATOM     20  C   UNL A   1      31.920  22.759  23.039  1.00  0.00     0.016 A 
ATOM     21  C   UNL A   1      30.957  22.954  25.250  1.00  0.00     0.016 A 
ATOM     22  C   UNL A   1      31.144  23.455  23.964  1.00  0.00     0.017 A 
ATOM     23  Br  UNL A   1      30.339  25.094  23.472  1.00  0.00    -0.051 Br
ENDBRANCH  16  17
ENDBRANCH  14  16
ENDBRANCH  12  14
ENDBRANCH   7   8
ENDBRANCH   6   7
ENDBRANCH   4   6
ENDBRANCH   1   2
BRANCH   1  24
ATOM     24  C   UNL A   1      32.183  29.007  24.701  1.00  0.00     0.023 C 
BRANCH  24  25
ATOM     25  C   UNL A   1      31.695  30.119  25.633  1.00  0.00     0.023 C 
BRANCH  25  26
ATOM     26  C   UNL A   1      32.641  30.495  26.770  1.00  0.00     0.116 C 
BRANCH  26  27
ATOM     27  N   UNL A   1      32.739  31.931  26.981  1.00  0.00    -0.352 N 
ATOM     28  C   UNL A   1      33.702  32.652  27.649  1.00  0.00     0.251 C 
ATOM     29  H   UNL A   1      32.011  32.465  26.588  1.00  0.00     0.163 HD
ATOM     30  O   UNL A   1      33.536  33.855  27.840  1.00  0.00    -0.269 OA
BRANCH  28  31
ATOM     31  C   UNL A   1      34.919  31.983  28.164  1.00  0.00     0.039 A 
ATOM     32  C   UNL A   1      36.121  32.696  28.190  1.00  0.00     0.014 A 
ATOM     33  C   UNL A   1      34.882  30.664  28.622  1.00  0.00     0.014 A 
ATOM     34  C   UNL A   1      37.265  32.111  28.741  1.00  0.00     0.010 A 
ATOM     35  C   UNL A   1      36.003  30.112  29.241  1.00  0.00     0.010 A 
ATOM     36  C   UNL A   1      37.207  30.828  29.309  1.00  0.00    -0.014 A 
BRANCH  36  37
ATOM     37  C   UNL A   1      38.386  30.231  29.995  1.00  0.00     0.031 A 
ATOM     38  C   UNL A   1      38.787  30.690  31.371  1.00  0.00     0.074 A 
ATOM     39  C   UNL A   1      39.151  29.331  29.341  1.00  0.00     0.049 A 
ATOM     40  N   UNL A   1      39.815  30.329  32.095  1.00  0.00    -0.248 NA
ATOM     41  C   UNL A   1      37.934  31.707  32.010  1.00  0.00     0.031 C 
ATOM     42  C   UNL A   1      38.920  28.858  27.975  1.00  0.00     0.029 A 
ATOM     43  N   UNL A   1      40.294  28.676  29.728  1.00  0.00    -0.354 N 
ATOM     44  C   UNL A   1      39.753  31.092  33.255  1.00  0.00     0.074 A 
ATOM     45  C   UNL A   1      38.605  31.963  33.123  1.00  0.00     0.031 C 
ATOM     46  C   UNL A   1      39.888  27.991  27.639  1.00  0.00     0.029 A 
ATOM     47  C   UNL A   1      40.829  27.872  28.748  1.00  0.00     0.049 A 
ATOM     48  H   UNL A   1      40.695  28.774  30.622  1.00  0.00     0.167 HD
ATOM     49  C   UNL A   1      40.558  31.053  34.344  1.00  0.00     0.034 A 
ATOM     50  C   UNL A   1      41.955  27.132  28.735  1.00  0.00     0.034 A 
ATOM     51  C   UNL A   1      41.681  30.165  34.487  1.00  0.00     0.049 A 
ATOM     52  C   UNL A   1      42.820  27.088  29.965  1.00  0.00     0.074 A 
ATOM     53  C   UNL A   1      42.509  29.996  35.584  1.00  0.00     0.029 A 
ATOM     54  N   UNL A   1      42.143  29.305  33.504  1.00  0.00    -0.354 N 
ATOM     55  N   UNL A   1      42.657  27.705  31.110  1.00  0.00    -0.248 NA
ATOM     56  C   UNL A   1      44.004  26.218  29.916  1.00  0.00     0.031 C 
ATOM     57  C   UNL A   1      43.491  29.058  35.250  1.00  0.00     0.029 A 
ATOM     58  C   UNL A   1      43.252  28.613  33.962  1.00  0.00     0.049 A 
ATOM     59  H   UNL A   1      41.742  29.202  32.610  1.00  0.00     0.167 HD
ATOM     60  C   UNL A   1      43.694  27.270  31.929  1.00  0.00     0.074 A 
ATOM     61  C   UNL A   1      44.467  26.321  31.154  1.00  0.00     0.031 C 
ATOM     62  C   UNL A   1      43.986  27.633  33.202  1.00  0.00     0.034 A 
BRANCH  49  63
ATOM     63  C   UNL A   1      40.226  31.971  35.494  1.00  0.00     0.023 A 
ATOM     64  C   UNL A   1      40.986  33.142  35.693  1.00  0.00     0.012 A 
ATOM     65  C   UNL A   1      39.130  31.710  36.338  1.00  0.00     0.148 A 
ATOM     66  C   UNL A   1      40.685  34.018  36.735  1.00  0.00     0.002 A 
ATOM     67  C   UNL A   1      38.806  32.611  37.345  1.00  0.00     0.091 A 
ATOM     68  F   UNL A   1      38.428  30.583  36.146  1.00  0.00    -0.205 F 
ATOM     69  C   UNL A   1      39.590  33.758  37.553  1.00  0.00     0.022 A 
BRANCH  67  70
ATOM     70  S   UNL A   1      37.367  32.411  38.402  1.00  0.00     0.127 S 
ATOM     71  O   UNL A   1      36.325  33.057  37.606  1.00  0.00    -0.237 OA
ATOM     72  O   UNL A   1      37.252  30.955  38.490  1.00  0.00    -0.237 OA
ATOM     73  O   UNL A   1      37.694  33.073  39.657  1.00  0.00    -0.744 OA
ENDBRANCH  67  70
ENDBRANCH  49  63
BRANCH  50  74
ATOM     74  C   UNL A   1      42.308  26.335  27.525  1.00  0.00     0.023 A 
ATOM     75  C   UNL A   1      43.005  26.948  26.466  1.00  0.00     0.012 A 
ATOM     76  C   UNL A   1      41.975  24.970  27.427  1.00  0.00     0.148 A 
ATOM     77  C   UNL A   1      43.331  26.228  25.316  1.00  0.00     0.002 A 
ATOM     78  C   UNL A   1      42.355  24.244  26.305  1.00  0.00     0.091 A 
ATOM     79  F   UNL A   1      41.304  24.406  28.441  1.00  0.00    -0.205 F 
ATOM     80  C   UNL A   1      43.015  24.874  25.239  1.00  0.00     0.022 A 
BRANCH  78  81
ATOM     81  S   UNL A   1      42.109  22.469  26.179  1.00  0.00     0.127 S 
ATOM     82  O   UNL A   1      40.653  22.371  26.116  1.00  0.00    -0.237 OA
ATOM     83  O   UNL A   1      42.804  22.157  24.929  1.00  0.00    -0.237 OA
ATOM     84  O   UNL A   1      42.730  21.900  27.368  1.00  0.00    -0.744 OA
ENDBRANCH  78  81
ENDBRANCH  50  74
BRANCH  62  85
ATOM     85  C   UNL A   1      45.167  26.974  33.867  1.00  0.00     0.023 A 
ATOM     86  C   UNL A   1      46.452  27.541  33.750  1.00  0.00     0.012 A 
ATOM     87  C   UNL A   1      44.988  25.827  34.665  1.00  0.00     0.148 A 
ATOM     88  C   UNL A   1      47.545  26.958  34.390  1.00  0.00     0.002 A 
ATOM     89  C   UNL A   1      46.072  25.282  35.343  1.00  0.00     0.091 A 
ATOM     90  F   UNL A   1      43.762  25.291  34.750  1.00  0.00    -0.205 F 
ATOM     91  C   UNL A   1      47.353  25.837  35.195  1.00  0.00     0.022 A 
BRANCH  89  92
ATOM     92  S   UNL A   1      45.904  23.900  36.479  1.00  0.00     0.127 S 
ATOM     93  O   UNL A   1      47.148  23.989  37.242  1.00  0.00    -0.237 OA
ATOM     94  O   UNL A   1      44.701  24.263  37.230  1.00  0.00    -0.237 OA
ATOM     95  O   UNL A   1      45.763  22.711  35.650  1.00  0.00    -0.744 OA
ENDBRANCH  89  92
ENDBRANCH  62  85
ENDBRANCH  36  37
ENDBRANCH  28  31
ENDBRANCH  26  27
ENDBRANCH  25  26
ENDBRANCH  24  25
ENDBRANCH   1  24
TORSDOF 19
ENDMDL
MODEL 3
REMARK VINA RESULT:     -10.3      5.176      9.996
REMARK SMILES O=C(COc1ccnc(NCc2ccc(Br)cc2)n1)NCCCCNC(=O)c1ccc(-c2c3nc(c(-c4cccc(S(=O)(=O)[O-])c4F)c4ccc([nH]4)c(-c4cccc(S(=O)(=O)[O-])c4F)c4nc(c(-c5cccc(S(=O)(=O)[O-])c5F)c5ccc2[nH]5)C=C4)C=C3)cc1
REMARK SMILES IDX 21 1 20 2 1 3 2 4 3 6 4 7 5 8 6 9 19 10 7 11 9 12 8 13 10 14
REMARK SMILES IDX 11 16 12 17 13 18 18 19 14 20 17 21 15 22 16 23 22 24 23 25
REMARK SMILES IDX 24 26 25 27 26 28 27 30 28 31 29 32 90 33 30 34 89 35 31 36
REMARK SMILES IDX 32 37 33 38 83 39 34 40 88 41 82 42 84 43 35 44 87 45 81 46
REMARK SMILES IDX 80 47 36 49 68 50 48 51 67 52 49 53 52 54 66 55 85 56 50 57
REMARK SMILES IDX 51 58 65 60 86 61 53 62 37 63 38 64 46 65 39 66 41 67 47 68
REMARK SMILES IDX 40 69 42 70 43 71 44 72 45 73 69 74 70 75 78 76 71 77 73 78
REMARK SMILES IDX 79 79 72 80 74 81 75 82 76 83 77 84 54 85 55 86 63 87 56 88
REMARK SMILES IDX 58 89 64 90 57 91 59 92 60 93 61 94 62 95
REMARK H PARENT 20 5 10 15 25 29 84 48 52 59
REMARK Flexibility Score: inf
ROOT
ATOM      1  C   UNL A   1      34.985  34.982  34.330  1.00  0.00     0.116 C 
ENDROOT
BRANCH   1   2
ATOM      2  N   UNL A   1      34.054  35.226  33.248  1.00  0.00    -0.353 N 
ATOM      3  O   UNL A   1      34.022  37.521  33.435  1.00  0.00    -0.271 OA
ATOM      4  C   UNL A   1      33.724  36.499  32.823  1.00  0.00     0.258 C 
ATOM      5  H   UNL A   1      33.641  34.455  32.797  1.00  0.00     0.163 HD
BRANCH   4   6
ATOM      6  C   UNL A   1      33.004  36.529  31.472  1.00  0.00     0.331 C 
BRANCH   6   7
ATOM      7  O   UNL A   1      32.594  35.232  31.033  1.00  0.00    -0.467 OA
BRANCH   7   8
ATOM      8  C   UNL A   1      33.416  34.735  30.049  1.00  0.00     0.218 A 
ATOM      9  C   UNL A   1      33.381  35.257  28.778  1.00  0.00     0.088 A 
ATOM     10  N   UNL A   1      34.321  33.829  30.454  1.00  0.00    -0.177 NA
ATOM     11  C   UNL A   1      34.305  34.745  27.910  1.00  0.00     0.121 A 
ATOM     12  C   UNL A   1      35.203  33.411  29.536  1.00  0.00     0.226 A 
ATOM     13  N   UNL A   1      35.213  33.824  28.262  1.00  0.00    -0.221 NA
BRANCH  12  14
ATOM     14  N   UNL A   1      36.178  32.512  29.847  1.00  0.00    -0.350 N 
ATOM     15  H   UNL A   1      35.938  31.748  30.420  1.00  0.00     0.164 HD
BRANCH  14  16
ATOM     16  C   UNL A   1      37.532  32.613  29.390  1.00  0.00     0.152 C 
BRANCH  16  17
ATOM     17  C   UNL A   1      38.052  31.220  29.123  1.00  0.00    -0.029 A 
ATOM     18  C   UNL A   1      39.399  30.891  29.333  1.00  0.00     0.007 A 
ATOM     19  C   UNL A   1      37.182  30.240  28.618  1.00  0.00     0.007 A 
ATOM     20  C   UNL A   1      39.861  29.600  29.064  1.00  0.00     0.016 A 
ATOM     21  C   UNL A   1      37.642  28.951  28.349  1.00  0.00     0.016 A 
ATOM     22  C   UNL A   1      38.979  28.636  28.577  1.00  0.00     0.017 A 
ATOM     23  Br  UNL A   1      39.603  26.886  28.222  1.00  0.00    -0.051 Br
ENDBRANCH  16  17
ENDBRANCH  14  16
ENDBRANCH  12  14
ENDBRANCH   7   8
ENDBRANCH   6   7
ENDBRANCH   4   6
ENDBRANCH   1   2
BRANCH   1  24
ATOM     24  C   UNL A   1      35.477  33.541  34.395  1.00  0.00     0.023 C 
BRANCH  24  25
ATOM     25  C   UNL A   1      36.977  33.378  34.650  1.00  0.00     0.023 C 
BRANCH  25  26
ATOM     26  C   UNL A   1      37.556  32.000  34.343  1.00  0.00     0.116 C 
BRANCH  26  27
ATOM     27  N   UNL A   1      36.723  31.215  33.444  1.00  0.00    -0.352 N 
ATOM     28  C   UNL A   1      37.081  30.213  32.572  1.00  0.00     0.251 C 
ATOM     29  H   UNL A   1      35.763  31.434  33.462  1.00  0.00     0.163 HD
ATOM     30  O   UNL A   1      36.246  29.763  31.790  1.00  0.00    -0.269 OA
BRANCH  28  31
ATOM     31  C   UNL A   1      38.469  29.697  32.550  1.00  0.00     0.039 A 
ATOM     32  C   UNL A   1      39.527  30.603  32.662  1.00  0.00     0.014 A 
ATOM     33  C   UNL A   1      38.732  28.331  32.423  1.00  0.00     0.014 A 
ATOM     34  C   UNL A   1      40.843  30.132  32.720  1.00  0.00     0.010 A 
ATOM     35  C   UNL A   1      40.037  27.859  32.559  1.00  0.00     0.010 A 
ATOM     36  C   UNL A   1      41.108  28.753  32.710  1.00  0.00    -0.014 A 
BRANCH  36  37
ATOM     37  C   UNL A   1      42.491  28.230  32.877  1.00  0.00     0.031 A 
ATOM     38  C   UNL A   1      43.289  27.774  31.685  1.00  0.00     0.074 A 
ATOM     39  C   UNL A   1      43.002  28.083  34.118  1.00  0.00     0.049 A 
ATOM     40  N   UNL A   1      44.480  27.236  31.645  1.00  0.00    -0.248 NA
ATOM     41  C   UNL A   1      42.655  27.920  30.364  1.00  0.00     0.031 C 
ATOM     42  C   UNL A   1      42.306  28.412  35.364  1.00  0.00     0.029 A 
ATOM     43  N   UNL A   1      44.215  27.593  34.537  1.00  0.00    -0.354 N 
ATOM     44  C   UNL A   1      44.727  26.950  30.308  1.00  0.00     0.074 A 
ATOM     45  C   UNL A   1      43.545  27.342  29.570  1.00  0.00     0.031 C 
ATOM     46  C   UNL A   1      43.100  28.116  36.404  1.00  0.00     0.029 A 
ATOM     47  C   UNL A   1      44.347  27.542  35.906  1.00  0.00     0.049 A 
ATOM     48  H   UNL A   1      44.922  27.303  33.917  1.00  0.00     0.167 HD
ATOM     49  C   UNL A   1      45.844  26.436  29.738  1.00  0.00     0.034 A 
ATOM     50  C   UNL A   1      45.350  27.076  36.677  1.00  0.00     0.034 A 
ATOM     51  C   UNL A   1      47.030  26.075  30.468  1.00  0.00     0.049 A 
ATOM     52  C   UNL A   1      46.588  26.531  36.019  1.00  0.00     0.074 A 
ATOM     53  C   UNL A   1      48.240  25.621  29.972  1.00  0.00     0.029 A 
ATOM     54  N   UNL A   1      47.156  26.116  31.848  1.00  0.00    -0.354 N 
ATOM     55  N   UNL A   1      46.860  26.411  34.742  1.00  0.00    -0.248 NA
ATOM     56  C   UNL A   1      47.675  26.091  36.907  1.00  0.00     0.031 C 
ATOM     57  C   UNL A   1      49.084  25.355  31.054  1.00  0.00     0.029 A 
ATOM     58  C   UNL A   1      48.417  25.682  32.222  1.00  0.00     0.049 A 
ATOM     59  H   UNL A   1      46.451  26.409  32.470  1.00  0.00     0.167 HD
ATOM     60  C   UNL A   1      48.159  25.918  34.674  1.00  0.00     0.074 A 
ATOM     61  C   UNL A   1      48.626  25.783  36.037  1.00  0.00     0.031 C 
ATOM     62  C   UNL A   1      48.892  25.597  33.579  1.00  0.00     0.034 A 
BRANCH  49  63
ATOM     63  C   UNL A   1      45.855  26.275  28.239  1.00  0.00     0.023 A 
ATOM     64  C   UNL A   1      46.295  27.341  27.427  1.00  0.00     0.012 A 
ATOM     65  C   UNL A   1      45.491  25.055  27.637  1.00  0.00     0.148 A 
ATOM     66  C   UNL A   1      46.335  27.210  26.039  1.00  0.00     0.002 A 
ATOM     67  C   UNL A   1      45.579  24.915  26.256  1.00  0.00     0.091 A 
ATOM     68  F   UNL A   1      45.058  24.058  28.422  1.00  0.00    -0.205 F 
ATOM     69  C   UNL A   1      45.988  25.994  25.457  1.00  0.00     0.022 A 
BRANCH  67  70
ATOM     70  S   UNL A   1      45.233  23.367  25.413  1.00  0.00     0.127 S 
ATOM     71  O   UNL A   1      46.341  22.529  25.869  1.00  0.00    -0.237 OA
ATOM     72  O   UNL A   1      43.927  23.004  25.965  1.00  0.00    -0.237 OA
ATOM     73  O   UNL A   1      45.229  23.676  23.990  1.00  0.00    -0.744 OA
ENDBRANCH  67  70
ENDBRANCH  49  63
BRANCH  50  74
ATOM     74  C   UNL A   1      45.241  27.143  38.162  1.00  0.00     0.023 A 
ATOM     75  C   UNL A   1      44.712  26.048  38.872  1.00  0.00     0.012 A 
ATOM     76  C   UNL A   1      45.675  28.277  38.875  1.00  0.00     0.148 A 
ATOM     77  C   UNL A   1      44.583  26.095  40.261  1.00  0.00     0.002 A 
ATOM     78  C   UNL A   1      45.601  28.294  40.262  1.00  0.00     0.091 A 
ATOM     79  F   UNL A   1      46.167  29.313  38.181  1.00  0.00    -0.205 F 
ATOM     80  C   UNL A   1      45.036  27.212  40.957  1.00  0.00     0.022 A 
BRANCH  78  81
ATOM     81  S   UNL A   1      46.281  29.632  41.248  1.00  0.00     0.127 S 
ATOM     82  O   UNL A   1      45.790  29.302  42.583  1.00  0.00    -0.237 OA
ATOM     83  O   UNL A   1      47.720  29.446  41.055  1.00  0.00    -0.237 OA
ATOM     84  O   UNL A   1      45.752  30.858  40.665  1.00  0.00    -0.744 OA
ENDBRANCH  78  81
ENDBRANCH  50  74
BRANCH  62  85
ATOM     85  C   UNL A   1      50.300  25.106  33.798  1.00  0.00     0.023 A 
ATOM     86  C   UNL A   1      51.350  26.028  33.980  1.00  0.00     0.012 A 
ATOM     87  C   UNL A   1      50.569  23.726  33.892  1.00  0.00     0.148 A 
ATOM     88  C   UNL A   1      52.651  25.584  34.218  1.00  0.00     0.002 A 
ATOM     89  C   UNL A   1      51.857  23.292  34.182  1.00  0.00     0.091 A 
ATOM     90  F   UNL A   1      49.560  22.864  33.699  1.00  0.00    -0.205 F 
ATOM     91  C   UNL A   1      52.901  24.218  34.330  1.00  0.00     0.022 A 
BRANCH  89  92
ATOM     92  S   UNL A   1      52.254  21.559  34.443  1.00  0.00     0.127 S 
ATOM     93  O   UNL A   1      51.973  20.988  33.127  1.00  0.00    -0.237 OA
ATOM     94  O   UNL A   1      53.675  21.617  34.791  1.00  0.00    -0.237 OA
ATOM     95  O   UNL A   1      51.386  21.104  35.520  1.00  0.00    -0.744 OA
ENDBRANCH  89  92
ENDBRANCH  62  85
ENDBRANCH  36  37
ENDBRANCH  28  31
ENDBRANCH  26  27
ENDBRANCH  25  26
ENDBRANCH  24  25
ENDBRANCH   1  24
TORSDOF 19
ENDMDL
