MODEL 1
REMARK VINA RESULT:     -10.5      0.000      0.000
REMARK SMILES CC(C)[C@@H](CO)Nc1ccc(C(=O)NCCCCNC(=O)c2ccc(-c3c4nc(c(-c5cccc(S(=O)(=O)[O-])c5F)c5ccc([nH]5)c(-c5cccc(S(=O)(=O)[O-])c5F)c5nc(c(-c6cccc(S(=O)(=O)[O-])c6F)c6ccc3[nH]6)C=C5)C=C4)cc2)nn1
REMARK SMILES IDX 16 1 15 2 14 3 12 4 13 5 11 7 8 8 9 9 86 10 10 11 85 12 7 13
REMARK SMILES IDX 4 15 2 16 1 17 3 18 5 19 6 20 17 22 18 23 19 24 20 25 21 27
REMARK SMILES IDX 22 28 23 29 84 30 24 31 83 32 25 33 26 34 27 35 77 36 28 37
REMARK SMILES IDX 82 38 76 39 78 40 29 41 81 42 75 43 74 44 30 46 62 47 42 48
REMARK SMILES IDX 61 49 43 50 46 51 60 52 79 53 44 54 45 55 59 57 80 58 47 59
REMARK SMILES IDX 31 60 32 61 40 62 33 63 35 64 41 65 34 66 36 67 37 68 38 69
REMARK SMILES IDX 39 70 63 71 64 72 72 73 65 74 67 75 73 76 66 77 68 78 69 79
REMARK SMILES IDX 70 80 71 81 48 82 49 83 57 84 50 85 52 86 58 87 51 88 53 89
REMARK SMILES IDX 54 90 55 91 56 92
REMARK H PARENT 14 6 7 14 6 21 19 26 78 45 46 56
REMARK Flexibility Score: inf
ROOT
ATOM      1  C   UNL A   1      32.296  26.789  26.721  1.00  0.00     0.023 C 
ENDROOT
BRANCH   1   2
ATOM      2  C   UNL A   1      31.121  26.441  25.805  1.00  0.00     0.116 C 
BRANCH   2   3
ATOM      3  N   UNL A   1      30.283  25.415  26.394  1.00  0.00    -0.351 N 
ATOM      4  C   UNL A   1      30.524  24.100  26.731  1.00  0.00     0.271 C 
ATOM      5  O   UNL A   1      29.614  23.500  27.304  1.00  0.00    -0.267 OA
ATOM      6  H   UNL A   1      29.367  25.716  26.594  1.00  0.00     0.163 HD
BRANCH   4   7
ATOM      7  C   UNL A   1      31.818  23.392  26.462  1.00  0.00     0.150 A 
ATOM      8  C   UNL A   1      34.271  22.134  26.250  1.00  0.00     0.148 A 
ATOM      9  C   UNL A   1      33.505  22.346  25.117  1.00  0.00     0.051 A 
ATOM     10  N   UNL A   1      33.790  22.503  27.448  1.00  0.00    -0.132 NA
ATOM     11  C   UNL A   1      32.253  22.955  25.226  1.00  0.00     0.040 A 
ATOM     12  N   UNL A   1      32.570  23.153  27.559  1.00  0.00    -0.143 NA
BRANCH   8  13
ATOM     13  N   UNL A   1      35.527  21.562  26.208  1.00  0.00    -0.363 N 
ATOM     14  H   UNL A   1      36.023  21.412  27.045  1.00  0.00     0.162 HD
BRANCH  13  15
ATOM     15  C   UNL A   1      36.124  21.178  24.927  1.00  0.00     0.108 C 
BRANCH  15  16
ATOM     16  C   UNL A   1      37.187  22.242  24.522  1.00  0.00     0.007 C 
ATOM     17  C   UNL A   1      36.626  23.264  23.528  1.00  0.00     0.009 C 
ATOM     18  C   UNL A   1      37.725  23.001  25.747  1.00  0.00     0.009 C 
ENDBRANCH  15  16
BRANCH  15  19
ATOM     19  C   UNL A   1      36.689  19.738  25.040  1.00  0.00     0.181 C 
BRANCH  19  20
ATOM     20  O   UNL A   1      38.066  19.624  24.691  1.00  0.00    -0.394 OA
ATOM     21  H   UNL A   1      38.256  20.201  23.935  1.00  0.00     0.210 HD
ENDBRANCH  19  20
ENDBRANCH  15  19
ENDBRANCH  13  15
ENDBRANCH   8  13
ENDBRANCH   4   7
ENDBRANCH   2   3
ENDBRANCH   1   2
BRANCH   1  22
ATOM     22  C   UNL A   1      32.334  28.246  27.188  1.00  0.00     0.023 C 
BRANCH  22  23
ATOM     23  C   UNL A   1      33.503  29.072  26.657  1.00  0.00     0.116 C 
BRANCH  23  24
ATOM     24  N   UNL A   1      33.529  30.438  27.166  1.00  0.00    -0.352 N 
ATOM     25  C   UNL A   1      34.501  31.048  27.926  1.00  0.00     0.251 C 
ATOM     26  H   UNL A   1      32.752  30.996  26.934  1.00  0.00     0.163 HD
ATOM     27  O   UNL A   1      34.336  32.186  28.345  1.00  0.00    -0.269 OA
BRANCH  25  28
ATOM     28  C   UNL A   1      35.724  30.291  28.266  1.00  0.00     0.039 A 
ATOM     29  C   UNL A   1      36.806  30.331  27.384  1.00  0.00     0.014 A 
ATOM     30  C   UNL A   1      35.822  29.603  29.478  1.00  0.00     0.014 A 
ATOM     31  C   UNL A   1      38.021  29.754  27.758  1.00  0.00     0.010 A 
ATOM     32  C   UNL A   1      37.049  29.080  29.874  1.00  0.00     0.010 A 
ATOM     33  C   UNL A   1      38.163  29.165  29.025  1.00  0.00    -0.014 A 
BRANCH  33  34
ATOM     34  C   UNL A   1      39.483  28.692  29.511  1.00  0.00     0.031 A 
ATOM     35  C   UNL A   1      40.207  29.434  30.599  1.00  0.00     0.074 A 
ATOM     36  C   UNL A   1      40.078  27.654  28.889  1.00  0.00     0.049 A 
ATOM     37  N   UNL A   1      41.393  29.206  31.100  1.00  0.00    -0.248 NA
ATOM     38  C   UNL A   1      39.522  30.600  31.180  1.00  0.00     0.031 C 
ATOM     39  C   UNL A   1      39.515  26.911  27.759  1.00  0.00     0.029 A 
ATOM     40  N   UNL A   1      41.301  27.065  29.095  1.00  0.00    -0.354 N 
ATOM     41  C   UNL A   1      41.612  30.213  32.031  1.00  0.00     0.074 A 
ATOM     42  C   UNL A   1      40.447  31.072  32.006  1.00  0.00     0.031 C 
ATOM     43  C   UNL A   1      40.389  25.969  27.372  1.00  0.00     0.029 A 
ATOM     44  C   UNL A   1      41.582  26.054  28.206  1.00  0.00     0.049 A 
ATOM     45  H   UNL A   1      41.917  27.342  29.811  1.00  0.00     0.167 HD
ATOM     46  C   UNL A   1      42.671  30.389  32.854  1.00  0.00     0.034 A 
ATOM     47  C   UNL A   1      42.682  25.286  28.075  1.00  0.00     0.034 A 
ATOM     48  C   UNL A   1      43.805  29.507  32.912  1.00  0.00     0.049 A 
ATOM     49  C   UNL A   1      43.826  25.475  29.034  1.00  0.00     0.074 A 
ATOM     50  C   UNL A   1      44.878  29.539  33.785  1.00  0.00     0.029 A 
ATOM     51  N   UNL A   1      44.016  28.434  32.059  1.00  0.00    -0.354 N 
ATOM     52  N   UNL A   1      43.933  26.320  30.030  1.00  0.00    -0.248 NA
ATOM     53  C   UNL A   1      44.983  24.584  28.874  1.00  0.00     0.031 C 
ATOM     54  C   UNL A   1      45.745  28.493  33.451  1.00  0.00     0.029 A 
ATOM     55  C   UNL A   1      45.207  27.804  32.377  1.00  0.00     0.049 A 
ATOM     56  H   UNL A   1      43.409  28.161  31.334  1.00  0.00     0.167 HD
ATOM     57  C   UNL A   1      45.157  26.047  30.631  1.00  0.00     0.074 A 
ATOM     58  C   UNL A   1      45.741  24.938  29.903  1.00  0.00     0.031 C 
ATOM     59  C   UNL A   1      45.752  26.669  31.677  1.00  0.00     0.034 A 
BRANCH  46  60
ATOM     60  C   UNL A   1      42.622  31.546  33.817  1.00  0.00     0.023 A 
ATOM     61  C   UNL A   1      43.102  32.806  33.402  1.00  0.00     0.012 A 
ATOM     62  C   UNL A   1      42.050  31.409  35.096  1.00  0.00     0.148 A 
ATOM     63  C   UNL A   1      43.038  33.906  34.256  1.00  0.00     0.002 A 
ATOM     64  C   UNL A   1      41.957  32.520  35.928  1.00  0.00     0.091 A 
ATOM     65  F   UNL A   1      41.622  30.198  35.481  1.00  0.00    -0.205 F 
ATOM     66  C   UNL A   1      42.457  33.766  35.513  1.00  0.00     0.022 A 
BRANCH  64  67
ATOM     67  S   UNL A   1      41.163  32.458  37.539  1.00  0.00     0.127 S 
ATOM     68  O   UNL A   1      41.156  33.870  37.918  1.00  0.00    -0.237 OA
ATOM     69  O   UNL A   1      39.846  31.909  37.214  1.00  0.00    -0.237 OA
ATOM     70  O   UNL A   1      41.995  31.590  38.361  1.00  0.00    -0.744 OA
ENDBRANCH  64  67
ENDBRANCH  46  60
BRANCH  47  71
ATOM     71  C   UNL A   1      42.720  24.215  27.039  1.00  0.00     0.023 A 
ATOM     72  C   UNL A   1      43.439  24.437  25.849  1.00  0.00     0.012 A 
ATOM     73  C   UNL A   1      42.086  22.974  27.237  1.00  0.00     0.148 A 
ATOM     74  C   UNL A   1      43.504  23.453  24.862  1.00  0.00     0.002 A 
ATOM     75  C   UNL A   1      42.198  21.979  26.272  1.00  0.00     0.091 A 
ATOM     76  F   UNL A   1      41.391  22.786  28.368  1.00  0.00    -0.205 F 
ATOM     77  C   UNL A   1      42.894  22.221  25.078  1.00  0.00     0.022 A 
BRANCH  75  78
ATOM     78  S   UNL A   1      41.559  20.320  26.535  1.00  0.00     0.127 S 
ATOM     79  O   UNL A   1      42.135  19.979  27.832  1.00  0.00    -0.237 OA
ATOM     80  O   UNL A   1      40.113  20.546  26.542  1.00  0.00    -0.237 OA
ATOM     81  O   UNL A   1      42.033  19.541  25.398  1.00  0.00    -0.744 OA
ENDBRANCH  75  78
ENDBRANCH  47  71
BRANCH  59  82
ATOM     82  C   UNL A   1      47.101  26.164  32.112  1.00  0.00     0.023 A 
ATOM     83  C   UNL A   1      48.261  26.660  31.484  1.00  0.00     0.012 A 
ATOM     84  C   UNL A   1      47.227  25.263  33.187  1.00  0.00     0.148 A 
ATOM     85  C   UNL A   1      49.525  26.247  31.902  1.00  0.00     0.002 A 
ATOM     86  C   UNL A   1      48.492  24.889  33.626  1.00  0.00     0.091 A 
ATOM     87  F   UNL A   1      46.111  24.786  33.757  1.00  0.00    -0.205 F 
ATOM     88  C   UNL A   1      49.641  25.373  32.979  1.00  0.00     0.022 A 
BRANCH  86  89
ATOM     89  S   UNL A   1      48.737  23.837  35.062  1.00  0.00     0.127 S 
ATOM     90  O   UNL A   1      50.195  23.759  35.130  1.00  0.00    -0.237 OA
ATOM     91  O   UNL A   1      48.117  24.619  36.133  1.00  0.00    -0.237 OA
ATOM     92  O   UNL A   1      48.054  22.586  34.760  1.00  0.00    -0.744 OA
ENDBRANCH  86  89
ENDBRANCH  59  82
ENDBRANCH  33  34
ENDBRANCH  25  28
ENDBRANCH  23  24
ENDBRANCH  22  23
ENDBRANCH   1  22
TORSDOF 19
ENDMDL
MODEL 2
REMARK VINA RESULT:     -10.4      2.608      3.465
REMARK SMILES CC(C)[C@@H](CO)Nc1ccc(C(=O)NCCCCNC(=O)c2ccc(-c3c4nc(c(-c5cccc(S(=O)(=O)[O-])c5F)c5ccc([nH]5)c(-c5cccc(S(=O)(=O)[O-])c5F)c5nc(c(-c6cccc(S(=O)(=O)[O-])c6F)c6ccc3[nH]6)C=C5)C=C4)cc2)nn1
REMARK SMILES IDX 16 1 15 2 14 3 12 4 13 5 11 7 8 8 9 9 86 10 10 11 85 12 7 13
REMARK SMILES IDX 4 15 2 16 1 17 3 18 5 19 6 20 17 22 18 23 19 24 20 25 21 27
REMARK SMILES IDX 22 28 23 29 84 30 24 31 83 32 25 33 26 34 27 35 77 36 28 37
REMARK SMILES IDX 82 38 76 39 78 40 29 41 81 42 75 43 74 44 30 46 62 47 42 48
REMARK SMILES IDX 61 49 43 50 46 51 60 52 79 53 44 54 45 55 59 57 80 58 47 59
REMARK SMILES IDX 31 60 32 61 40 62 33 63 35 64 41 65 34 66 36 67 37 68 38 69
REMARK SMILES IDX 39 70 63 71 64 72 72 73 65 74 67 75 73 76 66 77 68 78 69 79
REMARK SMILES IDX 70 80 71 81 48 82 49 83 57 84 50 85 52 86 58 87 51 88 53 89
REMARK SMILES IDX 54 90 55 91 56 92
REMARK H PARENT 14 6 7 14 6 21 19 26 78 45 46 56
REMARK Flexibility Score: inf
ROOT
ATOM      1  C   UNL A   1      33.213  28.903  24.838  1.00  0.00     0.023 C 
ENDROOT
BRANCH   1   2
ATOM      2  C   UNL A   1      33.474  28.961  23.331  1.00  0.00     0.116 C 
BRANCH   2   3
ATOM      3  N   UNL A   1      32.290  28.596  22.579  1.00  0.00    -0.351 N 
ATOM      4  C   UNL A   1      31.710  27.377  22.296  1.00  0.00     0.271 C 
ATOM      5  O   UNL A   1      30.638  27.403  21.690  1.00  0.00    -0.267 OA
ATOM      6  H   UNL A   1      31.807  29.365  22.199  1.00  0.00     0.163 HD
BRANCH   4   7
ATOM      7  C   UNL A   1      32.293  26.059  22.703  1.00  0.00     0.150 A 
ATOM      8  C   UNL A   1      33.609  23.700  23.298  1.00  0.00     0.148 A 
ATOM      9  C   UNL A   1      32.292  23.872  23.687  1.00  0.00     0.051 A 
ATOM     10  N   UNL A   1      34.247  24.704  22.675  1.00  0.00    -0.132 NA
ATOM     11  C   UNL A   1      31.635  25.073  23.413  1.00  0.00     0.040 A 
ATOM     12  N   UNL A   1      33.587  25.881  22.355  1.00  0.00    -0.143 NA
BRANCH   8  13
ATOM     13  N   UNL A   1      34.307  22.529  23.515  1.00  0.00    -0.363 N 
ATOM     14  H   UNL A   1      34.054  21.712  23.026  1.00  0.00     0.162 HD
BRANCH  13  15
ATOM     15  C   UNL A   1      35.420  22.494  24.466  1.00  0.00     0.108 C 
BRANCH  15  16
ATOM     16  C   UNL A   1      35.191  21.329  25.474  1.00  0.00     0.007 C 
ATOM     17  C   UNL A   1      34.562  21.818  26.782  1.00  0.00     0.009 C 
ATOM     18  C   UNL A   1      34.290  20.234  24.879  1.00  0.00     0.009 C 
ENDBRANCH  15  16
BRANCH  15  19
ATOM     19  C   UNL A   1      36.756  22.395  23.683  1.00  0.00     0.181 C 
BRANCH  19  20
ATOM     20  O   UNL A   1      36.723  23.011  22.398  1.00  0.00    -0.394 OA
ATOM     21  H   UNL A   1      36.316  22.404  21.760  1.00  0.00     0.210 HD
ENDBRANCH  19  20
ENDBRANCH  15  19
ENDBRANCH  13  15
ENDBRANCH   8  13
ENDBRANCH   4   7
ENDBRANCH   2   3
ENDBRANCH   1   2
BRANCH   1  22
ATOM     22  C   UNL A   1      32.064  29.791  25.323  1.00  0.00     0.023 C 
BRANCH  22  23
ATOM     23  C   UNL A   1      32.176  30.273  26.767  1.00  0.00     0.116 C 
BRANCH  23  24
ATOM     24  N   UNL A   1      32.194  31.725  26.897  1.00  0.00    -0.352 N 
ATOM     25  C   UNL A   1      33.190  32.525  27.410  1.00  0.00     0.251 C 
ATOM     26  H   UNL A   1      31.390  32.193  26.575  1.00  0.00     0.163 HD
ATOM     27  O   UNL A   1      33.018  33.730  27.525  1.00  0.00    -0.269 OA
BRANCH  25  28
ATOM     28  C   UNL A   1      34.450  31.898  27.862  1.00  0.00     0.039 A 
ATOM     29  C   UNL A   1      35.587  32.698  27.995  1.00  0.00     0.014 A 
ATOM     30  C   UNL A   1      34.487  30.547  28.213  1.00  0.00     0.014 A 
ATOM     31  C   UNL A   1      36.742  32.161  28.568  1.00  0.00     0.010 A 
ATOM     32  C   UNL A   1      35.619  30.030  28.836  1.00  0.00     0.010 A 
ATOM     33  C   UNL A   1      36.750  30.836  29.034  1.00  0.00    -0.014 A 
BRANCH  33  34
ATOM     34  C   UNL A   1      37.905  30.293  29.792  1.00  0.00     0.031 A 
ATOM     35  C   UNL A   1      38.185  30.756  31.193  1.00  0.00     0.074 A 
ATOM     36  C   UNL A   1      38.766  29.463  29.169  1.00  0.00     0.049 A 
ATOM     37  N   UNL A   1      39.181  30.442  31.979  1.00  0.00    -0.248 NA
ATOM     38  C   UNL A   1      37.236  31.717  31.779  1.00  0.00     0.031 C 
ATOM     39  C   UNL A   1      38.652  29.015  27.778  1.00  0.00     0.029 A 
ATOM     40  N   UNL A   1      39.926  28.876  29.611  1.00  0.00    -0.354 N 
ATOM     41  C   UNL A   1      39.001  31.186  33.137  1.00  0.00     0.074 A 
ATOM     42  C   UNL A   1      37.814  31.991  32.942  1.00  0.00     0.031 C 
ATOM     43  C   UNL A   1      39.698  28.226  27.483  1.00  0.00     0.029 A 
ATOM     44  C   UNL A   1      40.568  28.131  28.650  1.00  0.00     0.049 A 
ATOM     45  H   UNL A   1      40.264  28.979  30.529  1.00  0.00     0.167 HD
ATOM     46  C   UNL A   1      39.739  31.178  34.272  1.00  0.00     0.034 A 
ATOM     47  C   UNL A   1      41.731  27.452  28.701  1.00  0.00     0.034 A 
ATOM     48  C   UNL A   1      40.889  30.342  34.481  1.00  0.00     0.049 A 
ATOM     49  C   UNL A   1      42.506  27.425  29.990  1.00  0.00     0.074 A 
ATOM     50  C   UNL A   1      41.639  30.182  35.633  1.00  0.00     0.029 A 
ATOM     51  N   UNL A   1      41.461  29.526  33.517  1.00  0.00    -0.354 N 
ATOM     52  N   UNL A   1      42.218  27.993  31.135  1.00  0.00    -0.248 NA
ATOM     53  C   UNL A   1      43.746  26.636  30.005  1.00  0.00     0.031 C 
ATOM     54  C   UNL A   1      42.673  29.280  35.360  1.00  0.00     0.029 A 
ATOM     55  C   UNL A   1      42.560  28.869  34.042  1.00  0.00     0.049 A 
ATOM     56  H   UNL A   1      41.133  29.429  32.594  1.00  0.00     0.167 HD
ATOM     57  C   UNL A   1      43.226  27.611  32.014  1.00  0.00     0.074 A 
ATOM     58  C   UNL A   1      44.116  26.739  31.274  1.00  0.00     0.031 C 
ATOM     59  C   UNL A   1      43.408  27.964  33.309  1.00  0.00     0.034 A 
BRANCH  46  60
ATOM     60  C   UNL A   1      39.279  32.052  35.410  1.00  0.00     0.023 A 
ATOM     61  C   UNL A   1      38.372  31.529  36.354  1.00  0.00     0.012 A 
ATOM     62  C   UNL A   1      39.786  33.353  35.583  1.00  0.00     0.148 A 
ATOM     63  C   UNL A   1      37.954  32.298  37.438  1.00  0.00     0.002 A 
ATOM     64  C   UNL A   1      39.393  34.101  36.688  1.00  0.00     0.091 A 
ATOM     65  F   UNL A   1      40.629  33.841  34.661  1.00  0.00    -0.205 F 
ATOM     66  C   UNL A   1      38.472  33.578  37.611  1.00  0.00     0.022 A 
BRANCH  64  67
ATOM     67  S   UNL A   1      40.056  35.734  37.036  1.00  0.00     0.127 S 
ATOM     68  O   UNL A   1      39.399  36.055  38.302  1.00  0.00    -0.237 OA
ATOM     69  O   UNL A   1      41.491  35.469  37.145  1.00  0.00    -0.237 OA
ATOM     70  O   UNL A   1      39.679  36.568  35.903  1.00  0.00    -0.744 OA
ENDBRANCH  64  67
ENDBRANCH  46  60
BRANCH  47  71
ATOM     71  C   UNL A   1      42.193  26.680  27.513  1.00  0.00     0.023 A 
ATOM     72  C   UNL A   1      42.932  27.339  26.511  1.00  0.00     0.012 A 
ATOM     73  C   UNL A   1      41.940  25.301  27.385  1.00  0.00     0.148 A 
ATOM     74  C   UNL A   1      43.389  26.644  25.391  1.00  0.00     0.002 A 
ATOM     75  C   UNL A   1      42.443  24.604  26.292  1.00  0.00     0.091 A 
ATOM     76  F   UNL A   1      41.221  24.694  28.340  1.00  0.00    -0.205 F 
ATOM     77  C   UNL A   1      43.155  25.276  25.286  1.00  0.00     0.022 A 
BRANCH  75  78
ATOM     78  S   UNL A   1      42.304  22.818  26.153  1.00  0.00     0.127 S 
ATOM     79  O   UNL A   1      43.042  22.368  27.329  1.00  0.00    -0.237 OA
ATOM     80  O   UNL A   1      40.856  22.617  26.219  1.00  0.00    -0.237 OA
ATOM     81  O   UNL A   1      42.891  22.486  24.862  1.00  0.00    -0.744 OA
ENDBRANCH  75  78
ENDBRANCH  47  71
BRANCH  59  82
ATOM     82  C   UNL A   1      44.610  27.404  34.022  1.00  0.00     0.023 A 
ATOM     83  C   UNL A   1      45.833  28.101  33.969  1.00  0.00     0.012 A 
ATOM     84  C   UNL A   1      44.511  26.237  34.803  1.00  0.00     0.148 A 
ATOM     85  C   UNL A   1      46.947  27.631  34.661  1.00  0.00     0.002 A 
ATOM     86  C   UNL A   1      45.614  25.797  35.526  1.00  0.00     0.091 A 
ATOM     87  F   UNL A   1      43.344  25.577  34.824  1.00  0.00    -0.205 F 
ATOM     88  C   UNL A   1      46.835  26.487  35.449  1.00  0.00     0.022 A 
BRANCH  86  89
ATOM     89  S   UNL A   1      45.535  24.385  36.635  1.00  0.00     0.127 S 
ATOM     90  O   UNL A   1      44.287  24.640  37.353  1.00  0.00    -0.237 OA
ATOM     91  O   UNL A   1      45.483  23.258  35.703  1.00  0.00    -0.237 OA
ATOM     92  O   UNL A   1      46.747  24.444  37.440  1.00  0.00    -0.744 OA
ENDBRANCH  86  89
ENDBRANCH  59  82
ENDBRANCH  33  34
ENDBRANCH  25  28
ENDBRANCH  23  24
ENDBRANCH  22  23
ENDBRANCH   1  22
TORSDOF 19
ENDMDL
MODEL 3
REMARK VINA RESULT:     -10.3      5.316      8.180
REMARK SMILES CC(C)[C@@H](CO)Nc1ccc(C(=O)NCCCCNC(=O)c2ccc(-c3c4nc(c(-c5cccc(S(=O)(=O)[O-])c5F)c5ccc([nH]5)c(-c5cccc(S(=O)(=O)[O-])c5F)c5nc(c(-c6cccc(S(=O)(=O)[O-])c6F)c6ccc3[nH]6)C=C5)C=C4)cc2)nn1
REMARK SMILES IDX 16 1 15 2 14 3 12 4 13 5 11 7 8 8 9 9 86 10 10 11 85 12 7 13
REMARK SMILES IDX 4 15 2 16 1 17 3 18 5 19 6 20 17 22 18 23 19 24 20 25 21 27
REMARK SMILES IDX 22 28 23 29 84 30 24 31 83 32 25 33 26 34 27 35 77 36 28 37
REMARK SMILES IDX 82 38 76 39 78 40 29 41 81 42 75 43 74 44 30 46 62 47 42 48
REMARK SMILES IDX 61 49 43 50 46 51 60 52 79 53 44 54 45 55 59 57 80 58 47 59
REMARK SMILES IDX 31 60 32 61 40 62 33 63 35 64 41 65 34 66 36 67 37 68 38 69
REMARK SMILES IDX 39 70 63 71 64 72 72 73 65 74 67 75 73 76 66 77 68 78 69 79
REMARK SMILES IDX 70 80 71 81 48 82 49 83 57 84 50 85 52 86 58 87 51 88 53 89
REMARK SMILES IDX 54 90 55 91 56 92
REMARK H PARENT 14 6 7 14 6 21 19 26 78 45 46 56
REMARK Flexibility Score: inf
ROOT
ATOM      1  C   UNL A   1      36.347  23.012  24.214  1.00  0.00     0.023 C 
ENDROOT
BRANCH   1   2
ATOM      2  C   UNL A   1      35.199  22.911  23.208  1.00  0.00     0.116 C 
BRANCH   2   3
ATOM      3  N   UNL A   1      33.966  23.431  23.765  1.00  0.00    -0.351 N 
ATOM      4  C   UNL A   1      32.943  22.834  24.470  1.00  0.00     0.271 C 
ATOM      5  O   UNL A   1      32.052  23.576  24.887  1.00  0.00    -0.267 OA
ATOM      6  H   UNL A   1      33.835  24.394  23.611  1.00  0.00     0.163 HD
BRANCH   4   7
ATOM      7  C   UNL A   1      32.878  21.367  24.769  1.00  0.00     0.150 A 
ATOM      8  C   UNL A   1      32.937  18.714  25.549  1.00  0.00     0.148 A 
ATOM      9  C   UNL A   1      32.308  19.072  24.369  1.00  0.00     0.051 A 
ATOM     10  N   UNL A   1      33.473  19.670  26.325  1.00  0.00    -0.132 NA
ATOM     11  C   UNL A   1      32.252  20.415  23.989  1.00  0.00     0.040 A 
ATOM     12  N   UNL A   1      33.465  20.999  25.930  1.00  0.00    -0.143 NA
BRANCH   8  13
ATOM     13  N   UNL A   1      33.051  17.405  25.969  1.00  0.00    -0.363 N 
ATOM     14  H   UNL A   1      33.252  17.210  26.913  1.00  0.00     0.162 HD
BRANCH  13  15
ATOM     15  C   UNL A   1      32.875  16.303  25.020  1.00  0.00     0.108 C 
BRANCH  15  16
ATOM     16  C   UNL A   1      34.253  15.955  24.383  1.00  0.00     0.007 C 
ATOM     17  C   UNL A   1      34.482  16.706  23.067  1.00  0.00     0.009 C 
ATOM     18  C   UNL A   1      35.416  16.279  25.336  1.00  0.00     0.009 C 
ENDBRANCH  15  16
BRANCH  15  19
ATOM     19  C   UNL A   1      32.198  15.110  25.744  1.00  0.00     0.181 C 
BRANCH  19  20
ATOM     20  O   UNL A   1      32.904  13.878  25.618  1.00  0.00    -0.394 OA
ATOM     21  H   UNL A   1      33.701  13.904  26.171  1.00  0.00     0.210 HD
ENDBRANCH  19  20
ENDBRANCH  15  19
ENDBRANCH  13  15
ENDBRANCH   8  13
ENDBRANCH   4   7
ENDBRANCH   2   3
ENDBRANCH   1   2
BRANCH   1  22
ATOM     22  C   UNL A   1      37.201  21.748  24.342  1.00  0.00     0.023 C 
BRANCH  22  23
ATOM     23  C   UNL A   1      38.066  21.667  25.597  1.00  0.00     0.116 C 
BRANCH  23  24
ATOM     24  N   UNL A   1      38.830  20.431  25.699  1.00  0.00    -0.352 N 
ATOM     25  C   UNL A   1      40.144  20.267  26.074  1.00  0.00     0.251 C 
ATOM     26  H   UNL A   1      38.342  19.606  25.472  1.00  0.00     0.163 HD
ATOM     27  O   UNL A   1      40.667  19.162  26.031  1.00  0.00    -0.269 OA
BRANCH  25  28
ATOM     28  C   UNL A   1      40.925  21.453  26.483  1.00  0.00     0.039 A 
ATOM     29  C   UNL A   1      41.622  22.168  25.505  1.00  0.00     0.014 A 
ATOM     30  C   UNL A   1      40.913  21.891  27.809  1.00  0.00     0.014 A 
ATOM     31  C   UNL A   1      42.235  23.376  25.843  1.00  0.00     0.010 A 
ATOM     32  C   UNL A   1      41.475  23.122  28.131  1.00  0.00     0.010 A 
ATOM     33  C   UNL A   1      42.127  23.884  27.148  1.00  0.00    -0.014 A 
BRANCH  33  34
ATOM     34  C   UNL A   1      42.627  25.238  27.492  1.00  0.00     0.031 A 
ATOM     35  C   UNL A   1      41.710  26.257  28.109  1.00  0.00     0.074 A 
ATOM     36  C   UNL A   1      43.883  25.582  27.143  1.00  0.00     0.049 A 
ATOM     37  N   UNL A   1      41.954  27.504  28.413  1.00  0.00    -0.248 NA
ATOM     38  C   UNL A   1      40.332  25.826  28.396  1.00  0.00     0.031 C 
ATOM     39  C   UNL A   1      44.838  24.709  26.456  1.00  0.00     0.029 A 
ATOM     40  N   UNL A   1      44.562  26.767  27.286  1.00  0.00    -0.354 N 
ATOM     41  C   UNL A   1      40.759  28.018  28.897  1.00  0.00     0.074 A 
ATOM     42  C   UNL A   1      39.780  26.955  28.820  1.00  0.00     0.031 C 
ATOM     43  C   UNL A   1      45.975  25.387  26.236  1.00  0.00     0.029 A 
ATOM     44  C   UNL A   1      45.825  26.747  26.743  1.00  0.00     0.049 A 
ATOM     45  H   UNL A   1      44.179  27.555  27.734  1.00  0.00     0.167 HD
ATOM     46  C   UNL A   1      40.506  29.253  29.390  1.00  0.00     0.034 A 
ATOM     47  C   UNL A   1      46.757  27.717  26.658  1.00  0.00     0.034 A 
ATOM     48  C   UNL A   1      41.493  30.292  29.510  1.00  0.00     0.049 A 
ATOM     49  C   UNL A   1      46.463  29.067  27.255  1.00  0.00     0.074 A 
ATOM     50  C   UNL A   1      41.362  31.540  30.094  1.00  0.00     0.029 A 
ATOM     51  N   UNL A   1      42.793  30.208  29.035  1.00  0.00    -0.354 N 
ATOM     52  N   UNL A   1      45.383  29.475  27.875  1.00  0.00    -0.248 NA
ATOM     53  C   UNL A   1      47.527  30.076  27.173  1.00  0.00     0.031 C 
ATOM     54  C   UNL A   1      42.580  32.215  29.960  1.00  0.00     0.029 A 
ATOM     55  C   UNL A   1      43.471  31.384  29.302  1.00  0.00     0.049 A 
ATOM     56  H   UNL A   1      43.176  29.426  28.575  1.00  0.00     0.167 HD
ATOM     57  C   UNL A   1      45.646  30.779  28.278  1.00  0.00     0.074 A 
ATOM     58  C   UNL A   1      46.999  31.082  27.857  1.00  0.00     0.031 C 
ATOM     59  C   UNL A   1      44.835  31.653  28.922  1.00  0.00     0.034 A 
BRANCH  46  60
ATOM     60  C   UNL A   1      39.119  29.528  29.907  1.00  0.00     0.023 A 
ATOM     61  C   UNL A   1      38.785  29.135  31.220  1.00  0.00     0.012 A 
ATOM     62  C   UNL A   1      38.174  30.225  29.131  1.00  0.00     0.148 A 
ATOM     63  C   UNL A   1      37.521  29.406  31.742  1.00  0.00     0.002 A 
ATOM     64  C   UNL A   1      36.928  30.524  29.673  1.00  0.00     0.091 A 
ATOM     65  F   UNL A   1      38.501  30.569  27.877  1.00  0.00    -0.205 F 
ATOM     66  C   UNL A   1      36.598  30.109  30.974  1.00  0.00     0.022 A 
BRANCH  64  67
ATOM     67  S   UNL A   1      35.694  31.485  28.788  1.00  0.00     0.127 S 
ATOM     68  O   UNL A   1      36.475  32.646  28.362  1.00  0.00    -0.237 OA
ATOM     69  O   UNL A   1      35.313  30.578  27.705  1.00  0.00    -0.237 OA
ATOM     70  O   UNL A   1      34.636  31.759  29.750  1.00  0.00    -0.744 OA
ENDBRANCH  64  67
ENDBRANCH  46  60
BRANCH  47  71
ATOM     71  C   UNL A   1      48.083  27.422  26.047  1.00  0.00     0.023 A 
ATOM     72  C   UNL A   1      49.118  26.922  26.860  1.00  0.00     0.012 A 
ATOM     73  C   UNL A   1      48.316  27.596  24.669  1.00  0.00     0.148 A 
ATOM     74  C   UNL A   1      50.369  26.625  26.319  1.00  0.00     0.002 A 
ATOM     75  C   UNL A   1      49.548  27.249  24.127  1.00  0.00     0.091 A 
ATOM     76  F   UNL A   1      47.325  28.089  23.913  1.00  0.00    -0.205 F 
ATOM     77  C   UNL A   1      50.581  26.778  24.952  1.00  0.00     0.022 A 
BRANCH  75  78
ATOM     78  S   UNL A   1      49.856  27.286  22.357  1.00  0.00     0.127 S 
ATOM     79  O   UNL A   1      48.861  26.340  21.861  1.00  0.00    -0.237 OA
ATOM     80  O   UNL A   1      49.593  28.687  22.029  1.00  0.00    -0.237 OA
ATOM     81  O   UNL A   1      51.250  26.890  22.201  1.00  0.00    -0.744 OA
ENDBRANCH  75  78
ENDBRANCH  47  71
BRANCH  59  82
ATOM     82  C   UNL A   1      45.385  33.022  29.223  1.00  0.00     0.023 A 
ATOM     83  C   UNL A   1      46.068  33.241  30.436  1.00  0.00     0.012 A 
ATOM     84  C   UNL A   1      45.297  34.063  28.280  1.00  0.00     0.148 A 
ATOM     85  C   UNL A   1      46.632  34.484  30.717  1.00  0.00     0.002 A 
ATOM     86  C   UNL A   1      45.899  35.287  28.548  1.00  0.00     0.091 A 
ATOM     87  F   UNL A   1      44.626  33.841  27.141  1.00  0.00    -0.205 F 
ATOM     88  C   UNL A   1      46.558  35.502  29.770  1.00  0.00     0.022 A 
BRANCH  86  89
ATOM     89  S   UNL A   1      45.930  36.625  27.349  1.00  0.00     0.127 S 
ATOM     90  O   UNL A   1      46.519  35.968  26.184  1.00  0.00    -0.237 OA
ATOM     91  O   UNL A   1      44.511  36.955  27.212  1.00  0.00    -0.237 OA
ATOM     92  O   UNL A   1      46.736  37.680  27.950  1.00  0.00    -0.744 OA
ENDBRANCH  86  89
ENDBRANCH  59  82
ENDBRANCH  33  34
ENDBRANCH  25  28
ENDBRANCH  23  24
ENDBRANCH  22  23
ENDBRANCH   1  22
TORSDOF 19
ENDMDL
