MODEL 1
REMARK VINA RESULT:     -12.0      0.000      0.000
REMARK SMILES CC[C@@H]1C=CC[C@@H]2C(=O)N(CCCC(=O)NCCCCNC(=O)c3ccc(-c4c5nc(c(-c6cccc(S(=O)(=O)[O-])c6F)c6ccc([nH]6)c(-c6cccc(S(=O)(=O)[O-])c6F)c6nc(c(-c7cccc(S(=O)(=O)[O-])c7F)c7ccc4[nH]7)C=C6)C=C5)cc3)C(=O)[C@@H]21
REMARK SMILES IDX 18 1 17 2 16 3 14 4 15 5 13 7 12 8 11 9 10 10 3 11 4 12
REMARK SMILES IDX 89 13 5 14 7 15 87 16 6 17 8 18 88 19 9 20 2 21 1 22 19 23
REMARK SMILES IDX 20 24 21 25 22 26 23 28 24 29 25 30 86 31 26 32 85 33 27 34
REMARK SMILES IDX 28 35 29 36 79 37 30 38 84 39 78 40 80 41 31 42 83 43 77 44
REMARK SMILES IDX 76 45 32 47 64 48 44 49 63 50 45 51 48 52 62 53 81 54 46 55
REMARK SMILES IDX 47 56 61 58 82 59 49 60 33 61 34 62 42 63 35 64 37 65 43 66
REMARK SMILES IDX 36 67 38 68 39 69 40 70 41 71 65 72 66 73 74 74 67 75 69 76
REMARK SMILES IDX 75 77 68 78 70 79 71 80 72 81 73 82 50 83 51 84 59 85 52 86
REMARK SMILES IDX 54 87 60 88 53 89 55 90 56 91 57 92 58 93
REMARK H PARENT 16 6 21 27 80 46 48 57
REMARK Flexibility Score: inf
ROOT
ATOM      1  C   UNL A   1      34.832  20.750  24.951  1.00  0.00     0.023 C 
ENDROOT
BRANCH   1   2
ATOM      2  C   UNL A   1      33.474  20.452  25.600  1.00  0.00     0.116 C 
BRANCH   2   3
ATOM      3  N   UNL A   1      33.378  21.060  26.910  1.00  0.00    -0.356 N 
ATOM      4  C   UNL A   1      32.854  22.244  27.320  1.00  0.00     0.220 C 
ATOM      5  O   UNL A   1      32.908  22.500  28.526  1.00  0.00    -0.275 OA
ATOM      6  H   UNL A   1      33.762  20.518  27.635  1.00  0.00     0.163 HD
BRANCH   4   7
ATOM      7  C   UNL A   1      32.150  23.208  26.381  1.00  0.00     0.102 C 
BRANCH   7   8
ATOM      8  C   UNL A   1      30.634  23.361  26.471  1.00  0.00     0.032 C 
BRANCH   8   9
ATOM      9  C   UNL A   1      29.966  24.714  26.240  1.00  0.00     0.129 C 
BRANCH   9  10
ATOM     10  N   UNL A   1      30.730  25.837  25.710  1.00  0.00    -0.282 N 
ATOM     11  C   UNL A   1      33.127  26.302  23.641  1.00  0.00     0.024 C 
ATOM     12  C   UNL A   1      33.959  25.908  24.844  1.00  0.00    -0.027 C 
ATOM     13  C   UNL A   1      31.816  27.034  24.024  1.00  0.00     0.099 C 
ATOM     14  C   UNL A   1      34.113  26.779  25.854  1.00  0.00    -0.030 C 
ATOM     15  C   UNL A   1      31.923  27.830  25.334  1.00  0.00     0.096 C 
ATOM     16  C   UNL A   1      30.684  26.112  24.374  1.00  0.00     0.233 C 
ATOM     17  C   UNL A   1      33.343  28.071  25.851  1.00  0.00     0.041 C 
ATOM     18  C   UNL A   1      31.219  26.942  26.336  1.00  0.00     0.233 C 
ATOM     19  O   UNL A   1      29.823  25.740  23.591  1.00  0.00    -0.274 OA
ATOM     20  O   UNL A   1      31.086  27.281  27.502  1.00  0.00    -0.274 OA
BRANCH  11  21
ATOM     21  C   UNL A   1      33.051  25.194  22.569  1.00  0.00     0.005 C 
ATOM     22  C   UNL A   1      33.449  23.779  22.960  1.00  0.00     0.004 C 
ENDBRANCH  11  21
ENDBRANCH   9  10
ENDBRANCH   8   9
ENDBRANCH   7   8
ENDBRANCH   4   7
ENDBRANCH   2   3
ENDBRANCH   1   2
BRANCH   1  23
ATOM     23  C   UNL A   1      35.772  21.585  25.805  1.00  0.00     0.023 C 
BRANCH  23  24
ATOM     24  C   UNL A   1      37.107  21.879  25.138  1.00  0.00     0.116 C 
BRANCH  24  25
ATOM     25  N   UNL A   1      38.120  20.846  25.336  1.00  0.00    -0.352 N 
ATOM     26  C   UNL A   1      39.310  20.965  26.022  1.00  0.00     0.251 C 
ATOM     27  H   UNL A   1      37.933  19.966  24.934  1.00  0.00     0.163 HD
ATOM     28  O   UNL A   1      40.104  20.034  26.089  1.00  0.00    -0.269 OA
BRANCH  26  29
ATOM     29  C   UNL A   1      39.627  22.274  26.629  1.00  0.00     0.039 A 
ATOM     30  C   UNL A   1      40.620  22.342  27.607  1.00  0.00     0.014 A 
ATOM     31  C   UNL A   1      39.058  23.435  26.102  1.00  0.00     0.014 A 
ATOM     32  C   UNL A   1      41.111  23.590  27.994  1.00  0.00     0.010 A 
ATOM     33  C   UNL A   1      39.619  24.667  26.415  1.00  0.00     0.010 A 
ATOM     34  C   UNL A   1      40.653  24.759  27.362  1.00  0.00    -0.014 A 
BRANCH  34  35
ATOM     35  C   UNL A   1      41.248  26.087  27.660  1.00  0.00     0.031 A 
ATOM     36  C   UNL A   1      42.646  26.402  27.202  1.00  0.00     0.074 A 
ATOM     37  C   UNL A   1      40.573  26.968  28.427  1.00  0.00     0.049 A 
ATOM     38  N   UNL A   1      43.363  27.473  27.421  1.00  0.00    -0.248 NA
ATOM     39  C   UNL A   1      43.347  25.361  26.431  1.00  0.00     0.031 C 
ATOM     40  C   UNL A   1      39.251  26.744  29.018  1.00  0.00     0.029 A 
ATOM     41  N   UNL A   1      40.921  28.223  28.865  1.00  0.00    -0.354 N 
ATOM     42  C   UNL A   1      44.606  27.218  26.854  1.00  0.00     0.074 A 
ATOM     43  C   UNL A   1      44.563  25.875  26.322  1.00  0.00     0.031 C 
ATOM     44  C   UNL A   1      38.895  27.828  29.728  1.00  0.00     0.029 A 
ATOM     45  C   UNL A   1      39.971  28.813  29.668  1.00  0.00     0.049 A 
ATOM     46  H   UNL A   1      41.770  28.660  28.628  1.00  0.00     0.167 HD
ATOM     47  C   UNL A   1      45.676  28.041  26.749  1.00  0.00     0.034 A 
ATOM     48  C   UNL A   1      39.966  30.012  30.285  1.00  0.00     0.034 A 
ATOM     49  C   UNL A   1      45.694  29.397  27.223  1.00  0.00     0.049 A 
ATOM     50  C   UNL A   1      41.142  30.933  30.095  1.00  0.00     0.074 A 
ATOM     51  C   UNL A   1      46.689  30.345  27.073  1.00  0.00     0.029 A 
ATOM     52  N   UNL A   1      44.671  29.997  27.939  1.00  0.00    -0.354 N 
ATOM     53  N   UNL A   1      42.240  30.738  29.405  1.00  0.00    -0.248 NA
ATOM     54  C   UNL A   1      41.063  32.254  30.735  1.00  0.00     0.031 C 
ATOM     55  C   UNL A   1      46.273  31.518  27.714  1.00  0.00     0.029 A 
ATOM     56  C   UNL A   1      45.010  31.303  28.243  1.00  0.00     0.049 A 
ATOM     57  H   UNL A   1      43.826  29.559  28.194  1.00  0.00     0.167 HD
ATOM     58  C   UNL A   1      42.963  31.922  29.497  1.00  0.00     0.074 A 
ATOM     59  C   UNL A   1      42.170  32.836  30.293  1.00  0.00     0.031 C 
ATOM     60  C   UNL A   1      44.183  32.219  28.985  1.00  0.00     0.034 A 
BRANCH  47  61
ATOM     61  C   UNL A   1      46.891  27.513  26.032  1.00  0.00     0.023 A 
ATOM     62  C   UNL A   1      47.785  26.665  26.717  1.00  0.00     0.012 A 
ATOM     63  C   UNL A   1      47.124  27.814  24.677  1.00  0.00     0.148 A 
ATOM     64  C   UNL A   1      48.914  26.155  26.077  1.00  0.00     0.002 A 
ATOM     65  C   UNL A   1      48.226  27.264  24.032  1.00  0.00     0.091 A 
ATOM     66  F   UNL A   1      46.276  28.640  24.049  1.00  0.00    -0.205 F 
ATOM     67  C   UNL A   1      49.128  26.446  24.733  1.00  0.00     0.022 A 
BRANCH  65  68
ATOM     68  S   UNL A   1      48.548  27.513  22.283  1.00  0.00     0.127 S 
ATOM     69  O   UNL A   1      49.684  28.433  22.319  1.00  0.00    -0.237 OA
ATOM     70  O   UNL A   1      48.875  26.159  21.835  1.00  0.00    -0.237 OA
ATOM     71  O   UNL A   1      47.319  28.057  21.723  1.00  0.00    -0.744 OA
ENDBRANCH  65  68
ENDBRANCH  47  61
BRANCH  48  72
ATOM     72  C   UNL A   1      38.776  30.445  31.072  1.00  0.00     0.023 A 
ATOM     73  C   UNL A   1      38.725  30.168  32.453  1.00  0.00     0.012 A 
ATOM     74  C   UNL A   1      37.709  31.143  30.473  1.00  0.00     0.148 A 
ATOM     75  C   UNL A   1      37.621  30.549  33.215  1.00  0.00     0.002 A 
ATOM     76  C   UNL A   1      36.637  31.567  31.250  1.00  0.00     0.091 A 
ATOM     77  F   UNL A   1      37.769  31.386  29.156  1.00  0.00    -0.205 F 
ATOM     78  C   UNL A   1      36.582  31.256  32.617  1.00  0.00     0.022 A 
BRANCH  76  79
ATOM     79  S   UNL A   1      35.318  32.594  30.592  1.00  0.00     0.127 S 
ATOM     80  O   UNL A   1      36.031  33.828  30.272  1.00  0.00    -0.237 OA
ATOM     81  O   UNL A   1      34.878  31.817  29.433  1.00  0.00    -0.237 OA
ATOM     82  O   UNL A   1      34.330  32.690  31.658  1.00  0.00    -0.744 OA
ENDBRANCH  76  79
ENDBRANCH  48  72
BRANCH  60  83
ATOM     83  C   UNL A   1      44.728  33.602  29.230  1.00  0.00     0.023 A 
ATOM     84  C   UNL A   1      45.529  33.848  30.362  1.00  0.00     0.012 A 
ATOM     85  C   UNL A   1      44.516  34.633  28.293  1.00  0.00     0.148 A 
ATOM     86  C   UNL A   1      46.088  35.108  30.573  1.00  0.00     0.002 A 
ATOM     87  C   UNL A   1      45.115  35.872  28.486  1.00  0.00     0.091 A 
ATOM     88  F   UNL A   1      43.735  34.384  27.232  1.00  0.00    -0.205 F 
ATOM     89  C   UNL A   1      45.891  36.114  29.631  1.00  0.00     0.022 A 
BRANCH  87  90
ATOM     90  S   UNL A   1      44.999  37.194  27.275  1.00  0.00     0.127 S 
ATOM     91  O   UNL A   1      45.431  38.351  28.055  1.00  0.00    -0.237 OA
ATOM     92  O   UNL A   1      45.949  36.761  26.249  1.00  0.00    -0.237 OA
ATOM     93  O   UNL A   1      43.610  37.216  26.838  1.00  0.00    -0.744 OA
ENDBRANCH  87  90
ENDBRANCH  60  83
ENDBRANCH  34  35
ENDBRANCH  26  29
ENDBRANCH  24  25
ENDBRANCH  23  24
ENDBRANCH   1  23
TORSDOF 18
ENDMDL
MODEL 2
REMARK VINA RESULT:     -11.9      1.673      2.438
REMARK SMILES CC[C@@H]1C=CC[C@@H]2C(=O)N(CCCC(=O)NCCCCNC(=O)c3ccc(-c4c5nc(c(-c6cccc(S(=O)(=O)[O-])c6F)c6ccc([nH]6)c(-c6cccc(S(=O)(=O)[O-])c6F)c6nc(c(-c7cccc(S(=O)(=O)[O-])c7F)c7ccc4[nH]7)C=C6)C=C5)cc3)C(=O)[C@@H]21
REMARK SMILES IDX 18 1 17 2 16 3 14 4 15 5 13 7 12 8 11 9 10 10 3 11 4 12
REMARK SMILES IDX 89 13 5 14 7 15 87 16 6 17 8 18 88 19 9 20 2 21 1 22 19 23
REMARK SMILES IDX 20 24 21 25 22 26 23 28 24 29 25 30 86 31 26 32 85 33 27 34
REMARK SMILES IDX 28 35 29 36 79 37 30 38 84 39 78 40 80 41 31 42 83 43 77 44
REMARK SMILES IDX 76 45 32 47 64 48 44 49 63 50 45 51 48 52 62 53 81 54 46 55
REMARK SMILES IDX 47 56 61 58 82 59 49 60 33 61 34 62 42 63 35 64 37 65 43 66
REMARK SMILES IDX 36 67 38 68 39 69 40 70 41 71 65 72 66 73 74 74 67 75 69 76
REMARK SMILES IDX 75 77 68 78 70 79 71 80 72 81 73 82 50 83 51 84 59 85 52 86
REMARK SMILES IDX 54 87 60 88 53 89 55 90 56 91 57 92 58 93
REMARK H PARENT 16 6 21 27 80 46 48 57
REMARK Flexibility Score: inf
ROOT
ATOM      1  C   UNL A   1      34.893  20.779  24.942  1.00  0.00     0.023 C 
ENDROOT
BRANCH   1   2
ATOM      2  C   UNL A   1      33.496  20.503  25.510  1.00  0.00     0.116 C 
BRANCH   2   3
ATOM      3  N   UNL A   1      33.067  21.573  26.385  1.00  0.00    -0.356 N 
ATOM      4  C   UNL A   1      32.111  22.528  26.242  1.00  0.00     0.220 C 
ATOM      5  O   UNL A   1      31.960  23.322  27.176  1.00  0.00    -0.275 OA
ATOM      6  H   UNL A   1      33.557  21.619  27.237  1.00  0.00     0.163 HD
BRANCH   4   7
ATOM      7  C   UNL A   1      31.191  22.605  25.037  1.00  0.00     0.102 C 
BRANCH   7   8
ATOM      8  C   UNL A   1      31.703  23.243  23.749  1.00  0.00     0.032 C 
BRANCH   8   9
ATOM      9  C   UNL A   1      33.108  23.835  23.670  1.00  0.00     0.129 C 
BRANCH   9  10
ATOM     10  N   UNL A   1      33.308  25.279  23.727  1.00  0.00    -0.282 N 
ATOM     11  C   UNL A   1      32.082  27.777  25.308  1.00  0.00     0.024 C 
ATOM     12  C   UNL A   1      31.016  27.658  24.238  1.00  0.00    -0.027 C 
ATOM     13  C   UNL A   1      33.484  27.336  24.817  1.00  0.00     0.099 C 
ATOM     14  C   UNL A   1      31.290  28.058  22.986  1.00  0.00    -0.030 C 
ATOM     15  C   UNL A   1      33.701  27.561  23.311  1.00  0.00     0.096 C 
ATOM     16  C   UNL A   1      33.719  25.856  24.894  1.00  0.00     0.233 C 
ATOM     17  C   UNL A   1      32.687  28.477  22.624  1.00  0.00     0.041 C 
ATOM     18  C   UNL A   1      33.530  26.175  22.728  1.00  0.00     0.233 C 
ATOM     19  O   UNL A   1      34.264  25.285  25.826  1.00  0.00    -0.274 OA
ATOM     20  O   UNL A   1      33.666  25.969  21.532  1.00  0.00    -0.274 OA
BRANCH  11  21
ATOM     21  C   UNL A   1      31.610  27.279  26.691  1.00  0.00     0.005 C 
ATOM     22  C   UNL A   1      31.472  28.292  27.817  1.00  0.00     0.004 C 
ENDBRANCH  11  21
ENDBRANCH   9  10
ENDBRANCH   8   9
ENDBRANCH   7   8
ENDBRANCH   4   7
ENDBRANCH   2   3
ENDBRANCH   1   2
BRANCH   1  23
ATOM     23  C   UNL A   1      35.687  21.832  25.699  1.00  0.00     0.023 C 
BRANCH  23  24
ATOM     24  C   UNL A   1      37.065  22.098  25.114  1.00  0.00     0.116 C 
BRANCH  24  25
ATOM     25  N   UNL A   1      38.026  21.017  25.316  1.00  0.00    -0.352 N 
ATOM     26  C   UNL A   1      39.210  21.074  26.021  1.00  0.00     0.251 C 
ATOM     27  H   UNL A   1      37.804  20.151  24.902  1.00  0.00     0.163 HD
ATOM     28  O   UNL A   1      39.958  20.106  26.090  1.00  0.00    -0.269 OA
BRANCH  26  29
ATOM     29  C   UNL A   1      39.578  22.360  26.647  1.00  0.00     0.039 A 
ATOM     30  C   UNL A   1      40.630  22.389  27.562  1.00  0.00     0.014 A 
ATOM     31  C   UNL A   1      38.989  23.542  26.192  1.00  0.00     0.014 A 
ATOM     32  C   UNL A   1      41.158  23.620  27.955  1.00  0.00     0.010 A 
ATOM     33  C   UNL A   1      39.581  24.759  26.507  1.00  0.00     0.010 A 
ATOM     34  C   UNL A   1      40.674  24.812  27.389  1.00  0.00    -0.014 A 
BRANCH  34  35
ATOM     35  C   UNL A   1      41.300  26.125  27.689  1.00  0.00     0.031 A 
ATOM     36  C   UNL A   1      42.724  26.388  27.280  1.00  0.00     0.074 A 
ATOM     37  C   UNL A   1      40.627  27.040  28.418  1.00  0.00     0.049 A 
ATOM     38  N   UNL A   1      43.467  27.439  27.509  1.00  0.00    -0.248 NA
ATOM     39  C   UNL A   1      43.418  25.313  26.551  1.00  0.00     0.031 C 
ATOM     40  C   UNL A   1      39.277  26.867  28.962  1.00  0.00     0.029 A 
ATOM     41  N   UNL A   1      40.998  28.290  28.850  1.00  0.00    -0.354 N 
ATOM     42  C   UNL A   1      44.720  27.136  26.993  1.00  0.00     0.074 A 
ATOM     43  C   UNL A   1      44.653  25.787  26.479  1.00  0.00     0.031 C 
ATOM     44  C   UNL A   1      38.931  27.973  29.642  1.00  0.00     0.029 A 
ATOM     45  C   UNL A   1      40.039  28.922  29.608  1.00  0.00     0.049 A 
ATOM     46  H   UNL A   1      41.870  28.695  28.638  1.00  0.00     0.167 HD
ATOM     47  C   UNL A   1      45.820  27.922  26.915  1.00  0.00     0.034 A 
ATOM     48  C   UNL A   1      40.051  30.130  30.206  1.00  0.00     0.034 A 
ATOM     49  C   UNL A   1      45.865  29.285  27.369  1.00  0.00     0.049 A 
ATOM     50  C   UNL A   1      41.262  31.010  30.047  1.00  0.00     0.074 A 
ATOM     51  C   UNL A   1      46.894  30.198  27.243  1.00  0.00     0.029 A 
ATOM     52  N   UNL A   1      44.836  29.928  28.038  1.00  0.00    -0.354 N 
ATOM     53  N   UNL A   1      42.378  30.769  29.401  1.00  0.00    -0.248 NA
ATOM     54  C   UNL A   1      41.203  32.343  30.665  1.00  0.00     0.031 C 
ATOM     55  C   UNL A   1      46.494  31.393  27.850  1.00  0.00     0.029 A 
ATOM     56  C   UNL A   1      45.206  31.227  28.335  1.00  0.00     0.049 A 
ATOM     57  H   UNL A   1      43.969  29.521  28.268  1.00  0.00     0.167 HD
ATOM     58  C   UNL A   1      43.136  31.931  29.503  1.00  0.00     0.074 A 
ATOM     59  C   UNL A   1      42.343  32.882  30.256  1.00  0.00     0.031 C 
ATOM     60  C   UNL A   1      44.382  32.181  29.032  1.00  0.00     0.034 A 
BRANCH  47  61
ATOM     61  C   UNL A   1      47.043  27.345  26.252  1.00  0.00     0.023 A 
ATOM     62  C   UNL A   1      47.252  27.563  24.875  1.00  0.00     0.012 A 
ATOM     63  C   UNL A   1      48.005  26.633  26.994  1.00  0.00     0.148 A 
ATOM     64  C   UNL A   1      48.379  27.048  24.236  1.00  0.00     0.002 A 
ATOM     65  C   UNL A   1      49.150  26.164  26.360  1.00  0.00     0.091 A 
ATOM     66  F   UNL A   1      47.778  26.417  28.297  1.00  0.00    -0.205 F 
ATOM     67  C   UNL A   1      49.332  26.359  24.980  1.00  0.00     0.022 A 
BRANCH  65  68
ATOM     68  S   UNL A   1      50.474  25.333  27.243  1.00  0.00     0.127 S 
ATOM     69  O   UNL A   1      50.916  26.378  28.166  1.00  0.00    -0.237 OA
ATOM     70  O   UNL A   1      49.769  24.218  27.877  1.00  0.00    -0.237 OA
ATOM     71  O   UNL A   1      51.445  24.939  26.232  1.00  0.00    -0.744 OA
ENDBRANCH  65  68
ENDBRANCH  47  61
BRANCH  48  72
ATOM     72  C   UNL A   1      38.847  30.613  30.942  1.00  0.00     0.023 A 
ATOM     73  C   UNL A   1      38.726  30.342  32.320  1.00  0.00     0.012 A 
ATOM     74  C   UNL A   1      37.837  31.354  30.299  1.00  0.00     0.148 A 
ATOM     75  C   UNL A   1      37.608  30.769  33.035  1.00  0.00     0.002 A 
ATOM     76  C   UNL A   1      36.751  31.823  31.029  1.00  0.00     0.091 A 
ATOM     77  F   UNL A   1      37.963  31.593  28.985  1.00  0.00    -0.205 F 
ATOM     78  C   UNL A   1      36.625  31.517  32.393  1.00  0.00     0.022 A 
BRANCH  76  79
ATOM     79  S   UNL A   1      35.505  32.903  30.316  1.00  0.00     0.127 S 
ATOM     80  O   UNL A   1      34.722  31.968  29.513  1.00  0.00    -0.237 OA
ATOM     81  O   UNL A   1      34.826  33.412  31.509  1.00  0.00    -0.237 OA
ATOM     82  O   UNL A   1      36.245  33.915  29.572  1.00  0.00    -0.744 OA
ENDBRANCH  76  79
ENDBRANCH  48  72
BRANCH  60  83
ATOM     83  C   UNL A   1      44.962  33.550  29.277  1.00  0.00     0.023 A 
ATOM     84  C   UNL A   1      45.703  33.796  30.449  1.00  0.00     0.012 A 
ATOM     85  C   UNL A   1      44.845  34.563  28.305  1.00  0.00     0.148 A 
ATOM     86  C   UNL A   1      46.295  35.040  30.664  1.00  0.00     0.002 A 
ATOM     87  C   UNL A   1      45.477  35.784  28.504  1.00  0.00     0.091 A 
ATOM     88  F   UNL A   1      44.120  34.314  27.206  1.00  0.00    -0.205 F 
ATOM     89  C   UNL A   1      46.192  36.028  29.688  1.00  0.00     0.022 A 
BRANCH  87  90
ATOM     90  S   UNL A   1      45.482  37.078  27.258  1.00  0.00     0.127 S 
ATOM     91  O   UNL A   1      46.143  36.411  26.139  1.00  0.00    -0.237 OA
ATOM     92  O   UNL A   1      44.052  37.326  27.062  1.00  0.00    -0.237 OA
ATOM     93  O   UNL A   1      46.212  38.195  27.842  1.00  0.00    -0.744 OA
ENDBRANCH  87  90
ENDBRANCH  60  83
ENDBRANCH  34  35
ENDBRANCH  26  29
ENDBRANCH  24  25
ENDBRANCH  23  24
ENDBRANCH   1  23
TORSDOF 18
ENDMDL
MODEL 3
REMARK VINA RESULT:     -11.9      5.077     10.345
REMARK SMILES CC[C@@H]1C=CC[C@@H]2C(=O)N(CCCC(=O)NCCCCNC(=O)c3ccc(-c4c5nc(c(-c6cccc(S(=O)(=O)[O-])c6F)c6ccc([nH]6)c(-c6cccc(S(=O)(=O)[O-])c6F)c6nc(c(-c7cccc(S(=O)(=O)[O-])c7F)c7ccc4[nH]7)C=C6)C=C5)cc3)C(=O)[C@@H]21
REMARK SMILES IDX 18 1 17 2 16 3 14 4 15 5 13 7 12 8 11 9 10 10 3 11 4 12
REMARK SMILES IDX 89 13 5 14 7 15 87 16 6 17 8 18 88 19 9 20 2 21 1 22 19 23
REMARK SMILES IDX 20 24 21 25 22 26 23 28 24 29 25 30 86 31 26 32 85 33 27 34
REMARK SMILES IDX 28 35 29 36 79 37 30 38 84 39 78 40 80 41 31 42 83 43 77 44
REMARK SMILES IDX 76 45 32 47 64 48 44 49 63 50 45 51 48 52 62 53 81 54 46 55
REMARK SMILES IDX 47 56 61 58 82 59 49 60 33 61 34 62 42 63 35 64 37 65 43 66
REMARK SMILES IDX 36 67 38 68 39 69 40 70 41 71 65 72 66 73 74 74 67 75 69 76
REMARK SMILES IDX 75 77 68 78 70 79 71 80 72 81 73 82 50 83 51 84 59 85 52 86
REMARK SMILES IDX 54 87 60 88 53 89 55 90 56 91 57 92 58 93
REMARK H PARENT 16 6 21 27 80 46 48 57
REMARK Flexibility Score: inf
ROOT
ATOM      1  C   UNL A   1      33.364  29.329  24.470  1.00  0.00     0.023 C 
ENDROOT
BRANCH   1   2
ATOM      2  C   UNL A   1      33.004  28.984  23.020  1.00  0.00     0.116 C 
BRANCH   2   3
ATOM      3  N   UNL A   1      31.584  29.139  22.785  1.00  0.00    -0.356 N 
ATOM      4  C   UNL A   1      30.623  28.244  22.439  1.00  0.00     0.220 C 
ATOM      5  O   UNL A   1      29.471  28.670  22.311  1.00  0.00    -0.275 OA
ATOM      6  H   UNL A   1      31.255  30.060  22.895  1.00  0.00     0.163 HD
BRANCH   4   7
ATOM      7  C   UNL A   1      30.893  26.758  22.282  1.00  0.00     0.102 C 
BRANCH   7   8
ATOM      8  C   UNL A   1      30.763  25.845  23.499  1.00  0.00     0.032 C 
BRANCH   8   9
ATOM      9  C   UNL A   1      31.469  26.179  24.811  1.00  0.00     0.129 C 
BRANCH   9  10
ATOM     10  N   UNL A   1      32.138  25.136  25.579  1.00  0.00    -0.282 N 
ATOM     11  C   UNL A   1      34.577  23.102  25.183  1.00  0.00     0.024 C 
ATOM     12  C   UNL A   1      33.517  22.308  24.449  1.00  0.00    -0.027 C 
ATOM     13  C   UNL A   1      34.002  23.954  26.342  1.00  0.00     0.099 C 
ATOM     14  C   UNL A   1      32.563  21.674  25.150  1.00  0.00    -0.030 C 
ATOM     15  C   UNL A   1      32.742  23.345  26.980  1.00  0.00     0.096 C 
ATOM     16  C   UNL A   1      33.455  25.282  25.908  1.00  0.00     0.233 C 
ATOM     17  C   UNL A   1      32.467  21.879  26.637  1.00  0.00     0.041 C 
ATOM     18  C   UNL A   1      31.622  24.169  26.384  1.00  0.00     0.233 C 
ATOM     19  O   UNL A   1      34.080  26.332  25.928  1.00  0.00    -0.274 OA
ATOM     20  O   UNL A   1      30.457  23.976  26.698  1.00  0.00    -0.274 OA
BRANCH  11  21
ATOM     21  C   UNL A   1      35.600  23.765  24.236  1.00  0.00     0.005 C 
ATOM     22  C   UNL A   1      36.316  22.891  23.217  1.00  0.00     0.004 C 
ENDBRANCH  11  21
ENDBRANCH   9  10
ENDBRANCH   8   9
ENDBRANCH   7   8
ENDBRANCH   4   7
ENDBRANCH   2   3
ENDBRANCH   1   2
BRANCH   1  23
ATOM     23  C   UNL A   1      32.196  29.810  25.316  1.00  0.00     0.023 C 
BRANCH  23  24
ATOM     24  C   UNL A   1      32.577  30.153  26.748  1.00  0.00     0.116 C 
BRANCH  24  25
ATOM     25  N   UNL A   1      32.502  31.576  27.067  1.00  0.00    -0.352 N 
ATOM     26  C   UNL A   1      33.492  32.361  27.619  1.00  0.00     0.251 C 
ATOM     27  H   UNL A   1      31.648  32.025  26.868  1.00  0.00     0.163 HD
ATOM     28  O   UNL A   1      33.299  33.542  27.879  1.00  0.00    -0.269 OA
BRANCH  26  29
ATOM     29  C   UNL A   1      34.782  31.717  27.939  1.00  0.00     0.039 A 
ATOM     30  C   UNL A   1      35.929  32.507  28.020  1.00  0.00     0.014 A 
ATOM     31  C   UNL A   1      34.807  30.374  28.321  1.00  0.00     0.014 A 
ATOM     32  C   UNL A   1      37.091  31.967  28.576  1.00  0.00     0.010 A 
ATOM     33  C   UNL A   1      35.932  29.873  28.965  1.00  0.00     0.010 A 
ATOM     34  C   UNL A   1      37.085  30.664  29.102  1.00  0.00    -0.014 A 
BRANCH  34  35
ATOM     35  C   UNL A   1      38.265  30.109  29.814  1.00  0.00     0.031 A 
ATOM     36  C   UNL A   1      38.595  30.586  31.202  1.00  0.00     0.074 A 
ATOM     37  C   UNL A   1      39.095  29.257  29.177  1.00  0.00     0.049 A 
ATOM     38  N   UNL A   1      39.614  30.275  31.960  1.00  0.00    -0.248 NA
ATOM     39  C   UNL A   1      37.683  31.572  31.805  1.00  0.00     0.031 C 
ATOM     40  C   UNL A   1      38.942  28.794  27.795  1.00  0.00     0.029 A 
ATOM     41  N   UNL A   1      40.250  28.647  29.602  1.00  0.00    -0.354 N 
ATOM     42  C   UNL A   1      39.488  31.054  33.103  1.00  0.00     0.074 A 
ATOM     43  C   UNL A   1      38.321  31.887  32.922  1.00  0.00     0.031 C 
ATOM     44  C   UNL A   1      39.955  27.966  27.492  1.00  0.00     0.029 A 
ATOM     45  C   UNL A   1      40.845  27.857  28.644  1.00  0.00     0.049 A 
ATOM     46  H   UNL A   1      40.619  28.763  30.507  1.00  0.00     0.167 HD
ATOM     47  C   UNL A   1      40.250  31.052  34.221  1.00  0.00     0.034 A 
ATOM     48  C   UNL A   1      41.978  27.128  28.689  1.00  0.00     0.034 A 
ATOM     49  C   UNL A   1      41.373  30.178  34.425  1.00  0.00     0.049 A 
ATOM     50  C   UNL A   1      42.769  27.091  29.969  1.00  0.00     0.074 A 
ATOM     51  C   UNL A   1      42.146  30.023  35.560  1.00  0.00     0.029 A 
ATOM     52  N   UNL A   1      41.883  29.313  33.469  1.00  0.00    -0.354 N 
ATOM     53  N   UNL A   1      42.533  27.704  31.103  1.00  0.00    -0.248 NA
ATOM     54  C   UNL A   1      43.963  26.232  29.989  1.00  0.00     0.031 C 
ATOM     55  C   UNL A   1      43.136  29.073  35.286  1.00  0.00     0.029 A 
ATOM     56  C   UNL A   1      42.964  28.622  33.987  1.00  0.00     0.049 A 
ATOM     57  H   UNL A   1      41.528  29.205  32.557  1.00  0.00     0.167 HD
ATOM     58  C   UNL A   1      43.524  27.278  31.981  1.00  0.00     0.074 A 
ATOM     59  C   UNL A   1      44.351  26.337  31.253  1.00  0.00     0.031 C 
ATOM     60  C   UNL A   1      43.740  27.645  33.268  1.00  0.00     0.034 A 
BRANCH  47  61
ATOM     61  C   UNL A   1      39.850  31.977  35.339  1.00  0.00     0.023 A 
ATOM     62  C   UNL A   1      40.369  33.288  35.374  1.00  0.00     0.012 A 
ATOM     63  C   UNL A   1      38.927  31.573  36.323  1.00  0.00     0.148 A 
ATOM     64  C   UNL A   1      40.010  34.169  36.392  1.00  0.00     0.002 A 
ATOM     65  C   UNL A   1      38.537  32.473  37.308  1.00  0.00     0.091 A 
ATOM     66  F   UNL A   1      38.461  30.317  36.288  1.00  0.00    -0.205 F 
ATOM     67  C   UNL A   1      39.086  33.766  37.352  1.00  0.00     0.022 A 
BRANCH  65  68
ATOM     68  S   UNL A   1      37.295  32.078  38.544  1.00  0.00     0.127 S 
ATOM     69  O   UNL A   1      37.942  32.540  39.772  1.00  0.00    -0.237 OA
ATOM     70  O   UNL A   1      36.160  32.893  38.110  1.00  0.00    -0.237 OA
ATOM     71  O   UNL A   1      37.081  30.641  38.452  1.00  0.00    -0.744 OA
ENDBRANCH  65  68
ENDBRANCH  47  61
BRANCH  48  72
ATOM     72  C   UNL A   1      42.387  26.307  27.513  1.00  0.00     0.023 A 
ATOM     73  C   UNL A   1      43.164  26.898  26.497  1.00  0.00     0.012 A 
ATOM     74  C   UNL A   1      42.034  24.948  27.403  1.00  0.00     0.148 A 
ATOM     75  C   UNL A   1      43.555  26.162  25.379  1.00  0.00     0.002 A 
ATOM     76  C   UNL A   1      42.472  24.206  26.311  1.00  0.00     0.091 A 
ATOM     77  F   UNL A   1      41.284  24.405  28.373  1.00  0.00    -0.205 F 
ATOM     78  C   UNL A   1      43.217  24.815  25.290  1.00  0.00     0.022 A 
BRANCH  76  79
ATOM     79  S   UNL A   1      42.196  22.436  26.178  1.00  0.00     0.127 S 
ATOM     80  O   UNL A   1      42.905  22.115  24.942  1.00  0.00    -0.237 OA
ATOM     81  O   UNL A   1      42.830  21.937  27.400  1.00  0.00    -0.237 OA
ATOM     82  O   UNL A   1      40.749  22.268  26.143  1.00  0.00    -0.744 OA
ENDBRANCH  76  79
ENDBRANCH  48  72
BRANCH  60  83
ATOM     83  C   UNL A   1      44.893  27.004  33.996  1.00  0.00     0.023 A 
ATOM     84  C   UNL A   1      46.171  27.593  33.936  1.00  0.00     0.012 A 
ATOM     85  C   UNL A   1      44.689  25.870  34.806  1.00  0.00     0.148 A 
ATOM     86  C   UNL A   1      47.237  27.044  34.650  1.00  0.00     0.002 A 
ATOM     87  C   UNL A   1      45.744  25.357  35.551  1.00  0.00     0.091 A 
ATOM     88  F   UNL A   1      43.469  25.314  34.833  1.00  0.00    -0.205 F 
ATOM     89  C   UNL A   1      47.020  25.936  35.465  1.00  0.00     0.022 A 
BRANCH  87  90
ATOM     90  S   UNL A   1      45.533  23.995  36.703  1.00  0.00     0.127 S 
ATOM     91  O   UNL A   1      44.569  24.552  37.650  1.00  0.00    -0.237 OA
ATOM     92  O   UNL A   1      45.000  22.938  35.842  1.00  0.00    -0.237 OA
ATOM     93  O   UNL A   1      46.857  23.720  37.245  1.00  0.00    -0.744 OA
ENDBRANCH  87  90
ENDBRANCH  60  83
ENDBRANCH  34  35
ENDBRANCH  26  29
ENDBRANCH  24  25
ENDBRANCH  23  24
ENDBRANCH   1  23
TORSDOF 18
ENDMDL
