MODEL 1
REMARK VINA RESULT:     -12.7      0.000      0.000
REMARK SMILES COc1cc(NC(=O)c2ccc([N+](=O)[O-])cc2)c(C(=O)NCCCCNC(=O)c2ccc(-c3c4nc(c(-c5cccc(S(=O)(=O)[O-])c5F)c5ccc([nH]5)c(-c5cccc(S(=O)(=O)[O-])c5F)c5nc(c(-c6cccc(S(=O)(=O)[O-])c6F)c6ccc3[nH]6)C=C5)C=C4)cc2)cc1OC
REMARK SMILES IDX 23 1 22 2 21 3 19 4 20 5 18 7 3 8 4 9 93 10 5 11 92 12 2 13
REMARK SMILES IDX 1 14 94 15 95 16 6 17 7 18 8 20 9 21 10 22 17 23 11 24 16 25
REMARK SMILES IDX 12 26 13 27 14 28 15 29 24 30 25 31 26 32 27 33 28 35 29 36
REMARK SMILES IDX 30 37 91 38 31 39 90 40 32 41 33 42 34 43 84 44 35 45 89 46
REMARK SMILES IDX 83 47 85 48 36 49 88 50 82 51 81 52 37 54 69 55 49 56 68 57
REMARK SMILES IDX 50 58 53 59 67 60 86 61 51 62 52 63 66 65 87 66 54 67 38 68
REMARK SMILES IDX 39 69 47 70 40 71 42 72 48 73 41 74 43 75 44 76 45 77 46 78
REMARK SMILES IDX 70 79 71 80 79 81 72 82 74 83 80 84 73 85 75 86 76 87 77 88
REMARK SMILES IDX 78 89 55 90 56 91 64 92 57 93 59 94 65 95 58 96 60 97 61 98
REMARK SMILES IDX 62 99 63 100
REMARK H PARENT 21 6 6 19 26 34 85 53 53 64
REMARK Flexibility Score: inf
ROOT
ATOM      1  C   UNL A   1      34.791  22.269  26.904  1.00  0.00     0.023 C 
ENDROOT
BRANCH   1   2
ATOM      2  C   UNL A   1      33.519  21.503  27.282  1.00  0.00     0.116 C 
BRANCH   2   3
ATOM      3  N   UNL A   1      32.400  22.412  27.425  1.00  0.00    -0.352 N 
ATOM      4  C   UNL A   1      31.825  23.336  26.590  1.00  0.00     0.253 C 
ATOM      5  O   UNL A   1      30.876  23.971  27.059  1.00  0.00    -0.269 OA
ATOM      6  H   UNL A   1      31.962  22.355  28.304  1.00  0.00     0.163 HD
BRANCH   4   7
ATOM      7  C   UNL A   1      32.231  23.587  25.163  1.00  0.00     0.067 A 
ATOM      8  C   UNL A   1      32.882  24.057  22.458  1.00  0.00     0.162 A 
ATOM      9  C   UNL A   1      32.974  25.084  23.408  1.00  0.00     0.077 A 
ATOM     10  C   UNL A   1      32.564  22.771  22.864  1.00  0.00     0.161 A 
ATOM     11  C   UNL A   1      32.617  24.892  24.752  1.00  0.00     0.058 A 
ATOM     12  C   UNL A   1      32.283  22.553  24.215  1.00  0.00     0.066 A 
BRANCH   8  13
ATOM     13  O   UNL A   1      33.228  24.333  21.162  1.00  0.00    -0.493 OA
ATOM     14  C   UNL A   1      32.580  25.520  20.695  1.00  0.00     0.278 C 
ENDBRANCH   8  13
BRANCH  10  15
ATOM     15  O   UNL A   1      32.530  21.627  22.117  1.00  0.00    -0.493 OA
ATOM     16  C   UNL A   1      32.164  20.422  22.772  1.00  0.00     0.278 C 
ENDBRANCH  10  15
BRANCH  11  17
ATOM     17  N   UNL A   1      32.688  25.933  25.721  1.00  0.00    -0.321 N 
ATOM     18  C   UNL A   1      32.219  27.222  25.797  1.00  0.00     0.255 C 
ATOM     19  H   UNL A   1      33.190  25.667  26.524  1.00  0.00     0.170 HD
ATOM     20  O   UNL A   1      32.601  27.996  26.671  1.00  0.00    -0.269 OA
BRANCH  18  21
ATOM     21  C   UNL A   1      31.218  27.723  24.850  1.00  0.00     0.040 A 
ATOM     22  C   UNL A   1      30.140  26.895  24.515  1.00  0.00     0.021 A 
ATOM     23  C   UNL A   1      31.327  29.020  24.332  1.00  0.00     0.021 A 
ATOM     24  C   UNL A   1      29.103  27.402  23.733  1.00  0.00     0.086 A 
ATOM     25  C   UNL A   1      30.290  29.532  23.552  1.00  0.00     0.086 A 
ATOM     26  C   UNL A   1      29.171  28.728  23.280  1.00  0.00     0.269 A 
BRANCH  26  27
ATOM     27  N   UNL A   1      28.030  29.303  22.561  1.00  0.00     0.062 N 
ATOM     28  O   UNL A   1      28.229  29.749  21.423  1.00  0.00    -0.258 OA
ATOM     29  O   UNL A   1      26.928  29.284  23.129  1.00  0.00    -0.258 OA
ENDBRANCH  26  27
ENDBRANCH  18  21
ENDBRANCH  11  17
ENDBRANCH   4   7
ENDBRANCH   2   3
ENDBRANCH   1   2
BRANCH   1  30
ATOM     30  C   UNL A   1      35.576  21.657  25.744  1.00  0.00     0.023 C 
BRANCH  30  31
ATOM     31  C   UNL A   1      36.989  22.201  25.576  1.00  0.00     0.116 C 
BRANCH  31  32
ATOM     32  N   UNL A   1      38.021  21.188  25.749  1.00  0.00    -0.352 N 
ATOM     33  C   UNL A   1      39.293  21.352  26.244  1.00  0.00     0.251 C 
ATOM     34  H   UNL A   1      37.779  20.274  25.477  1.00  0.00     0.163 HD
ATOM     35  O   UNL A   1      40.086  20.415  26.239  1.00  0.00    -0.269 OA
BRANCH  33  36
ATOM     36  C   UNL A   1      39.701  22.681  26.736  1.00  0.00     0.039 A 
ATOM     37  C   UNL A   1      40.704  22.760  27.706  1.00  0.00     0.014 A 
ATOM     38  C   UNL A   1      39.139  23.841  26.199  1.00  0.00     0.014 A 
ATOM     39  C   UNL A   1      41.191  24.010  28.090  1.00  0.00     0.010 A 
ATOM     40  C   UNL A   1      39.672  25.081  26.532  1.00  0.00     0.010 A 
ATOM     41  C   UNL A   1      40.702  25.178  27.479  1.00  0.00    -0.014 A 
BRANCH  41  42
ATOM     42  C   UNL A   1      41.267  26.511  27.802  1.00  0.00     0.031 A 
ATOM     43  C   UNL A   1      42.697  26.826  27.461  1.00  0.00     0.074 A 
ATOM     44  C   UNL A   1      40.524  27.398  28.493  1.00  0.00     0.049 A 
ATOM     45  N   UNL A   1      43.387  27.905  27.722  1.00  0.00    -0.248 NA
ATOM     46  C   UNL A   1      43.461  25.781  26.760  1.00  0.00     0.031 C 
ATOM     47  C   UNL A   1      39.153  27.173  28.958  1.00  0.00     0.029 A 
ATOM     48  N   UNL A   1      40.826  28.655  28.951  1.00  0.00    -0.354 N 
ATOM     49  C   UNL A   1      44.671  27.656  27.255  1.00  0.00     0.074 A 
ATOM     50  C   UNL A   1      44.676  26.312  26.723  1.00  0.00     0.031 C 
ATOM     51  C   UNL A   1      38.733  28.255  29.633  1.00  0.00     0.029 A 
ATOM     52  C   UNL A   1      39.810  29.239  29.672  1.00  0.00     0.049 A 
ATOM     53  H   UNL A   1      41.688  29.098  28.781  1.00  0.00     0.167 HD
ATOM     54  C   UNL A   1      45.743  28.484  27.240  1.00  0.00     0.034 A 
ATOM     55  C   UNL A   1      39.755  30.432  30.296  1.00  0.00     0.034 A 
ATOM     56  C   UNL A   1      45.719  29.839  27.721  1.00  0.00     0.049 A 
ATOM     57  C   UNL A   1      40.941  31.354  30.215  1.00  0.00     0.074 A 
ATOM     58  C   UNL A   1      46.721  30.790  27.660  1.00  0.00     0.029 A 
ATOM     59  N   UNL A   1      44.638  30.434  28.353  1.00  0.00    -0.354 N 
ATOM     60  N   UNL A   1      42.092  31.165  29.616  1.00  0.00    -0.248 NA
ATOM     61  C   UNL A   1      40.809  32.668  30.861  1.00  0.00     0.031 C 
ATOM     62  C   UNL A   1      46.251  31.958  28.270  1.00  0.00     0.029 A 
ATOM     63  C   UNL A   1      44.950  31.738  28.695  1.00  0.00     0.049 A 
ATOM     64  H   UNL A   1      43.777  29.993  28.534  1.00  0.00     0.167 HD
ATOM     65  C   UNL A   1      42.807  32.346  29.783  1.00  0.00     0.074 A 
ATOM     66  C   UNL A   1      41.950  33.252  30.521  1.00  0.00     0.031 C 
ATOM     67  C   UNL A   1      44.065  32.647  29.377  1.00  0.00     0.034 A 
BRANCH  54  68
ATOM     68  C   UNL A   1      47.015  27.968  26.623  1.00  0.00     0.023 A 
ATOM     69  C   UNL A   1      48.030  27.454  27.459  1.00  0.00     0.012 A 
ATOM     70  C   UNL A   1      47.190  27.938  25.226  1.00  0.00     0.148 A 
ATOM     71  C   UNL A   1      49.210  26.950  26.915  1.00  0.00     0.002 A 
ATOM     72  C   UNL A   1      48.353  27.395  24.691  1.00  0.00     0.091 A 
ATOM     73  F   UNL A   1      46.226  28.453  24.449  1.00  0.00    -0.205 F 
ATOM     74  C   UNL A   1      49.367  26.911  25.533  1.00  0.00     0.022 A 
BRANCH  72  75
ATOM     75  S   UNL A   1      48.616  27.231  22.922  1.00  0.00     0.127 S 
ATOM     76  O   UNL A   1      48.276  25.826  22.701  1.00  0.00    -0.237 OA
ATOM     77  O   UNL A   1      47.649  28.184  22.376  1.00  0.00    -0.237 OA
ATOM     78  O   UNL A   1      50.010  27.583  22.689  1.00  0.00    -0.744 OA
ENDBRANCH  72  75
ENDBRANCH  54  68
BRANCH  55  79
ATOM     79  C   UNL A   1      38.502  30.853  30.984  1.00  0.00     0.023 A 
ATOM     80  C   UNL A   1      38.360  30.608  32.364  1.00  0.00     0.012 A 
ATOM     81  C   UNL A   1      37.471  31.520  30.295  1.00  0.00     0.148 A 
ATOM     82  C   UNL A   1      37.201  30.992  33.039  1.00  0.00     0.002 A 
ATOM     83  C   UNL A   1      36.342  31.948  30.986  1.00  0.00     0.091 A 
ATOM     84  F   UNL A   1      37.618  31.734  28.981  1.00  0.00    -0.205 F 
ATOM     85  C   UNL A   1      36.197  31.670  32.354  1.00  0.00     0.022 A 
BRANCH  83  86
ATOM     86  S   UNL A   1      35.062  32.943  30.212  1.00  0.00     0.127 S 
ATOM     87  O   UNL A   1      34.519  32.016  29.223  1.00  0.00    -0.237 OA
ATOM     88  O   UNL A   1      34.177  33.231  31.341  1.00  0.00    -0.237 OA
ATOM     89  O   UNL A   1      35.748  34.113  29.678  1.00  0.00    -0.744 OA
ENDBRANCH  83  86
ENDBRANCH  55  79
BRANCH  67  90
ATOM     90  C   UNL A   1      44.590  34.023  29.690  1.00  0.00     0.023 A 
ATOM     91  C   UNL A   1      45.338  34.233  30.865  1.00  0.00     0.012 A 
ATOM     92  C   UNL A   1      44.415  35.084  28.781  1.00  0.00     0.148 A 
ATOM     93  C   UNL A   1      45.881  35.487  31.144  1.00  0.00     0.002 A 
ATOM     94  C   UNL A   1      44.999  36.318  29.042  1.00  0.00     0.091 A 
ATOM     95  F   UNL A   1      43.684  34.868  27.677  1.00  0.00    -0.205 F 
ATOM     96  C   UNL A   1      45.722  36.524  30.228  1.00  0.00     0.022 A 
BRANCH  94  97
ATOM     97  S   UNL A   1      44.927  37.682  27.874  1.00  0.00     0.127 S 
ATOM     98  O   UNL A   1      45.967  37.310  26.917  1.00  0.00    -0.237 OA
ATOM     99  O   UNL A   1      43.560  37.581  27.360  1.00  0.00    -0.237 OA
ATOM    100  O   UNL A   1      45.191  38.886  28.651  1.00  0.00    -0.744 OA
ENDBRANCH  94  97
ENDBRANCH  67  90
ENDBRANCH  41  42
ENDBRANCH  33  36
ENDBRANCH  31  32
ENDBRANCH  30  31
ENDBRANCH   1  30
TORSDOF 19
ENDMDL
MODEL 2
REMARK VINA RESULT:     -12.4      4.984     10.269
REMARK SMILES COc1cc(NC(=O)c2ccc([N+](=O)[O-])cc2)c(C(=O)NCCCCNC(=O)c2ccc(-c3c4nc(c(-c5cccc(S(=O)(=O)[O-])c5F)c5ccc([nH]5)c(-c5cccc(S(=O)(=O)[O-])c5F)c5nc(c(-c6cccc(S(=O)(=O)[O-])c6F)c6ccc3[nH]6)C=C5)C=C4)cc2)cc1OC
REMARK SMILES IDX 23 1 22 2 21 3 19 4 20 5 18 7 3 8 4 9 93 10 5 11 92 12 2 13
REMARK SMILES IDX 1 14 94 15 95 16 6 17 7 18 8 20 9 21 10 22 17 23 11 24 16 25
REMARK SMILES IDX 12 26 13 27 14 28 15 29 24 30 25 31 26 32 27 33 28 35 29 36
REMARK SMILES IDX 30 37 91 38 31 39 90 40 32 41 33 42 34 43 84 44 35 45 89 46
REMARK SMILES IDX 83 47 85 48 36 49 88 50 82 51 81 52 37 54 69 55 49 56 68 57
REMARK SMILES IDX 50 58 53 59 67 60 86 61 51 62 52 63 66 65 87 66 54 67 38 68
REMARK SMILES IDX 39 69 47 70 40 71 42 72 48 73 41 74 43 75 44 76 45 77 46 78
REMARK SMILES IDX 70 79 71 80 79 81 72 82 74 83 80 84 73 85 75 86 76 87 77 88
REMARK SMILES IDX 78 89 55 90 56 91 64 92 57 93 59 94 65 95 58 96 60 97 61 98
REMARK SMILES IDX 62 99 63 100
REMARK H PARENT 21 6 6 19 26 34 85 53 53 64
REMARK Flexibility Score: inf
ROOT
ATOM      1  C   UNL A   1      33.182  26.998  25.403  1.00  0.00     0.023 C 
ENDROOT
BRANCH   1   2
ATOM      2  C   UNL A   1      32.400  25.938  24.620  1.00  0.00     0.116 C 
BRANCH   2   3
ATOM      3  N   UNL A   1      31.955  24.877  25.502  1.00  0.00    -0.352 N 
ATOM      4  C   UNL A   1      32.507  23.684  25.892  1.00  0.00     0.253 C 
ATOM      5  O   UNL A   1      31.823  22.996  26.655  1.00  0.00    -0.269 OA
ATOM      6  H   UNL A   1      31.074  25.050  25.905  1.00  0.00     0.163 HD
BRANCH   4   7
ATOM      7  C   UNL A   1      33.874  23.190  25.499  1.00  0.00     0.067 A 
ATOM      8  C   UNL A   1      36.429  22.187  24.848  1.00  0.00     0.162 A 
ATOM      9  C   UNL A   1      35.322  21.920  24.030  1.00  0.00     0.077 A 
ATOM     10  C   UNL A   1      36.292  23.034  25.936  1.00  0.00     0.161 A 
ATOM     11  C   UNL A   1      34.031  22.370  24.349  1.00  0.00     0.058 A 
ATOM     12  C   UNL A   1      35.024  23.550  26.218  1.00  0.00     0.066 A 
BRANCH   8  13
ATOM     13  O   UNL A   1      37.650  21.692  24.476  1.00  0.00    -0.493 OA
ATOM     14  C   UNL A   1      37.848  20.369  24.981  1.00  0.00     0.278 C 
ENDBRANCH   8  13
BRANCH  10  15
ATOM     15  O   UNL A   1      37.261  23.496  26.781  1.00  0.00    -0.493 OA
ATOM     16  C   UNL A   1      38.298  24.290  26.223  1.00  0.00     0.278 C 
ENDBRANCH  10  15
BRANCH  11  17
ATOM     17  N   UNL A   1      32.897  22.089  23.536  1.00  0.00    -0.321 N 
ATOM     18  C   UNL A   1      32.297  20.944  23.068  1.00  0.00     0.255 C 
ATOM     19  H   UNL A   1      32.434  22.906  23.239  1.00  0.00     0.170 HD
ATOM     20  O   UNL A   1      31.433  20.981  22.196  1.00  0.00    -0.269 OA
BRANCH  18  21
ATOM     21  C   UNL A   1      32.645  19.628  23.611  1.00  0.00     0.040 A 
ATOM     22  C   UNL A   1      32.689  19.469  25.001  1.00  0.00     0.021 A 
ATOM     23  C   UNL A   1      32.884  18.551  22.748  1.00  0.00     0.021 A 
ATOM     24  C   UNL A   1      32.874  18.196  25.541  1.00  0.00     0.086 A 
ATOM     25  C   UNL A   1      33.067  17.276  23.283  1.00  0.00     0.086 A 
ATOM     26  C   UNL A   1      33.033  17.102  24.676  1.00  0.00     0.269 A 
BRANCH  26  27
ATOM     27  N   UNL A   1      33.107  15.748  25.234  1.00  0.00     0.062 N 
ATOM     28  O   UNL A   1      32.044  15.138  25.414  1.00  0.00    -0.258 OA
ATOM     29  O   UNL A   1      34.233  15.287  25.467  1.00  0.00    -0.258 OA
ENDBRANCH  26  27
ENDBRANCH  18  21
ENDBRANCH  11  17
ENDBRANCH   4   7
ENDBRANCH   2   3
ENDBRANCH   1   2
BRANCH   1  30
ATOM     30  C   UNL A   1      32.424  28.307  25.624  1.00  0.00     0.023 C 
BRANCH  30  31
ATOM     31  C   UNL A   1      33.215  29.564  25.289  1.00  0.00     0.116 C 
BRANCH  31  32
ATOM     32  N   UNL A   1      32.718  30.755  25.963  1.00  0.00    -0.352 N 
ATOM     33  C   UNL A   1      33.266  31.410  27.039  1.00  0.00     0.251 C 
ATOM     34  H   UNL A   1      31.885  31.138  25.604  1.00  0.00     0.163 HD
ATOM     35  O   UNL A   1      32.675  32.352  27.560  1.00  0.00    -0.269 OA
BRANCH  33  36
ATOM     36  C   UNL A   1      34.551  30.935  27.585  1.00  0.00     0.039 A 
ATOM     37  C   UNL A   1      35.583  31.857  27.777  1.00  0.00     0.014 A 
ATOM     38  C   UNL A   1      34.712  29.599  27.961  1.00  0.00     0.014 A 
ATOM     39  C   UNL A   1      36.758  31.451  28.410  1.00  0.00     0.010 A 
ATOM     40  C   UNL A   1      35.856  29.213  28.651  1.00  0.00     0.010 A 
ATOM     41  C   UNL A   1      36.888  30.134  28.882  1.00  0.00    -0.014 A 
BRANCH  41  42
ATOM     42  C   UNL A   1      38.090  29.701  29.638  1.00  0.00     0.031 A 
ATOM     43  C   UNL A   1      38.339  30.232  31.023  1.00  0.00     0.074 A 
ATOM     44  C   UNL A   1      39.003  28.913  29.039  1.00  0.00     0.049 A 
ATOM     45  N   UNL A   1      39.361  30.025  31.812  1.00  0.00    -0.248 NA
ATOM     46  C   UNL A   1      37.322  31.137  31.583  1.00  0.00     0.031 C 
ATOM     47  C   UNL A   1      38.915  28.406  27.668  1.00  0.00     0.029 A 
ATOM     48  N   UNL A   1      40.201  28.424  29.495  1.00  0.00    -0.354 N 
ATOM     49  C   UNL A   1      39.131  30.801  32.941  1.00  0.00     0.074 A 
ATOM     50  C   UNL A   1      37.889  31.508  32.723  1.00  0.00     0.031 C 
ATOM     51  C   UNL A   1      40.010  27.678  27.395  1.00  0.00     0.029 A 
ATOM     52  C   UNL A   1      40.889  27.685  28.561  1.00  0.00     0.049 A 
ATOM     53  H   UNL A   1      40.537  28.586  30.407  1.00  0.00     0.167 HD
ATOM     54  C   UNL A   1      39.870  30.890  34.072  1.00  0.00     0.034 A 
ATOM     55  C   UNL A   1      42.093  27.086  28.634  1.00  0.00     0.034 A 
ATOM     56  C   UNL A   1      41.076  30.143  34.306  1.00  0.00     0.049 A 
ATOM     57  C   UNL A   1      42.867  27.156  29.922  1.00  0.00     0.074 A 
ATOM     58  C   UNL A   1      41.844  30.088  35.455  1.00  0.00     0.029 A 
ATOM     59  N   UNL A   1      41.690  29.323  33.372  1.00  0.00    -0.354 N 
ATOM     60  N   UNL A   1      42.548  27.756  31.043  1.00  0.00    -0.248 NA
ATOM     61  C   UNL A   1      44.147  26.436  29.971  1.00  0.00     0.031 C 
ATOM     62  C   UNL A   1      42.933  29.244  35.212  1.00  0.00     0.029 A 
ATOM     63  C   UNL A   1      42.833  28.761  33.916  1.00  0.00     0.049 A 
ATOM     64  H   UNL A   1      41.364  29.164  32.457  1.00  0.00     0.167 HD
ATOM     65  C   UNL A   1      43.568  27.458  31.939  1.00  0.00     0.074 A 
ATOM     66  C   UNL A   1      44.505  26.606  31.236  1.00  0.00     0.031 C 
ATOM     67  C   UNL A   1      43.724  27.867  33.223  1.00  0.00     0.034 A 
BRANCH  54  68
ATOM     68  C   UNL A   1      39.358  31.781  35.171  1.00  0.00     0.023 A 
ATOM     69  C   UNL A   1      38.413  31.275  36.089  1.00  0.00     0.012 A 
ATOM     70  C   UNL A   1      39.844  33.093  35.334  1.00  0.00     0.148 A 
ATOM     71  C   UNL A   1      37.936  32.070  37.130  1.00  0.00     0.002 A 
ATOM     72  C   UNL A   1      39.394  33.865  36.400  1.00  0.00     0.091 A 
ATOM     73  F   UNL A   1      40.723  33.566  34.439  1.00  0.00    -0.205 F 
ATOM     74  C   UNL A   1      38.433  33.360  37.291  1.00  0.00     0.022 A 
BRANCH  72  75
ATOM     75  S   UNL A   1      40.030  35.511  36.736  1.00  0.00     0.127 S 
ATOM     76  O   UNL A   1      39.529  36.262  35.585  1.00  0.00    -0.237 OA
ATOM     77  O   UNL A   1      39.380  35.839  38.006  1.00  0.00    -0.237 OA
ATOM     78  O   UNL A   1      41.477  35.373  36.815  1.00  0.00    -0.744 OA
ENDBRANCH  72  75
ENDBRANCH  54  68
BRANCH  55  79
ATOM     79  C   UNL A   1      42.603  26.300  27.475  1.00  0.00     0.023 A 
ATOM     80  C   UNL A   1      43.435  26.930  26.529  1.00  0.00     0.012 A 
ATOM     81  C   UNL A   1      42.301  24.933  27.321  1.00  0.00     0.148 A 
ATOM     82  C   UNL A   1      43.932  26.223  25.434  1.00  0.00     0.002 A 
ATOM     83  C   UNL A   1      42.843  24.221  26.256  1.00  0.00     0.091 A 
ATOM     84  F   UNL A   1      41.498  24.353  28.223  1.00  0.00    -0.205 F 
ATOM     85  C   UNL A   1      43.646  24.868  25.303  1.00  0.00     0.022 A 
BRANCH  83  86
ATOM     86  S   UNL A   1      42.635  22.445  26.083  1.00  0.00     0.127 S 
ATOM     87  O   UNL A   1      43.207  21.953  27.333  1.00  0.00    -0.237 OA
ATOM     88  O   UNL A   1      41.181  22.319  25.977  1.00  0.00    -0.237 OA
ATOM     89  O   UNL A   1      43.355  22.086  24.868  1.00  0.00    -0.744 OA
ENDBRANCH  83  86
ENDBRANCH  55  79
BRANCH  67  90
ATOM     90  C   UNL A   1      44.935  27.377  33.970  1.00  0.00     0.023 A 
ATOM     91  C   UNL A   1      46.109  28.156  33.983  1.00  0.00     0.012 A 
ATOM     92  C   UNL A   1      44.883  26.190  34.726  1.00  0.00     0.148 A 
ATOM     93  C   UNL A   1      47.223  27.747  34.717  1.00  0.00     0.002 A 
ATOM     94  C   UNL A   1      45.980  25.813  35.492  1.00  0.00     0.091 A 
ATOM     95  F   UNL A   1      43.763  25.453  34.685  1.00  0.00    -0.205 F 
ATOM     96  C   UNL A   1      47.153  26.583  35.480  1.00  0.00     0.022 A 
BRANCH  94  97
ATOM     97  S   UNL A   1      45.946  24.382  36.579  1.00  0.00     0.127 S 
ATOM     98  O   UNL A   1      45.817  23.284  35.623  1.00  0.00    -0.237 OA
ATOM     99  O   UNL A   1      47.247  24.463  37.243  1.00  0.00    -0.237 OA
ATOM    100  O   UNL A   1      44.805  24.580  37.463  1.00  0.00    -0.744 OA
ENDBRANCH  94  97
ENDBRANCH  67  90
ENDBRANCH  41  42
ENDBRANCH  33  36
ENDBRANCH  31  32
ENDBRANCH  30  31
ENDBRANCH   1  30
TORSDOF 19
ENDMDL
MODEL 3
REMARK VINA RESULT:     -12.4      1.314      7.585
REMARK SMILES COc1cc(NC(=O)c2ccc([N+](=O)[O-])cc2)c(C(=O)NCCCCNC(=O)c2ccc(-c3c4nc(c(-c5cccc(S(=O)(=O)[O-])c5F)c5ccc([nH]5)c(-c5cccc(S(=O)(=O)[O-])c5F)c5nc(c(-c6cccc(S(=O)(=O)[O-])c6F)c6ccc3[nH]6)C=C5)C=C4)cc2)cc1OC
REMARK SMILES IDX 23 1 22 2 21 3 19 4 20 5 18 7 3 8 4 9 93 10 5 11 92 12 2 13
REMARK SMILES IDX 1 14 94 15 95 16 6 17 7 18 8 20 9 21 10 22 17 23 11 24 16 25
REMARK SMILES IDX 12 26 13 27 14 28 15 29 24 30 25 31 26 32 27 33 28 35 29 36
REMARK SMILES IDX 30 37 91 38 31 39 90 40 32 41 33 42 34 43 84 44 35 45 89 46
REMARK SMILES IDX 83 47 85 48 36 49 88 50 82 51 81 52 37 54 69 55 49 56 68 57
REMARK SMILES IDX 50 58 53 59 67 60 86 61 51 62 52 63 66 65 87 66 54 67 38 68
REMARK SMILES IDX 39 69 47 70 40 71 42 72 48 73 41 74 43 75 44 76 45 77 46 78
REMARK SMILES IDX 70 79 71 80 79 81 72 82 74 83 80 84 73 85 75 86 76 87 77 88
REMARK SMILES IDX 78 89 55 90 56 91 64 92 57 93 59 94 65 95 58 96 60 97 61 98
REMARK SMILES IDX 62 99 63 100
REMARK H PARENT 21 6 6 19 26 34 85 53 53 64
REMARK Flexibility Score: inf
ROOT
ATOM      1  C   UNL A   1      35.106  20.193  24.851  1.00  0.00     0.023 C 
ENDROOT
BRANCH   1   2
ATOM      2  C   UNL A   1      33.633  19.780  24.770  1.00  0.00     0.116 C 
BRANCH   2   3
ATOM      3  N   UNL A   1      33.017  20.319  23.574  1.00  0.00    -0.352 N 
ATOM      4  C   UNL A   1      32.301  21.460  23.316  1.00  0.00     0.253 C 
ATOM      5  O   UNL A   1      31.894  21.593  22.159  1.00  0.00    -0.269 OA
ATOM      6  H   UNL A   1      33.137  19.747  22.783  1.00  0.00     0.163 HD
BRANCH   4   7
ATOM      7  C   UNL A   1      32.026  22.555  24.312  1.00  0.00     0.067 A 
ATOM      8  C   UNL A   1      31.601  24.571  26.239  1.00  0.00     0.162 A 
ATOM      9  C   UNL A   1      32.143  24.880  24.984  1.00  0.00     0.077 A 
ATOM     10  C   UNL A   1      31.176  23.279  26.506  1.00  0.00     0.161 A 
ATOM     11  C   UNL A   1      32.405  23.893  24.020  1.00  0.00     0.058 A 
ATOM     12  C   UNL A   1      31.362  22.305  25.522  1.00  0.00     0.066 A 
BRANCH   8  13
ATOM     13  O   UNL A   1      31.398  25.590  27.131  1.00  0.00    -0.493 OA
ATOM     14  C   UNL A   1      31.001  26.791  26.464  1.00  0.00     0.278 C 
ENDBRANCH   8  13
BRANCH  10  15
ATOM     15  O   UNL A   1      30.533  22.808  27.615  1.00  0.00    -0.493 OA
ATOM     16  C   UNL A   1      29.130  22.602  27.528  1.00  0.00     0.278 C 
ENDBRANCH  10  15
BRANCH  11  17
ATOM     17  N   UNL A   1      32.973  24.193  22.750  1.00  0.00    -0.321 N 
ATOM     18  C   UNL A   1      32.895  25.252  21.877  1.00  0.00     0.255 C 
ATOM     19  H   UNL A   1      33.557  23.474  22.418  1.00  0.00     0.170 HD
ATOM     20  O   UNL A   1      33.326  25.173  20.729  1.00  0.00    -0.269 OA
BRANCH  18  21
ATOM     21  C   UNL A   1      32.317  26.535  22.289  1.00  0.00     0.040 A 
ATOM     22  C   UNL A   1      30.946  26.744  22.095  1.00  0.00     0.021 A 
ATOM     23  C   UNL A   1      33.121  27.505  22.901  1.00  0.00     0.021 A 
ATOM     24  C   UNL A   1      30.348  27.894  22.609  1.00  0.00     0.086 A 
ATOM     25  C   UNL A   1      32.525  28.655  23.420  1.00  0.00     0.086 A 
ATOM     26  C   UNL A   1      31.138  28.829  23.295  1.00  0.00     0.269 A 
BRANCH  26  27
ATOM     27  N   UNL A   1      30.496  29.978  23.941  1.00  0.00     0.062 N 
ATOM     28  O   UNL A   1      31.050  30.467  24.934  1.00  0.00    -0.258 OA
ATOM     29  O   UNL A   1      29.447  30.405  23.436  1.00  0.00    -0.258 OA
ENDBRANCH  26  27
ENDBRANCH  18  21
ENDBRANCH  11  17
ENDBRANCH   4   7
ENDBRANCH   2   3
ENDBRANCH   1   2
BRANCH   1  30
ATOM     30  C   UNL A   1      35.331  21.689  25.073  1.00  0.00     0.023 C 
BRANCH  30  31
ATOM     31  C   UNL A   1      36.642  22.039  25.765  1.00  0.00     0.116 C 
BRANCH  31  32
ATOM     32  N   UNL A   1      37.637  20.978  25.684  1.00  0.00    -0.352 N 
ATOM     33  C   UNL A   1      38.972  21.044  26.003  1.00  0.00     0.251 C 
ATOM     34  H   UNL A   1      37.313  20.107  25.359  1.00  0.00     0.163 HD
ATOM     35  O   UNL A   1      39.709  20.086  25.789  1.00  0.00    -0.269 OA
BRANCH  33  36
ATOM     36  C   UNL A   1      39.511  22.298  26.563  1.00  0.00     0.039 A 
ATOM     37  C   UNL A   1      40.509  22.225  27.538  1.00  0.00     0.014 A 
ATOM     38  C   UNL A   1      39.074  23.535  26.083  1.00  0.00     0.014 A 
ATOM     39  C   UNL A   1      41.119  23.398  27.985  1.00  0.00     0.010 A 
ATOM     40  C   UNL A   1      39.730  24.695  26.480  1.00  0.00     0.010 A 
ATOM     41  C   UNL A   1      40.757  24.638  27.433  1.00  0.00    -0.014 A 
BRANCH  41  42
ATOM     42  C   UNL A   1      41.453  25.889  27.824  1.00  0.00     0.031 A 
ATOM     43  C   UNL A   1      40.714  26.955  28.585  1.00  0.00     0.074 A 
ATOM     44  C   UNL A   1      42.715  26.105  27.407  1.00  0.00     0.049 A 
ATOM     45  N   UNL A   1      41.130  28.138  28.956  1.00  0.00    -0.248 NA
ATOM     46  C   UNL A   1      39.318  26.667  28.951  1.00  0.00     0.031 C 
ATOM     47  C   UNL A   1      43.506  25.182  26.588  1.00  0.00     0.029 A 
ATOM     48  N   UNL A   1      43.547  27.181  27.587  1.00  0.00    -0.354 N 
ATOM     49  C   UNL A   1      40.039  28.749  29.563  1.00  0.00     0.074 A 
ATOM     50  C   UNL A   1      38.934  27.820  29.482  1.00  0.00     0.031 C 
ATOM     51  C   UNL A   1      44.705  25.731  26.339  1.00  0.00     0.029 A 
ATOM     52  C   UNL A   1      44.762  27.052  26.957  1.00  0.00     0.049 A 
ATOM     53  H   UNL A   1      43.297  27.972  28.118  1.00  0.00     0.167 HD
ATOM     54  C   UNL A   1      39.972  29.961  30.163  1.00  0.00     0.034 A 
ATOM     55  C   UNL A   1      45.803  27.904  26.882  1.00  0.00     0.034 A 
ATOM     56  C   UNL A   1      41.089  30.859  30.288  1.00  0.00     0.049 A 
ATOM     57  C   UNL A   1      45.722  29.222  27.604  1.00  0.00     0.074 A 
ATOM     58  C   UNL A   1      41.150  32.065  30.963  1.00  0.00     0.029 A 
ATOM     59  N   UNL A   1      42.337  30.649  29.724  1.00  0.00    -0.354 N 
ATOM     60  N   UNL A   1      44.738  29.709  28.321  1.00  0.00    -0.248 NA
ATOM     61  C   UNL A   1      46.906  30.091  27.542  1.00  0.00     0.031 C 
ATOM     62  C   UNL A   1      42.435  32.593  30.794  1.00  0.00     0.029 A 
ATOM     63  C   UNL A   1      43.177  31.707  30.029  1.00  0.00     0.049 A 
ATOM     64  H   UNL A   1      42.590  29.865  29.185  1.00  0.00     0.167 HD
ATOM     65  C   UNL A   1      45.196  30.922  28.823  1.00  0.00     0.074 A 
ATOM     66  C   UNL A   1      46.554  31.086  28.345  1.00  0.00     0.031 C 
ATOM     67  C   UNL A   1      44.545  31.827  29.595  1.00  0.00     0.034 A 
BRANCH  54  68
ATOM     68  C   UNL A   1      38.663  30.359  30.789  1.00  0.00     0.023 A 
ATOM     69  C   UNL A   1      38.414  30.034  32.139  1.00  0.00     0.012 A 
ATOM     70  C   UNL A   1      37.703  31.096  30.068  1.00  0.00     0.148 A 
ATOM     71  C   UNL A   1      37.219  30.407  32.752  1.00  0.00     0.002 A 
ATOM     72  C   UNL A   1      36.532  31.501  30.700  1.00  0.00     0.091 A 
ATOM     73  F   UNL A   1      37.945  31.375  28.779  1.00  0.00    -0.205 F 
ATOM     74  C   UNL A   1      36.284  31.148  32.036  1.00  0.00     0.022 A 
BRANCH  72  75
ATOM     75  S   UNL A   1      35.299  32.523  29.885  1.00  0.00     0.127 S 
ATOM     76  O   UNL A   1      34.778  31.606  28.873  1.00  0.00    -0.237 OA
ATOM     77  O   UNL A   1      34.370  32.815  30.978  1.00  0.00    -0.237 OA
ATOM     78  O   UNL A   1      36.015  33.683  29.373  1.00  0.00    -0.744 OA
ENDBRANCH  72  75
ENDBRANCH  54  68
BRANCH  55  79
ATOM     79  C   UNL A   1      47.042  27.503  26.158  1.00  0.00     0.023 A 
ATOM     80  C   UNL A   1      48.029  26.766  26.842  1.00  0.00     0.012 A 
ATOM     81  C   UNL A   1      47.235  27.813  24.799  1.00  0.00     0.148 A 
ATOM     82  C   UNL A   1      49.200  26.371  26.193  1.00  0.00     0.002 A 
ATOM     83  C   UNL A   1      48.380  27.370  24.144  1.00  0.00     0.091 A 
ATOM     84  F   UNL A   1      46.291  28.525  24.168  1.00  0.00    -0.205 F 
ATOM     85  C   UNL A   1      49.371  26.663  24.843  1.00  0.00     0.022 A 
BRANCH  83  86
ATOM     86  S   UNL A   1      48.620  27.587  22.377  1.00  0.00     0.127 S 
ATOM     87  O   UNL A   1      48.641  26.206  21.905  1.00  0.00    -0.237 OA
ATOM     88  O   UNL A   1      47.431  28.351  22.000  1.00  0.00    -0.237 OA
ATOM     89  O   UNL A   1      49.870  28.324  22.242  1.00  0.00    -0.744 OA
ENDBRANCH  83  86
ENDBRANCH  55  79
BRANCH  67  90
ATOM     90  C   UNL A   1      45.296  33.066  30.004  1.00  0.00     0.023 A 
ATOM     91  C   UNL A   1      46.083  33.051  31.173  1.00  0.00     0.012 A 
ATOM     92  C   UNL A   1      45.290  34.214  29.187  1.00  0.00     0.148 A 
ATOM     93  C   UNL A   1      46.831  34.170  31.537  1.00  0.00     0.002 A 
ATOM     94  C   UNL A   1      46.075  35.308  29.532  1.00  0.00     0.091 A 
ATOM     95  F   UNL A   1      44.520  34.214  28.089  1.00  0.00    -0.205 F 
ATOM     96  C   UNL A   1      46.837  35.292  30.711  1.00  0.00     0.022 A 
BRANCH  94  97
ATOM     97  S   UNL A   1      46.218  36.757  28.479  1.00  0.00     0.127 S 
ATOM     98  O   UNL A   1      47.255  37.525  29.167  1.00  0.00    -0.237 OA
ATOM     99  O   UNL A   1      46.635  36.176  27.203  1.00  0.00    -0.237 OA
ATOM    100  O   UNL A   1      44.895  37.368  28.460  1.00  0.00    -0.744 OA
ENDBRANCH  94  97
ENDBRANCH  67  90
ENDBRANCH  41  42
ENDBRANCH  33  36
ENDBRANCH  31  32
ENDBRANCH  30  31
ENDBRANCH   1  30
TORSDOF 19
ENDMDL
