MODEL 1
REMARK VINA RESULT:     -11.5      0.000      0.000
REMARK SMILES CC(C)(C)OC(=O)[C@]1(C(=O)NCCCCNC(=O)c2ccc(-c3c4nc(c(-c5cccc(S(=O)(=O)[O-])c5F)c5ccc([nH]5)c(-c5cccc(S(=O)(=O)[O-])c5F)c5nc(c(-c6cccc(S(=O)(=O)[O-])c6F)c6ccc3[nH]6)C=C5)C=C4)cc2)CC=CC[C@@H]1[NH3+]
REMARK SMILES IDX 13 1 12 2 11 3 9 4 10 5 8 7 82 8 86 9 83 10 85 11 84 12 6 13
REMARK SMILES IDX 7 14 5 15 2 16 1 17 3 18 4 19 87 20 14 24 15 25 16 26 17 27
REMARK SMILES IDX 18 29 19 30 20 31 81 32 21 33 80 34 22 35 23 36 24 37 74 38
REMARK SMILES IDX 25 39 79 40 73 41 75 42 26 43 78 44 72 45 71 46 27 48 59 49
REMARK SMILES IDX 39 50 58 51 40 52 43 53 57 54 76 55 41 56 42 57 56 59 77 60
REMARK SMILES IDX 44 61 28 62 29 63 37 64 30 65 32 66 38 67 31 68 33 69 34 70
REMARK SMILES IDX 35 71 36 72 60 73 61 74 69 75 62 76 64 77 70 78 63 79 65 80
REMARK SMILES IDX 66 81 67 82 68 83 45 84 46 85 54 86 47 87 49 88 55 89 48 90
REMARK SMILES IDX 50 91 51 92 52 93 53 94
REMARK H PARENT 11 6 87 21 87 22 87 23 16 28 75 47 43 58
REMARK Flexibility Score: inf
ROOT
ATOM      1  C   UNL A   1      34.143  20.780  25.695  1.00  0.00     0.023 C 
ENDROOT
BRANCH   1   2
ATOM      2  C   UNL A   1      32.975  21.571  25.108  1.00  0.00     0.116 C 
BRANCH   2   3
ATOM      3  N   UNL A   1      32.125  22.126  26.146  1.00  0.00    -0.355 N 
ATOM      4  C   UNL A   1      31.763  23.400  26.470  1.00  0.00     0.244 C 
ATOM      5  O   UNL A   1      31.041  23.466  27.474  1.00  0.00    -0.274 OA
ATOM      6  H   UNL A   1      31.731  21.444  26.735  1.00  0.00     0.163 HD
BRANCH   4   7
ATOM      7  C   UNL A   1      32.131  24.662  25.629  1.00  0.00     0.201 C 
ATOM      8  C   UNL A   1      33.688  24.758  25.608  1.00  0.00     0.062 C 
ATOM      9  C   UNL A   1      31.558  24.435  24.179  1.00  0.00     0.212 C 
ATOM     10  C   UNL A   1      34.363  25.163  24.336  1.00  0.00    -0.029 C 
ATOM     11  C   UNL A   1      32.247  25.227  23.044  1.00  0.00     0.093 C 
ATOM     12  C   UNL A   1      33.721  25.380  23.188  1.00  0.00    -0.025 C 
BRANCH   7  13
ATOM     13  C   UNL A   1      31.596  25.924  26.310  1.00  0.00     0.328 C 
ATOM     14  O   UNL A   1      30.405  26.128  26.506  1.00  0.00    -0.251 OA
BRANCH  13  15
ATOM     15  O   UNL A   1      32.552  26.764  26.799  1.00  0.00    -0.459 OA
BRANCH  15  16
ATOM     16  C   UNL A   1      32.597  28.135  26.304  1.00  0.00     0.104 C 
ATOM     17  C   UNL A   1      31.824  28.963  27.339  1.00  0.00     0.056 C 
ATOM     18  C   UNL A   1      31.874  28.234  24.954  1.00  0.00     0.056 C 
ATOM     19  C   UNL A   1      34.026  28.702  26.223  1.00  0.00     0.056 C 
ENDBRANCH  15  16
ENDBRANCH  13  15
ENDBRANCH   7  13
BRANCH   9  20
ATOM     20  N   UNL A   1      30.096  24.631  24.049  1.00  0.00    -0.353 N 
ATOM     21  H   UNL A   1      29.910  25.570  23.697  1.00  0.00     0.344 HD
ATOM     22  H   UNL A   1      29.655  24.515  24.961  1.00  0.00     0.344 HD
ATOM     23  H   UNL A   1      29.717  23.944  23.398  1.00  0.00     0.344 HD
ENDBRANCH   9  20
ENDBRANCH   4   7
ENDBRANCH   2   3
ENDBRANCH   1   2
BRANCH   1  24
ATOM     24  C   UNL A   1      35.184  21.625  26.425  1.00  0.00     0.023 C 
BRANCH  24  25
ATOM     25  C   UNL A   1      36.397  22.019  25.592  1.00  0.00     0.116 C 
BRANCH  25  26
ATOM     26  N   UNL A   1      37.436  20.997  25.557  1.00  0.00    -0.352 N 
ATOM     27  C   UNL A   1      38.757  21.118  25.912  1.00  0.00     0.251 C 
ATOM     28  H   UNL A   1      37.155  20.108  25.239  1.00  0.00     0.163 HD
ATOM     29  O   UNL A   1      39.537  20.182  25.754  1.00  0.00    -0.269 OA
BRANCH  27  30
ATOM     30  C   UNL A   1      39.230  22.407  26.450  1.00  0.00     0.039 A 
ATOM     31  C   UNL A   1      40.293  22.410  27.354  1.00  0.00     0.014 A 
ATOM     32  C   UNL A   1      38.676  23.605  25.993  1.00  0.00     0.014 A 
ATOM     33  C   UNL A   1      40.853  23.627  27.747  1.00  0.00     0.010 A 
ATOM     34  C   UNL A   1      39.280  24.810  26.329  1.00  0.00     0.010 A 
ATOM     35  C   UNL A   1      40.374  24.832  27.208  1.00  0.00    -0.014 A 
BRANCH  35  36
ATOM     36  C   UNL A   1      41.008  26.132  27.539  1.00  0.00     0.031 A 
ATOM     37  C   UNL A   1      42.433  26.393  27.138  1.00  0.00     0.074 A 
ATOM     38  C   UNL A   1      40.335  27.030  28.286  1.00  0.00     0.049 A 
ATOM     39  N   UNL A   1      43.184  27.430  27.397  1.00  0.00    -0.248 NA
ATOM     40  C   UNL A   1      43.114  25.336  26.371  1.00  0.00     0.031 C 
ATOM     41  C   UNL A   1      38.980  26.851  28.810  1.00  0.00     0.029 A 
ATOM     42  N   UNL A   1      40.712  28.262  28.757  1.00  0.00    -0.354 N 
ATOM     43  C   UNL A   1      44.433  27.137  26.864  1.00  0.00     0.074 A 
ATOM     44  C   UNL A   1      44.350  25.810  26.295  1.00  0.00     0.031 C 
ATOM     45  C   UNL A   1      38.638  27.933  29.528  1.00  0.00     0.029 A 
ATOM     46  C   UNL A   1      39.755  28.873  29.533  1.00  0.00     0.049 A 
ATOM     47  H   UNL A   1      41.585  28.671  28.559  1.00  0.00     0.167 HD
ATOM     48  C   UNL A   1      45.539  27.916  26.817  1.00  0.00     0.034 A 
ATOM     49  C   UNL A   1      39.775  30.058  30.175  1.00  0.00     0.034 A 
ATOM     50  C   UNL A   1      45.597  29.257  27.329  1.00  0.00     0.049 A 
ATOM     51  C   UNL A   1      40.995  30.931  30.050  1.00  0.00     0.074 A 
ATOM     52  C   UNL A   1      46.639  30.164  27.249  1.00  0.00     0.029 A 
ATOM     53  N   UNL A   1      44.569  29.887  28.012  1.00  0.00    -0.354 N 
ATOM     54  N   UNL A   1      42.110  30.703  29.396  1.00  0.00    -0.248 NA
ATOM     55  C   UNL A   1      40.948  32.241  30.717  1.00  0.00     0.031 C 
ATOM     56  C   UNL A   1      46.241  31.342  27.889  1.00  0.00     0.029 A 
ATOM     57  C   UNL A   1      44.948  31.171  28.358  1.00  0.00     0.049 A 
ATOM     58  H   UNL A   1      43.696  29.480  28.219  1.00  0.00     0.167 HD
ATOM     59  C   UNL A   1      42.879  31.851  29.542  1.00  0.00     0.074 A 
ATOM     60  C   UNL A   1      42.095  32.782  30.329  1.00  0.00     0.031 C 
ATOM     61  C   UNL A   1      44.129  32.107  29.084  1.00  0.00     0.034 A 
BRANCH  48  62
ATOM     62  C   UNL A   1      46.754  27.361  26.121  1.00  0.00     0.023 A 
ATOM     63  C   UNL A   1      46.886  27.533  24.728  1.00  0.00     0.012 A 
ATOM     64  C   UNL A   1      47.783  26.727  26.842  1.00  0.00     0.148 A 
ATOM     65  C   UNL A   1      48.010  27.054  24.056  1.00  0.00     0.002 A 
ATOM     66  C   UNL A   1      48.921  26.289  26.172  1.00  0.00     0.091 A 
ATOM     67  F   UNL A   1      47.628  26.553  28.162  1.00  0.00    -0.205 F 
ATOM     68  C   UNL A   1      49.030  26.443  24.779  1.00  0.00     0.022 A 
BRANCH  66  69
ATOM     69  S   UNL A   1      50.322  25.554  27.020  1.00  0.00     0.127 S 
ATOM     70  O   UNL A   1      49.730  24.336  27.569  1.00  0.00    -0.237 OA
ATOM     71  O   UNL A   1      51.266  25.333  25.924  1.00  0.00    -0.237 OA
ATOM     72  O   UNL A   1      50.756  26.537  28.002  1.00  0.00    -0.744 OA
ENDBRANCH  66  69
ENDBRANCH  48  62
BRANCH  49  73
ATOM     73  C   UNL A   1      38.572  30.527  30.919  1.00  0.00     0.023 A 
ATOM     74  C   UNL A   1      38.485  30.285  32.304  1.00  0.00     0.012 A 
ATOM     75  C   UNL A   1      37.532  31.228  30.279  1.00  0.00     0.148 A 
ATOM     76  C   UNL A   1      37.372  30.702  33.032  1.00  0.00     0.002 A 
ATOM     77  C   UNL A   1      36.448  31.687  31.020  1.00  0.00     0.091 A 
ATOM     78  F   UNL A   1      37.624  31.436  28.957  1.00  0.00    -0.205 F 
ATOM     79  C   UNL A   1      36.358  31.411  32.394  1.00  0.00     0.022 A 
BRANCH  77  80
ATOM     80  S   UNL A   1      35.165  32.717  30.299  1.00  0.00     0.127 S 
ATOM     81  O   UNL A   1      34.665  31.864  29.224  1.00  0.00    -0.237 OA
ATOM     82  O   UNL A   1      34.245  32.893  31.424  1.00  0.00    -0.237 OA
ATOM     83  O   UNL A   1      35.839  33.939  29.885  1.00  0.00    -0.744 OA
ENDBRANCH  77  80
ENDBRANCH  49  73
BRANCH  61  84
ATOM     84  C   UNL A   1      44.723  33.455  29.389  1.00  0.00     0.023 A 
ATOM     85  C   UNL A   1      45.466  33.636  30.572  1.00  0.00     0.012 A 
ATOM     86  C   UNL A   1      44.618  34.514  28.466  1.00  0.00     0.148 A 
ATOM     87  C   UNL A   1      46.074  34.861  30.844  1.00  0.00     0.002 A 
ATOM     88  C   UNL A   1      45.264  35.717  28.723  1.00  0.00     0.091 A 
ATOM     89  F   UNL A   1      43.889  34.327  27.356  1.00  0.00    -0.205 F 
ATOM     90  C   UNL A   1      45.984  35.896  29.916  1.00  0.00     0.022 A 
BRANCH  88  91
ATOM     91  S   UNL A   1      45.278  37.068  27.540  1.00  0.00     0.127 S 
ATOM     92  O   UNL A   1      45.975  36.465  26.405  1.00  0.00    -0.237 OA
ATOM     93  O   UNL A   1      43.851  37.307  27.320  1.00  0.00    -0.237 OA
ATOM     94  O   UNL A   1      45.977  38.165  28.195  1.00  0.00    -0.744 OA
ENDBRANCH  88  91
ENDBRANCH  61  84
ENDBRANCH  35  36
ENDBRANCH  27  30
ENDBRANCH  25  26
ENDBRANCH  24  25
ENDBRANCH   1  24
TORSDOF 18
ENDMDL
MODEL 2
REMARK VINA RESULT:     -11.3      4.775      9.956
REMARK SMILES CC(C)(C)OC(=O)[C@]1(C(=O)NCCCCNC(=O)c2ccc(-c3c4nc(c(-c5cccc(S(=O)(=O)[O-])c5F)c5ccc([nH]5)c(-c5cccc(S(=O)(=O)[O-])c5F)c5nc(c(-c6cccc(S(=O)(=O)[O-])c6F)c6ccc3[nH]6)C=C5)C=C4)cc2)CC=CC[C@@H]1[NH3+]
REMARK SMILES IDX 13 1 12 2 11 3 9 4 10 5 8 7 82 8 86 9 83 10 85 11 84 12 6 13
REMARK SMILES IDX 7 14 5 15 2 16 1 17 3 18 4 19 87 20 14 24 15 25 16 26 17 27
REMARK SMILES IDX 18 29 19 30 20 31 81 32 21 33 80 34 22 35 23 36 24 37 74 38
REMARK SMILES IDX 25 39 79 40 73 41 75 42 26 43 78 44 72 45 71 46 27 48 59 49
REMARK SMILES IDX 39 50 58 51 40 52 43 53 57 54 76 55 41 56 42 57 56 59 77 60
REMARK SMILES IDX 44 61 28 62 29 63 37 64 30 65 32 66 38 67 31 68 33 69 34 70
REMARK SMILES IDX 35 71 36 72 60 73 61 74 69 75 62 76 64 77 70 78 63 79 65 80
REMARK SMILES IDX 66 81 67 82 68 83 45 84 46 85 54 86 47 87 49 88 55 89 48 90
REMARK SMILES IDX 50 91 51 92 52 93 53 94
REMARK H PARENT 11 6 87 21 87 22 87 23 16 28 75 47 43 58
REMARK Flexibility Score: inf
ROOT
ATOM      1  C   UNL A   1      31.325  29.126  24.134  1.00  0.00     0.023 C 
ENDROOT
BRANCH   1   2
ATOM      2  C   UNL A   1      30.970  27.668  23.844  1.00  0.00     0.116 C 
BRANCH   2   3
ATOM      3  N   UNL A   1      30.293  27.046  24.966  1.00  0.00    -0.355 N 
ATOM      4  C   UNL A   1      30.437  25.841  25.588  1.00  0.00     0.244 C 
ATOM      5  O   UNL A   1      29.621  25.657  26.501  1.00  0.00    -0.274 OA
ATOM      6  H   UNL A   1      29.585  27.607  25.356  1.00  0.00     0.163 HD
BRANCH   4   7
ATOM      7  C   UNL A   1      31.566  24.812  25.266  1.00  0.00     0.201 C 
ATOM      8  C   UNL A   1      32.926  25.547  25.482  1.00  0.00     0.062 C 
ATOM      9  C   UNL A   1      31.403  23.615  26.277  1.00  0.00     0.212 C 
ATOM     10  C   UNL A   1      34.049  24.798  26.127  1.00  0.00    -0.029 C 
ATOM     11  C   UNL A   1      32.674  22.777  26.549  1.00  0.00     0.093 C 
ATOM     12  C   UNL A   1      33.942  23.556  26.600  1.00  0.00    -0.025 C 
BRANCH   7  13
ATOM     13  C   UNL A   1      31.493  24.392  23.796  1.00  0.00     0.328 C 
ATOM     14  O   UNL A   1      30.441  24.137  23.223  1.00  0.00    -0.251 OA
BRANCH  13  15
ATOM     15  O   UNL A   1      32.678  24.434  23.125  1.00  0.00    -0.459 OA
BRANCH  15  16
ATOM     16  C   UNL A   1      33.248  23.185  22.634  1.00  0.00     0.104 C 
ATOM     17  C   UNL A   1      33.270  23.326  21.106  1.00  0.00     0.056 C 
ATOM     18  C   UNL A   1      32.339  22.006  23.007  1.00  0.00     0.056 C 
ATOM     19  C   UNL A   1      34.696  22.954  23.104  1.00  0.00     0.056 C 
ENDBRANCH  15  16
ENDBRANCH  13  15
ENDBRANCH   7  13
BRANCH   9  20
ATOM     20  N   UNL A   1      30.301  22.678  25.960  1.00  0.00    -0.353 N 
ATOM     21  H   UNL A   1      30.678  21.739  25.837  1.00  0.00     0.344 HD
ATOM     22  H   UNL A   1      29.839  22.975  25.100  1.00  0.00     0.344 HD
ATOM     23  H   UNL A   1      29.626  22.676  26.724  1.00  0.00     0.344 HD
ENDBRANCH   9  20
ENDBRANCH   4   7
ENDBRANCH   2   3
ENDBRANCH   1   2
BRANCH   1  24
ATOM     24  C   UNL A   1      32.596  29.322  24.956  1.00  0.00     0.023 C 
BRANCH  24  25
ATOM     25  C   UNL A   1      32.373  29.707  26.413  1.00  0.00     0.116 C 
BRANCH  25  26
ATOM     26  N   UNL A   1      32.233  31.143  26.621  1.00  0.00    -0.352 N 
ATOM     27  C   UNL A   1      33.104  31.998  27.250  1.00  0.00     0.251 C 
ATOM     28  H   UNL A   1      31.410  31.551  26.265  1.00  0.00     0.163 HD
ATOM     29  O   UNL A   1      32.811  33.178  27.418  1.00  0.00    -0.269 OA
BRANCH  27  30
ATOM     30  C   UNL A   1      34.380  31.460  27.756  1.00  0.00     0.039 A 
ATOM     31  C   UNL A   1      35.432  32.344  28.004  1.00  0.00     0.014 A 
ATOM     32  C   UNL A   1      34.500  30.103  28.061  1.00  0.00     0.014 A 
ATOM     33  C   UNL A   1      36.588  31.873  28.630  1.00  0.00     0.010 A 
ATOM     34  C   UNL A   1      35.620  29.652  28.749  1.00  0.00     0.010 A 
ATOM     35  C   UNL A   1      36.674  30.533  29.040  1.00  0.00    -0.014 A 
BRANCH  35  36
ATOM     36  C   UNL A   1      37.852  30.029  29.787  1.00  0.00     0.031 A 
ATOM     37  C   UNL A   1      38.120  30.519  31.182  1.00  0.00     0.074 A 
ATOM     38  C   UNL A   1      38.730  29.211  29.171  1.00  0.00     0.049 A 
ATOM     39  N   UNL A   1      39.130  30.255  31.967  1.00  0.00    -0.248 NA
ATOM     40  C   UNL A   1      37.139  31.454  31.760  1.00  0.00     0.031 C 
ATOM     41  C   UNL A   1      38.624  28.739  27.789  1.00  0.00     0.029 A 
ATOM     42  N   UNL A   1      39.901  28.656  29.622  1.00  0.00    -0.354 N 
ATOM     43  C   UNL A   1      38.930  31.018  33.112  1.00  0.00     0.074 A 
ATOM     44  C   UNL A   1      37.719  31.781  32.906  1.00  0.00     0.031 C 
ATOM     45  C   UNL A   1      39.684  27.964  27.505  1.00  0.00     0.029 A 
ATOM     46  C   UNL A   1      40.554  27.900  28.676  1.00  0.00     0.049 A 
ATOM     47  H   UNL A   1      40.242  28.785  30.536  1.00  0.00     0.167 HD
ATOM     48  C   UNL A   1      39.666  31.051  34.247  1.00  0.00     0.034 A 
ATOM     49  C   UNL A   1      41.722  27.231  28.745  1.00  0.00     0.034 A 
ATOM     50  C   UNL A   1      40.833  30.244  34.470  1.00  0.00     0.049 A 
ATOM     51  C   UNL A   1      42.485  27.234  30.043  1.00  0.00     0.074 A 
ATOM     52  C   UNL A   1      41.597  30.134  35.618  1.00  0.00     0.029 A 
ATOM     53  N   UNL A   1      41.404  29.404  33.527  1.00  0.00    -0.354 N 
ATOM     54  N   UNL A   1      42.189  27.831  31.173  1.00  0.00    -0.248 NA
ATOM     55  C   UNL A   1      43.723  26.441  30.089  1.00  0.00     0.031 C 
ATOM     56  C   UNL A   1      42.634  29.230  35.368  1.00  0.00     0.029 A 
ATOM     57  C   UNL A   1      42.509  28.769  34.066  1.00  0.00     0.049 A 
ATOM     58  H   UNL A   1      41.072  29.276  32.609  1.00  0.00     0.167 HD
ATOM     59  C   UNL A   1      43.180  27.458  32.072  1.00  0.00     0.074 A 
ATOM     60  C   UNL A   1      44.074  26.566  31.362  1.00  0.00     0.031 C 
ATOM     61  C   UNL A   1      43.349  27.834  33.364  1.00  0.00     0.034 A 
BRANCH  48  62
ATOM     62  C   UNL A   1      39.185  31.938  35.365  1.00  0.00     0.023 A 
ATOM     63  C   UNL A   1      38.227  31.440  36.272  1.00  0.00     0.012 A 
ATOM     64  C   UNL A   1      39.712  33.229  35.553  1.00  0.00     0.148 A 
ATOM     65  C   UNL A   1      37.778  32.225  37.333  1.00  0.00     0.002 A 
ATOM     66  C   UNL A   1      39.290  33.991  36.637  1.00  0.00     0.091 A 
ATOM     67  F   UNL A   1      40.604  33.693  34.666  1.00  0.00    -0.205 F 
ATOM     68  C   UNL A   1      38.317  33.495  37.521  1.00  0.00     0.022 A 
BRANCH  66  69
ATOM     69  S   UNL A   1      39.975  35.609  37.010  1.00  0.00     0.127 S 
ATOM     70  O   UNL A   1      39.283  35.944  38.253  1.00  0.00    -0.237 OA
ATOM     71  O   UNL A   1      41.399  35.314  37.165  1.00  0.00    -0.237 OA
ATOM     72  O   UNL A   1      39.653  36.453  35.868  1.00  0.00    -0.744 OA
ENDBRANCH  66  69
ENDBRANCH  48  62
BRANCH  49  73
ATOM     73  C   UNL A   1      42.196  26.432  27.581  1.00  0.00     0.023 A 
ATOM     74  C   UNL A   1      42.985  27.057  26.596  1.00  0.00     0.012 A 
ATOM     75  C   UNL A   1      41.898  25.062  27.452  1.00  0.00     0.148 A 
ATOM     76  C   UNL A   1      43.441  26.343  25.488  1.00  0.00     0.002 A 
ATOM     77  C   UNL A   1      42.399  24.343  26.372  1.00  0.00     0.091 A 
ATOM     78  F   UNL A   1      41.133  24.486  28.391  1.00  0.00    -0.205 F 
ATOM     79  C   UNL A   1      43.157  24.985  25.380  1.00  0.00     0.022 A 
BRANCH  77  80
ATOM     80  S   UNL A   1      42.186  22.565  26.226  1.00  0.00     0.127 S 
ATOM     81  O   UNL A   1      42.790  22.088  27.467  1.00  0.00    -0.237 OA
ATOM     82  O   UNL A   1      40.729  22.434  26.160  1.00  0.00    -0.237 OA
ATOM     83  O   UNL A   1      42.873  22.194  24.997  1.00  0.00    -0.744 OA
ENDBRANCH  77  80
ENDBRANCH  49  73
BRANCH  61  84
ATOM     84  C   UNL A   1      44.521  27.261  34.111  1.00  0.00     0.023 A 
ATOM     85  C   UNL A   1      45.761  27.929  34.078  1.00  0.00     0.012 A 
ATOM     86  C   UNL A   1      44.375  26.111  34.913  1.00  0.00     0.148 A 
ATOM     87  C   UNL A   1      46.844  27.447  34.812  1.00  0.00     0.002 A 
ATOM     88  C   UNL A   1      45.446  25.663  35.675  1.00  0.00     0.091 A 
ATOM     89  F   UNL A   1      43.192  25.478  34.913  1.00  0.00    -0.205 F 
ATOM     90  C   UNL A   1      46.684  26.323  35.619  1.00  0.00     0.022 A 
BRANCH  88  91
ATOM     91  S   UNL A   1      45.299  24.280  36.812  1.00  0.00     0.127 S 
ATOM     92  O   UNL A   1      44.267  24.757  37.731  1.00  0.00    -0.237 OA
ATOM     93  O   UNL A   1      44.872  23.192  35.929  1.00  0.00    -0.237 OA
ATOM     94  O   UNL A   1      46.622  24.098  37.393  1.00  0.00    -0.744 OA
ENDBRANCH  88  91
ENDBRANCH  61  84
ENDBRANCH  35  36
ENDBRANCH  27  30
ENDBRANCH  25  26
ENDBRANCH  24  25
ENDBRANCH   1  24
TORSDOF 18
ENDMDL
MODEL 3
REMARK VINA RESULT:     -11.2      4.697      9.980
REMARK SMILES CC(C)(C)OC(=O)[C@]1(C(=O)NCCCCNC(=O)c2ccc(-c3c4nc(c(-c5cccc(S(=O)(=O)[O-])c5F)c5ccc([nH]5)c(-c5cccc(S(=O)(=O)[O-])c5F)c5nc(c(-c6cccc(S(=O)(=O)[O-])c6F)c6ccc3[nH]6)C=C5)C=C4)cc2)CC=CC[C@@H]1[NH3+]
REMARK SMILES IDX 13 1 12 2 11 3 9 4 10 5 8 7 82 8 86 9 83 10 85 11 84 12 6 13
REMARK SMILES IDX 7 14 5 15 2 16 1 17 3 18 4 19 87 20 14 24 15 25 16 26 17 27
REMARK SMILES IDX 18 29 19 30 20 31 81 32 21 33 80 34 22 35 23 36 24 37 74 38
REMARK SMILES IDX 25 39 79 40 73 41 75 42 26 43 78 44 72 45 71 46 27 48 59 49
REMARK SMILES IDX 39 50 58 51 40 52 43 53 57 54 76 55 41 56 42 57 56 59 77 60
REMARK SMILES IDX 44 61 28 62 29 63 37 64 30 65 32 66 38 67 31 68 33 69 34 70
REMARK SMILES IDX 35 71 36 72 60 73 61 74 69 75 62 76 64 77 70 78 63 79 65 80
REMARK SMILES IDX 66 81 67 82 68 83 45 84 46 85 54 86 47 87 49 88 55 89 48 90
REMARK SMILES IDX 50 91 51 92 52 93 53 94
REMARK H PARENT 11 6 87 21 87 22 87 23 16 28 75 47 43 58
REMARK Flexibility Score: inf
ROOT
ATOM      1  C   UNL A   1      32.421  27.113  26.246  1.00  0.00     0.023 C 
ENDROOT
BRANCH   1   2
ATOM      2  C   UNL A   1      31.605  25.974  25.638  1.00  0.00     0.116 C 
BRANCH   2   3
ATOM      3  N   UNL A   1      31.328  24.931  26.608  1.00  0.00    -0.355 N 
ATOM      4  C   UNL A   1      31.603  23.596  26.644  1.00  0.00     0.244 C 
ATOM      5  O   UNL A   1      31.151  23.027  27.647  1.00  0.00    -0.274 OA
ATOM      6  H   UNL A   1      30.842  25.254  27.401  1.00  0.00     0.163 HD
BRANCH   4   7
ATOM      7  C   UNL A   1      32.475  22.848  25.588  1.00  0.00     0.201 C 
ATOM      8  C   UNL A   1      31.641  22.784  24.271  1.00  0.00     0.062 C 
ATOM      9  C   UNL A   1      33.787  23.695  25.386  1.00  0.00     0.212 C 
ATOM     10  C   UNL A   1      32.344  22.996  22.968  1.00  0.00    -0.029 C 
ATOM     11  C   UNL A   1      34.522  23.501  24.040  1.00  0.00     0.093 C 
ATOM     12  C   UNL A   1      33.634  23.311  22.860  1.00  0.00    -0.025 C 
BRANCH   7  13
ATOM     13  C   UNL A   1      32.735  21.410  26.044  1.00  0.00     0.328 C 
ATOM     14  O   UNL A   1      33.401  21.129  27.033  1.00  0.00    -0.251 OA
BRANCH  13  15
ATOM     15  O   UNL A   1      32.072  20.452  25.336  1.00  0.00    -0.459 OA
BRANCH  15  16
ATOM     16  C   UNL A   1      32.847  19.405  24.681  1.00  0.00     0.104 C 
ATOM     17  C   UNL A   1      32.688  18.167  25.573  1.00  0.00     0.056 C 
ATOM     18  C   UNL A   1      34.331  19.794  24.637  1.00  0.00     0.056 C 
ATOM     19  C   UNL A   1      32.314  19.045  23.282  1.00  0.00     0.056 C 
ENDBRANCH  15  16
ENDBRANCH  13  15
ENDBRANCH   7  13
BRANCH   9  20
ATOM     20  N   UNL A   1      34.786  23.566  26.472  1.00  0.00    -0.353 N 
ATOM     21  H   UNL A   1      35.607  24.128  26.248  1.00  0.00     0.344 HD
ATOM     22  H   UNL A   1      35.058  22.588  26.569  1.00  0.00     0.344 HD
ATOM     23  H   UNL A   1      34.380  23.894  27.348  1.00  0.00     0.344 HD
ENDBRANCH   9  20
ENDBRANCH   4   7
ENDBRANCH   2   3
ENDBRANCH   1   2
BRANCH   1  24
ATOM     24  C   UNL A   1      31.918  28.513  25.902  1.00  0.00     0.023 C 
BRANCH  24  25
ATOM     25  C   UNL A   1      33.006  29.562  25.707  1.00  0.00     0.116 C 
BRANCH  25  26
ATOM     26  N   UNL A   1      32.649  30.875  26.229  1.00  0.00    -0.352 N 
ATOM     27  C   UNL A   1      33.333  31.638  27.144  1.00  0.00     0.251 C 
ATOM     28  H   UNL A   1      31.814  31.264  25.883  1.00  0.00     0.163 HD
ATOM     29  O   UNL A   1      32.865  32.699  27.550  1.00  0.00    -0.269 OA
BRANCH  27  30
ATOM     30  C   UNL A   1      34.620  31.139  27.660  1.00  0.00     0.039 A 
ATOM     31  C   UNL A   1      35.647  32.052  27.909  1.00  0.00     0.014 A 
ATOM     32  C   UNL A   1      34.776  29.786  27.974  1.00  0.00     0.014 A 
ATOM     33  C   UNL A   1      36.811  31.617  28.544  1.00  0.00     0.010 A 
ATOM     34  C   UNL A   1      35.904  29.371  28.670  1.00  0.00     0.010 A 
ATOM     35  C   UNL A   1      36.931  30.282  28.962  1.00  0.00    -0.014 A 
BRANCH  35  36
ATOM     36  C   UNL A   1      38.118  29.814  29.718  1.00  0.00     0.031 A 
ATOM     37  C   UNL A   1      38.369  30.325  31.110  1.00  0.00     0.074 A 
ATOM     38  C   UNL A   1      39.018  29.011  29.115  1.00  0.00     0.049 A 
ATOM     39  N   UNL A   1      39.382  30.094  31.901  1.00  0.00    -0.248 NA
ATOM     40  C   UNL A   1      37.364  31.242  31.674  1.00  0.00     0.031 C 
ATOM     41  C   UNL A   1      38.929  28.522  27.738  1.00  0.00     0.029 A 
ATOM     42  N   UNL A   1      40.200  28.489  29.576  1.00  0.00    -0.354 N 
ATOM     43  C   UNL A   1      39.160  30.863  33.037  1.00  0.00     0.074 A 
ATOM     44  C   UNL A   1      37.932  31.595  32.818  1.00  0.00     0.031 C 
ATOM     45  C   UNL A   1      40.008  27.770  27.466  1.00  0.00     0.029 A 
ATOM     46  C   UNL A   1      40.875  27.740  28.640  1.00  0.00     0.049 A 
ATOM     47  H   UNL A   1      40.534  28.636  30.490  1.00  0.00     0.167 HD
ATOM     48  C   UNL A   1      39.890  30.927  34.174  1.00  0.00     0.034 A 
ATOM     49  C   UNL A   1      42.058  27.100  28.721  1.00  0.00     0.034 A 
ATOM     50  C   UNL A   1      41.076  30.150  34.410  1.00  0.00     0.049 A 
ATOM     51  C   UNL A   1      42.816  27.135  30.021  1.00  0.00     0.074 A 
ATOM     52  C   UNL A   1      41.838  30.071  35.562  1.00  0.00     0.029 A 
ATOM     53  N   UNL A   1      41.670  29.314  33.478  1.00  0.00    -0.354 N 
ATOM     54  N   UNL A   1      42.502  27.736  31.143  1.00  0.00    -0.248 NA
ATOM     55  C   UNL A   1      44.073  26.372  30.080  1.00  0.00     0.031 C 
ATOM     56  C   UNL A   1      42.897  29.190  35.324  1.00  0.00     0.029 A 
ATOM     57  C   UNL A   1      42.788  28.712  34.027  1.00  0.00     0.049 A 
ATOM     58  H   UNL A   1      41.345  29.169  32.560  1.00  0.00     0.167 HD
ATOM     59  C   UNL A   1      43.499  27.396  32.050  1.00  0.00     0.074 A 
ATOM     60  C   UNL A   1      44.416  26.519  31.352  1.00  0.00     0.031 C 
ATOM     61  C   UNL A   1      43.653  27.790  33.338  1.00  0.00     0.034 A 
BRANCH  48  62
ATOM     62  C   UNL A   1      39.383  31.813  35.281  1.00  0.00     0.023 A 
ATOM     63  C   UNL A   1      38.465  31.289  36.214  1.00  0.00     0.012 A 
ATOM     64  C   UNL A   1      39.849  33.132  35.433  1.00  0.00     0.148 A 
ATOM     65  C   UNL A   1      37.995  32.075  37.266  1.00  0.00     0.002 A 
ATOM     66  C   UNL A   1      39.407  33.897  36.508  1.00  0.00     0.091 A 
ATOM     67  F   UNL A   1      40.704  33.619  34.522  1.00  0.00    -0.205 F 
ATOM     68  C   UNL A   1      38.474  33.373  37.418  1.00  0.00     0.022 A 
BRANCH  66  69
ATOM     69  S   UNL A   1      40.017  35.553  36.834  1.00  0.00     0.127 S 
ATOM     70  O   UNL A   1      39.354  35.869  38.098  1.00  0.00    -0.237 OA
ATOM     71  O   UNL A   1      41.461  35.337  36.940  1.00  0.00    -0.237 OA
ATOM     72  O   UNL A   1      39.610  36.363  35.694  1.00  0.00    -0.744 OA
ENDBRANCH  66  69
ENDBRANCH  48  62
BRANCH  49  73
ATOM     73  C   UNL A   1      42.556  26.300  27.566  1.00  0.00     0.023 A 
ATOM     74  C   UNL A   1      43.405  26.912  26.623  1.00  0.00     0.012 A 
ATOM     75  C   UNL A   1      42.221  24.942  27.407  1.00  0.00     0.148 A 
ATOM     76  C   UNL A   1      43.885  26.197  25.526  1.00  0.00     0.002 A 
ATOM     77  C   UNL A   1      42.744  24.220  26.339  1.00  0.00     0.091 A 
ATOM     78  F   UNL A   1      41.399  24.379  28.305  1.00  0.00    -0.205 F 
ATOM     79  C   UNL A   1      43.563  24.850  25.388  1.00  0.00     0.022 A 
BRANCH  77  80
ATOM     80  S   UNL A   1      42.483  22.452  26.161  1.00  0.00     0.127 S 
ATOM     81  O   UNL A   1      42.765  21.970  27.510  1.00  0.00    -0.237 OA
ATOM     82  O   UNL A   1      41.074  22.388  25.766  1.00  0.00    -0.237 OA
ATOM     83  O   UNL A   1      43.411  22.027  25.122  1.00  0.00    -0.744 OA
ENDBRANCH  77  80
ENDBRANCH  49  73
BRANCH  61  84
ATOM     84  C   UNL A   1      44.836  27.253  34.096  1.00  0.00     0.023 A 
ATOM     85  C   UNL A   1      46.039  27.986  34.116  1.00  0.00     0.012 A 
ATOM     86  C   UNL A   1      44.731  26.071  34.855  1.00  0.00     0.148 A 
ATOM     87  C   UNL A   1      47.129  27.536  34.861  1.00  0.00     0.002 A 
ATOM     88  C   UNL A   1      45.806  25.653  35.629  1.00  0.00     0.091 A 
ATOM     89  F   UNL A   1      43.584  25.378  34.805  1.00  0.00    -0.205 F 
ATOM     90  C   UNL A   1      47.009  26.378  35.626  1.00  0.00     0.022 A 
BRANCH  88  91
ATOM     91  S   UNL A   1      45.706  24.227  36.716  1.00  0.00     0.127 S 
ATOM     92  O   UNL A   1      47.105  24.041  37.097  1.00  0.00    -0.237 OA
ATOM     93  O   UNL A   1      44.841  24.713  37.793  1.00  0.00    -0.237 OA
ATOM     94  O   UNL A   1      45.125  23.156  35.917  1.00  0.00    -0.744 OA
ENDBRANCH  88  91
ENDBRANCH  61  84
ENDBRANCH  35  36
ENDBRANCH  27  30
ENDBRANCH  25  26
ENDBRANCH  24  25
ENDBRANCH   1  24
TORSDOF 18
ENDMDL
