MODEL 1
REMARK VINA RESULT:     -12.0      0.000      0.000
REMARK SMILES CC1=NN(c2ccc(Cl)cc2)C(=O)/C1=C/c1ccccc1OCC(=O)NCCCCNC(=O)c1ccc(-c2c3nc(c(-c4cccc(S(=O)(=O)[O-])c4F)c4ccc([nH]4)c(-c4cccc(S(=O)(=O)[O-])c4F)c4nc(c(-c5cccc(S(=O)(=O)[O-])c5F)c5ccc2[nH]5)C=C4)C=C3)cc1
REMARK SMILES IDX 28 1 27 2 26 3 24 4 25 5 23 7 22 8 21 9 16 10 17 11 18 12
REMARK SMILES IDX 20 13 19 14 15 15 1 16 2 17 3 18 14 19 4 20 12 21 13 22 5 23
REMARK SMILES IDX 6 24 11 25 7 26 10 27 8 28 9 29 29 30 30 31 31 32 32 33
REMARK SMILES IDX 33 35 34 36 35 37 96 38 36 39 95 40 37 41 38 42 39 43 89 44
REMARK SMILES IDX 40 45 94 46 88 47 90 48 41 49 93 50 87 51 86 52 42 54 74 55
REMARK SMILES IDX 54 56 73 57 55 58 58 59 72 60 91 61 56 62 57 63 71 65 92 66
REMARK SMILES IDX 59 67 43 68 44 69 52 70 45 71 47 72 53 73 46 74 48 75 49 76
REMARK SMILES IDX 50 77 51 78 75 79 76 80 84 81 77 82 79 83 85 84 78 85 80 86
REMARK SMILES IDX 81 87 82 88 83 89 60 90 61 91 69 92 62 93 64 94 70 95 63 96
REMARK SMILES IDX 65 97 66 98 67 99 68 100
REMARK H PARENT 26 6 31 34 90 53 58 64
REMARK Flexibility Score: inf
ROOT
ATOM      1  C   UNL A   1      32.143  28.248  27.769  1.00  0.00     0.023 C 
ENDROOT
BRANCH   1   2
ATOM      2  C   UNL A   1      31.066  27.638  26.875  1.00  0.00     0.116 C 
BRANCH   2   3
ATOM      3  N   UNL A   1      31.024  26.191  26.845  1.00  0.00    -0.353 N 
ATOM      4  C   UNL A   1      30.415  25.418  25.897  1.00  0.00     0.257 C 
ATOM      5  O   UNL A   1      30.896  24.311  25.645  1.00  0.00    -0.271 OA
ATOM      6  H   UNL A   1      31.478  25.718  27.579  1.00  0.00     0.163 HD
BRANCH   4   7
ATOM      7  C   UNL A   1      29.189  25.924  25.133  1.00  0.00     0.329 C 
BRANCH   7   8
ATOM      8  O   UNL A   1      29.354  26.221  23.765  1.00  0.00    -0.483 OA
BRANCH   8   9
ATOM      9  C   UNL A   1      29.823  27.414  23.296  1.00  0.00     0.127 A 
ATOM     10  C   UNL A   1      31.123  27.950  23.263  1.00  0.00     0.017 A 
ATOM     11  C   UNL A   1      31.328  29.215  22.673  1.00  0.00     0.012 A 
ATOM     12  C   UNL A   1      30.268  29.939  22.125  1.00  0.00     0.001 A 
ATOM     13  C   UNL A   1      28.770  28.167  22.743  1.00  0.00     0.047 A 
ATOM     14  C   UNL A   1      28.985  29.417  22.165  1.00  0.00     0.004 A 
BRANCH  10  15
ATOM     15  C   UNL A   1      32.319  27.316  23.819  1.00  0.00     0.027 C 
ATOM     16  C   UNL A   1      31.961  25.823  20.942  1.00  0.00     0.069 C 
ATOM     17  C   UNL A   1      32.859  25.480  22.078  1.00  0.00     0.071 C 
ATOM     18  N   UNL A   1      33.604  24.405  22.110  1.00  0.00    -0.169 NA
ATOM     19  C   UNL A   1      33.002  26.290  23.295  1.00  0.00     0.066 C 
ATOM     20  N   UNL A   1      34.268  24.433  23.338  1.00  0.00    -0.196 N 
ATOM     21  C   UNL A   1      34.045  25.598  24.089  1.00  0.00     0.280 C 
ATOM     22  O   UNL A   1      34.510  25.997  25.140  1.00  0.00    -0.267 OA
BRANCH  20  23
ATOM     23  C   UNL A   1      34.924  23.259  23.780  1.00  0.00     0.069 A 
ATOM     24  C   UNL A   1      34.194  22.176  24.295  1.00  0.00     0.030 A 
ATOM     25  C   UNL A   1      36.314  23.124  23.649  1.00  0.00     0.030 A 
ATOM     26  C   UNL A   1      34.833  20.990  24.669  1.00  0.00     0.023 A 
ATOM     27  C   UNL A   1      36.959  21.946  24.047  1.00  0.00     0.023 A 
ATOM     28  C   UNL A   1      36.215  20.884  24.553  1.00  0.00     0.041 A 
ATOM     29  Cl  UNL A   1      36.998  19.428  25.027  1.00  0.00    -0.084 Cl
ENDBRANCH  20  23
ENDBRANCH  10  15
ENDBRANCH   8   9
ENDBRANCH   7   8
ENDBRANCH   4   7
ENDBRANCH   2   3
ENDBRANCH   1   2
BRANCH   1  30
ATOM     30  C   UNL A   1      33.575  28.291  27.234  1.00  0.00     0.023 C 
BRANCH  30  31
ATOM     31  C   UNL A   1      33.980  29.502  26.405  1.00  0.00     0.116 C 
BRANCH  31  32
ATOM     32  N   UNL A   1      33.770  30.757  27.100  1.00  0.00    -0.352 N 
ATOM     33  C   UNL A   1      34.483  31.327  28.127  1.00  0.00     0.251 C 
ATOM     34  H   UNL A   1      32.997  31.281  26.787  1.00  0.00     0.163 HD
ATOM     35  O   UNL A   1      34.035  32.335  28.669  1.00  0.00    -0.269 OA
BRANCH  33  36
ATOM     36  C   UNL A   1      35.760  30.740  28.601  1.00  0.00     0.039 A 
ATOM     37  C   UNL A   1      36.940  31.094  27.938  1.00  0.00     0.014 A 
ATOM     38  C   UNL A   1      35.810  29.813  29.646  1.00  0.00     0.014 A 
ATOM     39  C   UNL A   1      38.163  30.552  28.344  1.00  0.00     0.010 A 
ATOM     40  C   UNL A   1      37.040  29.330  30.099  1.00  0.00     0.010 A 
ATOM     41  C   UNL A   1      38.231  29.679  29.442  1.00  0.00    -0.014 A 
BRANCH  41  42
ATOM     42  C   UNL A   1      39.535  29.126  29.901  1.00  0.00     0.031 A 
ATOM     43  C   UNL A   1      40.284  29.770  31.042  1.00  0.00     0.074 A 
ATOM     44  C   UNL A   1      40.080  28.076  29.254  1.00  0.00     0.049 A 
ATOM     45  N   UNL A   1      41.430  29.428  31.573  1.00  0.00    -0.248 NA
ATOM     46  C   UNL A   1      39.682  30.968  31.652  1.00  0.00     0.031 C 
ATOM     47  C   UNL A   1      39.505  27.413  28.082  1.00  0.00     0.029 A 
ATOM     48  N   UNL A   1      41.254  27.396  29.473  1.00  0.00    -0.354 N 
ATOM     49  C   UNL A   1      41.708  30.386  32.540  1.00  0.00     0.074 A 
ATOM     50  C   UNL A   1      40.620  31.338  32.513  1.00  0.00     0.031 C 
ATOM     51  C   UNL A   1      40.324  26.423  27.688  1.00  0.00     0.029 A 
ATOM     52  C   UNL A   1      41.492  26.393  28.560  1.00  0.00     0.049 A 
ATOM     53  H   UNL A   1      41.867  27.606  30.215  1.00  0.00     0.167 HD
ATOM     54  C   UNL A   1      42.761  30.459  33.389  1.00  0.00     0.034 A 
ATOM     55  C   UNL A   1      42.537  25.550  28.435  1.00  0.00     0.034 A 
ATOM     56  C   UNL A   1      43.814  29.481  33.456  1.00  0.00     0.049 A 
ATOM     57  C   UNL A   1      43.653  25.610  29.443  1.00  0.00     0.074 A 
ATOM     58  C   UNL A   1      44.861  29.406  34.360  1.00  0.00     0.029 A 
ATOM     59  N   UNL A   1      43.964  28.416  32.583  1.00  0.00    -0.354 N 
ATOM     60  N   UNL A   1      43.797  26.413  30.470  1.00  0.00    -0.248 NA
ATOM     61  C   UNL A   1      44.729  24.616  29.304  1.00  0.00     0.031 C 
ATOM     62  C   UNL A   1      45.662  28.314  34.013  1.00  0.00     0.029 A 
ATOM     63  C   UNL A   1      45.092  27.686  32.918  1.00  0.00     0.049 A 
ATOM     64  H   UNL A   1      43.359  28.210  31.835  1.00  0.00     0.167 HD
ATOM     65  C   UNL A   1      44.951  25.991  31.123  1.00  0.00     0.074 A 
ATOM     66  C   UNL A   1      45.452  24.848  30.390  1.00  0.00     0.031 C 
ATOM     67  C   UNL A   1      45.548  26.512  32.222  1.00  0.00     0.034 A 
BRANCH  54  68
ATOM     68  C   UNL A   1      42.820  31.612  34.358  1.00  0.00     0.023 A 
ATOM     69  C   UNL A   1      43.430  32.823  33.971  1.00  0.00     0.012 A 
ATOM     70  C   UNL A   1      42.176  31.531  35.609  1.00  0.00     0.148 A 
ATOM     71  C   UNL A   1      43.419  33.927  34.823  1.00  0.00     0.002 A 
ATOM     72  C   UNL A   1      42.127  32.650  36.432  1.00  0.00     0.091 A 
ATOM     73  F   UNL A   1      41.616  30.367  35.964  1.00  0.00    -0.205 F 
ATOM     74  C   UNL A   1      42.757  33.844  36.045  1.00  0.00     0.022 A 
BRANCH  72  75
ATOM     75  S   UNL A   1      41.224  32.675  37.984  1.00  0.00     0.127 S 
ATOM     76  O   UNL A   1      41.981  31.712  38.781  1.00  0.00    -0.237 OA
ATOM     77  O   UNL A   1      41.379  34.069  38.404  1.00  0.00    -0.237 OA
ATOM     78  O   UNL A   1      39.860  32.283  37.665  1.00  0.00    -0.744 OA
ENDBRANCH  72  75
ENDBRANCH  54  68
BRANCH  55  79
ATOM     79  C   UNL A   1      42.556  24.530  27.345  1.00  0.00     0.023 A 
ATOM     80  C   UNL A   1      43.345  24.751  26.198  1.00  0.00     0.012 A 
ATOM     81  C   UNL A   1      41.791  23.352  27.433  1.00  0.00     0.148 A 
ATOM     82  C   UNL A   1      43.329  23.845  25.138  1.00  0.00     0.002 A 
ATOM     83  C   UNL A   1      41.827  22.424  26.398  1.00  0.00     0.091 A 
ATOM     84  F   UNL A   1      41.036  23.163  28.524  1.00  0.00    -0.205 F 
ATOM     85  C   UNL A   1      42.578  22.679  25.240  1.00  0.00     0.022 A 
BRANCH  83  86
ATOM     86  S   UNL A   1      40.997  20.835  26.512  1.00  0.00     0.127 S 
ATOM     87  O   UNL A   1      39.733  21.107  25.835  1.00  0.00    -0.237 OA
ATOM     88  O   UNL A   1      41.913  19.959  25.779  1.00  0.00    -0.237 OA
ATOM     89  O   UNL A   1      40.910  20.544  27.937  1.00  0.00    -0.744 OA
ENDBRANCH  83  86
ENDBRANCH  55  79
BRANCH  67  90
ATOM     90  C   UNL A   1      46.780  25.818  32.745  1.00  0.00     0.023 A 
ATOM     91  C   UNL A   1      48.056  26.195  32.282  1.00  0.00     0.012 A 
ATOM     92  C   UNL A   1      46.671  24.823  33.736  1.00  0.00     0.148 A 
ATOM     93  C   UNL A   1      49.200  25.559  32.762  1.00  0.00     0.002 A 
ATOM     94  C   UNL A   1      47.819  24.231  34.249  1.00  0.00     0.091 A 
ATOM     95  F   UNL A   1      45.448  24.462  34.151  1.00  0.00    -0.205 F 
ATOM     96  C   UNL A   1      49.083  24.587  33.752  1.00  0.00     0.022 A 
BRANCH  94  97
ATOM     97  S   UNL A   1      47.762  23.046  35.598  1.00  0.00     0.127 S 
ATOM     98  O   UNL A   1      49.179  22.745  35.790  1.00  0.00    -0.237 OA
ATOM     99  O   UNL A   1      47.154  23.827  36.676  1.00  0.00    -0.237 OA
ATOM    100  O   UNL A   1      46.943  21.940  35.121  1.00  0.00    -0.744 OA
ENDBRANCH  94  97
ENDBRANCH  67  90
ENDBRANCH  41  42
ENDBRANCH  33  36
ENDBRANCH  31  32
ENDBRANCH  30  31
ENDBRANCH   1  30
TORSDOF 18
ENDMDL
MODEL 2
REMARK VINA RESULT:     -11.9      3.260      8.369
REMARK SMILES CC1=NN(c2ccc(Cl)cc2)C(=O)/C1=C/c1ccccc1OCC(=O)NCCCCNC(=O)c1ccc(-c2c3nc(c(-c4cccc(S(=O)(=O)[O-])c4F)c4ccc([nH]4)c(-c4cccc(S(=O)(=O)[O-])c4F)c4nc(c(-c5cccc(S(=O)(=O)[O-])c5F)c5ccc2[nH]5)C=C4)C=C3)cc1
REMARK SMILES IDX 28 1 27 2 26 3 24 4 25 5 23 7 22 8 21 9 16 10 17 11 18 12
REMARK SMILES IDX 20 13 19 14 15 15 1 16 2 17 3 18 14 19 4 20 12 21 13 22 5 23
REMARK SMILES IDX 6 24 11 25 7 26 10 27 8 28 9 29 29 30 30 31 31 32 32 33
REMARK SMILES IDX 33 35 34 36 35 37 96 38 36 39 95 40 37 41 38 42 39 43 89 44
REMARK SMILES IDX 40 45 94 46 88 47 90 48 41 49 93 50 87 51 86 52 42 54 74 55
REMARK SMILES IDX 54 56 73 57 55 58 58 59 72 60 91 61 56 62 57 63 71 65 92 66
REMARK SMILES IDX 59 67 43 68 44 69 52 70 45 71 47 72 53 73 46 74 48 75 49 76
REMARK SMILES IDX 50 77 51 78 75 79 76 80 84 81 77 82 79 83 85 84 78 85 80 86
REMARK SMILES IDX 81 87 82 88 83 89 60 90 61 91 69 92 62 93 64 94 70 95 63 96
REMARK SMILES IDX 65 97 66 98 67 99 68 100
REMARK H PARENT 26 6 31 34 90 53 58 64
REMARK Flexibility Score: inf
ROOT
ATOM      1  C   UNL A   1      31.467  31.020  26.739  1.00  0.00     0.023 C 
ENDROOT
BRANCH   1   2
ATOM      2  C   UNL A   1      31.592  30.256  25.423  1.00  0.00     0.116 C 
BRANCH   2   3
ATOM      3  N   UNL A   1      32.361  29.031  25.481  1.00  0.00    -0.353 N 
ATOM      4  C   UNL A   1      33.176  28.540  24.501  1.00  0.00     0.257 C 
ATOM      5  O   UNL A   1      34.161  27.877  24.833  1.00  0.00    -0.271 OA
ATOM      6  H   UNL A   1      32.290  28.501  26.307  1.00  0.00     0.163 HD
BRANCH   4   7
ATOM      7  C   UNL A   1      32.902  28.835  23.024  1.00  0.00     0.329 C 
BRANCH   7   8
ATOM      8  O   UNL A   1      32.145  27.889  22.302  1.00  0.00    -0.483 OA
BRANCH   8   9
ATOM      9  C   UNL A   1      31.034  27.268  22.794  1.00  0.00     0.127 A 
ATOM     10  C   UNL A   1      30.822  25.941  23.210  1.00  0.00     0.017 A 
ATOM     11  C   UNL A   1      29.559  25.578  23.722  1.00  0.00     0.012 A 
ATOM     12  C   UNL A   1      28.522  26.507  23.823  1.00  0.00     0.001 A 
ATOM     13  C   UNL A   1      29.971  28.185  22.900  1.00  0.00     0.047 A 
ATOM     14  C   UNL A   1      28.727  27.813  23.406  1.00  0.00     0.004 A 
BRANCH  10  15
ATOM     15  C   UNL A   1      31.805  24.860  23.138  1.00  0.00     0.027 C 
ATOM     16  C   UNL A   1      31.744  25.594  26.315  1.00  0.00     0.069 C 
ATOM     17  C   UNL A   1      32.695  24.730  25.564  1.00  0.00     0.071 C 
ATOM     18  N   UNL A   1      33.760  24.192  26.101  1.00  0.00    -0.169 NA
ATOM     19  C   UNL A   1      32.562  24.395  24.139  1.00  0.00     0.066 C 
ATOM     20  N   UNL A   1      34.394  23.487  25.076  1.00  0.00    -0.196 N 
ATOM     21  C   UNL A   1      33.684  23.465  23.865  1.00  0.00     0.280 C 
ATOM     22  O   UNL A   1      33.882  22.895  22.808  1.00  0.00    -0.267 OA
BRANCH  20  23
ATOM     23  C   UNL A   1      35.720  23.038  25.283  1.00  0.00     0.069 A 
ATOM     24  C   UNL A   1      36.710  23.912  25.760  1.00  0.00     0.030 A 
ATOM     25  C   UNL A   1      36.060  21.692  25.082  1.00  0.00     0.030 A 
ATOM     26  C   UNL A   1      38.004  23.455  26.029  1.00  0.00     0.023 A 
ATOM     27  C   UNL A   1      37.362  21.238  25.326  1.00  0.00     0.023 A 
ATOM     28  C   UNL A   1      38.327  22.122  25.801  1.00  0.00     0.041 A 
ATOM     29  Cl  UNL A   1      39.924  21.568  26.120  1.00  0.00    -0.084 Cl
ENDBRANCH  20  23
ENDBRANCH  10  15
ENDBRANCH   8   9
ENDBRANCH   7   8
ENDBRANCH   4   7
ENDBRANCH   2   3
ENDBRANCH   1   2
BRANCH   1  30
ATOM     30  C   UNL A   1      31.515  32.547  26.686  1.00  0.00     0.023 C 
BRANCH  30  31
ATOM     31  C   UNL A   1      32.790  33.229  27.163  1.00  0.00     0.116 C 
BRANCH  31  32
ATOM     32  N   UNL A   1      32.544  34.517  27.781  1.00  0.00    -0.352 N 
ATOM     33  C   UNL A   1      33.123  35.090  28.887  1.00  0.00     0.251 C 
ATOM     34  H   UNL A   1      31.856  35.066  27.338  1.00  0.00     0.163 HD
ATOM     35  O   UNL A   1      32.651  36.138  29.325  1.00  0.00    -0.269 OA
BRANCH  33  36
ATOM     36  C   UNL A   1      34.281  34.461  29.568  1.00  0.00     0.039 A 
ATOM     37  C   UNL A   1      34.066  33.832  30.799  1.00  0.00     0.014 A 
ATOM     38  C   UNL A   1      35.576  34.524  29.045  1.00  0.00     0.014 A 
ATOM     39  C   UNL A   1      35.134  33.240  31.481  1.00  0.00     0.010 A 
ATOM     40  C   UNL A   1      36.626  33.868  29.689  1.00  0.00     0.010 A 
ATOM     41  C   UNL A   1      36.423  33.233  30.925  1.00  0.00    -0.014 A 
BRANCH  41  42
ATOM     42  C   UNL A   1      37.556  32.572  31.630  1.00  0.00     0.031 A 
ATOM     43  C   UNL A   1      38.309  31.438  30.980  1.00  0.00     0.074 A 
ATOM     44  C   UNL A   1      37.876  32.953  32.884  1.00  0.00     0.049 A 
ATOM     45  N   UNL A   1      39.318  30.746  31.443  1.00  0.00    -0.248 NA
ATOM     46  C   UNL A   1      37.859  31.007  29.645  1.00  0.00     0.031 C 
ATOM     47  C   UNL A   1      37.174  33.976  33.662  1.00  0.00     0.029 A 
ATOM     48  N   UNL A   1      38.856  32.506  33.737  1.00  0.00    -0.354 N 
ATOM     49  C   UNL A   1      39.591  29.775  30.487  1.00  0.00     0.074 A 
ATOM     50  C   UNL A   1      38.631  29.953  29.422  1.00  0.00     0.031 C 
ATOM     51  C   UNL A   1      37.746  34.080  34.873  1.00  0.00     0.029 A 
ATOM     52  C   UNL A   1      38.838  33.117  34.970  1.00  0.00     0.049 A 
ATOM     53  H   UNL A   1      39.510  31.813  33.488  1.00  0.00     0.167 HD
ATOM     54  C   UNL A   1      40.565  28.834  30.484  1.00  0.00     0.034 A 
ATOM     55  C   UNL A   1      39.610  32.921  36.058  1.00  0.00     0.034 A 
ATOM     56  C   UNL A   1      41.558  28.694  31.516  1.00  0.00     0.049 A 
ATOM     57  C   UNL A   1      40.731  31.919  35.991  1.00  0.00     0.074 A 
ATOM     58  C   UNL A   1      42.653  27.847  31.545  1.00  0.00     0.029 A 
ATOM     59  N   UNL A   1      41.572  29.406  32.704  1.00  0.00    -0.354 N 
ATOM     60  N   UNL A   1      41.087  31.142  34.997  1.00  0.00    -0.248 NA
ATOM     61  C   UNL A   1      41.589  31.801  37.180  1.00  0.00     0.031 C 
ATOM     62  C   UNL A   1      43.312  28.025  32.766  1.00  0.00     0.029 A 
ATOM     63  C   UNL A   1      42.650  29.010  33.479  1.00  0.00     0.049 A 
ATOM     64  H   UNL A   1      40.914  30.091  32.959  1.00  0.00     0.167 HD
ATOM     65  C   UNL A   1      42.234  30.480  35.424  1.00  0.00     0.074 A 
ATOM     66  C   UNL A   1      42.526  30.966  36.755  1.00  0.00     0.031 C 
ATOM     67  C   UNL A   1      42.970  29.544  34.776  1.00  0.00     0.034 A 
BRANCH  54  68
ATOM     68  C   UNL A   1      40.649  27.896  29.307  1.00  0.00     0.023 A 
ATOM     69  C   UNL A   1      39.780  26.788  29.230  1.00  0.00     0.012 A 
ATOM     70  C   UNL A   1      41.512  28.174  28.228  1.00  0.00     0.148 A 
ATOM     71  C   UNL A   1      39.785  25.959  28.108  1.00  0.00     0.002 A 
ATOM     72  C   UNL A   1      41.478  27.371  27.094  1.00  0.00     0.091 A 
ATOM     73  F   UNL A   1      42.342  29.221  28.328  1.00  0.00    -0.205 F 
ATOM     74  C   UNL A   1      40.623  26.258  27.038  1.00  0.00     0.022 A 
BRANCH  72  75
ATOM     75  S   UNL A   1      42.451  27.722  25.625  1.00  0.00     0.127 S 
ATOM     76  O   UNL A   1      43.806  27.755  26.171  1.00  0.00    -0.237 OA
ATOM     77  O   UNL A   1      42.161  26.561  24.783  1.00  0.00    -0.237 OA
ATOM     78  O   UNL A   1      41.958  28.989  25.108  1.00  0.00    -0.744 OA
ENDBRANCH  72  75
ENDBRANCH  54  68
BRANCH  55  79
ATOM     79  C   UNL A   1      39.391  33.730  37.294  1.00  0.00     0.023 A 
ATOM     80  C   UNL A   1      39.942  35.024  37.385  1.00  0.00     0.012 A 
ATOM     81  C   UNL A   1      38.655  33.220  38.380  1.00  0.00     0.148 A 
ATOM     82  C   UNL A   1      39.808  35.773  38.554  1.00  0.00     0.002 A 
ATOM     83  C   UNL A   1      38.474  33.998  39.519  1.00  0.00     0.091 A 
ATOM     84  F   UNL A   1      38.150  31.983  38.282  1.00  0.00    -0.205 F 
ATOM     85  C   UNL A   1      39.069  35.264  39.617  1.00  0.00     0.022 A 
BRANCH  83  86
ATOM     86  S   UNL A   1      37.421  33.471  40.875  1.00  0.00     0.127 S 
ATOM     87  O   UNL A   1      38.242  32.448  41.514  1.00  0.00    -0.237 OA
ATOM     88  O   UNL A   1      37.270  34.709  41.642  1.00  0.00    -0.237 OA
ATOM     89  O   UNL A   1      36.189  33.004  40.252  1.00  0.00    -0.744 OA
ENDBRANCH  83  86
ENDBRANCH  55  79
BRANCH  67  90
ATOM     90  C   UNL A   1      44.203  29.022  35.467  1.00  0.00     0.023 A 
ATOM     91  C   UNL A   1      45.462  29.598  35.203  1.00  0.00     0.012 A 
ATOM     92  C   UNL A   1      44.104  27.989  36.420  1.00  0.00     0.148 A 
ATOM     93  C   UNL A   1      46.607  29.122  35.839  1.00  0.00     0.002 A 
ATOM     94  C   UNL A   1      45.241  27.556  37.090  1.00  0.00     0.091 A 
ATOM     95  F   UNL A   1      42.902  27.438  36.645  1.00  0.00    -0.205 F 
ATOM     96  C   UNL A   1      46.496  28.110  36.790  1.00  0.00     0.022 A 
BRANCH  94  97
ATOM     97  S   UNL A   1      45.169  26.330  38.401  1.00  0.00     0.127 S 
ATOM     98  O   UNL A   1      44.345  27.010  39.399  1.00  0.00    -0.237 OA
ATOM     99  O   UNL A   1      44.515  25.201  37.738  1.00  0.00    -0.237 OA
ATOM    100  O   UNL A   1      46.550  26.081  38.789  1.00  0.00    -0.744 OA
ENDBRANCH  94  97
ENDBRANCH  67  90
ENDBRANCH  41  42
ENDBRANCH  33  36
ENDBRANCH  31  32
ENDBRANCH  30  31
ENDBRANCH   1  30
TORSDOF 18
ENDMDL
MODEL 3
REMARK VINA RESULT:     -11.6      3.537      8.944
REMARK SMILES CC1=NN(c2ccc(Cl)cc2)C(=O)/C1=C/c1ccccc1OCC(=O)NCCCCNC(=O)c1ccc(-c2c3nc(c(-c4cccc(S(=O)(=O)[O-])c4F)c4ccc([nH]4)c(-c4cccc(S(=O)(=O)[O-])c4F)c4nc(c(-c5cccc(S(=O)(=O)[O-])c5F)c5ccc2[nH]5)C=C4)C=C3)cc1
REMARK SMILES IDX 28 1 27 2 26 3 24 4 25 5 23 7 22 8 21 9 16 10 17 11 18 12
REMARK SMILES IDX 20 13 19 14 15 15 1 16 2 17 3 18 14 19 4 20 12 21 13 22 5 23
REMARK SMILES IDX 6 24 11 25 7 26 10 27 8 28 9 29 29 30 30 31 31 32 32 33
REMARK SMILES IDX 33 35 34 36 35 37 96 38 36 39 95 40 37 41 38 42 39 43 89 44
REMARK SMILES IDX 40 45 94 46 88 47 90 48 41 49 93 50 87 51 86 52 42 54 74 55
REMARK SMILES IDX 54 56 73 57 55 58 58 59 72 60 91 61 56 62 57 63 71 65 92 66
REMARK SMILES IDX 59 67 43 68 44 69 52 70 45 71 47 72 53 73 46 74 48 75 49 76
REMARK SMILES IDX 50 77 51 78 75 79 76 80 84 81 77 82 79 83 85 84 78 85 80 86
REMARK SMILES IDX 81 87 82 88 83 89 60 90 61 91 69 92 62 93 64 94 70 95 63 96
REMARK SMILES IDX 65 97 66 98 67 99 68 100
REMARK H PARENT 26 6 31 34 90 53 58 64
REMARK Flexibility Score: inf
ROOT
ATOM      1  C   UNL A   1      31.348  30.691  25.619  1.00  0.00     0.023 C 
ENDROOT
BRANCH   1   2
ATOM      2  C   UNL A   1      32.038  29.364  25.925  1.00  0.00     0.116 C 
BRANCH   2   3
ATOM      3  N   UNL A   1      33.185  29.052  25.099  1.00  0.00    -0.353 N 
ATOM      4  C   UNL A   1      33.699  27.808  24.864  1.00  0.00     0.257 C 
ATOM      5  O   UNL A   1      34.244  27.592  23.779  1.00  0.00    -0.271 OA
ATOM      6  H   UNL A   1      33.639  29.809  24.664  1.00  0.00     0.163 HD
BRANCH   4   7
ATOM      7  C   UNL A   1      33.569  26.690  25.902  1.00  0.00     0.329 C 
BRANCH   7   8
ATOM      8  O   UNL A   1      34.395  25.558  25.744  1.00  0.00    -0.483 OA
BRANCH   8   9
ATOM      9  C   UNL A   1      33.926  24.278  25.675  1.00  0.00     0.127 A 
ATOM     10  C   UNL A   1      32.634  23.776  25.432  1.00  0.00     0.017 A 
ATOM     11  C   UNL A   1      32.442  22.380  25.378  1.00  0.00     0.012 A 
ATOM     12  C   UNL A   1      33.504  21.493  25.561  1.00  0.00     0.001 A 
ATOM     13  C   UNL A   1      34.979  23.364  25.863  1.00  0.00     0.047 A 
ATOM     14  C   UNL A   1      34.775  21.986  25.810  1.00  0.00     0.004 A 
BRANCH  10  15
ATOM     15  C   UNL A   1      31.428  24.584  25.247  1.00  0.00     0.027 C 
ATOM     16  C   UNL A   1      32.885  24.755  22.334  1.00  0.00     0.069 C 
ATOM     17  C   UNL A   1      31.734  25.537  22.862  1.00  0.00     0.071 C 
ATOM     18  N   UNL A   1      31.179  26.530  22.215  1.00  0.00    -0.169 NA
ATOM     19  C   UNL A   1      31.100  25.302  24.166  1.00  0.00     0.066 C 
ATOM     20  N   UNL A   1      30.165  27.012  23.045  1.00  0.00    -0.196 N 
ATOM     21  C   UNL A   1      29.971  26.261  24.215  1.00  0.00     0.280 C 
ATOM     22  O   UNL A   1      29.146  26.331  25.107  1.00  0.00    -0.267 OA
BRANCH  20  23
ATOM     23  C   UNL A   1      29.578  28.264  22.741  1.00  0.00     0.069 A 
ATOM     24  C   UNL A   1      30.306  29.253  22.060  1.00  0.00     0.030 A 
ATOM     25  C   UNL A   1      28.235  28.518  23.050  1.00  0.00     0.030 A 
ATOM     26  C   UNL A   1      29.708  30.464  21.699  1.00  0.00     0.023 A 
ATOM     27  C   UNL A   1      27.642  29.741  22.712  1.00  0.00     0.023 A 
ATOM     28  C   UNL A   1      28.381  30.707  22.036  1.00  0.00     0.041 A 
ATOM     29  Cl  UNL A   1      27.655  32.205  21.601  1.00  0.00    -0.084 Cl
ENDBRANCH  20  23
ENDBRANCH  10  15
ENDBRANCH   8   9
ENDBRANCH   7   8
ENDBRANCH   4   7
ENDBRANCH   2   3
ENDBRANCH   1   2
BRANCH   1  30
ATOM     30  C   UNL A   1      31.358  31.768  26.705  1.00  0.00     0.023 C 
BRANCH  30  31
ATOM     31  C   UNL A   1      32.682  32.458  27.000  1.00  0.00     0.116 C 
BRANCH  31  32
ATOM     32  N   UNL A   1      32.518  33.828  27.446  1.00  0.00    -0.352 N 
ATOM     33  C   UNL A   1      33.157  34.511  28.452  1.00  0.00     0.251 C 
ATOM     34  H   UNL A   1      31.844  34.348  26.951  1.00  0.00     0.163 HD
ATOM     35  O   UNL A   1      32.750  35.630  28.758  1.00  0.00    -0.269 OA
BRANCH  33  36
ATOM     36  C   UNL A   1      34.303  33.918  29.183  1.00  0.00     0.039 A 
ATOM     37  C   UNL A   1      34.042  32.926  30.135  1.00  0.00     0.014 A 
ATOM     38  C   UNL A   1      35.617  34.355  28.988  1.00  0.00     0.014 A 
ATOM     39  C   UNL A   1      35.093  32.351  30.856  1.00  0.00     0.010 A 
ATOM     40  C   UNL A   1      36.672  33.728  29.655  1.00  0.00     0.010 A 
ATOM     41  C   UNL A   1      36.423  32.731  30.611  1.00  0.00    -0.014 A 
BRANCH  41  42
ATOM     42  C   UNL A   1      37.549  32.097  31.351  1.00  0.00     0.031 A 
ATOM     43  C   UNL A   1      38.350  30.983  30.724  1.00  0.00     0.074 A 
ATOM     44  C   UNL A   1      37.818  32.483  32.616  1.00  0.00     0.049 A 
ATOM     45  N   UNL A   1      39.360  30.315  31.220  1.00  0.00    -0.248 NA
ATOM     46  C   UNL A   1      37.953  30.544  29.375  1.00  0.00     0.031 C 
ATOM     47  C   UNL A   1      37.066  33.486  33.372  1.00  0.00     0.029 A 
ATOM     48  N   UNL A   1      38.781  32.058  33.499  1.00  0.00    -0.354 N 
ATOM     49  C   UNL A   1      39.688  29.353  30.272  1.00  0.00     0.074 A 
ATOM     50  C   UNL A   1      38.758  29.510  29.176  1.00  0.00     0.031 C 
ATOM     51  C   UNL A   1      37.596  33.602  34.601  1.00  0.00     0.029 A 
ATOM     52  C   UNL A   1      38.708  32.666  34.732  1.00  0.00     0.049 A 
ATOM     53  H   UNL A   1      39.459  31.382  33.271  1.00  0.00     0.167 HD
ATOM     54  C   UNL A   1      40.684  28.436  30.298  1.00  0.00     0.034 A 
ATOM     55  C   UNL A   1      39.448  32.487  35.845  1.00  0.00     0.034 A 
ATOM     56  C   UNL A   1      41.646  28.318  31.362  1.00  0.00     0.049 A 
ATOM     57  C   UNL A   1      40.596  31.513  35.813  1.00  0.00     0.074 A 
ATOM     58  C   UNL A   1      42.760  27.498  31.426  1.00  0.00     0.029 A 
ATOM     59  N   UNL A   1      41.604  29.028  32.551  1.00  0.00    -0.354 N 
ATOM     60  N   UNL A   1      41.003  30.746  34.829  1.00  0.00    -0.248 NA
ATOM     61  C   UNL A   1      41.417  31.413  37.028  1.00  0.00     0.031 C 
ATOM     62  C   UNL A   1      43.374  27.689  32.667  1.00  0.00     0.029 A 
ATOM     63  C   UNL A   1      42.666  28.656  33.359  1.00  0.00     0.049 A 
ATOM     64  H   UNL A   1      40.922  29.696  32.786  1.00  0.00     0.167 HD
ATOM     65  C   UNL A   1      42.151  30.112  35.292  1.00  0.00     0.074 A 
ATOM     66  C   UNL A   1      42.388  30.602  36.633  1.00  0.00     0.031 C 
ATOM     67  C   UNL A   1      42.930  29.196  34.667  1.00  0.00     0.034 A 
BRANCH  54  68
ATOM     68  C   UNL A   1      40.829  27.503  29.124  1.00  0.00     0.023 A 
ATOM     69  C   UNL A   1      39.990  26.375  29.016  1.00  0.00     0.012 A 
ATOM     70  C   UNL A   1      41.720  27.803  28.075  1.00  0.00     0.148 A 
ATOM     71  C   UNL A   1      40.051  25.548  27.895  1.00  0.00     0.002 A 
ATOM     72  C   UNL A   1      41.742  27.002  26.939  1.00  0.00     0.091 A 
ATOM     73  F   UNL A   1      42.521  28.870  28.204  1.00  0.00    -0.205 F 
ATOM     74  C   UNL A   1      40.917  25.870  26.852  1.00  0.00     0.022 A 
BRANCH  72  75
ATOM     75  S   UNL A   1      42.755  27.380  25.503  1.00  0.00     0.127 S 
ATOM     76  O   UNL A   1      42.115  28.596  25.004  1.00  0.00    -0.237 OA
ATOM     77  O   UNL A   1      44.072  27.588  26.106  1.00  0.00    -0.237 OA
ATOM     78  O   UNL A   1      42.661  26.223  24.627  1.00  0.00    -0.744 OA
ENDBRANCH  72  75
ENDBRANCH  54  68
BRANCH  55  79
ATOM     79  C   UNL A   1      39.170  33.287  37.073  1.00  0.00     0.023 A 
ATOM     80  C   UNL A   1      39.719  34.579  37.202  1.00  0.00     0.012 A 
ATOM     81  C   UNL A   1      38.380  32.772  38.117  1.00  0.00     0.148 A 
ATOM     82  C   UNL A   1      39.529  35.320  38.368  1.00  0.00     0.002 A 
ATOM     83  C   UNL A   1      38.144  33.541  39.252  1.00  0.00     0.091 A 
ATOM     84  F   UNL A   1      37.876  31.536  37.985  1.00  0.00    -0.205 F 
ATOM     85  C   UNL A   1      38.735  34.806  39.389  1.00  0.00     0.022 A 
BRANCH  83  86
ATOM     86  S   UNL A   1      37.023  33.008  40.550  1.00  0.00     0.127 S 
ATOM     87  O   UNL A   1      37.780  31.930  41.177  1.00  0.00    -0.237 OA
ATOM     88  O   UNL A   1      36.892  34.222  41.357  1.00  0.00    -0.237 OA
ATOM     89  O   UNL A   1      35.797  32.614  39.867  1.00  0.00    -0.744 OA
ENDBRANCH  83  86
ENDBRANCH  55  79
BRANCH  67  90
ATOM     90  C   UNL A   1      44.153  28.703  35.397  1.00  0.00     0.023 A 
ATOM     91  C   UNL A   1      45.406  29.305  35.169  1.00  0.00     0.012 A 
ATOM     92  C   UNL A   1      44.047  27.671  36.350  1.00  0.00     0.148 A 
ATOM     93  C   UNL A   1      46.542  28.856  35.841  1.00  0.00     0.002 A 
ATOM     94  C   UNL A   1      45.173  27.265  37.056  1.00  0.00     0.091 A 
ATOM     95  F   UNL A   1      42.851  27.095  36.542  1.00  0.00    -0.205 F 
ATOM     96  C   UNL A   1      46.424  27.845  36.792  1.00  0.00     0.022 A 
BRANCH  94  97
ATOM     97  S   UNL A   1      45.087  26.042  38.370  1.00  0.00     0.127 S 
ATOM     98  O   UNL A   1      46.475  26.000  38.828  1.00  0.00    -0.237 OA
ATOM     99  O   UNL A   1      44.153  26.660  39.313  1.00  0.00    -0.237 OA
ATOM    100  O   UNL A   1      44.594  24.822  37.746  1.00  0.00    -0.744 OA
ENDBRANCH  94  97
ENDBRANCH  67  90
ENDBRANCH  41  42
ENDBRANCH  33  36
ENDBRANCH  31  32
ENDBRANCH  30  31
ENDBRANCH   1  30
TORSDOF 18
ENDMDL
