MODEL 1
REMARK VINA RESULT:     -11.6      0.000      0.000
REMARK SMILES Cc1c(NS(=O)(=O)c2ncn(C)c2Cl)cccc1C(=O)NCCCCNC(=O)c1ccc(-c2c3nc(c(-c4cccc(S(=O)(=O)[O-])c4F)c4ccc([nH]4)c(-c4cccc(S(=O)(=O)[O-])c4F)c4nc(c(-c5cccc(S(=O)(=O)[O-])c5F)c5ccc2[nH]5)C=C4)C=C3)cc1
REMARK SMILES IDX 23 1 22 2 21 3 19 4 20 5 18 7 1 8 2 9 3 10 15 11 17 12 16 13
REMARK SMILES IDX 4 14 5 16 6 17 7 18 8 19 9 20 13 21 10 22 11 23 14 24 12 25
REMARK SMILES IDX 24 26 25 27 26 28 27 29 28 31 29 32 30 33 91 34 31 35 90 36
REMARK SMILES IDX 32 37 33 38 34 39 84 40 35 41 89 42 83 43 85 44 36 45 88 46
REMARK SMILES IDX 82 47 81 48 37 50 69 51 49 52 68 53 50 54 53 55 67 56 86 57
REMARK SMILES IDX 51 58 52 59 66 61 87 62 54 63 38 64 39 65 47 66 40 67 42 68
REMARK SMILES IDX 48 69 41 70 43 71 44 72 45 73 46 74 70 75 71 76 79 77 72 78
REMARK SMILES IDX 74 79 80 80 73 81 75 82 76 83 77 84 78 85 55 86 56 87 64 88
REMARK SMILES IDX 57 89 59 90 65 91 58 92 60 93 61 94 62 95 63 96
REMARK H PARENT 21 6 4 15 26 30 85 49 53 60
REMARK Flexibility Score: inf
ROOT
ATOM      1  C   UNL A   1      33.053  27.823  26.948  1.00  0.00     0.023 C 
ENDROOT
BRANCH   1   2
ATOM      2  C   UNL A   1      31.555  27.563  26.766  1.00  0.00     0.116 C 
BRANCH   2   3
ATOM      3  N   UNL A   1      31.110  27.922  25.443  1.00  0.00    -0.352 N 
ATOM      4  C   UNL A   1      31.102  27.403  24.185  1.00  0.00     0.251 C 
ATOM      5  O   UNL A   1      30.636  28.217  23.369  1.00  0.00    -0.269 OA
ATOM      6  H   UNL A   1      30.682  28.810  25.451  1.00  0.00     0.163 HD
BRANCH   4   7
ATOM      7  C   UNL A   1      31.557  26.054  23.639  1.00  0.00     0.044 A 
ATOM      8  C   UNL A   1      30.812  24.346  25.411  1.00  0.00     0.047 C 
ATOM      9  C   UNL A   1      31.437  24.705  24.101  1.00  0.00    -0.014 A 
ATOM     10  C   UNL A   1      32.047  23.640  23.363  1.00  0.00     0.053 A 
ATOM     11  C   UNL A   1      32.990  23.964  22.393  1.00  0.00     0.027 A 
ATOM     12  C   UNL A   1      32.344  26.255  22.475  1.00  0.00     0.014 A 
ATOM     13  C   UNL A   1      33.097  25.247  21.895  1.00  0.00     0.003 A 
BRANCH  10  14
ATOM     14  N   UNL A   1      31.946  22.257  23.794  1.00  0.00    -0.278 N 
ATOM     15  H   UNL A   1      31.163  21.732  23.511  1.00  0.00     0.180 HD
BRANCH  14  16
ATOM     16  S   UNL A   1      33.130  21.500  24.772  1.00  0.00     0.282 S 
ATOM     17  O   UNL A   1      32.720  21.741  26.138  1.00  0.00    -0.199 OA
ATOM     18  O   UNL A   1      33.279  20.140  24.289  1.00  0.00    -0.199 OA
BRANCH  16  19
ATOM     19  C   UNL A   1      34.699  22.223  24.633  1.00  0.00     0.213 A 
ATOM     20  N   UNL A   1      35.788  21.585  24.042  1.00  0.00    -0.222 NA
ATOM     21  C   UNL A   1      35.118  23.385  25.240  1.00  0.00     0.149 A 
ATOM     22  C   UNL A   1      36.833  22.307  24.377  1.00  0.00     0.202 A 
ATOM     23  N   UNL A   1      36.484  23.331  25.221  1.00  0.00    -0.324 N 
ATOM     24  Cl  UNL A   1      34.301  24.590  26.120  1.00  0.00    -0.061 Cl
ATOM     25  C   UNL A   1      37.411  23.940  26.143  1.00  0.00     0.152 C 
ENDBRANCH  16  19
ENDBRANCH  14  16
ENDBRANCH  10  14
ENDBRANCH   4   7
ENDBRANCH   2   3
ENDBRANCH   1   2
BRANCH   1  26
ATOM     26  C   UNL A   1      33.619  29.188  26.548  1.00  0.00     0.023 C 
BRANCH  26  27
ATOM     27  C   UNL A   1      33.422  30.353  27.512  1.00  0.00     0.116 C 
BRANCH  27  28
ATOM     28  N   UNL A   1      34.306  31.483  27.235  1.00  0.00    -0.352 N 
ATOM     29  C   UNL A   1      35.559  31.783  27.741  1.00  0.00     0.251 C 
ATOM     30  H   UNL A   1      33.955  32.134  26.587  1.00  0.00     0.163 HD
ATOM     31  O   UNL A   1      35.916  32.957  27.742  1.00  0.00    -0.269 OA
BRANCH  29  32
ATOM     32  C   UNL A   1      36.463  30.703  28.197  1.00  0.00     0.039 A 
ATOM     33  C   UNL A   1      36.443  30.179  29.497  1.00  0.00     0.014 A 
ATOM     34  C   UNL A   1      37.474  30.314  27.334  1.00  0.00     0.014 A 
ATOM     35  C   UNL A   1      37.485  29.343  29.926  1.00  0.00     0.010 A 
ATOM     36  C   UNL A   1      38.346  29.321  27.659  1.00  0.00     0.010 A 
ATOM     37  C   UNL A   1      38.457  28.970  29.004  1.00  0.00    -0.014 A 
BRANCH  37  38
ATOM     38  C   UNL A   1      39.792  28.463  29.296  1.00  0.00     0.031 A 
ATOM     39  C   UNL A   1      40.157  27.062  29.088  1.00  0.00     0.074 A 
ATOM     40  C   UNL A   1      40.729  29.440  29.235  1.00  0.00     0.049 A 
ATOM     41  N   UNL A   1      41.332  26.586  29.323  1.00  0.00    -0.248 NA
ATOM     42  C   UNL A   1      39.207  26.071  28.607  1.00  0.00     0.031 C 
ATOM     43  C   UNL A   1      42.079  29.369  28.706  1.00  0.00     0.029 A 
ATOM     44  N   UNL A   1      40.592  30.777  29.629  1.00  0.00    -0.354 N 
ATOM     45  C   UNL A   1      41.395  25.365  28.689  1.00  0.00     0.074 A 
ATOM     46  C   UNL A   1      40.014  25.017  28.452  1.00  0.00     0.031 C 
ATOM     47  C   UNL A   1      42.723  30.503  29.029  1.00  0.00     0.029 A 
ATOM     48  C   UNL A   1      41.870  31.230  29.958  1.00  0.00     0.049 A 
ATOM     49  H   UNL A   1      39.756  31.295  29.666  1.00  0.00     0.167 HD
ATOM     50  C   UNL A   1      42.612  24.911  28.265  1.00  0.00     0.034 A 
ATOM     51  C   UNL A   1      42.200  31.578  31.237  1.00  0.00     0.034 A 
ATOM     52  C   UNL A   1      43.695  25.801  28.743  1.00  0.00     0.049 A 
ATOM     53  C   UNL A   1      43.234  30.635  31.830  1.00  0.00     0.074 A 
ATOM     54  C   UNL A   1      44.507  26.732  28.115  1.00  0.00     0.029 A 
ATOM     55  N   UNL A   1      43.875  26.000  30.112  1.00  0.00    -0.354 N 
ATOM     56  N   UNL A   1      43.741  29.610  31.200  1.00  0.00    -0.248 NA
ATOM     57  C   UNL A   1      43.765  30.754  33.184  1.00  0.00     0.031 C 
ATOM     58  C   UNL A   1      45.070  27.576  29.118  1.00  0.00     0.029 A 
ATOM     59  C   UNL A   1      44.642  27.133  30.359  1.00  0.00     0.049 A 
ATOM     60  H   UNL A   1      43.508  25.413  30.812  1.00  0.00     0.167 HD
ATOM     61  C   UNL A   1      44.474  28.842  32.060  1.00  0.00     0.074 A 
ATOM     62  C   UNL A   1      44.551  29.664  33.258  1.00  0.00     0.031 C 
ATOM     63  C   UNL A   1      44.879  27.572  31.738  1.00  0.00     0.034 A 
BRANCH  50  64
ATOM     64  C   UNL A   1      42.854  23.838  27.196  1.00  0.00     0.023 A 
ATOM     65  C   UNL A   1      43.491  24.251  26.002  1.00  0.00     0.012 A 
ATOM     66  C   UNL A   1      42.446  22.480  27.219  1.00  0.00     0.148 A 
ATOM     67  C   UNL A   1      43.652  23.407  24.893  1.00  0.00     0.002 A 
ATOM     68  C   UNL A   1      42.613  21.630  26.118  1.00  0.00     0.091 A 
ATOM     69  F   UNL A   1      41.878  21.962  28.302  1.00  0.00    -0.205 F 
ATOM     70  C   UNL A   1      43.205  22.097  24.945  1.00  0.00     0.022 A 
BRANCH  68  71
ATOM     71  S   UNL A   1      42.058  19.911  26.124  1.00  0.00     0.127 S 
ATOM     72  O   UNL A   1      42.513  19.447  27.435  1.00  0.00    -0.237 OA
ATOM     73  O   UNL A   1      40.608  20.051  25.998  1.00  0.00    -0.237 OA
ATOM     74  O   UNL A   1      42.708  19.257  24.995  1.00  0.00    -0.744 OA
ENDBRANCH  68  71
ENDBRANCH  50  64
BRANCH  51  75
ATOM     75  C   UNL A   1      41.069  32.237  31.969  1.00  0.00     0.023 A 
ATOM     76  C   UNL A   1      40.639  33.487  31.462  1.00  0.00     0.012 A 
ATOM     77  C   UNL A   1      40.181  31.490  32.768  1.00  0.00     0.148 A 
ATOM     78  C   UNL A   1      39.320  33.917  31.632  1.00  0.00     0.002 A 
ATOM     79  C   UNL A   1      38.856  31.912  32.907  1.00  0.00     0.091 A 
ATOM     80  F   UNL A   1      40.604  30.323  33.269  1.00  0.00    -0.205 F 
ATOM     81  C   UNL A   1      38.419  33.109  32.316  1.00  0.00     0.022 A 
BRANCH  79  82
ATOM     82  S   UNL A   1      37.603  30.873  33.677  1.00  0.00     0.127 S 
ATOM     83  O   UNL A   1      37.667  31.315  35.066  1.00  0.00    -0.237 OA
ATOM     84  O   UNL A   1      36.387  31.259  32.965  1.00  0.00    -0.237 OA
ATOM     85  O   UNL A   1      38.032  29.506  33.416  1.00  0.00    -0.744 OA
ENDBRANCH  79  82
ENDBRANCH  51  75
BRANCH  63  86
ATOM     86  C   UNL A   1      45.504  26.594  32.715  1.00  0.00     0.023 A 
ATOM     87  C   UNL A   1      46.895  26.406  32.813  1.00  0.00     0.012 A 
ATOM     88  C   UNL A   1      44.703  25.943  33.688  1.00  0.00     0.148 A 
ATOM     89  C   UNL A   1      47.463  25.570  33.782  1.00  0.00     0.002 A 
ATOM     90  C   UNL A   1      45.280  25.214  34.724  1.00  0.00     0.091 A 
ATOM     91  F   UNL A   1      43.365  26.012  33.610  1.00  0.00    -0.205 F 
ATOM     92  C   UNL A   1      46.658  24.995  34.755  1.00  0.00     0.022 A 
BRANCH  90  93
ATOM     93  S   UNL A   1      44.292  24.693  36.134  1.00  0.00     0.127 S 
ATOM     94  O   UNL A   1      43.856  25.970  36.692  1.00  0.00    -0.237 OA
ATOM     95  O   UNL A   1      43.229  23.907  35.505  1.00  0.00    -0.237 OA
ATOM     96  O   UNL A   1      45.205  23.906  36.953  1.00  0.00    -0.744 OA
ENDBRANCH  90  93
ENDBRANCH  63  86
ENDBRANCH  37  38
ENDBRANCH  29  32
ENDBRANCH  27  28
ENDBRANCH  26  27
ENDBRANCH   1  26
TORSDOF 17
ENDMDL
MODEL 2
REMARK VINA RESULT:     -11.4      2.721      3.522
REMARK SMILES Cc1c(NS(=O)(=O)c2ncn(C)c2Cl)cccc1C(=O)NCCCCNC(=O)c1ccc(-c2c3nc(c(-c4cccc(S(=O)(=O)[O-])c4F)c4ccc([nH]4)c(-c4cccc(S(=O)(=O)[O-])c4F)c4nc(c(-c5cccc(S(=O)(=O)[O-])c5F)c5ccc2[nH]5)C=C4)C=C3)cc1
REMARK SMILES IDX 23 1 22 2 21 3 19 4 20 5 18 7 1 8 2 9 3 10 15 11 17 12 16 13
REMARK SMILES IDX 4 14 5 16 6 17 7 18 8 19 9 20 13 21 10 22 11 23 14 24 12 25
REMARK SMILES IDX 24 26 25 27 26 28 27 29 28 31 29 32 30 33 91 34 31 35 90 36
REMARK SMILES IDX 32 37 33 38 34 39 84 40 35 41 89 42 83 43 85 44 36 45 88 46
REMARK SMILES IDX 82 47 81 48 37 50 69 51 49 52 68 53 50 54 53 55 67 56 86 57
REMARK SMILES IDX 51 58 52 59 66 61 87 62 54 63 38 64 39 65 47 66 40 67 42 68
REMARK SMILES IDX 48 69 41 70 43 71 44 72 45 73 46 74 70 75 71 76 79 77 72 78
REMARK SMILES IDX 74 79 80 80 73 81 75 82 76 83 77 84 78 85 55 86 56 87 64 88
REMARK SMILES IDX 57 89 59 90 65 91 58 92 60 93 61 94 62 95 63 96
REMARK H PARENT 21 6 4 15 26 30 85 49 53 60
REMARK Flexibility Score: inf
ROOT
ATOM      1  C   UNL A   1      33.968  31.529  27.941  1.00  0.00     0.023 C 
ENDROOT
BRANCH   1   2
ATOM      2  C   UNL A   1      33.173  30.791  26.859  1.00  0.00     0.116 C 
BRANCH   2   3
ATOM      3  N   UNL A   1      32.527  29.614  27.383  1.00  0.00    -0.352 N 
ATOM      4  C   UNL A   1      32.056  28.417  26.939  1.00  0.00     0.251 C 
ATOM      5  O   UNL A   1      31.496  27.790  27.855  1.00  0.00    -0.269 OA
ATOM      6  H   UNL A   1      32.384  29.702  28.353  1.00  0.00     0.163 HD
BRANCH   4   7
ATOM      7  C   UNL A   1      32.093  27.756  25.566  1.00  0.00     0.044 A 
ATOM      8  C   UNL A   1      34.091  26.140  25.671  1.00  0.00     0.047 C 
ATOM      9  C   UNL A   1      32.920  26.751  24.970  1.00  0.00    -0.014 A 
ATOM     10  C   UNL A   1      32.727  26.386  23.599  1.00  0.00     0.053 A 
ATOM     11  C   UNL A   1      31.954  27.220  22.797  1.00  0.00     0.027 A 
ATOM     12  C   UNL A   1      31.145  28.379  24.713  1.00  0.00     0.014 A 
ATOM     13  C   UNL A   1      31.112  28.166  23.346  1.00  0.00     0.003 A 
BRANCH  10  14
ATOM     14  N   UNL A   1      33.541  25.369  22.958  1.00  0.00    -0.278 N 
ATOM     15  H   UNL A   1      34.487  25.570  22.775  1.00  0.00     0.180 HD
BRANCH  14  16
ATOM     16  S   UNL A   1      32.927  23.835  22.508  1.00  0.00     0.282 S 
ATOM     17  O   UNL A   1      31.527  23.852  22.874  1.00  0.00    -0.199 OA
ATOM     18  O   UNL A   1      33.312  23.607  21.129  1.00  0.00    -0.199 OA
BRANCH  16  19
ATOM     19  C   UNL A   1      33.619  22.528  23.412  1.00  0.00     0.213 A 
ATOM     20  N   UNL A   1      32.873  21.464  23.916  1.00  0.00    -0.222 NA
ATOM     21  C   UNL A   1      34.901  22.469  23.908  1.00  0.00     0.149 A 
ATOM     22  C   UNL A   1      33.672  20.853  24.760  1.00  0.00     0.202 A 
ATOM     23  N   UNL A   1      34.866  21.515  24.887  1.00  0.00    -0.324 N 
ATOM     24  Cl  UNL A   1      36.273  23.451  23.689  1.00  0.00    -0.061 Cl
ATOM     25  C   UNL A   1      35.699  21.416  26.061  1.00  0.00     0.152 C 
ENDBRANCH  16  19
ENDBRANCH  14  16
ENDBRANCH  10  14
ENDBRANCH   4   7
ENDBRANCH   2   3
ENDBRANCH   1   2
BRANCH   1  26
ATOM     26  C   UNL A   1      33.622  32.989  28.243  1.00  0.00     0.023 C 
BRANCH  26  27
ATOM     27  C   UNL A   1      34.741  34.021  28.152  1.00  0.00     0.116 C 
BRANCH  27  28
ATOM     28  N   UNL A   1      35.074  34.623  29.441  1.00  0.00    -0.352 N 
ATOM     29  C   UNL A   1      35.526  34.038  30.611  1.00  0.00     0.251 C 
ATOM     30  H   UNL A   1      34.958  35.599  29.484  1.00  0.00     0.163 HD
ATOM     31  O   UNL A   1      35.308  34.620  31.669  1.00  0.00    -0.269 OA
BRANCH  29  32
ATOM     32  C   UNL A   1      36.312  32.785  30.569  1.00  0.00     0.039 A 
ATOM     33  C   UNL A   1      35.926  31.611  31.230  1.00  0.00     0.014 A 
ATOM     34  C   UNL A   1      37.562  32.839  29.974  1.00  0.00     0.014 A 
ATOM     35  C   UNL A   1      36.836  30.550  31.352  1.00  0.00     0.010 A 
ATOM     36  C   UNL A   1      38.352  31.735  29.876  1.00  0.00     0.010 A 
ATOM     37  C   UNL A   1      38.067  30.656  30.712  1.00  0.00    -0.014 A 
BRANCH  37  38
ATOM     38  C   UNL A   1      39.276  29.899  31.008  1.00  0.00     0.031 A 
ATOM     39  C   UNL A   1      39.633  28.681  30.281  1.00  0.00     0.074 A 
ATOM     40  C   UNL A   1      40.233  30.676  31.571  1.00  0.00     0.049 A 
ATOM     41  N   UNL A   1      40.701  27.997  30.510  1.00  0.00    -0.248 NA
ATOM     42  C   UNL A   1      38.791  28.122  29.235  1.00  0.00     0.031 C 
ATOM     43  C   UNL A   1      41.668  30.653  31.345  1.00  0.00     0.029 A 
ATOM     44  N   UNL A   1      40.053  31.727  32.478  1.00  0.00    -0.354 N 
ATOM     45  C   UNL A   1      40.872  27.161  29.429  1.00  0.00     0.074 A 
ATOM     46  C   UNL A   1      39.575  27.134  28.794  1.00  0.00     0.031 C 
ATOM     47  C   UNL A   1      42.254  31.449  32.255  1.00  0.00     0.029 A 
ATOM     48  C   UNL A   1      41.231  31.823  33.219  1.00  0.00     0.049 A 
ATOM     49  H   UNL A   1      39.250  32.288  32.574  1.00  0.00     0.167 HD
ATOM     50  C   UNL A   1      42.138  26.769  29.100  1.00  0.00     0.034 A 
ATOM     51  C   UNL A   1      41.260  31.553  34.558  1.00  0.00     0.034 A 
ATOM     52  C   UNL A   1      43.107  27.221  30.125  1.00  0.00     0.049 A 
ATOM     53  C   UNL A   1      42.092  30.318  34.866  1.00  0.00     0.074 A 
ATOM     54  C   UNL A   1      44.076  28.212  30.147  1.00  0.00     0.029 A 
ATOM     55  N   UNL A   1      42.964  26.798  31.447  1.00  0.00    -0.354 N 
ATOM     56  N   UNL A   1      42.699  29.596  33.964  1.00  0.00    -0.248 NA
ATOM     57  C   UNL A   1      42.290  29.783  36.210  1.00  0.00     0.031 C 
ATOM     58  C   UNL A   1      44.413  28.470  31.508  1.00  0.00     0.029 A 
ATOM     59  C   UNL A   1      43.689  27.608  32.314  1.00  0.00     0.049 A 
ATOM     60  H   UNL A   1      42.422  26.026  31.729  1.00  0.00     0.167 HD
ATOM     61  C   UNL A   1      43.180  28.447  34.524  1.00  0.00     0.074 A 
ATOM     62  C   UNL A   1      42.999  28.669  35.950  1.00  0.00     0.031 C 
ATOM     63  C   UNL A   1      43.607  27.389  33.763  1.00  0.00     0.034 A 
BRANCH  50  64
ATOM     64  C   UNL A   1      42.590  26.224  27.739  1.00  0.00     0.023 A 
ATOM     65  C   UNL A   1      42.886  27.173  26.732  1.00  0.00     0.012 A 
ATOM     66  C   UNL A   1      42.676  24.869  27.329  1.00  0.00     0.148 A 
ATOM     67  C   UNL A   1      43.180  26.813  25.408  1.00  0.00     0.002 A 
ATOM     68  C   UNL A   1      42.978  24.504  26.011  1.00  0.00     0.091 A 
ATOM     69  F   UNL A   1      42.465  23.886  28.196  1.00  0.00    -0.205 F 
ATOM     70  C   UNL A   1      43.217  25.478  25.043  1.00  0.00     0.022 A 
BRANCH  68  71
ATOM     71  S   UNL A   1      43.048  22.781  25.472  1.00  0.00     0.127 S 
ATOM     72  O   UNL A   1      44.100  22.234  26.330  1.00  0.00    -0.237 OA
ATOM     73  O   UNL A   1      41.701  22.302  25.781  1.00  0.00    -0.237 OA
ATOM     74  O   UNL A   1      43.379  22.799  24.052  1.00  0.00    -0.744 OA
ENDBRANCH  68  71
ENDBRANCH  50  64
BRANCH  51  75
ATOM     75  C   UNL A   1      40.011  31.987  35.265  1.00  0.00     0.023 A 
ATOM     76  C   UNL A   1      38.982  31.020  35.369  1.00  0.00     0.012 A 
ATOM     77  C   UNL A   1      40.022  33.062  36.176  1.00  0.00     0.148 A 
ATOM     78  C   UNL A   1      38.071  31.048  36.429  1.00  0.00     0.002 A 
ATOM     79  C   UNL A   1      39.128  33.066  37.250  1.00  0.00     0.091 A 
ATOM     80  F   UNL A   1      40.980  33.989  36.054  1.00  0.00    -0.205 F 
ATOM     81  C   UNL A   1      38.173  32.046  37.392  1.00  0.00     0.022 A 
BRANCH  79  82
ATOM     82  S   UNL A   1      39.266  34.253  38.597  1.00  0.00     0.127 S 
ATOM     83  O   UNL A   1      38.158  33.850  39.457  1.00  0.00    -0.237 OA
ATOM     84  O   UNL A   1      40.595  33.971  39.136  1.00  0.00    -0.237 OA
ATOM     85  O   UNL A   1      39.148  35.559  37.965  1.00  0.00    -0.744 OA
ENDBRANCH  79  82
ENDBRANCH  51  75
BRANCH  63  86
ATOM     86  C   UNL A   1      43.949  26.016  34.311  1.00  0.00     0.023 A 
ATOM     87  C   UNL A   1      42.994  24.989  34.428  1.00  0.00     0.012 A 
ATOM     88  C   UNL A   1      45.297  25.668  34.580  1.00  0.00     0.148 A 
ATOM     89  C   UNL A   1      43.344  23.699  34.848  1.00  0.00     0.002 A 
ATOM     90  C   UNL A   1      45.655  24.356  34.875  1.00  0.00     0.091 A 
ATOM     91  F   UNL A   1      46.249  26.613  34.566  1.00  0.00    -0.205 F 
ATOM     92  C   UNL A   1      44.678  23.375  35.045  1.00  0.00     0.022 A 
BRANCH  90  93
ATOM     93  S   UNL A   1      47.384  23.858  34.867  1.00  0.00     0.127 S 
ATOM     94  O   UNL A   1      47.856  24.368  36.151  1.00  0.00    -0.237 OA
ATOM     95  O   UNL A   1      47.295  22.399  34.785  1.00  0.00    -0.237 OA
ATOM     96  O   UNL A   1      47.942  24.485  33.675  1.00  0.00    -0.744 OA
ENDBRANCH  90  93
ENDBRANCH  63  86
ENDBRANCH  37  38
ENDBRANCH  29  32
ENDBRANCH  27  28
ENDBRANCH  26  27
ENDBRANCH   1  26
TORSDOF 17
ENDMDL
MODEL 3
REMARK VINA RESULT:     -11.0      3.092      4.096
REMARK SMILES Cc1c(NS(=O)(=O)c2ncn(C)c2Cl)cccc1C(=O)NCCCCNC(=O)c1ccc(-c2c3nc(c(-c4cccc(S(=O)(=O)[O-])c4F)c4ccc([nH]4)c(-c4cccc(S(=O)(=O)[O-])c4F)c4nc(c(-c5cccc(S(=O)(=O)[O-])c5F)c5ccc2[nH]5)C=C4)C=C3)cc1
REMARK SMILES IDX 23 1 22 2 21 3 19 4 20 5 18 7 1 8 2 9 3 10 15 11 17 12 16 13
REMARK SMILES IDX 4 14 5 16 6 17 7 18 8 19 9 20 13 21 10 22 11 23 14 24 12 25
REMARK SMILES IDX 24 26 25 27 26 28 27 29 28 31 29 32 30 33 91 34 31 35 90 36
REMARK SMILES IDX 32 37 33 38 34 39 84 40 35 41 89 42 83 43 85 44 36 45 88 46
REMARK SMILES IDX 82 47 81 48 37 50 69 51 49 52 68 53 50 54 53 55 67 56 86 57
REMARK SMILES IDX 51 58 52 59 66 61 87 62 54 63 38 64 39 65 47 66 40 67 42 68
REMARK SMILES IDX 48 69 41 70 43 71 44 72 45 73 46 74 70 75 71 76 79 77 72 78
REMARK SMILES IDX 74 79 80 80 73 81 75 82 76 83 77 84 78 85 55 86 56 87 64 88
REMARK SMILES IDX 57 89 59 90 65 91 58 92 60 93 61 94 62 95 63 96
REMARK H PARENT 21 6 4 15 26 30 85 49 53 60
REMARK Flexibility Score: inf
ROOT
ATOM      1  C   UNL A   1      34.483  30.156  27.121  1.00  0.00     0.023 C 
ENDROOT
BRANCH   1   2
ATOM      2  C   UNL A   1      33.173  29.959  26.353  1.00  0.00     0.116 C 
BRANCH   2   3
ATOM      3  N   UNL A   1      32.278  29.066  27.047  1.00  0.00    -0.352 N 
ATOM      4  C   UNL A   1      31.585  27.918  26.812  1.00  0.00     0.251 C 
ATOM      5  O   UNL A   1      30.875  27.619  27.788  1.00  0.00    -0.269 OA
ATOM      6  H   UNL A   1      32.121  29.382  27.966  1.00  0.00     0.163 HD
BRANCH   4   7
ATOM      7  C   UNL A   1      31.535  26.990  25.604  1.00  0.00     0.044 A 
ATOM      8  C   UNL A   1      33.992  26.691  24.906  1.00  0.00     0.047 C 
ATOM      9  C   UNL A   1      32.531  26.403  24.761  1.00  0.00    -0.014 A 
ATOM     10  C   UNL A   1      32.139  25.603  23.640  1.00  0.00     0.053 A 
ATOM     11  C   UNL A   1      30.815  25.665  23.217  1.00  0.00     0.027 A 
ATOM     12  C   UNL A   1      30.184  26.778  25.225  1.00  0.00     0.014 A 
ATOM     13  C   UNL A   1      29.825  26.183  24.028  1.00  0.00     0.003 A 
BRANCH  10  14
ATOM     14  N   UNL A   1      33.117  24.986  22.763  1.00  0.00    -0.278 N 
ATOM     15  H   UNL A   1      33.467  25.509  22.006  1.00  0.00     0.180 HD
BRANCH  14  16
ATOM     16  S   UNL A   1      33.691  23.389  22.990  1.00  0.00     0.282 S 
ATOM     17  O   UNL A   1      32.544  22.530  22.789  1.00  0.00    -0.199 OA
ATOM     18  O   UNL A   1      34.867  23.233  22.156  1.00  0.00    -0.199 OA
BRANCH  16  19
ATOM     19  C   UNL A   1      34.219  23.072  24.610  1.00  0.00     0.213 A 
ATOM     20  N   UNL A   1      35.535  22.757  24.941  1.00  0.00    -0.222 NA
ATOM     21  C   UNL A   1      33.411  22.895  25.710  1.00  0.00     0.149 A 
ATOM     22  C   UNL A   1      35.483  22.315  26.176  1.00  0.00     0.202 A 
ATOM     23  N   UNL A   1      34.191  22.252  26.631  1.00  0.00    -0.324 N 
ATOM     24  Cl  UNL A   1      31.741  23.098  25.965  1.00  0.00    -0.061 Cl
ATOM     25  C   UNL A   1      33.771  21.360  27.684  1.00  0.00     0.152 C 
ENDBRANCH  16  19
ENDBRANCH  14  16
ENDBRANCH  10  14
ENDBRANCH   4   7
ENDBRANCH   2   3
ENDBRANCH   1   2
BRANCH   1  26
ATOM     26  C   UNL A   1      34.574  31.289  28.146  1.00  0.00     0.023 C 
BRANCH  26  27
ATOM     27  C   UNL A   1      34.481  32.723  27.635  1.00  0.00     0.116 C 
BRANCH  27  28
ATOM     28  N   UNL A   1      33.957  33.655  28.631  1.00  0.00    -0.352 N 
ATOM     29  C   UNL A   1      34.291  33.821  29.963  1.00  0.00     0.251 C 
ATOM     30  H   UNL A   1      33.255  34.261  28.302  1.00  0.00     0.163 HD
ATOM     31  O   UNL A   1      33.451  34.309  30.713  1.00  0.00    -0.269 OA
BRANCH  29  32
ATOM     32  C   UNL A   1      35.649  33.483  30.445  1.00  0.00     0.039 A 
ATOM     33  C   UNL A   1      36.821  33.913  29.809  1.00  0.00     0.014 A 
ATOM     34  C   UNL A   1      35.746  32.571  31.483  1.00  0.00     0.014 A 
ATOM     35  C   UNL A   1      38.056  33.353  30.172  1.00  0.00     0.010 A 
ATOM     36  C   UNL A   1      36.951  32.208  32.002  1.00  0.00     0.010 A 
ATOM     37  C   UNL A   1      38.089  32.459  31.238  1.00  0.00    -0.014 A 
BRANCH  37  38
ATOM     38  C   UNL A   1      39.133  31.485  31.531  1.00  0.00     0.031 A 
ATOM     39  C   UNL A   1      39.266  30.235  30.784  1.00  0.00     0.074 A 
ATOM     40  C   UNL A   1      40.210  32.060  32.118  1.00  0.00     0.049 A 
ATOM     41  N   UNL A   1      40.185  29.360  31.011  1.00  0.00    -0.248 NA
ATOM     42  C   UNL A   1      38.349  29.861  29.719  1.00  0.00     0.031 C 
ATOM     43  C   UNL A   1      41.618  31.775  31.906  1.00  0.00     0.029 A 
ATOM     44  N   UNL A   1      40.216  33.111  33.044  1.00  0.00    -0.354 N 
ATOM     45  C   UNL A   1      40.211  28.525  29.915  1.00  0.00     0.074 A 
ATOM     46  C   UNL A   1      38.941  28.751  29.267  1.00  0.00     0.031 C 
ATOM     47  C   UNL A   1      42.330  32.431  32.837  1.00  0.00     0.029 A 
ATOM     48  C   UNL A   1      41.381  32.973  33.798  1.00  0.00     0.049 A 
ATOM     49  H   UNL A   1      39.530  33.810  33.142  1.00  0.00     0.167 HD
ATOM     50  C   UNL A   1      41.387  27.910  29.591  1.00  0.00     0.034 A 
ATOM     51  C   UNL A   1      41.342  32.679  35.132  1.00  0.00     0.034 A 
ATOM     52  C   UNL A   1      42.409  28.156  30.635  1.00  0.00     0.049 A 
ATOM     53  C   UNL A   1      41.925  31.307  35.424  1.00  0.00     0.074 A 
ATOM     54  C   UNL A   1      43.545  28.948  30.685  1.00  0.00     0.029 A 
ATOM     55  N   UNL A   1      42.173  27.745  31.946  1.00  0.00    -0.354 N 
ATOM     56  N   UNL A   1      42.399  30.500  34.514  1.00  0.00    -0.248 NA
ATOM     57  C   UNL A   1      42.003  30.721  36.759  1.00  0.00     0.031 C 
ATOM     58  C   UNL A   1      43.907  29.116  32.054  1.00  0.00     0.029 A 
ATOM     59  C   UNL A   1      43.024  28.390  32.836  1.00  0.00     0.049 A 
ATOM     60  H   UNL A   1      41.493  27.083  32.208  1.00  0.00     0.167 HD
ATOM     61  C   UNL A   1      42.651  29.271  35.056  1.00  0.00     0.074 A 
ATOM     62  C   UNL A   1      42.495  29.499  36.485  1.00  0.00     0.031 C 
ATOM     63  C   UNL A   1      42.883  28.166  34.279  1.00  0.00     0.034 A 
BRANCH  50  64
ATOM     64  C   UNL A   1      41.748  27.314  28.224  1.00  0.00     0.023 A 
ATOM     65  C   UNL A   1      41.618  28.161  27.098  1.00  0.00     0.012 A 
ATOM     66  C   UNL A   1      42.127  25.980  27.930  1.00  0.00     0.148 A 
ATOM     67  C   UNL A   1      41.785  27.708  25.781  1.00  0.00     0.002 A 
ATOM     68  C   UNL A   1      42.304  25.524  26.617  1.00  0.00     0.091 A 
ATOM     69  F   UNL A   1      42.325  25.102  28.906  1.00  0.00    -0.205 F 
ATOM     70  C   UNL A   1      42.119  26.386  25.537  1.00  0.00     0.022 A 
BRANCH  68  71
ATOM     71  S   UNL A   1      42.745  23.815  26.232  1.00  0.00     0.127 S 
ATOM     72  O   UNL A   1      43.157  23.914  24.830  1.00  0.00    -0.237 OA
ATOM     73  O   UNL A   1      43.837  23.557  27.169  1.00  0.00    -0.237 OA
ATOM     74  O   UNL A   1      41.548  23.013  26.452  1.00  0.00    -0.744 OA
ENDBRANCH  68  71
ENDBRANCH  50  64
BRANCH  51  75
ATOM     75  C   UNL A   1      40.186  33.326  35.835  1.00  0.00     0.023 A 
ATOM     76  C   UNL A   1      39.051  32.509  36.058  1.00  0.00     0.012 A 
ATOM     77  C   UNL A   1      40.367  34.466  36.643  1.00  0.00     0.148 A 
ATOM     78  C   UNL A   1      38.197  32.743  37.139  1.00  0.00     0.002 A 
ATOM     79  C   UNL A   1      39.526  34.675  37.740  1.00  0.00     0.091 A 
ATOM     80  F   UNL A   1      41.425  35.252  36.408  1.00  0.00    -0.205 F 
ATOM     81  C   UNL A   1      38.460  33.799  38.003  1.00  0.00     0.022 A 
BRANCH  79  82
ATOM     82  S   UNL A   1      39.864  35.948  38.968  1.00  0.00     0.127 S 
ATOM     83  O   UNL A   1      38.831  35.677  39.963  1.00  0.00    -0.237 OA
ATOM     84  O   UNL A   1      41.225  35.626  39.394  1.00  0.00    -0.237 OA
ATOM     85  O   UNL A   1      39.751  37.209  38.249  1.00  0.00    -0.744 OA
ENDBRANCH  79  82
ENDBRANCH  51  75
BRANCH  63  86
ATOM     86  C   UNL A   1      42.956  26.744  34.804  1.00  0.00     0.023 A 
ATOM     87  C   UNL A   1      41.812  26.016  35.179  1.00  0.00     0.012 A 
ATOM     88  C   UNL A   1      44.185  26.036  34.785  1.00  0.00     0.148 A 
ATOM     89  C   UNL A   1      41.886  24.674  35.574  1.00  0.00     0.002 A 
ATOM     90  C   UNL A   1      44.233  24.672  35.057  1.00  0.00     0.091 A 
ATOM     91  F   UNL A   1      45.328  26.685  34.515  1.00  0.00    -0.205 F 
ATOM     92  C   UNL A   1      43.092  23.994  35.486  1.00  0.00     0.022 A 
BRANCH  90  93
ATOM     93  S   UNL A   1      45.715  23.720  34.691  1.00  0.00     0.127 S 
ATOM     94  O   UNL A   1      46.069  24.202  33.360  1.00  0.00    -0.237 OA
ATOM     95  O   UNL A   1      46.631  24.136  35.754  1.00  0.00    -0.237 OA
ATOM     96  O   UNL A   1      45.292  22.328  34.786  1.00  0.00    -0.744 OA
ENDBRANCH  90  93
ENDBRANCH  63  86
ENDBRANCH  37  38
ENDBRANCH  29  32
ENDBRANCH  27  28
ENDBRANCH  26  27
ENDBRANCH   1  26
TORSDOF 17
ENDMDL
