MODEL 1
REMARK VINA RESULT:     -12.4      0.000      0.000
REMARK SMILES Cc1cc([C@H](O)CC2(CC(=O)NCCCCNC(=O)c3ccc(-c4c5nc(c(-c6cccc(S(=O)(=O)[O-])c6F)c6ccc([nH]6)c(-c6cccc(S(=O)(=O)[O-])c6F)c6nc(c(-c7cccc(S(=O)(=O)[O-])c7F)c7ccc4[nH]7)C=C6)C=C5)cc3)CCCC2)ccc1F
REMARK SMILES IDX 14 1 13 2 12 3 10 4 11 5 9 7 8 8 83 9 86 10 84 11 85 12 7 13
REMARK SMILES IDX 5 14 4 15 1 16 2 17 3 18 89 19 88 20 90 21 87 22 6 23 15 25
REMARK SMILES IDX 16 26 17 27 18 28 19 30 20 31 21 32 82 33 22 34 81 35 23 36
REMARK SMILES IDX 24 37 25 38 75 39 26 40 80 41 74 42 76 43 27 44 79 45 73 46
REMARK SMILES IDX 72 47 28 49 60 50 40 51 59 52 41 53 44 54 58 55 77 56 42 57
REMARK SMILES IDX 43 58 57 60 78 61 45 62 29 63 30 64 38 65 31 66 33 67 39 68
REMARK SMILES IDX 32 69 34 70 35 71 36 72 37 73 61 74 62 75 70 76 63 77 65 78
REMARK SMILES IDX 71 79 64 80 66 81 67 82 68 83 69 84 46 85 47 86 55 87 48 88
REMARK SMILES IDX 50 89 56 90 49 91 51 92 52 93 53 94 54 95
REMARK H PARENT 12 6 6 24 17 29 76 48 44 59
REMARK Flexibility Score: inf
ROOT
ATOM      1  C   UNL A   1      32.262  29.986  26.816  1.00  0.00     0.023 C 
ENDROOT
BRANCH   1   2
ATOM      2  C   UNL A   1      31.638  29.845  25.419  1.00  0.00     0.116 C 
BRANCH   2   3
ATOM      3  N   UNL A   1      32.676  29.699  24.417  1.00  0.00    -0.356 N 
ATOM      4  C   UNL A   1      32.833  28.726  23.481  1.00  0.00     0.220 C 
ATOM      5  O   UNL A   1      33.868  28.719  22.810  1.00  0.00    -0.275 OA
ATOM      6  H   UNL A   1      33.364  30.403  24.415  1.00  0.00     0.163 HD
BRANCH   4   7
ATOM      7  C   UNL A   1      31.749  27.681  23.244  1.00  0.00     0.107 C 
BRANCH   7   8
ATOM      8  C   UNL A   1      32.033  26.178  23.608  1.00  0.00    -0.018 C 
ATOM      9  C   UNL A   1      30.653  25.461  23.665  1.00  0.00     0.007 C 
ATOM     10  C   UNL A   1      32.429  25.944  25.079  1.00  0.00     0.007 C 
ATOM     11  C   UNL A   1      30.025  25.900  24.997  1.00  0.00     0.001 C 
ATOM     12  C   UNL A   1      31.193  26.265  25.905  1.00  0.00     0.001 C 
BRANCH   8  13
ATOM     13  C   UNL A   1      32.995  25.539  22.558  1.00  0.00     0.044 C 
BRANCH  13  14
ATOM     14  C   UNL A   1      32.772  24.062  22.167  1.00  0.00     0.145 C 
BRANCH  14  15
ATOM     15  C   UNL A   1      33.543  23.091  23.049  1.00  0.00    -0.019 A 
ATOM     16  C   UNL A   1      37.062  22.610  24.461  1.00  0.00     0.047 C 
ATOM     17  C   UNL A   1      35.614  22.393  24.147  1.00  0.00    -0.015 A 
ATOM     18  C   UNL A   1      34.892  23.317  23.379  1.00  0.00     0.012 A 
ATOM     19  C   UNL A   1      34.968  21.238  24.590  1.00  0.00     0.126 A 
ATOM     20  C   UNL A   1      33.630  21.003  24.294  1.00  0.00     0.040 A 
ATOM     21  F   UNL A   1      35.644  20.329  25.307  1.00  0.00    -0.207 F 
ATOM     22  C   UNL A   1      32.919  21.926  23.527  1.00  0.00     0.009 A 
ENDBRANCH  14  15
BRANCH  14  23
ATOM     23  O   UNL A   1      33.134  23.809  20.815  1.00  0.00    -0.388 OA
ATOM     24  H   UNL A   1      32.971  24.604  20.282  1.00  0.00     0.211 HD
ENDBRANCH  14  23
ENDBRANCH  13  14
ENDBRANCH   8  13
ENDBRANCH   7   8
ENDBRANCH   4   7
ENDBRANCH   2   3
ENDBRANCH   1   2
BRANCH   1  25
ATOM     25  C   UNL A   1      33.121  28.820  27.293  1.00  0.00     0.023 C 
BRANCH  25  26
ATOM     26  C   UNL A   1      34.590  29.190  27.347  1.00  0.00     0.116 C 
BRANCH  26  27
ATOM     27  N   UNL A   1      34.881  30.384  28.147  1.00  0.00    -0.352 N 
ATOM     28  C   UNL A   1      36.040  30.612  28.887  1.00  0.00     0.251 C 
ATOM     29  H   UNL A   1      34.194  31.089  28.164  1.00  0.00     0.163 HD
ATOM     30  O   UNL A   1      36.093  31.410  29.798  1.00  0.00    -0.269 OA
BRANCH  28  31
ATOM     31  C   UNL A   1      37.202  29.789  28.500  1.00  0.00     0.039 A 
ATOM     32  C   UNL A   1      37.926  29.994  27.323  1.00  0.00     0.014 A 
ATOM     33  C   UNL A   1      37.653  28.929  29.489  1.00  0.00     0.014 A 
ATOM     34  C   UNL A   1      39.180  29.388  27.199  1.00  0.00     0.010 A 
ATOM     35  C   UNL A   1      38.964  28.562  29.473  1.00  0.00     0.010 A 
ATOM     36  C   UNL A   1      39.706  28.701  28.301  1.00  0.00    -0.014 A 
BRANCH  36  37
ATOM     37  C   UNL A   1      40.979  27.987  28.332  1.00  0.00     0.031 A 
ATOM     38  C   UNL A   1      41.070  26.551  28.050  1.00  0.00     0.074 A 
ATOM     39  C   UNL A   1      42.069  28.734  28.624  1.00  0.00     0.049 A 
ATOM     40  N   UNL A   1      41.884  25.743  28.635  1.00  0.00    -0.248 NA
ATOM     41  C   UNL A   1      40.204  25.888  27.080  1.00  0.00     0.031 C 
ATOM     42  C   UNL A   1      43.482  28.400  28.613  1.00  0.00     0.029 A 
ATOM     43  N   UNL A   1      42.048  30.003  29.182  1.00  0.00    -0.354 N 
ATOM     44  C   UNL A   1      41.918  24.586  27.885  1.00  0.00     0.074 A 
ATOM     45  C   UNL A   1      40.744  24.662  27.041  1.00  0.00     0.031 C 
ATOM     46  C   UNL A   1      44.139  29.298  29.380  1.00  0.00     0.029 A 
ATOM     47  C   UNL A   1      43.146  30.167  30.005  1.00  0.00     0.049 A 
ATOM     48  H   UNL A   1      41.356  30.684  29.017  1.00  0.00     0.167 HD
ATOM     49  C   UNL A   1      43.042  23.808  27.915  1.00  0.00     0.034 A 
ATOM     50  C   UNL A   1      42.911  30.326  31.343  1.00  0.00     0.034 A 
ATOM     51  C   UNL A   1      44.031  24.392  28.824  1.00  0.00     0.049 A 
ATOM     52  C   UNL A   1      43.426  29.127  32.090  1.00  0.00     0.074 A 
ATOM     53  C   UNL A   1      45.145  25.177  28.575  1.00  0.00     0.029 A 
ATOM     54  N   UNL A   1      43.753  24.523  30.182  1.00  0.00    -0.354 N 
ATOM     55  N   UNL A   1      43.485  27.926  31.583  1.00  0.00    -0.248 NA
ATOM     56  C   UNL A   1      43.963  29.210  33.441  1.00  0.00     0.031 C 
ATOM     57  C   UNL A   1      45.464  25.871  29.769  1.00  0.00     0.029 A 
ATOM     58  C   UNL A   1      44.569  25.482  30.751  1.00  0.00     0.049 A 
ATOM     59  H   UNL A   1      43.071  24.004  30.668  1.00  0.00     0.167 HD
ATOM     60  C   UNL A   1      44.142  27.109  32.463  1.00  0.00     0.074 A 
ATOM     61  C   UNL A   1      44.396  27.952  33.620  1.00  0.00     0.031 C 
ATOM     62  C   UNL A   1      44.471  25.818  32.167  1.00  0.00     0.034 A 
BRANCH  49  63
ATOM     63  C   UNL A   1      43.386  22.750  26.872  1.00  0.00     0.023 A 
ATOM     64  C   UNL A   1      44.320  22.969  25.838  1.00  0.00     0.012 A 
ATOM     65  C   UNL A   1      42.815  21.452  26.909  1.00  0.00     0.148 A 
ATOM     66  C   UNL A   1      44.772  21.946  24.990  1.00  0.00     0.002 A 
ATOM     67  C   UNL A   1      43.246  20.438  26.046  1.00  0.00     0.091 A 
ATOM     68  F   UNL A   1      41.838  21.170  27.780  1.00  0.00    -0.205 F 
ATOM     69  C   UNL A   1      44.245  20.671  25.103  1.00  0.00     0.022 A 
BRANCH  67  70
ATOM     70  S   UNL A   1      42.503  18.805  26.164  1.00  0.00     0.127 S 
ATOM     71  O   UNL A   1      43.275  18.026  25.202  1.00  0.00    -0.237 OA
ATOM     72  O   UNL A   1      42.668  18.466  27.573  1.00  0.00    -0.237 OA
ATOM     73  O   UNL A   1      41.112  19.040  25.766  1.00  0.00    -0.744 OA
ENDBRANCH  67  70
ENDBRANCH  49  63
BRANCH  50  74
ATOM     74  C   UNL A   1      41.611  31.040  31.629  1.00  0.00     0.023 A 
ATOM     75  C   UNL A   1      41.536  32.445  31.654  1.00  0.00     0.012 A 
ATOM     76  C   UNL A   1      40.616  30.308  32.321  1.00  0.00     0.148 A 
ATOM     77  C   UNL A   1      40.557  33.091  32.429  1.00  0.00     0.002 A 
ATOM     78  C   UNL A   1      39.723  30.954  33.174  1.00  0.00     0.091 A 
ATOM     79  F   UNL A   1      40.645  28.966  32.249  1.00  0.00    -0.205 F 
ATOM     80  C   UNL A   1      39.682  32.349  33.225  1.00  0.00     0.022 A 
BRANCH  78  81
ATOM     81  S   UNL A   1      38.889  29.993  34.455  1.00  0.00     0.127 S 
ATOM     82  O   UNL A   1      40.000  29.376  35.171  1.00  0.00    -0.237 OA
ATOM     83  O   UNL A   1      38.112  30.988  35.189  1.00  0.00    -0.237 OA
ATOM     84  O   UNL A   1      38.049  29.062  33.699  1.00  0.00    -0.744 OA
ENDBRANCH  78  81
ENDBRANCH  50  74
BRANCH  62  85
ATOM     85  C   UNL A   1      44.914  24.797  33.177  1.00  0.00     0.023 A 
ATOM     86  C   UNL A   1      43.992  23.804  33.592  1.00  0.00     0.012 A 
ATOM     87  C   UNL A   1      46.159  24.811  33.820  1.00  0.00     0.148 A 
ATOM     88  C   UNL A   1      44.303  22.865  34.577  1.00  0.00     0.002 A 
ATOM     89  C   UNL A   1      46.511  23.797  34.706  1.00  0.00     0.091 A 
ATOM     90  F   UNL A   1      47.007  25.832  33.634  1.00  0.00    -0.205 F 
ATOM     91  C   UNL A   1      45.581  22.839  35.114  1.00  0.00     0.022 A 
BRANCH  89  92
ATOM     92  S   UNL A   1      48.232  23.660  35.185  1.00  0.00     0.127 S 
ATOM     93  O   UNL A   1      48.919  23.700  33.896  1.00  0.00    -0.237 OA
ATOM     94  O   UNL A   1      48.435  24.808  36.062  1.00  0.00    -0.237 OA
ATOM     95  O   UNL A   1      48.293  22.363  35.860  1.00  0.00    -0.744 OA
ENDBRANCH  89  92
ENDBRANCH  62  85
ENDBRANCH  36  37
ENDBRANCH  28  31
ENDBRANCH  26  27
ENDBRANCH  25  26
ENDBRANCH   1  25
TORSDOF 19
ENDMDL
MODEL 2
REMARK VINA RESULT:     -12.3      1.439      1.932
REMARK SMILES Cc1cc([C@H](O)CC2(CC(=O)NCCCCNC(=O)c3ccc(-c4c5nc(c(-c6cccc(S(=O)(=O)[O-])c6F)c6ccc([nH]6)c(-c6cccc(S(=O)(=O)[O-])c6F)c6nc(c(-c7cccc(S(=O)(=O)[O-])c7F)c7ccc4[nH]7)C=C6)C=C5)cc3)CCCC2)ccc1F
REMARK SMILES IDX 14 1 13 2 12 3 10 4 11 5 9 7 8 8 83 9 86 10 84 11 85 12 7 13
REMARK SMILES IDX 5 14 4 15 1 16 2 17 3 18 89 19 88 20 90 21 87 22 6 23 15 25
REMARK SMILES IDX 16 26 17 27 18 28 19 30 20 31 21 32 82 33 22 34 81 35 23 36
REMARK SMILES IDX 24 37 25 38 75 39 26 40 80 41 74 42 76 43 27 44 79 45 73 46
REMARK SMILES IDX 72 47 28 49 60 50 40 51 59 52 41 53 44 54 58 55 77 56 42 57
REMARK SMILES IDX 43 58 57 60 78 61 45 62 29 63 30 64 38 65 31 66 33 67 39 68
REMARK SMILES IDX 32 69 34 70 35 71 36 72 37 73 61 74 62 75 70 76 63 77 65 78
REMARK SMILES IDX 71 79 64 80 66 81 67 82 68 83 69 84 46 85 47 86 55 87 48 88
REMARK SMILES IDX 50 89 56 90 49 91 51 92 52 93 53 94 54 95
REMARK H PARENT 12 6 6 24 17 29 76 48 44 59
REMARK Flexibility Score: inf
ROOT
ATOM      1  C   UNL A   1      32.919  30.089  26.739  1.00  0.00     0.023 C 
ENDROOT
BRANCH   1   2
ATOM      2  C   UNL A   1      32.158  29.857  25.426  1.00  0.00     0.116 C 
BRANCH   2   3
ATOM      3  N   UNL A   1      33.089  29.703  24.325  1.00  0.00    -0.356 N 
ATOM      4  C   UNL A   1      33.123  28.748  23.358  1.00  0.00     0.220 C 
ATOM      5  O   UNL A   1      34.088  28.724  22.590  1.00  0.00    -0.275 OA
ATOM      6  H   UNL A   1      33.796  30.385  24.271  1.00  0.00     0.163 HD
BRANCH   4   7
ATOM      7  C   UNL A   1      31.987  27.743  23.206  1.00  0.00     0.107 C 
BRANCH   7   8
ATOM      8  C   UNL A   1      32.243  26.230  23.553  1.00  0.00    -0.018 C 
ATOM      9  C   UNL A   1      30.848  25.547  23.638  1.00  0.00     0.007 C 
ATOM     10  C   UNL A   1      32.667  25.976  25.013  1.00  0.00     0.007 C 
ATOM     11  C   UNL A   1      30.261  25.991  24.986  1.00  0.00     0.001 C 
ATOM     12  C   UNL A   1      31.459  26.320  25.870  1.00  0.00     0.001 C 
BRANCH   8  13
ATOM     13  C   UNL A   1      33.165  25.576  22.476  1.00  0.00     0.044 C 
BRANCH  13  14
ATOM     14  C   UNL A   1      32.851  24.134  22.026  1.00  0.00     0.145 C 
BRANCH  14  15
ATOM     15  C   UNL A   1      33.481  23.079  22.923  1.00  0.00    -0.019 A 
ATOM     16  C   UNL A   1      32.529  19.840  24.714  1.00  0.00     0.047 C 
ATOM     17  C   UNL A   1      33.319  21.013  24.222  1.00  0.00    -0.015 A 
ATOM     18  C   UNL A   1      32.752  21.955  23.352  1.00  0.00     0.012 A 
ATOM     19  C   UNL A   1      34.631  21.205  24.656  1.00  0.00     0.126 A 
ATOM     20  C   UNL A   1      35.378  22.297  24.230  1.00  0.00     0.040 A 
ATOM     21  F   UNL A   1      35.186  20.330  25.507  1.00  0.00    -0.207 F 
ATOM     22  C   UNL A   1      34.806  23.232  23.366  1.00  0.00     0.009 A 
ENDBRANCH  14  15
BRANCH  14  23
ATOM     23  O   UNL A   1      33.280  23.888  20.692  1.00  0.00    -0.388 OA
ATOM     24  H   UNL A   1      34.208  24.156  20.596  1.00  0.00     0.211 HD
ENDBRANCH  14  23
ENDBRANCH  13  14
ENDBRANCH   8  13
ENDBRANCH   7   8
ENDBRANCH   4   7
ENDBRANCH   2   3
ENDBRANCH   1   2
BRANCH   1  25
ATOM     25  C   UNL A   1      33.749  28.917  27.254  1.00  0.00     0.023 C 
BRANCH  25  26
ATOM     26  C   UNL A   1      35.172  29.332  27.567  1.00  0.00     0.116 C 
BRANCH  26  27
ATOM     27  N   UNL A   1      35.307  30.165  28.766  1.00  0.00    -0.352 N 
ATOM     28  C   UNL A   1      36.334  30.089  29.706  1.00  0.00     0.251 C 
ATOM     29  H   UNL A   1      34.607  30.840  28.923  1.00  0.00     0.163 HD
ATOM     30  O   UNL A   1      36.227  30.518  30.835  1.00  0.00    -0.269 OA
BRANCH  28  31
ATOM     31  C   UNL A   1      37.563  29.419  29.237  1.00  0.00     0.039 A 
ATOM     32  C   UNL A   1      38.462  30.009  28.345  1.00  0.00     0.014 A 
ATOM     33  C   UNL A   1      37.870  28.245  29.906  1.00  0.00     0.014 A 
ATOM     34  C   UNL A   1      39.734  29.444  28.211  1.00  0.00     0.010 A 
ATOM     35  C   UNL A   1      39.175  27.862  29.968  1.00  0.00     0.010 A 
ATOM     36  C   UNL A   1      40.092  28.387  29.059  1.00  0.00    -0.014 A 
BRANCH  36  37
ATOM     37  C   UNL A   1      41.360  27.665  29.031  1.00  0.00     0.031 A 
ATOM     38  C   UNL A   1      41.451  26.275  28.572  1.00  0.00     0.074 A 
ATOM     39  C   UNL A   1      42.446  28.360  29.443  1.00  0.00     0.049 A 
ATOM     40  N   UNL A   1      42.246  25.394  29.071  1.00  0.00    -0.248 NA
ATOM     41  C   UNL A   1      40.608  25.747  27.505  1.00  0.00     0.031 C 
ATOM     42  C   UNL A   1      43.857  28.019  29.426  1.00  0.00     0.029 A 
ATOM     43  N   UNL A   1      42.417  29.549  30.157  1.00  0.00    -0.354 N 
ATOM     44  C   UNL A   1      42.294  24.340  28.181  1.00  0.00     0.074 A 
ATOM     45  C   UNL A   1      41.143  24.532  27.325  1.00  0.00     0.031 C 
ATOM     46  C   UNL A   1      44.498  28.808  30.316  1.00  0.00     0.029 A 
ATOM     47  C   UNL A   1      43.494  29.598  31.021  1.00  0.00     0.049 A 
ATOM     48  H   UNL A   1      41.733  30.251  30.062  1.00  0.00     0.167 HD
ATOM     49  C   UNL A   1      43.413  23.555  28.141  1.00  0.00     0.034 A 
ATOM     50  C   UNL A   1      43.224  29.589  32.363  1.00  0.00     0.034 A 
ATOM     51  C   UNL A   1      44.382  24.012  29.141  1.00  0.00     0.049 A 
ATOM     52  C   UNL A   1      43.714  28.301  32.964  1.00  0.00     0.074 A 
ATOM     53  C   UNL A   1      45.505  24.813  29.022  1.00  0.00     0.029 A 
ATOM     54  N   UNL A   1      44.068  23.972  30.498  1.00  0.00    -0.354 N 
ATOM     55  N   UNL A   1      43.781  27.173  32.311  1.00  0.00    -0.248 NA
ATOM     56  C   UNL A   1      44.216  28.209  34.328  1.00  0.00     0.031 C 
ATOM     57  C   UNL A   1      45.796  25.348  30.302  1.00  0.00     0.029 A 
ATOM     58  C   UNL A   1      44.874  24.846  31.204  1.00  0.00     0.049 A 
ATOM     59  H   UNL A   1      43.372  23.402  30.897  1.00  0.00     0.167 HD
ATOM     60  C   UNL A   1      44.410  26.247  33.096  1.00  0.00     0.074 A 
ATOM     61  C   UNL A   1      44.638  26.934  34.357  1.00  0.00     0.031 C 
ATOM     62  C   UNL A   1      44.740  25.000  32.648  1.00  0.00     0.034 A 
BRANCH  49  63
ATOM     63  C   UNL A   1      43.779  22.635  26.981  1.00  0.00     0.023 A 
ATOM     64  C   UNL A   1      44.747  22.973  26.012  1.00  0.00     0.012 A 
ATOM     65  C   UNL A   1      43.195  21.351  26.835  1.00  0.00     0.148 A 
ATOM     66  C   UNL A   1      45.214  22.061  25.053  1.00  0.00     0.002 A 
ATOM     67  C   UNL A   1      43.643  20.450  25.862  1.00  0.00     0.091 A 
ATOM     68  F   UNL A   1      42.189  20.973  27.634  1.00  0.00    -0.205 F 
ATOM     69  C   UNL A   1      44.672  20.789  24.986  1.00  0.00     0.022 A 
BRANCH  67  70
ATOM     70  S   UNL A   1      42.881  18.825  25.748  1.00  0.00     0.127 S 
ATOM     71  O   UNL A   1      41.505  19.136  25.377  1.00  0.00    -0.237 OA
ATOM     72  O   UNL A   1      43.697  18.146  24.747  1.00  0.00    -0.237 OA
ATOM     73  O   UNL A   1      43.031  18.288  27.103  1.00  0.00    -0.744 OA
ENDBRANCH  67  70
ENDBRANCH  49  63
BRANCH  50  74
ATOM     74  C   UNL A   1      41.921  30.271  32.704  1.00  0.00     0.023 A 
ATOM     75  C   UNL A   1      40.711  29.556  32.759  1.00  0.00     0.012 A 
ATOM     76  C   UNL A   1      41.859  31.671  32.502  1.00  0.00     0.148 A 
ATOM     77  C   UNL A   1      39.488  30.207  32.518  1.00  0.00     0.002 A 
ATOM     78  C   UNL A   1      40.657  32.286  32.152  1.00  0.00     0.091 A 
ATOM     79  F   UNL A   1      43.007  32.370  32.511  1.00  0.00    -0.205 F 
ATOM     80  C   UNL A   1      39.464  31.559  32.168  1.00  0.00     0.022 A 
BRANCH  78  81
ATOM     81  S   UNL A   1      40.704  33.899  31.343  1.00  0.00     0.127 S 
ATOM     82  O   UNL A   1      41.320  34.749  32.356  1.00  0.00    -0.237 OA
ATOM     83  O   UNL A   1      41.481  33.661  30.130  1.00  0.00    -0.237 OA
ATOM     84  O   UNL A   1      39.296  34.190  31.067  1.00  0.00    -0.744 OA
ENDBRANCH  78  81
ENDBRANCH  50  74
BRANCH  62  85
ATOM     85  C   UNL A   1      45.153  23.856  33.532  1.00  0.00     0.023 A 
ATOM     86  C   UNL A   1      44.185  22.880  33.878  1.00  0.00     0.012 A 
ATOM     87  C   UNL A   1      46.416  23.732  34.125  1.00  0.00     0.148 A 
ATOM     88  C   UNL A   1      44.470  21.828  34.750  1.00  0.00     0.002 A 
ATOM     89  C   UNL A   1      46.733  22.614  34.890  1.00  0.00     0.091 A 
ATOM     90  F   UNL A   1      47.318  24.717  34.012  1.00  0.00    -0.205 F 
ATOM     91  C   UNL A   1      45.760  21.673  35.233  1.00  0.00     0.022 A 
BRANCH  89  92
ATOM     92  S   UNL A   1      48.456  22.330  35.288  1.00  0.00     0.127 S 
ATOM     93  O   UNL A   1      48.714  23.347  36.305  1.00  0.00    -0.237 OA
ATOM     94  O   UNL A   1      48.479  20.943  35.738  1.00  0.00    -0.237 OA
ATOM     95  O   UNL A   1      49.140  22.565  34.015  1.00  0.00    -0.744 OA
ENDBRANCH  89  92
ENDBRANCH  62  85
ENDBRANCH  36  37
ENDBRANCH  28  31
ENDBRANCH  26  27
ENDBRANCH  25  26
ENDBRANCH   1  25
TORSDOF 19
ENDMDL
MODEL 3
REMARK VINA RESULT:     -12.3      4.681     10.112
REMARK SMILES Cc1cc([C@H](O)CC2(CC(=O)NCCCCNC(=O)c3ccc(-c4c5nc(c(-c6cccc(S(=O)(=O)[O-])c6F)c6ccc([nH]6)c(-c6cccc(S(=O)(=O)[O-])c6F)c6nc(c(-c7cccc(S(=O)(=O)[O-])c7F)c7ccc4[nH]7)C=C6)C=C5)cc3)CCCC2)ccc1F
REMARK SMILES IDX 14 1 13 2 12 3 10 4 11 5 9 7 8 8 83 9 86 10 84 11 85 12 7 13
REMARK SMILES IDX 5 14 4 15 1 16 2 17 3 18 89 19 88 20 90 21 87 22 6 23 15 25
REMARK SMILES IDX 16 26 17 27 18 28 19 30 20 31 21 32 82 33 22 34 81 35 23 36
REMARK SMILES IDX 24 37 25 38 75 39 26 40 80 41 74 42 76 43 27 44 79 45 73 46
REMARK SMILES IDX 72 47 28 49 60 50 40 51 59 52 41 53 44 54 58 55 77 56 42 57
REMARK SMILES IDX 43 58 57 60 78 61 45 62 29 63 30 64 38 65 31 66 33 67 39 68
REMARK SMILES IDX 32 69 34 70 35 71 36 72 37 73 61 74 62 75 70 76 63 77 65 78
REMARK SMILES IDX 71 79 64 80 66 81 67 82 68 83 69 84 46 85 47 86 55 87 48 88
REMARK SMILES IDX 50 89 56 90 49 91 51 92 52 93 53 94 54 95
REMARK H PARENT 12 6 6 24 17 29 76 48 44 59
REMARK Flexibility Score: inf
ROOT
ATOM      1  C   UNL A   1      37.187  21.681  25.200  1.00  0.00     0.023 C 
ENDROOT
BRANCH   1   2
ATOM      2  C   UNL A   1      35.807  21.009  25.268  1.00  0.00     0.116 C 
BRANCH   2   3
ATOM      3  N   UNL A   1      35.178  21.280  26.546  1.00  0.00    -0.356 N 
ATOM      4  C   UNL A   1      33.910  21.695  26.806  1.00  0.00     0.220 C 
ATOM      5  O   UNL A   1      33.617  22.000  27.965  1.00  0.00    -0.275 OA
ATOM      6  H   UNL A   1      35.749  21.146  27.336  1.00  0.00     0.163 HD
BRANCH   4   7
ATOM      7  C   UNL A   1      32.863  21.762  25.699  1.00  0.00     0.107 C 
BRANCH   7   8
ATOM      8  C   UNL A   1      32.421  23.163  25.138  1.00  0.00    -0.018 C 
ATOM      9  C   UNL A   1      31.618  22.891  23.833  1.00  0.00     0.007 C 
ATOM     10  C   UNL A   1      33.561  23.977  24.493  1.00  0.00     0.007 C 
ATOM     11  C   UNL A   1      32.675  22.547  22.773  1.00  0.00     0.001 C 
ATOM     12  C   UNL A   1      33.961  23.219  23.237  1.00  0.00     0.001 C 
BRANCH   8  13
ATOM     13  C   UNL A   1      31.584  23.935  26.206  1.00  0.00     0.044 C 
BRANCH  13  14
ATOM     14  C   UNL A   1      30.543  24.963  25.713  1.00  0.00     0.145 C 
BRANCH  14  15
ATOM     15  C   UNL A   1      31.109  26.369  25.585  1.00  0.00    -0.019 A 
ATOM     16  C   UNL A   1      33.652  28.648  27.302  1.00  0.00     0.047 C 
ATOM     17  C   UNL A   1      32.605  28.143  26.358  1.00  0.00    -0.015 A 
ATOM     18  C   UNL A   1      32.123  26.830  26.444  1.00  0.00     0.012 A 
ATOM     19  C   UNL A   1      32.064  28.994  25.393  1.00  0.00     0.126 A 
ATOM     20  C   UNL A   1      31.076  28.555  24.518  1.00  0.00     0.040 A 
ATOM     21  F   UNL A   1      32.493  30.261  25.306  1.00  0.00    -0.207 F 
ATOM     22  C   UNL A   1      30.600  27.247  24.613  1.00  0.00     0.009 A 
ENDBRANCH  14  15
BRANCH  14  23
ATOM     23  O   UNL A   1      29.409  25.023  26.569  1.00  0.00    -0.388 OA
ATOM     24  H   UNL A   1      28.758  25.642  26.201  1.00  0.00     0.211 HD
ENDBRANCH  14  23
ENDBRANCH  13  14
ENDBRANCH   8  13
ENDBRANCH   7   8
ENDBRANCH   4   7
ENDBRANCH   2   3
ENDBRANCH   1   2
BRANCH   1  25
ATOM     25  C   UNL A   1      37.191  23.200  25.063  1.00  0.00     0.023 C 
BRANCH  25  26
ATOM     26  C   UNL A   1      37.962  23.863  26.186  1.00  0.00     0.116 C 
BRANCH  26  27
ATOM     27  N   UNL A   1      39.415  23.686  26.106  1.00  0.00    -0.352 N 
ATOM     28  C   UNL A   1      40.378  24.624  26.478  1.00  0.00     0.251 C 
ATOM     29  H   UNL A   1      39.742  22.825  25.757  1.00  0.00     0.163 HD
ATOM     30  O   UNL A   1      41.519  24.593  26.069  1.00  0.00    -0.269 OA
BRANCH  28  31
ATOM     31  C   UNL A   1      39.900  25.683  27.388  1.00  0.00     0.039 A 
ATOM     32  C   UNL A   1      39.330  25.418  28.636  1.00  0.00     0.014 A 
ATOM     33  C   UNL A   1      40.247  26.969  27.007  1.00  0.00     0.014 A 
ATOM     34  C   UNL A   1      39.206  26.471  29.548  1.00  0.00     0.010 A 
ATOM     35  C   UNL A   1      40.364  27.918  27.977  1.00  0.00     0.010 A 
ATOM     36  C   UNL A   1      39.763  27.714  29.219  1.00  0.00    -0.014 A 
BRANCH  36  37
ATOM     37  C   UNL A   1      39.696  28.921  30.035  1.00  0.00     0.031 A 
ATOM     38  C   UNL A   1      38.740  29.997  29.753  1.00  0.00     0.074 A 
ATOM     39  C   UNL A   1      40.560  28.981  31.075  1.00  0.00     0.049 A 
ATOM     40  N   UNL A   1      38.984  31.251  29.917  1.00  0.00    -0.248 NA
ATOM     41  C   UNL A   1      37.407  29.738  29.219  1.00  0.00     0.031 C 
ATOM     42  C   UNL A   1      40.685  29.943  32.155  1.00  0.00     0.029 A 
ATOM     43  N   UNL A   1      41.674  28.171  31.243  1.00  0.00    -0.354 N 
ATOM     44  C   UNL A   1      37.772  31.909  29.880  1.00  0.00     0.074 A 
ATOM     45  C   UNL A   1      36.859  30.960  29.281  1.00  0.00     0.031 C 
ATOM     46  C   UNL A   1      41.927  29.838  32.679  1.00  0.00     0.029 A 
ATOM     47  C   UNL A   1      42.678  28.886  31.867  1.00  0.00     0.049 A 
ATOM     48  H   UNL A   1      41.738  27.230  30.960  1.00  0.00     0.167 HD
ATOM     49  C   UNL A   1      37.639  33.093  30.551  1.00  0.00     0.034 A 
ATOM     50  C   UNL A   1      43.818  29.127  31.150  1.00  0.00     0.034 A 
ATOM     51  C   UNL A   1      38.908  33.453  31.188  1.00  0.00     0.049 A 
ATOM     52  C   UNL A   1      43.929  30.599  30.863  1.00  0.00     0.074 A 
ATOM     53  C   UNL A   1      39.349  33.298  32.492  1.00  0.00     0.029 A 
ATOM     54  N   UNL A   1      40.041  33.702  30.417  1.00  0.00    -0.354 N 
ATOM     55  N   UNL A   1      42.901  31.392  30.728  1.00  0.00    -0.248 NA
ATOM     56  C   UNL A   1      45.207  31.288  30.764  1.00  0.00     0.031 C 
ATOM     57  C   UNL A   1      40.766  33.341  32.481  1.00  0.00     0.029 A 
ATOM     58  C   UNL A   1      41.184  33.557  31.179  1.00  0.00     0.049 A 
ATOM     59  H   UNL A   1      40.028  33.947  29.463  1.00  0.00     0.167 HD
ATOM     60  C   UNL A   1      43.350  32.681  30.631  1.00  0.00     0.074 A 
ATOM     61  C   UNL A   1      44.799  32.561  30.630  1.00  0.00     0.031 C 
ATOM     62  C   UNL A   1      42.510  33.756  30.603  1.00  0.00     0.034 A 
BRANCH  49  63
ATOM     63  C   UNL A   1      36.303  33.721  30.933  1.00  0.00     0.023 A 
ATOM     64  C   UNL A   1      35.881  33.867  32.272  1.00  0.00     0.012 A 
ATOM     65  C   UNL A   1      35.418  34.245  29.956  1.00  0.00     0.148 A 
ATOM     66  C   UNL A   1      34.742  34.603  32.634  1.00  0.00     0.002 A 
ATOM     67  C   UNL A   1      34.268  34.956  30.317  1.00  0.00     0.091 A 
ATOM     68  F   UNL A   1      35.668  34.062  28.653  1.00  0.00    -0.205 F 
ATOM     69  C   UNL A   1      33.939  35.163  31.655  1.00  0.00     0.022 A 
BRANCH  67  70
ATOM     70  S   UNL A   1      33.202  35.620  29.030  1.00  0.00     0.127 S 
ATOM     71  O   UNL A   1      34.118  36.433  28.236  1.00  0.00    -0.237 OA
ATOM     72  O   UNL A   1      32.662  34.422  28.396  1.00  0.00    -0.237 OA
ATOM     73  O   UNL A   1      32.212  36.395  29.782  1.00  0.00    -0.744 OA
ENDBRANCH  67  70
ENDBRANCH  49  63
BRANCH  50  74
ATOM     74  C   UNL A   1      44.141  28.021  30.175  1.00  0.00     0.023 A 
ATOM     75  C   UNL A   1      45.009  26.968  30.520  1.00  0.00     0.012 A 
ATOM     76  C   UNL A   1      43.950  28.301  28.800  1.00  0.00     0.148 A 
ATOM     77  C   UNL A   1      45.736  26.290  29.526  1.00  0.00     0.002 A 
ATOM     78  C   UNL A   1      44.757  27.704  27.834  1.00  0.00     0.091 A 
ATOM     79  F   UNL A   1      43.075  29.263  28.461  1.00  0.00    -0.205 F 
ATOM     80  C   UNL A   1      45.648  26.687  28.190  1.00  0.00     0.022 A 
BRANCH  78  81
ATOM     81  S   UNL A   1      44.904  28.484  26.213  1.00  0.00     0.127 S 
ATOM     82  O   UNL A   1      43.627  28.164  25.584  1.00  0.00    -0.237 OA
ATOM     83  O   UNL A   1      45.144  29.891  26.522  1.00  0.00    -0.237 OA
ATOM     84  O   UNL A   1      46.068  27.828  25.615  1.00  0.00    -0.744 OA
ENDBRANCH  78  81
ENDBRANCH  50  74
BRANCH  62  85
ATOM     85  C   UNL A   1      42.915  35.146  30.202  1.00  0.00     0.023 A 
ATOM     86  C   UNL A   1      43.572  35.966  31.154  1.00  0.00     0.012 A 
ATOM     87  C   UNL A   1      42.604  35.736  28.969  1.00  0.00     0.148 A 
ATOM     88  C   UNL A   1      43.916  37.291  30.883  1.00  0.00     0.002 A 
ATOM     89  C   UNL A   1      43.062  37.012  28.658  1.00  0.00     0.091 A 
ATOM     90  F   UNL A   1      41.811  35.101  28.095  1.00  0.00    -0.205 F 
ATOM     91  C   UNL A   1      43.691  37.808  29.616  1.00  0.00     0.022 A 
BRANCH  89  92
ATOM     92  S   UNL A   1      42.967  37.544  26.950  1.00  0.00     0.127 S 
ATOM     93  O   UNL A   1      41.611  38.084  26.866  1.00  0.00    -0.237 OA
ATOM     94  O   UNL A   1      44.055  38.508  26.831  1.00  0.00    -0.237 OA
ATOM     95  O   UNL A   1      43.169  36.306  26.197  1.00  0.00    -0.744 OA
ENDBRANCH  89  92
ENDBRANCH  62  85
ENDBRANCH  36  37
ENDBRANCH  28  31
ENDBRANCH  26  27
ENDBRANCH  25  26
ENDBRANCH   1  25
TORSDOF 19
ENDMDL
