MODEL 1
REMARK VINA RESULT:     -11.2      0.000      0.000
REMARK SMILES COc1ccc([C@H](CC(=O)NCCCCNC(=O)c2ccc(-c3c4nc(c(-c5cccc(S(=O)(=O)[O-])c5F)c5ccc([nH]5)c(-c5cccc(S(=O)(=O)[O-])c5F)c5nc(c(-c6cccc(S(=O)(=O)[O-])c6F)c6ccc3[nH]6)C=C5)C=C4)cc2)NC(C)=O)cc1
REMARK SMILES IDX 13 1 12 2 11 3 9 4 10 5 8 7 7 8 6 9 3 10 4 11 87 12 5 13
REMARK SMILES IDX 86 14 2 15 1 16 82 17 83 18 84 20 85 21 14 22 15 23 16 24
REMARK SMILES IDX 17 25 18 27 19 28 20 29 81 30 21 31 80 32 22 33 23 34 24 35
REMARK SMILES IDX 74 36 25 37 79 38 73 39 75 40 26 41 78 42 72 43 71 44 27 46
REMARK SMILES IDX 59 47 39 48 58 49 40 50 43 51 57 52 76 53 41 54 42 55 56 57
REMARK SMILES IDX 77 58 44 59 28 60 29 61 37 62 30 63 32 64 38 65 31 66 33 67
REMARK SMILES IDX 34 68 35 69 36 70 60 71 61 72 69 73 62 74 64 75 70 76 63 77
REMARK SMILES IDX 65 78 66 79 67 80 68 81 45 82 46 83 54 84 47 85 49 86 55 87
REMARK SMILES IDX 48 88 50 89 51 90 52 91 53 92
REMARK H PARENT 11 6 82 19 16 26 75 45 43 56
REMARK Flexibility Score: inf
ROOT
ATOM      1  C   UNL A   1      32.388  26.820  26.196  1.00  0.00     0.023 C 
ENDROOT
BRANCH   1   2
ATOM      2  C   UNL A   1      31.435  25.676  26.540  1.00  0.00     0.116 C 
BRANCH   2   3
ATOM      3  N   UNL A   1      31.245  24.792  25.407  1.00  0.00    -0.356 N 
ATOM      4  C   UNL A   1      30.423  24.926  24.328  1.00  0.00     0.222 C 
ATOM      5  O   UNL A   1      30.399  24.028  23.486  1.00  0.00    -0.275 OA
ATOM      6  H   UNL A   1      31.792  23.973  25.418  1.00  0.00     0.163 HD
BRANCH   4   7
ATOM      7  C   UNL A   1      29.607  26.187  24.136  1.00  0.00     0.129 C 
BRANCH   7   8
ATOM      8  C   UNL A   1      30.042  27.000  22.902  1.00  0.00     0.121 C 
BRANCH   8   9
ATOM      9  C   UNL A   1      29.427  28.396  22.843  1.00  0.00    -0.025 A 
ATOM     10  C   UNL A   1      28.243  30.950  22.928  1.00  0.00     0.118 A 
ATOM     11  C   UNL A   1      27.454  29.808  23.027  1.00  0.00     0.047 A 
ATOM     12  C   UNL A   1      29.620  30.825  22.758  1.00  0.00     0.047 A 
ATOM     13  C   UNL A   1      28.035  28.541  22.953  1.00  0.00     0.010 A 
ATOM     14  C   UNL A   1      30.207  29.556  22.700  1.00  0.00     0.010 A 
BRANCH  10  15
ATOM     15  O   UNL A   1      27.593  32.144  23.078  1.00  0.00    -0.497 OA
ATOM     16  C   UNL A   1      28.435  33.284  22.956  1.00  0.00     0.278 C 
ENDBRANCH  10  15
ENDBRANCH   8   9
BRANCH   8  17
ATOM     17  N   UNL A   1      31.492  27.152  22.855  1.00  0.00    -0.349 N 
ATOM     18  C   UNL A   1      32.255  26.586  21.861  1.00  0.00     0.217 C 
ATOM     19  H   UNL A   1      31.939  27.677  23.558  1.00  0.00     0.164 HD
ATOM     20  C   UNL A   1      33.724  26.887  21.963  1.00  0.00     0.114 C 
ATOM     21  O   UNL A   1      31.801  25.890  20.959  1.00  0.00    -0.275 OA
ENDBRANCH   8  17
ENDBRANCH   7   8
ENDBRANCH   4   7
ENDBRANCH   2   3
ENDBRANCH   1   2
BRANCH   1  22
ATOM     22  C   UNL A   1      31.789  28.218  26.342  1.00  0.00     0.023 C 
BRANCH  22  23
ATOM     23  C   UNL A   1      32.619  29.341  25.731  1.00  0.00     0.116 C 
BRANCH  23  24
ATOM     24  N   UNL A   1      32.179  30.670  26.129  1.00  0.00    -0.352 N 
ATOM     25  C   UNL A   1      32.792  31.550  26.991  1.00  0.00     0.251 C 
ATOM     26  H   UNL A   1      31.335  30.980  25.730  1.00  0.00     0.163 HD
ATOM     27  O   UNL A   1      32.238  32.601  27.303  1.00  0.00    -0.269 OA
BRANCH  25  28
ATOM     28  C   UNL A   1      34.107  31.201  27.569  1.00  0.00     0.039 A 
ATOM     29  C   UNL A   1      35.081  32.196  27.683  1.00  0.00     0.014 A 
ATOM     30  C   UNL A   1      34.359  29.908  28.036  1.00  0.00     0.014 A 
ATOM     31  C   UNL A   1      36.284  31.912  28.334  1.00  0.00     0.010 A 
ATOM     32  C   UNL A   1      35.527  29.648  28.746  1.00  0.00     0.010 A 
ATOM     33  C   UNL A   1      36.500  30.645  28.903  1.00  0.00    -0.014 A 
BRANCH  33  34
ATOM     34  C   UNL A   1      37.730  30.345  29.680  1.00  0.00     0.031 A 
ATOM     35  C   UNL A   1      38.770  29.418  29.113  1.00  0.00     0.074 A 
ATOM     36  C   UNL A   1      37.864  30.831  30.930  1.00  0.00     0.049 A 
ATOM     37  N   UNL A   1      39.862  28.964  29.672  1.00  0.00    -0.248 NA
ATOM     38  C   UNL A   1      38.540  28.912  27.749  1.00  0.00     0.031 C 
ATOM     39  C   UNL A   1      36.886  31.673  31.623  1.00  0.00     0.029 A 
ATOM     40  N   UNL A   1      38.864  30.659  31.856  1.00  0.00    -0.354 N 
ATOM     41  C   UNL A   1      40.434  28.102  28.743  1.00  0.00     0.074 A 
ATOM     42  C   UNL A   1      39.548  28.063  27.601  1.00  0.00     0.031 C 
ATOM     43  C   UNL A   1      37.331  31.940  32.862  1.00  0.00     0.029 A 
ATOM     44  C   UNL A   1      38.613  31.271  33.062  1.00  0.00     0.049 A 
ATOM     45  H   UNL A   1      39.683  30.145  31.673  1.00  0.00     0.167 HD
ATOM     46  C   UNL A   1      41.610  27.435  28.816  1.00  0.00     0.034 A 
ATOM     47  C   UNL A   1      39.331  31.285  34.202  1.00  0.00     0.034 A 
ATOM     48  C   UNL A   1      42.510  27.511  29.933  1.00  0.00     0.049 A 
ATOM     49  C   UNL A   1      40.655  30.570  34.238  1.00  0.00     0.074 A 
ATOM     50  C   UNL A   1      43.752  26.916  30.080  1.00  0.00     0.029 A 
ATOM     51  N   UNL A   1      42.274  28.234  31.091  1.00  0.00    -0.354 N 
ATOM     52  N   UNL A   1      41.246  29.878  33.294  1.00  0.00    -0.248 NA
ATOM     53  C   UNL A   1      41.432  30.670  35.482  1.00  0.00     0.031 C 
ATOM     54  C   UNL A   1      44.265  27.280  31.329  1.00  0.00     0.029 A 
ATOM     55  C   UNL A   1      43.349  28.110  31.954  1.00  0.00     0.049 A 
ATOM     56  H   UNL A   1      41.461  28.759  31.273  1.00  0.00     0.167 HD
ATOM     57  C   UNL A   1      42.476  29.494  33.815  1.00  0.00     0.074 A 
ATOM     58  C   UNL A   1      42.557  30.051  35.149  1.00  0.00     0.031 C 
ATOM     59  C   UNL A   1      43.443  28.731  33.249  1.00  0.00     0.034 A 
BRANCH  46  60
ATOM     60  C   UNL A   1      42.030  26.628  27.616  1.00  0.00     0.023 A 
ATOM     61  C   UNL A   1      42.752  27.264  26.585  1.00  0.00     0.012 A 
ATOM     62  C   UNL A   1      41.776  25.246  27.532  1.00  0.00     0.148 A 
ATOM     63  C   UNL A   1      43.190  26.543  25.475  1.00  0.00     0.002 A 
ATOM     64  C   UNL A   1      42.252  24.525  26.441  1.00  0.00     0.091 A 
ATOM     65  F   UNL A   1      41.071  24.663  28.513  1.00  0.00    -0.205 F 
ATOM     66  C   UNL A   1      42.950  25.174  25.409  1.00  0.00     0.022 A 
BRANCH  64  67
ATOM     67  S   UNL A   1      42.060  22.745  26.292  1.00  0.00     0.127 S 
ATOM     68  O   UNL A   1      42.647  22.495  24.977  1.00  0.00    -0.237 OA
ATOM     69  O   UNL A   1      42.856  22.255  27.418  1.00  0.00    -0.237 OA
ATOM     70  O   UNL A   1      40.632  22.484  26.398  1.00  0.00    -0.744 OA
ENDBRANCH  64  67
ENDBRANCH  46  60
BRANCH  47  71
ATOM     71  C   UNL A   1      38.852  32.058  35.383  1.00  0.00     0.023 A 
ATOM     72  C   UNL A   1      38.964  33.462  35.380  1.00  0.00     0.012 A 
ATOM     73  C   UNL A   1      38.284  31.419  36.501  1.00  0.00     0.148 A 
ATOM     74  C   UNL A   1      38.559  34.212  36.486  1.00  0.00     0.002 A 
ATOM     75  C   UNL A   1      37.832  32.176  37.577  1.00  0.00     0.091 A 
ATOM     76  F   UNL A   1      38.199  30.081  36.497  1.00  0.00    -0.205 F 
ATOM     77  C   UNL A   1      37.985  33.571  37.580  1.00  0.00     0.022 A 
BRANCH  75  78
ATOM     78  S   UNL A   1      36.964  31.432  38.962  1.00  0.00     0.127 S 
ATOM     79  O   UNL A   1      36.762  30.065  38.492  1.00  0.00    -0.237 OA
ATOM     80  O   UNL A   1      37.935  31.572  40.048  1.00  0.00    -0.237 OA
ATOM     81  O   UNL A   1      35.762  32.237  39.134  1.00  0.00    -0.744 OA
ENDBRANCH  75  78
ENDBRANCH  47  71
BRANCH  59  82
ATOM     82  C   UNL A   1      44.694  28.485  34.049  1.00  0.00     0.023 A 
ATOM     83  C   UNL A   1      45.791  29.357  33.915  1.00  0.00     0.012 A 
ATOM     84  C   UNL A   1      44.752  27.436  34.989  1.00  0.00     0.148 A 
ATOM     85  C   UNL A   1      46.941  29.172  34.682  1.00  0.00     0.002 A 
ATOM     86  C   UNL A   1      45.884  27.286  35.782  1.00  0.00     0.091 A 
ATOM     87  F   UNL A   1      43.705  26.605  35.087  1.00  0.00    -0.205 F 
ATOM     88  C   UNL A   1      46.982  28.147  35.622  1.00  0.00     0.022 A 
BRANCH  86  89
ATOM     89  S   UNL A   1      45.989  26.049  37.081  1.00  0.00     0.127 S 
ATOM     90  O   UNL A   1      44.775  26.319  37.849  1.00  0.00    -0.237 OA
ATOM     91  O   UNL A   1      45.965  24.798  36.323  1.00  0.00    -0.237 OA
ATOM     92  O   UNL A   1      47.242  26.307  37.777  1.00  0.00    -0.744 OA
ENDBRANCH  86  89
ENDBRANCH  59  82
ENDBRANCH  33  34
ENDBRANCH  25  28
ENDBRANCH  23  24
ENDBRANCH  22  23
ENDBRANCH   1  22
TORSDOF 18
ENDMDL
MODEL 2
REMARK VINA RESULT:     -11.2      1.959      8.064
REMARK SMILES COc1ccc([C@H](CC(=O)NCCCCNC(=O)c2ccc(-c3c4nc(c(-c5cccc(S(=O)(=O)[O-])c5F)c5ccc([nH]5)c(-c5cccc(S(=O)(=O)[O-])c5F)c5nc(c(-c6cccc(S(=O)(=O)[O-])c6F)c6ccc3[nH]6)C=C5)C=C4)cc2)NC(C)=O)cc1
REMARK SMILES IDX 13 1 12 2 11 3 9 4 10 5 8 7 7 8 6 9 3 10 4 11 87 12 5 13
REMARK SMILES IDX 86 14 2 15 1 16 82 17 83 18 84 20 85 21 14 22 15 23 16 24
REMARK SMILES IDX 17 25 18 27 19 28 20 29 81 30 21 31 80 32 22 33 23 34 24 35
REMARK SMILES IDX 74 36 25 37 79 38 73 39 75 40 26 41 78 42 72 43 71 44 27 46
REMARK SMILES IDX 59 47 39 48 58 49 40 50 43 51 57 52 76 53 41 54 42 55 56 57
REMARK SMILES IDX 77 58 44 59 28 60 29 61 37 62 30 63 32 64 38 65 31 66 33 67
REMARK SMILES IDX 34 68 35 69 36 70 60 71 61 72 69 73 62 74 64 75 70 76 63 77
REMARK SMILES IDX 65 78 66 79 67 80 68 81 45 82 46 83 54 84 47 85 49 86 55 87
REMARK SMILES IDX 48 88 50 89 51 90 52 91 53 92
REMARK H PARENT 11 6 82 19 16 26 75 45 43 56
REMARK Flexibility Score: inf
ROOT
ATOM      1  C   UNL A   1      31.423  27.725  26.678  1.00  0.00     0.023 C 
ENDROOT
BRANCH   1   2
ATOM      2  C   UNL A   1      31.014  26.358  26.133  1.00  0.00     0.116 C 
BRANCH   2   3
ATOM      3  N   UNL A   1      31.640  25.285  26.881  1.00  0.00    -0.356 N 
ATOM      4  C   UNL A   1      31.466  23.938  26.779  1.00  0.00     0.222 C 
ATOM      5  O   UNL A   1      32.087  23.200  27.545  1.00  0.00    -0.275 OA
ATOM      6  H   UNL A   1      32.288  25.574  27.564  1.00  0.00     0.163 HD
BRANCH   4   7
ATOM      7  C   UNL A   1      30.578  23.358  25.699  1.00  0.00     0.129 C 
BRANCH   7   8
ATOM      8  C   UNL A   1      31.373  22.809  24.499  1.00  0.00     0.121 C 
BRANCH   8   9
ATOM      9  C   UNL A   1      32.066  23.894  23.678  1.00  0.00    -0.025 A 
ATOM     10  C   UNL A   1      33.243  26.031  22.273  1.00  0.00     0.118 A 
ATOM     11  C   UNL A   1      31.887  25.755  22.121  1.00  0.00     0.047 A 
ATOM     12  C   UNL A   1      34.024  25.228  23.101  1.00  0.00     0.047 A 
ATOM     13  C   UNL A   1      31.309  24.676  22.793  1.00  0.00     0.010 A 
ATOM     14  C   UNL A   1      33.442  24.156  23.789  1.00  0.00     0.010 A 
BRANCH  10  15
ATOM     15  O   UNL A   1      33.704  27.146  21.628  1.00  0.00    -0.497 OA
ATOM     16  C   UNL A   1      33.836  28.289  22.464  1.00  0.00     0.278 C 
ENDBRANCH  10  15
ENDBRANCH   8   9
BRANCH   8  17
ATOM     17  N   UNL A   1      32.395  21.861  24.933  1.00  0.00    -0.349 N 
ATOM     18  C   UNL A   1      32.719  20.748  24.196  1.00  0.00     0.217 C 
ATOM     19  H   UNL A   1      32.866  22.025  25.782  1.00  0.00     0.164 HD
ATOM     20  C   UNL A   1      33.822  19.914  24.788  1.00  0.00     0.114 C 
ATOM     21  O   UNL A   1      32.172  20.437  23.143  1.00  0.00    -0.275 OA
ENDBRANCH   8  17
ENDBRANCH   7   8
ENDBRANCH   4   7
ENDBRANCH   2   3
ENDBRANCH   1   2
BRANCH   1  22
ATOM     22  C   UNL A   1      31.760  28.766  25.611  1.00  0.00     0.023 C 
BRANCH  22  23
ATOM     23  C   UNL A   1      33.016  29.585  25.884  1.00  0.00     0.116 C 
BRANCH  23  24
ATOM     24  N   UNL A   1      32.738  30.929  26.370  1.00  0.00    -0.352 N 
ATOM     25  C   UNL A   1      33.462  31.679  27.267  1.00  0.00     0.251 C 
ATOM     26  H   UNL A   1      31.927  31.356  26.011  1.00  0.00     0.163 HD
ATOM     27  O   UNL A   1      33.037  32.764  27.654  1.00  0.00    -0.269 OA
BRANCH  25  28
ATOM     28  C   UNL A   1      34.738  31.148  27.791  1.00  0.00     0.039 A 
ATOM     29  C   UNL A   1      35.801  32.030  28.000  1.00  0.00     0.014 A 
ATOM     30  C   UNL A   1      34.867  29.795  28.115  1.00  0.00     0.014 A 
ATOM     31  C   UNL A   1      36.973  31.566  28.604  1.00  0.00     0.010 A 
ATOM     32  C   UNL A   1      36.006  29.352  28.782  1.00  0.00     0.010 A 
ATOM     33  C   UNL A   1      37.068  30.232  29.034  1.00  0.00    -0.014 A 
BRANCH  33  34
ATOM     34  C   UNL A   1      38.265  29.737  29.762  1.00  0.00     0.031 A 
ATOM     35  C   UNL A   1      38.601  30.290  31.120  1.00  0.00     0.074 A 
ATOM     36  C   UNL A   1      39.097  28.863  29.161  1.00  0.00     0.049 A 
ATOM     37  N   UNL A   1      39.646  30.054  31.870  1.00  0.00    -0.248 NA
ATOM     38  C   UNL A   1      37.654  31.258  31.700  1.00  0.00     0.031 C 
ATOM     39  C   UNL A   1      38.924  28.317  27.813  1.00  0.00     0.029 A 
ATOM     40  N   UNL A   1      40.274  28.305  29.594  1.00  0.00    -0.354 N 
ATOM     41  C   UNL A   1      39.496  30.858  32.994  1.00  0.00     0.074 A 
ATOM     42  C   UNL A   1      38.282  31.621  32.809  1.00  0.00     0.031 C 
ATOM     43  C   UNL A   1      39.957  27.507  27.528  1.00  0.00     0.029 A 
ATOM     44  C   UNL A   1      40.878  27.493  28.661  1.00  0.00     0.049 A 
ATOM     45  H   UNL A   1      40.651  28.470  30.488  1.00  0.00     0.167 HD
ATOM     46  C   UNL A   1      40.277  30.926  34.099  1.00  0.00     0.034 A 
ATOM     47  C   UNL A   1      42.044  26.820  28.711  1.00  0.00     0.034 A 
ATOM     48  C   UNL A   1      41.458  30.134  34.300  1.00  0.00     0.049 A 
ATOM     49  C   UNL A   1      42.868  26.882  29.969  1.00  0.00     0.074 A 
ATOM     50  C   UNL A   1      42.287  30.091  35.409  1.00  0.00     0.029 A 
ATOM     51  N   UNL A   1      41.975  29.238  33.379  1.00  0.00    -0.354 N 
ATOM     52  N   UNL A   1      42.632  27.538  31.079  1.00  0.00    -0.248 NA
ATOM     53  C   UNL A   1      44.098  26.077  29.998  1.00  0.00     0.031 C 
ATOM     54  C   UNL A   1      43.306  29.167  35.155  1.00  0.00     0.029 A 
ATOM     55  C   UNL A   1      43.106  28.627  33.895  1.00  0.00     0.049 A 
ATOM     56  H   UNL A   1      41.595  29.061  32.488  1.00  0.00     0.167 HD
ATOM     57  C   UNL A   1      43.661  27.198  31.949  1.00  0.00     0.074 A 
ATOM     58  C   UNL A   1      44.508  26.258  31.247  1.00  0.00     0.031 C 
ATOM     59  C   UNL A   1      43.896  27.640  33.209  1.00  0.00     0.034 A 
BRANCH  46  60
ATOM     60  C   UNL A   1      39.828  31.833  35.214  1.00  0.00     0.023 A 
ATOM     61  C   UNL A   1      40.214  33.190  35.188  1.00  0.00     0.012 A 
ATOM     62  C   UNL A   1      38.982  31.374  36.242  1.00  0.00     0.148 A 
ATOM     63  C   UNL A   1      39.789  34.068  36.183  1.00  0.00     0.002 A 
ATOM     64  C   UNL A   1      38.528  32.267  37.208  1.00  0.00     0.091 A 
ATOM     65  F   UNL A   1      38.642  30.077  36.260  1.00  0.00    -0.205 F 
ATOM     66  C   UNL A   1      38.938  33.611  37.184  1.00  0.00     0.022 A 
BRANCH  64  67
ATOM     67  S   UNL A   1      37.373  31.797  38.501  1.00  0.00     0.127 S 
ATOM     68  O   UNL A   1      38.167  32.037  39.706  1.00  0.00    -0.237 OA
ATOM     69  O   UNL A   1      36.278  32.745  38.294  1.00  0.00    -0.237 OA
ATOM     70  O   UNL A   1      37.029  30.405  38.248  1.00  0.00    -0.744 OA
ENDBRANCH  64  67
ENDBRANCH  46  60
BRANCH  47  71
ATOM     71  C   UNL A   1      42.472  25.972  27.561  1.00  0.00     0.023 A 
ATOM     72  C   UNL A   1      43.317  26.520  26.577  1.00  0.00     0.012 A 
ATOM     73  C   UNL A   1      42.056  24.633  27.438  1.00  0.00     0.148 A 
ATOM     74  C   UNL A   1      43.706  25.765  25.469  1.00  0.00     0.002 A 
ATOM     75  C   UNL A   1      42.492  23.869  26.361  1.00  0.00     0.091 A 
ATOM     76  F   UNL A   1      41.239  24.129  28.374  1.00  0.00    -0.205 F 
ATOM     77  C   UNL A   1      43.301  24.438  25.365  1.00  0.00     0.022 A 
BRANCH  75  78
ATOM     78  S   UNL A   1      42.119  22.117  26.228  1.00  0.00     0.127 S 
ATOM     79  O   UNL A   1      42.856  21.742  25.025  1.00  0.00    -0.237 OA
ATOM     80  O   UNL A   1      42.669  21.587  27.477  1.00  0.00    -0.237 OA
ATOM     81  O   UNL A   1      40.667  22.043  26.141  1.00  0.00    -0.744 OA
ENDBRANCH  75  78
ENDBRANCH  47  71
BRANCH  59  82
ATOM     82  C   UNL A   1      45.093  27.083  33.931  1.00  0.00     0.023 A 
ATOM     83  C   UNL A   1      46.327  27.759  33.860  1.00  0.00     0.012 A 
ATOM     84  C   UNL A   1      44.977  25.935  34.740  1.00  0.00     0.148 A 
ATOM     85  C   UNL A   1      47.435  27.284  34.560  1.00  0.00     0.002 A 
ATOM     86  C   UNL A   1      46.074  25.495  35.471  1.00  0.00     0.091 A 
ATOM     87  F   UNL A   1      43.799  25.296  34.778  1.00  0.00    -0.205 F 
ATOM     88  C   UNL A   1      47.306  26.162  35.374  1.00  0.00     0.022 A 
BRANCH  86  89
ATOM     89  S   UNL A   1      45.974  24.112  36.614  1.00  0.00     0.127 S 
ATOM     90  O   UNL A   1      45.540  24.772  37.843  1.00  0.00    -0.237 OA
ATOM     91  O   UNL A   1      44.960  23.262  35.988  1.00  0.00    -0.237 OA
ATOM     92  O   UNL A   1      47.308  23.528  36.652  1.00  0.00    -0.744 OA
ENDBRANCH  86  89
ENDBRANCH  59  82
ENDBRANCH  33  34
ENDBRANCH  25  28
ENDBRANCH  23  24
ENDBRANCH  22  23
ENDBRANCH   1  22
TORSDOF 18
ENDMDL
MODEL 3
REMARK VINA RESULT:     -11.2      1.757      8.561
REMARK SMILES COc1ccc([C@H](CC(=O)NCCCCNC(=O)c2ccc(-c3c4nc(c(-c5cccc(S(=O)(=O)[O-])c5F)c5ccc([nH]5)c(-c5cccc(S(=O)(=O)[O-])c5F)c5nc(c(-c6cccc(S(=O)(=O)[O-])c6F)c6ccc3[nH]6)C=C5)C=C4)cc2)NC(C)=O)cc1
REMARK SMILES IDX 13 1 12 2 11 3 9 4 10 5 8 7 7 8 6 9 3 10 4 11 87 12 5 13
REMARK SMILES IDX 86 14 2 15 1 16 82 17 83 18 84 20 85 21 14 22 15 23 16 24
REMARK SMILES IDX 17 25 18 27 19 28 20 29 81 30 21 31 80 32 22 33 23 34 24 35
REMARK SMILES IDX 74 36 25 37 79 38 73 39 75 40 26 41 78 42 72 43 71 44 27 46
REMARK SMILES IDX 59 47 39 48 58 49 40 50 43 51 57 52 76 53 41 54 42 55 56 57
REMARK SMILES IDX 77 58 44 59 28 60 29 61 37 62 30 63 32 64 38 65 31 66 33 67
REMARK SMILES IDX 34 68 35 69 36 70 60 71 61 72 69 73 62 74 64 75 70 76 63 77
REMARK SMILES IDX 65 78 66 79 67 80 68 81 45 82 46 83 54 84 47 85 49 86 55 87
REMARK SMILES IDX 48 88 50 89 51 90 52 91 53 92
REMARK H PARENT 11 6 82 19 16 26 75 45 43 56
REMARK Flexibility Score: inf
ROOT
ATOM      1  C   UNL A   1      32.124  29.198  23.507  1.00  0.00     0.023 C 
ENDROOT
BRANCH   1   2
ATOM      2  C   UNL A   1      31.428  27.854  23.301  1.00  0.00     0.116 C 
BRANCH   2   3
ATOM      3  N   UNL A   1      31.950  27.166  22.136  1.00  0.00    -0.356 N 
ATOM      4  C   UNL A   1      32.983  26.282  22.040  1.00  0.00     0.222 C 
ATOM      5  O   UNL A   1      33.279  25.835  20.932  1.00  0.00    -0.275 OA
ATOM      6  H   UNL A   1      31.489  27.367  21.289  1.00  0.00     0.163 HD
BRANCH   4   7
ATOM      7  C   UNL A   1      33.706  25.808  23.283  1.00  0.00     0.129 C 
BRANCH   7   8
ATOM      8  C   UNL A   1      33.261  24.406  23.738  1.00  0.00     0.121 C 
BRANCH   8   9
ATOM      9  C   UNL A   1      34.423  23.479  24.087  1.00  0.00    -0.025 A 
ATOM     10  C   UNL A   1      36.683  21.933  24.742  1.00  0.00     0.118 A 
ATOM     11  C   UNL A   1      36.610  22.580  23.512  1.00  0.00     0.047 A 
ATOM     12  C   UNL A   1      35.621  22.029  25.639  1.00  0.00     0.047 A 
ATOM     13  C   UNL A   1      35.476  23.321  23.173  1.00  0.00     0.010 A 
ATOM     14  C   UNL A   1      34.491  22.785  25.307  1.00  0.00     0.010 A 
BRANCH  10  15
ATOM     15  O   UNL A   1      37.859  21.288  25.012  1.00  0.00    -0.497 OA
ATOM     16  C   UNL A   1      37.794  19.874  24.863  1.00  0.00     0.278 C 
ENDBRANCH  10  15
ENDBRANCH   8   9
BRANCH   8  17
ATOM     17  N   UNL A   1      32.389  24.483  24.906  1.00  0.00    -0.349 N 
ATOM     18  C   UNL A   1      31.021  24.548  24.793  1.00  0.00     0.217 C 
ATOM     19  H   UNL A   1      32.794  24.489  25.803  1.00  0.00     0.164 HD
ATOM     20  C   UNL A   1      30.294  24.583  26.109  1.00  0.00     0.114 C 
ATOM     21  O   UNL A   1      30.419  24.578  23.725  1.00  0.00    -0.275 OA
ENDBRANCH   8  17
ENDBRANCH   7   8
ENDBRANCH   4   7
ENDBRANCH   2   3
ENDBRANCH   1   2
BRANCH   1  22
ATOM     22  C   UNL A   1      33.134  29.227  24.654  1.00  0.00     0.023 C 
BRANCH  22  23
ATOM     23  C   UNL A   1      32.532  29.453  26.036  1.00  0.00     0.116 C 
BRANCH  23  24
ATOM     24  N   UNL A   1      32.301  30.857  26.345  1.00  0.00    -0.352 N 
ATOM     25  C   UNL A   1      33.063  31.696  27.124  1.00  0.00     0.251 C 
ATOM     26  H   UNL A   1      31.495  31.257  25.946  1.00  0.00     0.163 HD
ATOM     27  O   UNL A   1      32.676  32.835  27.371  1.00  0.00    -0.269 OA
BRANCH  25  28
ATOM     28  C   UNL A   1      34.334  31.201  27.693  1.00  0.00     0.039 A 
ATOM     29  C   UNL A   1      35.355  32.116  27.964  1.00  0.00     0.014 A 
ATOM     30  C   UNL A   1      34.498  29.848  27.998  1.00  0.00     0.014 A 
ATOM     31  C   UNL A   1      36.515  31.683  28.609  1.00  0.00     0.010 A 
ATOM     32  C   UNL A   1      35.623  29.433  28.704  1.00  0.00     0.010 A 
ATOM     33  C   UNL A   1      36.641  30.344  29.019  1.00  0.00    -0.014 A 
BRANCH  33  34
ATOM     34  C   UNL A   1      37.823  29.878  29.788  1.00  0.00     0.031 A 
ATOM     35  C   UNL A   1      38.075  30.407  31.174  1.00  0.00     0.074 A 
ATOM     36  C   UNL A   1      38.716  29.055  29.205  1.00  0.00     0.049 A 
ATOM     37  N   UNL A   1      39.093  30.193  31.966  1.00  0.00    -0.248 NA
ATOM     38  C   UNL A   1      37.063  31.321  31.734  1.00  0.00     0.031 C 
ATOM     39  C   UNL A   1      38.627  28.537  27.837  1.00  0.00     0.029 A 
ATOM     40  N   UNL A   1      39.895  28.532  29.678  1.00  0.00    -0.354 N 
ATOM     41  C   UNL A   1      38.860  30.961  33.101  1.00  0.00     0.074 A 
ATOM     42  C   UNL A   1      37.626  31.679  32.879  1.00  0.00     0.031 C 
ATOM     43  C   UNL A   1      39.703  27.777  27.580  1.00  0.00     0.029 A 
ATOM     44  C   UNL A   1      40.572  27.770  28.753  1.00  0.00     0.049 A 
ATOM     45  H   UNL A   1      40.224  28.688  30.592  1.00  0.00     0.167 HD
ATOM     46  C   UNL A   1      39.587  31.030  34.241  1.00  0.00     0.034 A 
ATOM     47  C   UNL A   1      41.762  27.143  28.841  1.00  0.00     0.034 A 
ATOM     48  C   UNL A   1      40.789  30.280  34.478  1.00  0.00     0.049 A 
ATOM     49  C   UNL A   1      42.525  27.203  30.136  1.00  0.00     0.074 A 
ATOM     50  C   UNL A   1      41.568  30.241  35.622  1.00  0.00     0.029 A 
ATOM     51  N   UNL A   1      41.384  29.430  33.559  1.00  0.00    -0.354 N 
ATOM     52  N   UNL A   1      42.212  27.820  31.250  1.00  0.00    -0.248 NA
ATOM     53  C   UNL A   1      43.785  26.448  30.203  1.00  0.00     0.031 C 
ATOM     54  C   UNL A   1      42.635  29.365  35.393  1.00  0.00     0.029 A 
ATOM     55  C   UNL A   1      42.514  28.852  34.112  1.00  0.00     0.049 A 
ATOM     56  H   UNL A   1      41.051  29.262  32.647  1.00  0.00     0.167 HD
ATOM     57  C   UNL A   1      43.214  27.498  32.158  1.00  0.00     0.074 A 
ATOM     58  C   UNL A   1      44.130  26.611  31.473  1.00  0.00     0.031 C 
ATOM     59  C   UNL A   1      43.373  27.915  33.438  1.00  0.00     0.034 A 
BRANCH  46  60
ATOM     60  C   UNL A   1      39.052  31.889  35.357  1.00  0.00     0.023 A 
ATOM     61  C   UNL A   1      39.136  33.292  35.241  1.00  0.00     0.012 A 
ATOM     62  C   UNL A   1      38.412  31.325  36.479  1.00  0.00     0.148 A 
ATOM     63  C   UNL A   1      38.620  34.120  36.235  1.00  0.00     0.002 A 
ATOM     64  C   UNL A   1      37.862  32.160  37.446  1.00  0.00     0.091 A 
ATOM     65  F   UNL A   1      38.358  29.990  36.581  1.00  0.00    -0.205 F 
ATOM     66  C   UNL A   1      37.974  33.556  37.330  1.00  0.00     0.022 A 
BRANCH  64  67
ATOM     67  S   UNL A   1      36.947  31.538  38.861  1.00  0.00     0.127 S 
ATOM     68  O   UNL A   1      35.791  32.433  38.882  1.00  0.00    -0.237 OA
ATOM     69  O   UNL A   1      36.647  30.164  38.454  1.00  0.00    -0.237 OA
ATOM     70  O   UNL A   1      37.844  31.651  40.002  1.00  0.00    -0.744 OA
ENDBRANCH  64  67
ENDBRANCH  46  60
BRANCH  47  71
ATOM     71  C   UNL A   1      42.276  26.343  27.692  1.00  0.00     0.023 A 
ATOM     72  C   UNL A   1      43.141  26.951  26.761  1.00  0.00     0.012 A 
ATOM     73  C   UNL A   1      41.922  24.992  27.517  1.00  0.00     0.148 A 
ATOM     74  C   UNL A   1      43.609  26.242  25.654  1.00  0.00     0.002 A 
ATOM     75  C   UNL A   1      42.436  24.275  26.442  1.00  0.00     0.091 A 
ATOM     76  F   UNL A   1      41.084  24.432  28.401  1.00  0.00    -0.205 F 
ATOM     77  C   UNL A   1      43.265  24.902  25.499  1.00  0.00     0.022 A 
BRANCH  75  78
ATOM     78  S   UNL A   1      42.142  22.514  26.249  1.00  0.00     0.127 S 
ATOM     79  O   UNL A   1      40.687  22.460  26.147  1.00  0.00    -0.237 OA
ATOM     80  O   UNL A   1      42.858  22.213  25.009  1.00  0.00    -0.237 OA
ATOM     81  O   UNL A   1      42.725  21.900  27.435  1.00  0.00    -0.744 OA
ENDBRANCH  75  78
ENDBRANCH  47  71
BRANCH  59  82
ATOM     82  C   UNL A   1      44.559  27.387  34.201  1.00  0.00     0.023 A 
ATOM     83  C   UNL A   1      45.764  28.117  34.210  1.00  0.00     0.012 A 
ATOM     84  C   UNL A   1      44.455  26.211  34.970  1.00  0.00     0.148 A 
ATOM     85  C   UNL A   1      46.858  27.668  34.948  1.00  0.00     0.002 A 
ATOM     86  C   UNL A   1      45.534  25.795  35.740  1.00  0.00     0.091 A 
ATOM     87  F   UNL A   1      43.306  25.522  34.933  1.00  0.00    -0.205 F 
ATOM     88  C   UNL A   1      46.740  26.516  35.722  1.00  0.00     0.022 A 
BRANCH  86  89
ATOM     89  S   UNL A   1      45.442  24.375  36.836  1.00  0.00     0.127 S 
ATOM     90  O   UNL A   1      44.869  23.357  35.958  1.00  0.00    -0.237 OA
ATOM     91  O   UNL A   1      46.846  24.158  37.186  1.00  0.00    -0.237 OA
ATOM     92  O   UNL A   1      44.600  24.786  37.952  1.00  0.00    -0.744 OA
ENDBRANCH  86  89
ENDBRANCH  59  82
ENDBRANCH  33  34
ENDBRANCH  25  28
ENDBRANCH  23  24
ENDBRANCH  22  23
ENDBRANCH   1  22
TORSDOF 18
ENDMDL
