MODEL 1
REMARK VINA RESULT:     -12.3      0.000      0.000
REMARK SMILES Cc1nn(C(C)C)c(C)c1S(=O)(=O)Nc1cccc(C(=O)NCCCCNC(=O)c2ccc(-c3c4nc(c(-c5cccc(S(=O)(=O)[O-])c5F)c5ccc([nH]5)c(-c5cccc(S(=O)(=O)[O-])c5F)c5nc(c(-c6cccc(S(=O)(=O)[O-])c6F)c6ccc3[nH]6)C=C5)C=C4)cc2)c1C
REMARK SMILES IDX 24 1 23 2 22 3 20 4 21 5 19 7 15 8 16 9 93 10 17 11 94 12
REMARK SMILES IDX 18 13 14 14 11 16 12 17 13 18 10 19 1 20 2 21 3 22 4 23 8 24
REMARK SMILES IDX 9 25 5 26 6 27 7 28 25 29 26 30 27 31 28 32 29 34 30 35
REMARK SMILES IDX 31 36 92 37 32 38 91 39 33 40 34 41 35 42 85 43 36 44 90 45
REMARK SMILES IDX 84 46 86 47 37 48 89 49 83 50 82 51 38 53 70 54 50 55 69 56
REMARK SMILES IDX 51 57 54 58 68 59 87 60 52 61 53 62 67 64 88 65 55 66 39 67
REMARK SMILES IDX 40 68 48 69 41 70 43 71 49 72 42 73 44 74 45 75 46 76 47 77
REMARK SMILES IDX 71 78 72 79 80 80 73 81 75 82 81 83 74 84 76 85 77 86 78 87
REMARK SMILES IDX 79 88 56 89 57 90 65 91 58 92 60 93 66 94 59 95 61 96 62 97
REMARK SMILES IDX 63 98 64 99
REMARK H PARENT 22 6 14 15 27 33 86 52 54 63
REMARK Flexibility Score: inf
ROOT
ATOM      1  C   UNL A   1      32.476  30.060  26.180  1.00  0.00     0.023 C 
ENDROOT
BRANCH   1   2
ATOM      2  C   UNL A   1      32.649  29.384  24.815  1.00  0.00     0.116 C 
BRANCH   2   3
ATOM      3  N   UNL A   1      31.461  29.483  23.989  1.00  0.00    -0.352 N 
ATOM      4  C   UNL A   1      30.692  28.618  23.253  1.00  0.00     0.251 C 
ATOM      5  O   UNL A   1      29.693  29.147  22.765  1.00  0.00    -0.269 OA
ATOM      6  H   UNL A   1      31.119  30.406  23.947  1.00  0.00     0.163 HD
BRANCH   4   7
ATOM      7  C   UNL A   1      30.948  27.136  23.050  1.00  0.00     0.044 A 
ATOM      8  C   UNL A   1      30.946  24.828  23.879  1.00  0.00     0.053 A 
ATOM      9  C   UNL A   1      31.727  24.409  22.808  1.00  0.00     0.027 A 
ATOM     10  C   UNL A   1      30.461  26.163  23.975  1.00  0.00    -0.014 A 
ATOM     11  C   UNL A   1      32.102  25.326  21.845  1.00  0.00     0.003 A 
ATOM     12  C   UNL A   1      29.505  26.479  25.106  1.00  0.00     0.047 C 
ATOM     13  C   UNL A   1      31.735  26.667  21.984  1.00  0.00     0.014 A 
BRANCH   8  14
ATOM     14  N   UNL A   1      30.670  23.867  24.883  1.00  0.00    -0.279 N 
ATOM     15  H   UNL A   1      29.745  23.542  24.972  1.00  0.00     0.180 HD
BRANCH  14  16
ATOM     16  S   UNL A   1      31.830  23.252  25.927  1.00  0.00     0.265 S 
ATOM     17  O   UNL A   1      31.758  21.815  25.708  1.00  0.00    -0.201 OA
ATOM     18  O   UNL A   1      31.512  23.794  27.229  1.00  0.00    -0.201 OA
BRANCH  16  19
ATOM     19  C   UNL A   1      33.517  23.582  25.755  1.00  0.00     0.131 A 
ATOM     20  C   UNL A   1      33.825  26.220  25.635  1.00  0.00     0.070 C 
ATOM     21  C   UNL A   1      34.227  24.799  25.593  1.00  0.00     0.080 A 
ATOM     22  N   UNL A   1      35.542  24.577  25.456  1.00  0.00    -0.176 NA
ATOM     23  N   UNL A   1      35.710  23.293  25.794  1.00  0.00    -0.266 N 
ATOM     24  C   UNL A   1      34.522  22.647  26.023  1.00  0.00     0.056 A 
ATOM     25  C   UNL A   1      34.456  21.259  26.555  1.00  0.00     0.068 C 
BRANCH  23  26
ATOM     26  C   UNL A   1      37.070  22.785  25.967  1.00  0.00     0.101 C 
ATOM     27  C   UNL A   1      37.506  21.949  24.765  1.00  0.00     0.033 C 
ATOM     28  C   UNL A   1      38.067  23.913  26.248  1.00  0.00     0.033 C 
ENDBRANCH  23  26
ENDBRANCH  16  19
ENDBRANCH  14  16
ENDBRANCH   8  14
ENDBRANCH   4   7
ENDBRANCH   2   3
ENDBRANCH   1   2
BRANCH   1  29
ATOM     29  C   UNL A   1      33.451  29.645  27.294  1.00  0.00     0.023 C 
BRANCH  29  30
ATOM     30  C   UNL A   1      34.639  30.568  27.508  1.00  0.00     0.116 C 
BRANCH  30  31
ATOM     31  N   UNL A   1      34.225  31.954  27.703  1.00  0.00    -0.352 N 
ATOM     32  C   UNL A   1      34.492  32.854  28.711  1.00  0.00     0.251 C 
ATOM     33  H   UNL A   1      33.651  32.309  26.986  1.00  0.00     0.163 HD
ATOM     34  O   UNL A   1      33.654  33.736  28.917  1.00  0.00    -0.269 OA
BRANCH  32  35
ATOM     35  C   UNL A   1      35.776  32.848  29.442  1.00  0.00     0.039 A 
ATOM     36  C   UNL A   1      36.960  33.290  28.833  1.00  0.00     0.014 A 
ATOM     37  C   UNL A   1      35.857  32.158  30.642  1.00  0.00     0.014 A 
ATOM     38  C   UNL A   1      38.184  32.835  29.325  1.00  0.00     0.010 A 
ATOM     39  C   UNL A   1      37.040  31.956  31.271  1.00  0.00     0.010 A 
ATOM     40  C   UNL A   1      38.172  32.072  30.482  1.00  0.00    -0.014 A 
BRANCH  40  41
ATOM     41  C   UNL A   1      39.181  31.135  30.930  1.00  0.00     0.031 A 
ATOM     42  C   UNL A   1      39.237  29.824  30.294  1.00  0.00     0.074 A 
ATOM     43  C   UNL A   1      40.272  31.736  31.471  1.00  0.00     0.049 A 
ATOM     44  N   UNL A   1      40.149  28.958  30.543  1.00  0.00    -0.248 NA
ATOM     45  C   UNL A   1      38.251  29.382  29.312  1.00  0.00     0.031 C 
ATOM     46  C   UNL A   1      41.683  31.408  31.289  1.00  0.00     0.029 A 
ATOM     47  N   UNL A   1      40.322  32.864  32.279  1.00  0.00    -0.354 N 
ATOM     48  C   UNL A   1      40.079  28.026  29.536  1.00  0.00     0.074 A 
ATOM     49  C   UNL A   1      38.792  28.222  28.924  1.00  0.00     0.031 C 
ATOM     50  C   UNL A   1      42.423  32.146  32.139  1.00  0.00     0.029 A 
ATOM     51  C   UNL A   1      41.498  32.826  33.032  1.00  0.00     0.049 A 
ATOM     52  H   UNL A   1      39.641  33.575  32.316  1.00  0.00     0.167 HD
ATOM     53  C   UNL A   1      41.208  27.332  29.237  1.00  0.00     0.034 A 
ATOM     54  C   UNL A   1      41.397  32.577  34.378  1.00  0.00     0.034 A 
ATOM     55  C   UNL A   1      42.256  27.599  30.241  1.00  0.00     0.049 A 
ATOM     56  C   UNL A   1      41.903  31.194  34.761  1.00  0.00     0.074 A 
ATOM     57  C   UNL A   1      43.406  28.369  30.226  1.00  0.00     0.029 A 
ATOM     58  N   UNL A   1      42.001  27.304  31.580  1.00  0.00    -0.354 N 
ATOM     59  N   UNL A   1      42.250  30.272  33.902  1.00  0.00    -0.248 NA
ATOM     60  C   UNL A   1      42.077  30.744  36.138  1.00  0.00     0.031 C 
ATOM     61  C   UNL A   1      43.753  28.652  31.582  1.00  0.00     0.029 A 
ATOM     62  C   UNL A   1      42.854  28.009  32.418  1.00  0.00     0.049 A 
ATOM     63  H   UNL A   1      41.307  26.679  31.890  1.00  0.00     0.167 HD
ATOM     64  C   UNL A   1      42.529  29.102  34.547  1.00  0.00     0.074 A 
ATOM     65  C   UNL A   1      42.496  29.478  35.952  1.00  0.00     0.031 C 
ATOM     66  C   UNL A   1      42.702  27.920  33.874  1.00  0.00     0.034 A 
BRANCH  53  67
ATOM     67  C   UNL A   1      41.463  26.561  27.956  1.00  0.00     0.023 A 
ATOM     68  C   UNL A   1      41.413  27.301  26.756  1.00  0.00     0.012 A 
ATOM     69  C   UNL A   1      41.660  25.162  27.816  1.00  0.00     0.148 A 
ATOM     70  C   UNL A   1      41.547  26.702  25.498  1.00  0.00     0.002 A 
ATOM     71  C   UNL A   1      41.865  24.573  26.565  1.00  0.00     0.091 A 
ATOM     72  F   UNL A   1      41.555  24.356  28.875  1.00  0.00    -0.205 F 
ATOM     73  C   UNL A   1      41.792  25.339  25.401  1.00  0.00     0.022 A 
BRANCH  71  74
ATOM     74  S   UNL A   1      42.243  22.820  26.366  1.00  0.00     0.127 S 
ATOM     75  O   UNL A   1      42.650  22.749  24.963  1.00  0.00    -0.237 OA
ATOM     76  O   UNL A   1      43.331  22.623  27.324  1.00  0.00    -0.237 OA
ATOM     77  O   UNL A   1      41.020  22.096  26.692  1.00  0.00    -0.744 OA
ENDBRANCH  71  74
ENDBRANCH  53  67
BRANCH  54  78
ATOM     78  C   UNL A   1      40.188  33.265  34.961  1.00  0.00     0.023 A 
ATOM     79  C   UNL A   1      38.989  32.507  34.970  1.00  0.00     0.012 A 
ATOM     80  C   UNL A   1      40.339  34.297  35.907  1.00  0.00     0.148 A 
ATOM     81  C   UNL A   1      38.083  32.618  36.028  1.00  0.00     0.002 A 
ATOM     82  C   UNL A   1      39.420  34.412  36.951  1.00  0.00     0.091 A 
ATOM     83  F   UNL A   1      41.411  35.096  35.822  1.00  0.00    -0.205 F 
ATOM     84  C   UNL A   1      38.328  33.533  37.047  1.00  0.00     0.022 A 
BRANCH  82  85
ATOM     85  S   UNL A   1      39.667  35.610  38.269  1.00  0.00     0.127 S 
ATOM     86  O   UNL A   1      40.986  35.229  38.769  1.00  0.00    -0.237 OA
ATOM     87  O   UNL A   1      39.634  36.894  37.567  1.00  0.00    -0.237 OA
ATOM     88  O   UNL A   1      38.549  35.404  39.179  1.00  0.00    -0.744 OA
ENDBRANCH  82  85
ENDBRANCH  54  78
BRANCH  66  89
ATOM     89  C   UNL A   1      42.742  26.553  34.541  1.00  0.00     0.023 A 
ATOM     90  C   UNL A   1      41.628  26.014  35.215  1.00  0.00     0.012 A 
ATOM     91  C   UNL A   1      43.866  25.700  34.395  1.00  0.00     0.148 A 
ATOM     92  C   UNL A   1      41.658  24.746  35.803  1.00  0.00     0.002 A 
ATOM     93  C   UNL A   1      43.843  24.391  34.869  1.00  0.00     0.091 A 
ATOM     94  F   UNL A   1      44.984  26.158  33.814  1.00  0.00    -0.205 F 
ATOM     95  C   UNL A   1      42.759  23.925  35.614  1.00  0.00     0.022 A 
BRANCH  93  96
ATOM     96  S   UNL A   1      45.120  23.209  34.417  1.00  0.00     0.127 S 
ATOM     97  O   UNL A   1      44.762  22.051  35.233  1.00  0.00    -0.237 OA
ATOM     98  O   UNL A   1      44.891  23.036  32.981  1.00  0.00    -0.237 OA
ATOM     99  O   UNL A   1      46.382  23.858  34.744  1.00  0.00    -0.744 OA
ENDBRANCH  93  96
ENDBRANCH  66  89
ENDBRANCH  40  41
ENDBRANCH  32  35
ENDBRANCH  30  31
ENDBRANCH  29  30
ENDBRANCH   1  29
TORSDOF 18
ENDMDL
MODEL 2
REMARK VINA RESULT:     -11.8      3.632      8.847
REMARK SMILES Cc1nn(C(C)C)c(C)c1S(=O)(=O)Nc1cccc(C(=O)NCCCCNC(=O)c2ccc(-c3c4nc(c(-c5cccc(S(=O)(=O)[O-])c5F)c5ccc([nH]5)c(-c5cccc(S(=O)(=O)[O-])c5F)c5nc(c(-c6cccc(S(=O)(=O)[O-])c6F)c6ccc3[nH]6)C=C5)C=C4)cc2)c1C
REMARK SMILES IDX 24 1 23 2 22 3 20 4 21 5 19 7 15 8 16 9 93 10 17 11 94 12
REMARK SMILES IDX 18 13 14 14 11 16 12 17 13 18 10 19 1 20 2 21 3 22 4 23 8 24
REMARK SMILES IDX 9 25 5 26 6 27 7 28 25 29 26 30 27 31 28 32 29 34 30 35
REMARK SMILES IDX 31 36 92 37 32 38 91 39 33 40 34 41 35 42 85 43 36 44 90 45
REMARK SMILES IDX 84 46 86 47 37 48 89 49 83 50 82 51 38 53 70 54 50 55 69 56
REMARK SMILES IDX 51 57 54 58 68 59 87 60 52 61 53 62 67 64 88 65 55 66 39 67
REMARK SMILES IDX 40 68 48 69 41 70 43 71 49 72 42 73 44 74 45 75 46 76 47 77
REMARK SMILES IDX 71 78 72 79 80 80 73 81 75 82 81 83 74 84 76 85 77 86 78 87
REMARK SMILES IDX 79 88 56 89 57 90 65 91 58 92 60 93 66 94 59 95 61 96 62 97
REMARK SMILES IDX 63 98 64 99
REMARK H PARENT 22 6 14 15 27 33 86 52 54 63
REMARK Flexibility Score: inf
ROOT
ATOM      1  C   UNL A   1      31.851  28.583  25.817  1.00  0.00     0.023 C 
ENDROOT
BRANCH   1   2
ATOM      2  C   UNL A   1      32.412  29.275  24.570  1.00  0.00     0.116 C 
BRANCH   2   3
ATOM      3  N   UNL A   1      31.450  29.340  23.487  1.00  0.00    -0.352 N 
ATOM      4  C   UNL A   1      30.869  28.447  22.622  1.00  0.00     0.251 C 
ATOM      5  O   UNL A   1      30.013  28.956  21.897  1.00  0.00    -0.269 OA
ATOM      6  H   UNL A   1      31.131  30.260  23.335  1.00  0.00     0.163 HD
BRANCH   4   7
ATOM      7  C   UNL A   1      31.158  26.961  22.535  1.00  0.00     0.044 A 
ATOM      8  C   UNL A   1      30.959  24.684  23.423  1.00  0.00     0.053 A 
ATOM      9  C   UNL A   1      31.962  24.230  22.573  1.00  0.00     0.027 A 
ATOM     10  C   UNL A   1      30.470  26.019  23.359  1.00  0.00    -0.014 A 
ATOM     11  C   UNL A   1      32.549  25.114  21.689  1.00  0.00     0.003 A 
ATOM     12  C   UNL A   1      29.283  26.370  24.230  1.00  0.00     0.047 C 
ATOM     13  C   UNL A   1      32.165  26.458  21.693  1.00  0.00     0.014 A 
BRANCH   8  14
ATOM     14  N   UNL A   1      30.457  23.757  24.370  1.00  0.00    -0.279 N 
ATOM     15  H   UNL A   1      29.506  23.508  24.317  1.00  0.00     0.180 HD
BRANCH  14  16
ATOM     16  S   UNL A   1      31.393  23.061  25.577  1.00  0.00     0.265 S 
ATOM     17  O   UNL A   1      30.578  21.949  26.042  1.00  0.00    -0.201 OA
ATOM     18  O   UNL A   1      31.722  24.136  26.486  1.00  0.00    -0.201 OA
BRANCH  16  19
ATOM     19  C   UNL A   1      32.920  22.315  25.268  1.00  0.00     0.131 A 
ATOM     20  C   UNL A   1      32.459  19.863  24.347  1.00  0.00     0.070 C 
ATOM     21  C   UNL A   1      33.258  21.011  24.824  1.00  0.00     0.080 A 
ATOM     22  N   UNL A   1      34.588  20.851  24.761  1.00  0.00    -0.176 NA
ATOM     23  N   UNL A   1      35.088  22.086  24.891  1.00  0.00    -0.266 N 
ATOM     24  C   UNL A   1      34.123  23.021  25.162  1.00  0.00     0.056 A 
ATOM     25  C   UNL A   1      34.412  24.480  25.202  1.00  0.00     0.068 C 
BRANCH  23  26
ATOM     26  C   UNL A   1      36.514  22.295  24.643  1.00  0.00     0.101 C 
ATOM     27  C   UNL A   1      37.312  21.016  24.885  1.00  0.00     0.033 C 
ATOM     28  C   UNL A   1      36.770  22.850  23.239  1.00  0.00     0.033 C 
ENDBRANCH  23  26
ENDBRANCH  16  19
ENDBRANCH  14  16
ENDBRANCH   8  14
ENDBRANCH   4   7
ENDBRANCH   2   3
ENDBRANCH   1   2
BRANCH   1  29
ATOM     29  C   UNL A   1      32.870  28.059  26.844  1.00  0.00     0.023 C 
BRANCH  29  30
ATOM     30  C   UNL A   1      34.307  28.504  26.631  1.00  0.00     0.116 C 
BRANCH  30  31
ATOM     31  N   UNL A   1      34.514  29.891  27.035  1.00  0.00    -0.352 N 
ATOM     32  C   UNL A   1      35.284  30.447  28.032  1.00  0.00     0.251 C 
ATOM     33  H   UNL A   1      34.012  30.547  26.498  1.00  0.00     0.163 HD
ATOM     34  O   UNL A   1      34.912  31.529  28.496  1.00  0.00    -0.269 OA
BRANCH  32  35
ATOM     35  C   UNL A   1      36.566  29.847  28.453  1.00  0.00     0.039 A 
ATOM     36  C   UNL A   1      36.748  29.365  29.758  1.00  0.00     0.014 A 
ATOM     37  C   UNL A   1      37.676  29.999  27.635  1.00  0.00     0.014 A 
ATOM     38  C   UNL A   1      38.044  29.269  30.269  1.00  0.00     0.010 A 
ATOM     39  C   UNL A   1      38.918  29.638  28.040  1.00  0.00     0.010 A 
ATOM     40  C   UNL A   1      39.098  29.528  29.408  1.00  0.00    -0.014 A 
BRANCH  40  41
ATOM     41  C   UNL A   1      40.443  29.934  29.759  1.00  0.00     0.031 A 
ATOM     42  C   UNL A   1      40.662  31.316  30.169  1.00  0.00     0.074 A 
ATOM     43  C   UNL A   1      41.221  28.908  30.192  1.00  0.00     0.049 A 
ATOM     44  N   UNL A   1      41.789  31.755  30.596  1.00  0.00    -0.248 NA
ATOM     45  C   UNL A   1      39.608  32.326  30.130  1.00  0.00     0.031 C 
ATOM     46  C   UNL A   1      42.165  28.880  31.305  1.00  0.00     0.029 A 
ATOM     47  N   UNL A   1      41.258  27.600  29.726  1.00  0.00    -0.354 N 
ATOM     48  C   UNL A   1      41.528  32.962  31.198  1.00  0.00     0.074 A 
ATOM     49  C   UNL A   1      40.228  33.353  30.720  1.00  0.00     0.031 C 
ATOM     50  C   UNL A   1      42.847  27.718  31.279  1.00  0.00     0.029 A 
ATOM     51  C   UNL A   1      42.504  27.049  30.034  1.00  0.00     0.049 A 
ATOM     52  H   UNL A   1      40.527  27.137  29.256  1.00  0.00     0.167 HD
ATOM     53  C   UNL A   1      42.379  33.381  32.171  1.00  0.00     0.034 A 
ATOM     54  C   UNL A   1      43.386  26.827  29.005  1.00  0.00     0.034 A 
ATOM     55  C   UNL A   1      43.563  32.503  32.229  1.00  0.00     0.049 A 
ATOM     56  C   UNL A   1      44.561  27.794  29.019  1.00  0.00     0.074 A 
ATOM     57  C   UNL A   1      43.958  31.504  33.102  1.00  0.00     0.029 A 
ATOM     58  N   UNL A   1      44.362  32.366  31.093  1.00  0.00    -0.354 N 
ATOM     59  N   UNL A   1      44.658  28.825  29.814  1.00  0.00    -0.248 NA
ATOM     60  C   UNL A   1      45.729  27.666  28.153  1.00  0.00     0.031 C 
ATOM     61  C   UNL A   1      44.902  30.680  32.417  1.00  0.00     0.029 A 
ATOM     62  C   UNL A   1      45.124  31.208  31.154  1.00  0.00     0.049 A 
ATOM     63  H   UNL A   1      44.381  33.008  30.346  1.00  0.00     0.167 HD
ATOM     64  C   UNL A   1      45.756  29.572  29.495  1.00  0.00     0.074 A 
ATOM     65  C   UNL A   1      46.443  28.751  28.509  1.00  0.00     0.031 C 
ATOM     66  C   UNL A   1      45.971  30.819  30.022  1.00  0.00     0.034 A 
BRANCH  53  67
ATOM     67  C   UNL A   1      42.087  34.451  33.205  1.00  0.00     0.023 A 
ATOM     68  C   UNL A   1      42.850  35.635  33.118  1.00  0.00     0.012 A 
ATOM     69  C   UNL A   1      41.194  34.366  34.304  1.00  0.00     0.148 A 
ATOM     70  C   UNL A   1      42.742  36.668  34.056  1.00  0.00     0.002 A 
ATOM     71  C   UNL A   1      41.033  35.427  35.202  1.00  0.00     0.091 A 
ATOM     72  F   UNL A   1      40.554  33.225  34.569  1.00  0.00    -0.205 F 
ATOM     73  C   UNL A   1      41.820  36.574  35.089  1.00  0.00     0.022 A 
BRANCH  71  74
ATOM     74  S   UNL A   1      39.817  35.399  36.534  1.00  0.00     0.127 S 
ATOM     75  O   UNL A   1      40.363  34.378  37.428  1.00  0.00    -0.237 OA
ATOM     76  O   UNL A   1      39.892  36.765  37.055  1.00  0.00    -0.237 OA
ATOM     77  O   UNL A   1      38.540  35.062  35.917  1.00  0.00    -0.744 OA
ENDBRANCH  71  74
ENDBRANCH  53  67
BRANCH  54  78
ATOM     78  C   UNL A   1      42.663  26.337  27.776  1.00  0.00     0.023 A 
ATOM     79  C   UNL A   1      42.583  27.255  26.698  1.00  0.00     0.012 A 
ATOM     80  C   UNL A   1      42.584  24.960  27.495  1.00  0.00     0.148 A 
ATOM     81  C   UNL A   1      42.660  26.810  25.375  1.00  0.00     0.002 A 
ATOM     82  C   UNL A   1      42.643  24.524  26.170  1.00  0.00     0.091 A 
ATOM     83  F   UNL A   1      42.531  24.096  28.517  1.00  0.00    -0.205 F 
ATOM     84  C   UNL A   1      42.745  25.446  25.115  1.00  0.00     0.022 A 
BRANCH  82  85
ATOM     85  S   UNL A   1      42.710  22.770  25.778  1.00  0.00     0.127 S 
ATOM     86  O   UNL A   1      43.689  22.289  26.750  1.00  0.00    -0.237 OA
ATOM     87  O   UNL A   1      41.341  22.318  26.025  1.00  0.00    -0.237 OA
ATOM     88  O   UNL A   1      43.110  22.713  24.379  1.00  0.00    -0.744 OA
ENDBRANCH  82  85
ENDBRANCH  54  78
BRANCH  66  89
ATOM     89  C   UNL A   1      47.013  31.798  29.506  1.00  0.00     0.023 A 
ATOM     90  C   UNL A   1      48.371  31.712  29.872  1.00  0.00     0.012 A 
ATOM     91  C   UNL A   1      46.686  32.765  28.520  1.00  0.00     0.148 A 
ATOM     92  C   UNL A   1      49.333  32.597  29.375  1.00  0.00     0.002 A 
ATOM     93  C   UNL A   1      47.669  33.556  27.933  1.00  0.00     0.091 A 
ATOM     94  F   UNL A   1      45.408  32.946  28.158  1.00  0.00    -0.205 F 
ATOM     95  C   UNL A   1      48.986  33.507  28.389  1.00  0.00     0.022 A 
BRANCH  93  96
ATOM     96  S   UNL A   1      47.324  34.548  26.474  1.00  0.00     0.127 S 
ATOM     97  O   UNL A   1      48.667  34.922  26.037  1.00  0.00    -0.237 OA
ATOM     98  O   UNL A   1      46.643  33.591  25.599  1.00  0.00    -0.237 OA
ATOM     99  O   UNL A   1      46.475  35.637  26.937  1.00  0.00    -0.744 OA
ENDBRANCH  93  96
ENDBRANCH  66  89
ENDBRANCH  40  41
ENDBRANCH  32  35
ENDBRANCH  30  31
ENDBRANCH  29  30
ENDBRANCH   1  29
TORSDOF 18
ENDMDL
MODEL 3
REMARK VINA RESULT:     -11.5      1.674      2.296
REMARK SMILES Cc1nn(C(C)C)c(C)c1S(=O)(=O)Nc1cccc(C(=O)NCCCCNC(=O)c2ccc(-c3c4nc(c(-c5cccc(S(=O)(=O)[O-])c5F)c5ccc([nH]5)c(-c5cccc(S(=O)(=O)[O-])c5F)c5nc(c(-c6cccc(S(=O)(=O)[O-])c6F)c6ccc3[nH]6)C=C5)C=C4)cc2)c1C
REMARK SMILES IDX 24 1 23 2 22 3 20 4 21 5 19 7 15 8 16 9 93 10 17 11 94 12
REMARK SMILES IDX 18 13 14 14 11 16 12 17 13 18 10 19 1 20 2 21 3 22 4 23 8 24
REMARK SMILES IDX 9 25 5 26 6 27 7 28 25 29 26 30 27 31 28 32 29 34 30 35
REMARK SMILES IDX 31 36 92 37 32 38 91 39 33 40 34 41 35 42 85 43 36 44 90 45
REMARK SMILES IDX 84 46 86 47 37 48 89 49 83 50 82 51 38 53 70 54 50 55 69 56
REMARK SMILES IDX 51 57 54 58 68 59 87 60 52 61 53 62 67 64 88 65 55 66 39 67
REMARK SMILES IDX 40 68 48 69 41 70 43 71 49 72 42 73 44 74 45 75 46 76 47 77
REMARK SMILES IDX 71 78 72 79 80 80 73 81 75 82 81 83 74 84 76 85 77 86 78 87
REMARK SMILES IDX 79 88 56 89 57 90 65 91 58 92 60 93 66 94 59 95 61 96 62 97
REMARK SMILES IDX 63 98 64 99
REMARK H PARENT 22 6 14 15 27 33 86 52 54 63
REMARK Flexibility Score: inf
ROOT
ATOM      1  C   UNL A   1      34.837  30.147  26.993  1.00  0.00     0.023 C 
ENDROOT
BRANCH   1   2
ATOM      2  C   UNL A   1      34.418  28.675  27.083  1.00  0.00     0.116 C 
BRANCH   2   3
ATOM      3  N   UNL A   1      33.071  28.509  27.593  1.00  0.00    -0.352 N 
ATOM      4  C   UNL A   1      31.869  28.074  27.095  1.00  0.00     0.251 C 
ATOM      5  O   UNL A   1      30.978  28.023  27.944  1.00  0.00    -0.269 OA
ATOM      6  H   UNL A   1      33.002  28.775  28.540  1.00  0.00     0.163 HD
BRANCH   4   7
ATOM      7  C   UNL A   1      31.592  27.636  25.670  1.00  0.00     0.044 A 
ATOM      8  C   UNL A   1      31.606  25.924  23.914  1.00  0.00     0.053 A 
ATOM      9  C   UNL A   1      31.391  26.885  22.931  1.00  0.00     0.027 A 
ATOM     10  C   UNL A   1      31.613  26.257  25.297  1.00  0.00    -0.014 A 
ATOM     11  C   UNL A   1      31.250  28.209  23.300  1.00  0.00     0.003 A 
ATOM     12  C   UNL A   1      31.715  25.117  26.289  1.00  0.00     0.047 C 
ATOM     13  C   UNL A   1      31.373  28.572  24.644  1.00  0.00     0.014 A 
BRANCH   8  14
ATOM     14  N   UNL A   1      31.834  24.598  23.470  1.00  0.00    -0.279 N 
ATOM     15  H   UNL A   1      31.052  24.035  23.268  1.00  0.00     0.180 HD
BRANCH  14  16
ATOM     16  S   UNL A   1      33.362  23.934  23.271  1.00  0.00     0.265 S 
ATOM     17  O   UNL A   1      34.233  24.870  23.968  1.00  0.00    -0.201 OA
ATOM     18  O   UNL A   1      33.520  23.734  21.848  1.00  0.00    -0.201 OA
BRANCH  16  19
ATOM     19  C   UNL A   1      33.818  22.411  23.945  1.00  0.00     0.131 A 
ATOM     20  C   UNL A   1      35.279  22.882  26.116  1.00  0.00     0.070 C 
ATOM     21  C   UNL A   1      34.632  22.078  25.059  1.00  0.00     0.080 A 
ATOM     22  N   UNL A   1      34.748  20.750  25.193  1.00  0.00    -0.176 NA
ATOM     23  N   UNL A   1      33.823  20.239  24.371  1.00  0.00    -0.266 N 
ATOM     24  C   UNL A   1      33.200  21.200  23.615  1.00  0.00     0.056 A 
ATOM     25  C   UNL A   1      32.037  20.897  22.739  1.00  0.00     0.068 C 
BRANCH  23  26
ATOM     26  C   UNL A   1      33.532  18.808  24.444  1.00  0.00     0.101 C 
ATOM     27  C   UNL A   1      34.814  17.979  24.392  1.00  0.00     0.033 C 
ATOM     28  C   UNL A   1      32.697  18.460  25.680  1.00  0.00     0.033 C 
ENDBRANCH  23  26
ENDBRANCH  16  19
ENDBRANCH  14  16
ENDBRANCH   8  14
ENDBRANCH   4   7
ENDBRANCH   2   3
ENDBRANCH   1   2
BRANCH   1  29
ATOM     29  C   UNL A   1      35.372  30.801  28.278  1.00  0.00     0.023 C 
BRANCH  29  30
ATOM     30  C   UNL A   1      34.425  31.767  28.969  1.00  0.00     0.116 C 
BRANCH  30  31
ATOM     31  N   UNL A   1      34.566  33.128  28.461  1.00  0.00    -0.352 N 
ATOM     32  C   UNL A   1      35.257  34.216  28.944  1.00  0.00     0.251 C 
ATOM     33  H   UNL A   1      34.080  33.298  27.622  1.00  0.00     0.163 HD
ATOM     34  O   UNL A   1      34.826  35.335  28.651  1.00  0.00    -0.269 OA
BRANCH  32  35
ATOM     35  C   UNL A   1      36.528  34.068  29.683  1.00  0.00     0.039 A 
ATOM     36  C   UNL A   1      37.755  34.398  29.089  1.00  0.00     0.014 A 
ATOM     37  C   UNL A   1      36.530  33.354  30.872  1.00  0.00     0.014 A 
ATOM     38  C   UNL A   1      38.924  33.813  29.580  1.00  0.00     0.010 A 
ATOM     39  C   UNL A   1      37.682  33.022  31.504  1.00  0.00     0.010 A 
ATOM     40  C   UNL A   1      38.825  33.036  30.723  1.00  0.00    -0.014 A 
BRANCH  40  41
ATOM     41  C   UNL A   1      39.731  31.994  31.162  1.00  0.00     0.031 A 
ATOM     42  C   UNL A   1      39.777  30.754  30.398  1.00  0.00     0.074 A 
ATOM     43  C   UNL A   1      40.794  32.465  31.863  1.00  0.00     0.049 A 
ATOM     44  N   UNL A   1      40.609  29.809  30.637  1.00  0.00    -0.248 NA
ATOM     45  C   UNL A   1      38.870  30.478  29.286  1.00  0.00     0.031 C 
ATOM     46  C   UNL A   1      42.196  32.064  31.779  1.00  0.00     0.029 A 
ATOM     47  N   UNL A   1      40.826  33.500  32.788  1.00  0.00    -0.354 N 
ATOM     48  C   UNL A   1      40.589  28.990  29.535  1.00  0.00     0.074 A 
ATOM     49  C   UNL A   1      39.381  29.330  28.829  1.00  0.00     0.031 C 
ATOM     50  C   UNL A   1      42.887  32.663  32.769  1.00  0.00     0.029 A 
ATOM     51  C   UNL A   1      41.917  33.309  33.639  1.00  0.00     0.049 A 
ATOM     52  H   UNL A   1      40.186  34.247  32.837  1.00  0.00     0.167 HD
ATOM     53  C   UNL A   1      41.701  28.256  29.270  1.00  0.00     0.034 A 
ATOM     54  C   UNL A   1      41.668  32.933  34.936  1.00  0.00     0.034 A 
ATOM     55  C   UNL A   1      42.657  28.351  30.390  1.00  0.00     0.049 A 
ATOM     56  C   UNL A   1      42.056  31.488  35.214  1.00  0.00     0.074 A 
ATOM     57  C   UNL A   1      43.843  29.041  30.565  1.00  0.00     0.029 A 
ATOM     58  N   UNL A   1      42.254  27.940  31.661  1.00  0.00    -0.354 N 
ATOM     59  N   UNL A   1      42.435  30.637  34.299  1.00  0.00    -0.248 NA
ATOM     60  C   UNL A   1      42.067  30.892  36.546  1.00  0.00     0.031 C 
ATOM     61  C   UNL A   1      44.069  29.163  31.969  1.00  0.00     0.029 A 
ATOM     62  C   UNL A   1      43.057  28.500  32.645  1.00  0.00     0.049 A 
ATOM     63  H   UNL A   1      41.498  27.334  31.836  1.00  0.00     0.167 HD
ATOM     64  C   UNL A   1      42.583  29.391  34.838  1.00  0.00     0.074 A 
ATOM     65  C   UNL A   1      42.430  29.626  36.266  1.00  0.00     0.031 C 
ATOM     66  C   UNL A   1      42.756  28.274  34.063  1.00  0.00     0.034 A 
BRANCH  53  67
ATOM     67  C   UNL A   1      42.039  27.602  27.943  1.00  0.00     0.023 A 
ATOM     68  C   UNL A   1      42.106  28.455  26.821  1.00  0.00     0.012 A 
ATOM     69  C   UNL A   1      42.210  26.218  27.684  1.00  0.00     0.148 A 
ATOM     70  C   UNL A   1      42.325  27.974  25.525  1.00  0.00     0.002 A 
ATOM     71  C   UNL A   1      42.501  25.744  26.401  1.00  0.00     0.091 A 
ATOM     72  F   UNL A   1      41.999  25.318  28.647  1.00  0.00    -0.205 F 
ATOM     73  C   UNL A   1      42.542  26.620  25.315  1.00  0.00     0.022 A 
BRANCH  71  74
ATOM     74  S   UNL A   1      42.848  24.006  26.061  1.00  0.00     0.127 S 
ATOM     75  O   UNL A   1      43.314  24.050  24.676  1.00  0.00    -0.237 OA
ATOM     76  O   UNL A   1      43.890  23.697  27.042  1.00  0.00    -0.237 OA
ATOM     77  O   UNL A   1      41.597  23.289  26.271  1.00  0.00    -0.744 OA
ENDBRANCH  71  74
ENDBRANCH  53  67
BRANCH  54  78
ATOM     78  C   UNL A   1      40.448  33.637  35.473  1.00  0.00     0.023 A 
ATOM     79  C   UNL A   1      39.225  32.926  35.365  1.00  0.00     0.012 A 
ATOM     80  C   UNL A   1      40.571  34.615  36.478  1.00  0.00     0.148 A 
ATOM     81  C   UNL A   1      38.255  33.019  36.366  1.00  0.00     0.002 A 
ATOM     82  C   UNL A   1      39.588  34.714  37.465  1.00  0.00     0.091 A 
ATOM     83  F   UNL A   1      41.673  35.376  36.505  1.00  0.00    -0.205 F 
ATOM     84  C   UNL A   1      38.463  33.874  37.444  1.00  0.00     0.022 A 
BRANCH  82  85
ATOM     85  S   UNL A   1      39.788  35.836  38.857  1.00  0.00     0.127 S 
ATOM     86  O   UNL A   1      38.707  35.403  39.741  1.00  0.00    -0.237 OA
ATOM     87  O   UNL A   1      41.131  35.527  39.347  1.00  0.00    -0.237 OA
ATOM     88  O   UNL A   1      39.658  37.169  38.286  1.00  0.00    -0.744 OA
ENDBRANCH  82  85
ENDBRANCH  54  78
BRANCH  66  89
ATOM     89  C   UNL A   1      42.652  26.848  34.580  1.00  0.00     0.023 A 
ATOM     90  C   UNL A   1      41.485  26.356  35.198  1.00  0.00     0.012 A 
ATOM     91  C   UNL A   1      43.686  25.906  34.341  1.00  0.00     0.148 A 
ATOM     92  C   UNL A   1      41.383  25.036  35.649  1.00  0.00     0.002 A 
ATOM     93  C   UNL A   1      43.527  24.564  34.675  1.00  0.00     0.091 A 
ATOM     94  F   UNL A   1      44.848  26.307  33.808  1.00  0.00    -0.205 F 
ATOM     95  C   UNL A   1      42.397  24.133  35.370  1.00  0.00     0.022 A 
BRANCH  93  96
ATOM     96  S   UNL A   1      44.681  23.312  34.095  1.00  0.00     0.127 S 
ATOM     97  O   UNL A   1      45.902  23.671  34.814  1.00  0.00    -0.237 OA
ATOM     98  O   UNL A   1      44.049  22.071  34.549  1.00  0.00    -0.237 OA
ATOM     99  O   UNL A   1      44.723  23.463  32.647  1.00  0.00    -0.744 OA
ENDBRANCH  93  96
ENDBRANCH  66  89
ENDBRANCH  40  41
ENDBRANCH  32  35
ENDBRANCH  30  31
ENDBRANCH  29  30
ENDBRANCH   1  29
TORSDOF 18
ENDMDL
