MODEL 1
REMARK VINA RESULT:     -12.1      0.000      0.000
REMARK SMILES Cn1cc(S(=O)(=O)N[C@@H]2C=C[C@@H](C(=O)NCCCCNC(=O)c3ccc(-c4c5nc(c(-c6cccc(S(=O)(=O)[O-])c6F)c6ccc([nH]6)c(-c6cccc(S(=O)(=O)[O-])c6F)c6nc(c(-c7cccc(S(=O)(=O)[O-])c7F)c7ccc4[nH]7)C=C6)C=C5)cc3)C2)cc1C(N)=O
REMARK SMILES IDX 17 1 16 2 15 3 13 4 14 5 12 7 9 8 10 9 86 10 11 11 8 12 5 14
REMARK SMILES IDX 6 15 7 16 4 17 1 18 2 19 3 20 88 21 87 22 89 23 90 24 91 25
REMARK SMILES IDX 18 28 19 29 20 30 21 31 22 33 23 34 24 35 85 36 25 37 84 38
REMARK SMILES IDX 26 39 27 40 28 41 78 42 29 43 83 44 77 45 79 46 30 47 82 48
REMARK SMILES IDX 76 49 75 50 31 52 63 53 43 54 62 55 44 56 47 57 61 58 80 59
REMARK SMILES IDX 45 60 46 61 60 63 81 64 48 65 32 66 33 67 41 68 34 69 36 70
REMARK SMILES IDX 42 71 35 72 37 73 38 74 39 75 40 76 64 77 65 78 73 79 66 80
REMARK SMILES IDX 68 81 74 82 67 83 69 84 70 85 71 86 72 87 49 88 50 89 58 90
REMARK SMILES IDX 51 91 53 92 59 93 52 94 54 95 55 96 56 97 57 98
REMARK H PARENT 15 6 8 13 90 26 90 27 20 32 79 51 47 62
REMARK Flexibility Score: inf
ROOT
ATOM      1  C   UNL A   1      33.073  29.663  26.529  1.00  0.00     0.023 C 
ENDROOT
BRANCH   1   2
ATOM      2  C   UNL A   1      32.970  29.353  25.042  1.00  0.00     0.116 C 
BRANCH   2   3
ATOM      3  N   UNL A   1      31.742  29.849  24.450  1.00  0.00    -0.356 N 
ATOM      4  C   UNL A   1      30.658  29.174  23.970  1.00  0.00     0.226 C 
ATOM      5  O   UNL A   1      29.681  29.833  23.604  1.00  0.00    -0.274 OA
ATOM      6  H   UNL A   1      31.682  30.829  24.382  1.00  0.00     0.163 HD
BRANCH   4   7
ATOM      7  C   UNL A   1      30.623  27.646  23.877  1.00  0.00     0.103 C 
ATOM      8  C   UNL A   1      29.910  25.794  25.343  1.00  0.00     0.093 C 
ATOM      9  C   UNL A   1      28.880  26.151  24.321  1.00  0.00    -0.011 C 
ATOM     10  C   UNL A   1      30.940  26.933  25.199  1.00  0.00     0.042 C 
ATOM     11  C   UNL A   1      29.274  27.125  23.494  1.00  0.00    -0.016 C 
BRANCH   8  12
ATOM     12  N   UNL A   1      30.555  24.516  25.004  1.00  0.00    -0.204 NA
ATOM     13  H   UNL A   1      29.951  24.040  24.333  1.00  0.00     0.142 HD
BRANCH  12  14
ATOM     14  S   UNL A   1      30.871  23.425  26.255  1.00  0.00     0.242 S 
ATOM     15  O   UNL A   1      29.854  22.399  26.232  1.00  0.00    -0.207 OA
ATOM     16  O   UNL A   1      31.150  24.212  27.435  1.00  0.00    -0.207 OA
BRANCH  14  17
ATOM     17  C   UNL A   1      32.354  22.608  25.927  1.00  0.00     0.100 A 
ATOM     18  C   UNL A   1      34.382  19.847  24.780  1.00  0.00     0.150 C 
ATOM     19  N   UNL A   1      33.847  21.109  25.247  1.00  0.00    -0.345 N 
ATOM     20  C   UNL A   1      32.510  21.307  25.507  1.00  0.00     0.107 A 
ATOM     21  C   UNL A   1      34.550  22.288  25.435  1.00  0.00     0.107 A 
ATOM     22  C   UNL A   1      33.642  23.190  25.980  1.00  0.00     0.055 A 
BRANCH  21  23
ATOM     23  C   UNL A   1      35.943  22.504  25.105  1.00  0.00     0.265 C 
ATOM     24  N   UNL A   1      36.747  22.815  26.165  1.00  0.00    -0.364 N 
ATOM     25  O   UNL A   1      36.414  22.468  23.975  1.00  0.00    -0.268 OA
ATOM     26  H   UNL A   1      36.371  22.845  27.075  1.00  0.00     0.160 HD
ATOM     27  H   UNL A   1      37.701  23.010  26.020  1.00  0.00     0.160 HD
ENDBRANCH  21  23
ENDBRANCH  14  17
ENDBRANCH  12  14
ENDBRANCH   8  12
ENDBRANCH   4   7
ENDBRANCH   2   3
ENDBRANCH   1   2
BRANCH   1  28
ATOM     28  C   UNL A   1      32.455  30.993  26.946  1.00  0.00     0.023 C 
BRANCH  28  29
ATOM     29  C   UNL A   1      33.435  32.023  27.502  1.00  0.00     0.116 C 
BRANCH  29  30
ATOM     30  N   UNL A   1      32.847  33.345  27.691  1.00  0.00    -0.352 N 
ATOM     31  C   UNL A   1      33.205  34.328  28.585  1.00  0.00     0.251 C 
ATOM     32  H   UNL A   1      32.092  33.563  27.099  1.00  0.00     0.163 HD
ATOM     33  O   UNL A   1      32.545  35.357  28.679  1.00  0.00    -0.269 OA
BRANCH  31  34
ATOM     34  C   UNL A   1      34.375  34.106  29.457  1.00  0.00     0.039 A 
ATOM     35  C   UNL A   1      34.186  33.479  30.691  1.00  0.00     0.014 A 
ATOM     36  C   UNL A   1      35.658  34.428  29.008  1.00  0.00     0.014 A 
ATOM     37  C   UNL A   1      35.300  33.074  31.430  1.00  0.00     0.010 A 
ATOM     38  C   UNL A   1      36.763  33.967  29.714  1.00  0.00     0.010 A 
ATOM     39  C   UNL A   1      36.594  33.264  30.916  1.00  0.00    -0.014 A 
BRANCH  39  40
ATOM     40  C   UNL A   1      37.782  32.663  31.571  1.00  0.00     0.031 A 
ATOM     41  C   UNL A   1      38.493  31.501  30.940  1.00  0.00     0.074 A 
ATOM     42  C   UNL A   1      38.133  33.082  32.804  1.00  0.00     0.049 A 
ATOM     43  N   UNL A   1      39.481  30.788  31.413  1.00  0.00    -0.248 NA
ATOM     44  C   UNL A   1      38.013  31.064  29.618  1.00  0.00     0.031 C 
ATOM     45  C   UNL A   1      37.457  34.138  33.563  1.00  0.00     0.029 A 
ATOM     46  N   UNL A   1      39.117  32.644  33.654  1.00  0.00    -0.354 N 
ATOM     47  C   UNL A   1      39.719  29.798  30.469  1.00  0.00     0.074 A 
ATOM     48  C   UNL A   1      38.756  29.986  29.406  1.00  0.00     0.031 C 
ATOM     49  C   UNL A   1      38.041  34.260  34.765  1.00  0.00     0.029 A 
ATOM     50  C   UNL A   1      39.114  33.277  34.876  1.00  0.00     0.049 A 
ATOM     51  H   UNL A   1      39.765  31.943  33.413  1.00  0.00     0.167 HD
ATOM     52  C   UNL A   1      40.674  28.839  30.472  1.00  0.00     0.034 A 
ATOM     53  C   UNL A   1      39.879  33.081  35.968  1.00  0.00     0.034 A 
ATOM     54  C   UNL A   1      41.667  28.691  31.502  1.00  0.00     0.049 A 
ATOM     55  C   UNL A   1      40.960  32.037  35.926  1.00  0.00     0.074 A 
ATOM     56  C   UNL A   1      42.752  27.833  31.532  1.00  0.00     0.029 A 
ATOM     57  N   UNL A   1      41.691  29.411  32.686  1.00  0.00    -0.354 N 
ATOM     58  N   UNL A   1      41.293  31.238  34.942  1.00  0.00    -0.248 NA
ATOM     59  C   UNL A   1      41.789  31.888  37.130  1.00  0.00     0.031 C 
ATOM     60  C   UNL A   1      43.428  28.028  32.742  1.00  0.00     0.029 A 
ATOM     61  C   UNL A   1      42.763  29.007  33.462  1.00  0.00     0.049 A 
ATOM     62  H   UNL A   1      41.042  30.106  32.937  1.00  0.00     0.167 HD
ATOM     63  C   UNL A   1      42.382  30.505  35.400  1.00  0.00     0.074 A 
ATOM     64  C   UNL A   1      42.670  30.976  36.739  1.00  0.00     0.031 C 
ATOM     65  C   UNL A   1      43.067  29.516  34.775  1.00  0.00     0.034 A 
BRANCH  52  66
ATOM     66  C   UNL A   1      40.740  27.917  29.286  1.00  0.00     0.023 A 
ATOM     67  C   UNL A   1      39.879  26.801  29.235  1.00  0.00     0.012 A 
ATOM     68  C   UNL A   1      41.598  28.180  28.202  1.00  0.00     0.148 A 
ATOM     69  C   UNL A   1      39.888  25.948  28.134  1.00  0.00     0.002 A 
ATOM     70  C   UNL A   1      41.576  27.343  27.092  1.00  0.00     0.091 A 
ATOM     71  F   UNL A   1      42.429  29.229  28.282  1.00  0.00    -0.205 F 
ATOM     72  C   UNL A   1      40.729  26.224  27.059  1.00  0.00     0.022 A 
BRANCH  70  73
ATOM     73  S   UNL A   1      42.577  27.654  25.632  1.00  0.00     0.127 S 
ATOM     74  O   UNL A   1      42.054  28.945  25.186  1.00  0.00    -0.237 OA
ATOM     75  O   UNL A   1      43.931  27.703  26.185  1.00  0.00    -0.237 OA
ATOM     76  O   UNL A   1      42.330  26.532  24.737  1.00  0.00    -0.744 OA
ENDBRANCH  70  73
ENDBRANCH  52  66
BRANCH  53  77
ATOM     77  C   UNL A   1      39.689  33.943  37.168  1.00  0.00     0.023 A 
ATOM     78  C   UNL A   1      40.132  35.278  37.130  1.00  0.00     0.012 A 
ATOM     79  C   UNL A   1      39.032  33.469  38.320  1.00  0.00     0.148 A 
ATOM     80  C   UNL A   1      39.946  36.121  38.227  1.00  0.00     0.002 A 
ATOM     81  C   UNL A   1      38.803  34.329  39.389  1.00  0.00     0.091 A 
ATOM     82  F   UNL A   1      38.635  32.189  38.347  1.00  0.00    -0.205 F 
ATOM     83  C   UNL A   1      39.271  35.651  39.350  1.00  0.00     0.022 A 
BRANCH  81  84
ATOM     84  S   UNL A   1      37.818  33.835  40.809  1.00  0.00     0.127 S 
ATOM     85  O   UNL A   1      36.701  33.141  40.172  1.00  0.00    -0.237 OA
ATOM     86  O   UNL A   1      38.743  32.972  41.544  1.00  0.00    -0.237 OA
ATOM     87  O   UNL A   1      37.493  35.077  41.498  1.00  0.00    -0.744 OA
ENDBRANCH  81  84
ENDBRANCH  53  77
BRANCH  65  88
ATOM     88  C   UNL A   1      44.195  28.867  35.531  1.00  0.00     0.023 A 
ATOM     89  C   UNL A   1      45.494  29.397  35.414  1.00  0.00     0.012 A 
ATOM     90  C   UNL A   1      43.959  27.792  36.409  1.00  0.00     0.148 A 
ATOM     91  C   UNL A   1      46.548  28.854  36.146  1.00  0.00     0.002 A 
ATOM     92  C   UNL A   1      45.008  27.281  37.166  1.00  0.00     0.091 A 
ATOM     93  F   UNL A   1      42.719  27.288  36.488  1.00  0.00    -0.205 F 
ATOM     94  C   UNL A   1      46.303  27.805  37.030  1.00  0.00     0.022 A 
BRANCH  92  95
ATOM     95  S   UNL A   1      44.764  25.987  38.388  1.00  0.00     0.127 S 
ATOM     96  O   UNL A   1      43.816  26.616  39.304  1.00  0.00    -0.237 OA
ATOM     97  O   UNL A   1      44.206  24.898  37.586  1.00  0.00    -0.237 OA
ATOM     98  O   UNL A   1      46.084  25.710  38.940  1.00  0.00    -0.744 OA
ENDBRANCH  92  95
ENDBRANCH  65  88
ENDBRANCH  39  40
ENDBRANCH  31  34
ENDBRANCH  29  30
ENDBRANCH  28  29
ENDBRANCH   1  28
TORSDOF 18
ENDMDL
MODEL 2
REMARK VINA RESULT:     -11.8      2.673      8.066
REMARK SMILES Cn1cc(S(=O)(=O)N[C@@H]2C=C[C@@H](C(=O)NCCCCNC(=O)c3ccc(-c4c5nc(c(-c6cccc(S(=O)(=O)[O-])c6F)c6ccc([nH]6)c(-c6cccc(S(=O)(=O)[O-])c6F)c6nc(c(-c7cccc(S(=O)(=O)[O-])c7F)c7ccc4[nH]7)C=C6)C=C5)cc3)C2)cc1C(N)=O
REMARK SMILES IDX 17 1 16 2 15 3 13 4 14 5 12 7 9 8 10 9 86 10 11 11 8 12 5 14
REMARK SMILES IDX 6 15 7 16 4 17 1 18 2 19 3 20 88 21 87 22 89 23 90 24 91 25
REMARK SMILES IDX 18 28 19 29 20 30 21 31 22 33 23 34 24 35 85 36 25 37 84 38
REMARK SMILES IDX 26 39 27 40 28 41 78 42 29 43 83 44 77 45 79 46 30 47 82 48
REMARK SMILES IDX 76 49 75 50 31 52 63 53 43 54 62 55 44 56 47 57 61 58 80 59
REMARK SMILES IDX 45 60 46 61 60 63 81 64 48 65 32 66 33 67 41 68 34 69 36 70
REMARK SMILES IDX 42 71 35 72 37 73 38 74 39 75 40 76 64 77 65 78 73 79 66 80
REMARK SMILES IDX 68 81 74 82 67 83 69 84 70 85 71 86 72 87 49 88 50 89 58 90
REMARK SMILES IDX 51 91 53 92 59 93 52 94 54 95 55 96 56 97 57 98
REMARK H PARENT 15 6 8 13 90 26 90 27 20 32 79 51 47 62
REMARK Flexibility Score: inf
ROOT
ATOM      1  C   UNL A   1      31.419  29.905  24.797  1.00  0.00     0.023 C 
ENDROOT
BRANCH   1   2
ATOM      2  C   UNL A   1      31.172  29.058  23.556  1.00  0.00     0.116 C 
BRANCH   2   3
ATOM      3  N   UNL A   1      32.378  28.837  22.779  1.00  0.00    -0.356 N 
ATOM      4  C   UNL A   1      33.115  27.704  22.596  1.00  0.00     0.226 C 
ATOM      5  O   UNL A   1      34.054  27.747  21.796  1.00  0.00    -0.274 OA
ATOM      6  H   UNL A   1      32.719  29.633  22.310  1.00  0.00     0.163 HD
BRANCH   4   7
ATOM      7  C   UNL A   1      32.811  26.403  23.343  1.00  0.00     0.103 C 
ATOM      8  C   UNL A   1      34.031  24.318  23.845  1.00  0.00     0.093 C 
ATOM      9  C   UNL A   1      34.049  25.286  24.983  1.00  0.00    -0.011 C 
ATOM     10  C   UNL A   1      33.429  25.154  22.697  1.00  0.00     0.042 C 
ATOM     11  C   UNL A   1      33.353  26.401  24.737  1.00  0.00    -0.016 C 
BRANCH   8  12
ATOM     12  N   UNL A   1      33.135  23.188  24.139  1.00  0.00    -0.204 NA
ATOM     13  H   UNL A   1      32.191  23.565  24.224  1.00  0.00     0.142 HD
BRANCH  12  14
ATOM     14  S   UNL A   1      33.435  22.271  25.525  1.00  0.00     0.242 S 
ATOM     15  O   UNL A   1      32.374  22.518  26.474  1.00  0.00    -0.207 OA
ATOM     16  O   UNL A   1      34.829  22.460  25.857  1.00  0.00    -0.207 OA
BRANCH  14  17
ATOM     17  C   UNL A   1      33.315  20.597  25.129  1.00  0.00     0.100 A 
ATOM     18  C   UNL A   1      32.534  17.130  25.781  1.00  0.00     0.150 C 
ATOM     19  N   UNL A   1      32.878  18.419  25.219  1.00  0.00    -0.345 N 
ATOM     20  C   UNL A   1      32.977  19.565  25.975  1.00  0.00     0.107 A 
ATOM     21  C   UNL A   1      33.087  18.711  23.881  1.00  0.00     0.107 A 
ATOM     22  C   UNL A   1      33.484  20.043  23.838  1.00  0.00     0.055 A 
BRANCH  21  23
ATOM     23  C   UNL A   1      32.905  17.792  22.776  1.00  0.00     0.265 C 
ATOM     24  N   UNL A   1      31.781  18.001  22.029  1.00  0.00    -0.364 N 
ATOM     25  O   UNL A   1      33.646  16.852  22.511  1.00  0.00    -0.268 OA
ATOM     26  H   UNL A   1      31.184  18.755  22.239  1.00  0.00     0.160 HD
ATOM     27  H   UNL A   1      31.566  17.398  21.281  1.00  0.00     0.160 HD
ENDBRANCH  21  23
ENDBRANCH  14  17
ENDBRANCH  12  14
ENDBRANCH   8  12
ENDBRANCH   4   7
ENDBRANCH   2   3
ENDBRANCH   1   2
BRANCH   1  28
ATOM     28  C   UNL A   1      31.483  29.119  26.102  1.00  0.00     0.023 C 
BRANCH  28  29
ATOM     29  C   UNL A   1      32.249  29.796  27.235  1.00  0.00     0.116 C 
BRANCH  29  30
ATOM     30  N   UNL A   1      32.296  31.250  27.119  1.00  0.00    -0.352 N 
ATOM     31  C   UNL A   1      33.338  32.105  27.399  1.00  0.00     0.251 C 
ATOM     32  H   UNL A   1      31.470  31.678  26.798  1.00  0.00     0.163 HD
ATOM     33  O   UNL A   1      33.183  33.319  27.335  1.00  0.00    -0.269 OA
BRANCH  31  34
ATOM     34  C   UNL A   1      34.634  31.534  27.815  1.00  0.00     0.039 A 
ATOM     35  C   UNL A   1      35.687  32.402  28.118  1.00  0.00     0.014 A 
ATOM     36  C   UNL A   1      34.769  30.156  27.998  1.00  0.00     0.014 A 
ATOM     37  C   UNL A   1      36.843  31.893  28.710  1.00  0.00     0.010 A 
ATOM     38  C   UNL A   1      35.895  29.662  28.646  1.00  0.00     0.010 A 
ATOM     39  C   UNL A   1      36.930  30.527  29.031  1.00  0.00    -0.014 A 
BRANCH  39  40
ATOM     40  C   UNL A   1      38.049  29.993  29.846  1.00  0.00     0.031 A 
ATOM     41  C   UNL A   1      38.284  30.496  31.240  1.00  0.00     0.074 A 
ATOM     42  C   UNL A   1      38.933  29.151  29.272  1.00  0.00     0.049 A 
ATOM     43  N   UNL A   1      39.265  30.219  32.058  1.00  0.00    -0.248 NA
ATOM     44  C   UNL A   1      37.307  31.459  31.775  1.00  0.00     0.031 C 
ATOM     45  C   UNL A   1      38.865  28.666  27.891  1.00  0.00     0.029 A 
ATOM     46  N   UNL A   1      40.084  28.587  29.763  1.00  0.00    -0.354 N 
ATOM     47  C   UNL A   1      39.046  30.997  33.188  1.00  0.00     0.074 A 
ATOM     48  C   UNL A   1      37.852  31.776  32.941  1.00  0.00     0.031 C 
ATOM     49  C   UNL A   1      39.929  27.885  27.644  1.00  0.00     0.029 A 
ATOM     50  C   UNL A   1      40.768  27.834  28.837  1.00  0.00     0.049 A 
ATOM     51  H   UNL A   1      40.390  28.710  30.691  1.00  0.00     0.167 HD
ATOM     52  C   UNL A   1      39.758  31.034  34.339  1.00  0.00     0.034 A 
ATOM     53  C   UNL A   1      41.945  27.184  28.932  1.00  0.00     0.034 A 
ATOM     54  C   UNL A   1      40.910  30.215  34.603  1.00  0.00     0.049 A 
ATOM     55  C   UNL A   1      42.691  27.209  30.238  1.00  0.00     0.074 A 
ATOM     56  C   UNL A   1      41.621  30.088  35.783  1.00  0.00     0.029 A 
ATOM     57  N   UNL A   1      41.525  29.392  33.673  1.00  0.00    -0.354 N 
ATOM     58  N   UNL A   1      42.363  27.800  31.361  1.00  0.00    -0.248 NA
ATOM     59  C   UNL A   1      43.951  26.455  30.299  1.00  0.00     0.031 C 
ATOM     60  C   UNL A   1      42.674  29.194  35.563  1.00  0.00     0.029 A 
ATOM     61  C   UNL A   1      42.617  28.765  34.247  1.00  0.00     0.049 A 
ATOM     62  H   UNL A   1      41.229  29.272  32.743  1.00  0.00     0.167 HD
ATOM     63  C   UNL A   1      43.364  27.473  32.268  1.00  0.00     0.074 A 
ATOM     64  C   UNL A   1      44.295  26.610  31.571  1.00  0.00     0.031 C 
ATOM     65  C   UNL A   1      43.510  27.871  33.556  1.00  0.00     0.034 A 
BRANCH  52  66
ATOM     66  C   UNL A   1      39.265  31.940  35.434  1.00  0.00     0.023 A 
ATOM     67  C   UNL A   1      38.307  31.453  36.347  1.00  0.00     0.012 A 
ATOM     68  C   UNL A   1      39.784  33.238  35.598  1.00  0.00     0.148 A 
ATOM     69  C   UNL A   1      37.857  32.253  37.396  1.00  0.00     0.002 A 
ATOM     70  C   UNL A   1      39.354  34.017  36.667  1.00  0.00     0.091 A 
ATOM     71  F   UNL A   1      40.672  33.692  34.702  1.00  0.00    -0.205 F 
ATOM     72  C   UNL A   1      38.388  33.530  37.561  1.00  0.00     0.022 A 
BRANCH  70  73
ATOM     73  S   UNL A   1      40.027  35.650  36.999  1.00  0.00     0.127 S 
ATOM     74  O   UNL A   1      39.652  36.376  35.786  1.00  0.00    -0.237 OA
ATOM     75  O   UNL A   1      39.293  36.051  38.200  1.00  0.00    -0.237 OA
ATOM     76  O   UNL A   1      41.455  35.456  37.200  1.00  0.00    -0.744 OA
ENDBRANCH  70  73
ENDBRANCH  52  66
BRANCH  53  77
ATOM     77  C   UNL A   1      42.452  26.400  27.772  1.00  0.00     0.023 A 
ATOM     78  C   UNL A   1      43.402  26.983  26.913  1.00  0.00     0.012 A 
ATOM     79  C   UNL A   1      42.041  25.072  27.542  1.00  0.00     0.148 A 
ATOM     80  C   UNL A   1      43.919  26.267  25.832  1.00  0.00     0.002 A 
ATOM     81  C   UNL A   1      42.599  24.347  26.495  1.00  0.00     0.091 A 
ATOM     82  F   UNL A   1      41.120  24.540  28.358  1.00  0.00    -0.205 F 
ATOM     83  C   UNL A   1      43.527  24.946  25.630  1.00  0.00     0.022 A 
BRANCH  81  84
ATOM     84  S   UNL A   1      42.249  22.600  26.261  1.00  0.00     0.127 S 
ATOM     85  O   UNL A   1      42.864  22.009  27.446  1.00  0.00    -0.237 OA
ATOM     86  O   UNL A   1      40.785  22.575  26.247  1.00  0.00    -0.237 OA
ATOM     87  O   UNL A   1      42.859  22.257  24.982  1.00  0.00    -0.744 OA
ENDBRANCH  81  84
ENDBRANCH  53  77
BRANCH  65  88
ATOM     88  C   UNL A   1      44.724  27.384  34.301  1.00  0.00     0.023 A 
ATOM     89  C   UNL A   1      45.886  28.179  34.318  1.00  0.00     0.012 A 
ATOM     90  C   UNL A   1      44.690  26.188  35.043  1.00  0.00     0.148 A 
ATOM     91  C   UNL A   1      47.005  27.783  35.046  1.00  0.00     0.002 A 
ATOM     92  C   UNL A   1      45.797  25.818  35.800  1.00  0.00     0.091 A 
ATOM     93  F   UNL A   1      43.582  25.434  34.996  1.00  0.00    -0.205 F 
ATOM     94  C   UNL A   1      46.956  26.609  35.796  1.00  0.00     0.022 A 
BRANCH  92  95
ATOM     95  S   UNL A   1      45.790  24.368  36.860  1.00  0.00     0.127 S 
ATOM     96  O   UNL A   1      47.126  24.419  37.447  1.00  0.00    -0.237 OA
ATOM     97  O   UNL A   1      44.702  24.666  37.793  1.00  0.00    -0.237 OA
ATOM     98  O   UNL A   1      45.531  23.236  35.980  1.00  0.00    -0.744 OA
ENDBRANCH  92  95
ENDBRANCH  65  88
ENDBRANCH  39  40
ENDBRANCH  31  34
ENDBRANCH  29  30
ENDBRANCH  28  29
ENDBRANCH   1  28
TORSDOF 18
ENDMDL
MODEL 3
REMARK VINA RESULT:     -11.8      3.500      8.669
REMARK SMILES Cn1cc(S(=O)(=O)N[C@@H]2C=C[C@@H](C(=O)NCCCCNC(=O)c3ccc(-c4c5nc(c(-c6cccc(S(=O)(=O)[O-])c6F)c6ccc([nH]6)c(-c6cccc(S(=O)(=O)[O-])c6F)c6nc(c(-c7cccc(S(=O)(=O)[O-])c7F)c7ccc4[nH]7)C=C6)C=C5)cc3)C2)cc1C(N)=O
REMARK SMILES IDX 17 1 16 2 15 3 13 4 14 5 12 7 9 8 10 9 86 10 11 11 8 12 5 14
REMARK SMILES IDX 6 15 7 16 4 17 1 18 2 19 3 20 88 21 87 22 89 23 90 24 91 25
REMARK SMILES IDX 18 28 19 29 20 30 21 31 22 33 23 34 24 35 85 36 25 37 84 38
REMARK SMILES IDX 26 39 27 40 28 41 78 42 29 43 83 44 77 45 79 46 30 47 82 48
REMARK SMILES IDX 76 49 75 50 31 52 63 53 43 54 62 55 44 56 47 57 61 58 80 59
REMARK SMILES IDX 45 60 46 61 60 63 81 64 48 65 32 66 33 67 41 68 34 69 36 70
REMARK SMILES IDX 42 71 35 72 37 73 38 74 39 75 40 76 64 77 65 78 73 79 66 80
REMARK SMILES IDX 68 81 74 82 67 83 69 84 70 85 71 86 72 87 49 88 50 89 58 90
REMARK SMILES IDX 51 91 53 92 59 93 52 94 54 95 55 96 56 97 57 98
REMARK H PARENT 15 6 8 13 90 26 90 27 20 32 79 51 47 62
REMARK Flexibility Score: inf
ROOT
ATOM      1  C   UNL A   1      31.565  30.021  25.739  1.00  0.00     0.023 C 
ENDROOT
BRANCH   1   2
ATOM      2  C   UNL A   1      31.187  29.531  24.348  1.00  0.00     0.116 C 
BRANCH   2   3
ATOM      3  N   UNL A   1      32.341  29.325  23.493  1.00  0.00    -0.356 N 
ATOM      4  C   UNL A   1      32.781  28.199  22.860  1.00  0.00     0.226 C 
ATOM      5  O   UNL A   1      33.745  28.303  22.096  1.00  0.00    -0.274 OA
ATOM      6  H   UNL A   1      32.896  30.125  23.347  1.00  0.00     0.163 HD
BRANCH   4   7
ATOM      7  C   UNL A   1      32.120  26.834  23.070  1.00  0.00     0.103 C 
ATOM      8  C   UNL A   1      31.115  25.620  24.968  1.00  0.00     0.093 C 
ATOM      9  C   UNL A   1      30.094  26.286  24.103  1.00  0.00    -0.011 C 
ATOM     10  C   UNL A   1      32.442  26.186  24.424  1.00  0.00     0.042 C 
ATOM     11  C   UNL A   1      30.626  26.909  23.047  1.00  0.00    -0.016 C 
BRANCH   8  12
ATOM     12  N   UNL A   1      31.094  24.163  24.769  1.00  0.00    -0.204 NA
ATOM     13  H   UNL A   1      30.149  23.911  24.478  1.00  0.00     0.142 HD
BRANCH  12  14
ATOM     14  S   UNL A   1      31.496  23.173  26.077  1.00  0.00     0.242 S 
ATOM     15  O   UNL A   1      30.669  21.989  26.024  1.00  0.00    -0.207 OA
ATOM     16  O   UNL A   1      31.554  24.024  27.243  1.00  0.00    -0.207 OA
BRANCH  14  17
ATOM     17  C   UNL A   1      33.114  22.610  25.879  1.00  0.00     0.100 A 
ATOM     18  C   UNL A   1      35.651  20.191  25.003  1.00  0.00     0.150 C 
ATOM     19  N   UNL A   1      34.881  21.362  25.368  1.00  0.00    -0.345 N 
ATOM     20  C   UNL A   1      33.516  21.337  25.541  1.00  0.00     0.107 A 
ATOM     21  C   UNL A   1      35.359  22.652  25.529  1.00  0.00     0.107 A 
ATOM     22  C   UNL A   1      34.279  23.407  25.971  1.00  0.00     0.055 A 
BRANCH  21  23
ATOM     23  C   UNL A   1      36.715  23.090  25.266  1.00  0.00     0.265 C 
ATOM     24  N   UNL A   1      37.002  23.323  23.951  1.00  0.00    -0.364 N 
ATOM     25  O   UNL A   1      37.592  23.216  26.112  1.00  0.00    -0.268 OA
ATOM     26  H   UNL A   1      36.299  23.223  23.269  1.00  0.00     0.160 HD
ATOM     27  H   UNL A   1      37.911  23.591  23.685  1.00  0.00     0.160 HD
ENDBRANCH  21  23
ENDBRANCH  14  17
ENDBRANCH  12  14
ENDBRANCH   8  12
ENDBRANCH   4   7
ENDBRANCH   2   3
ENDBRANCH   1   2
BRANCH   1  28
ATOM     28  C   UNL A   1      32.082  28.935  26.677  1.00  0.00     0.023 C 
BRANCH  28  29
ATOM     29  C   UNL A   1      33.469  29.185  27.263  1.00  0.00     0.116 C 
BRANCH  29  30
ATOM     30  N   UNL A   1      33.696  30.573  27.654  1.00  0.00    -0.352 N 
ATOM     31  C   UNL A   1      34.803  31.131  28.251  1.00  0.00     0.251 C 
ATOM     32  H   UNL A   1      32.956  31.194  27.465  1.00  0.00     0.163 HD
ATOM     33  O   UNL A   1      34.798  32.306  28.601  1.00  0.00    -0.269 OA
BRANCH  31  34
ATOM     34  C   UNL A   1      35.983  30.279  28.499  1.00  0.00     0.039 A 
ATOM     35  C   UNL A   1      37.039  30.309  27.586  1.00  0.00     0.014 A 
ATOM     36  C   UNL A   1      36.077  29.536  29.679  1.00  0.00     0.014 A 
ATOM     37  C   UNL A   1      38.241  29.676  27.910  1.00  0.00     0.010 A 
ATOM     38  C   UNL A   1      37.295  28.963  30.026  1.00  0.00     0.010 A 
ATOM     39  C   UNL A   1      38.394  29.049  29.159  1.00  0.00    -0.014 A 
BRANCH  39  40
ATOM     40  C   UNL A   1      39.715  28.554  29.619  1.00  0.00     0.031 A 
ATOM     41  C   UNL A   1      40.475  29.289  30.684  1.00  0.00     0.074 A 
ATOM     42  C   UNL A   1      40.285  27.515  28.974  1.00  0.00     0.049 A 
ATOM     43  N   UNL A   1      41.679  29.061  31.138  1.00  0.00    -0.248 NA
ATOM     44  C   UNL A   1      39.808  30.448  31.299  1.00  0.00     0.031 C 
ATOM     45  C   UNL A   1      39.686  26.780  27.857  1.00  0.00     0.029 A 
ATOM     46  N   UNL A   1      41.513  26.924  29.136  1.00  0.00    -0.354 N 
ATOM     47  C   UNL A   1      41.931  30.065  32.064  1.00  0.00     0.074 A 
ATOM     48  C   UNL A   1      40.763  30.920  32.089  1.00  0.00     0.031 C 
ATOM     49  C   UNL A   1      40.548  25.844  27.431  1.00  0.00     0.029 A 
ATOM     50  C   UNL A   1      41.770  25.926  28.224  1.00  0.00     0.049 A 
ATOM     51  H   UNL A   1      42.149  27.188  29.840  1.00  0.00     0.167 HD
ATOM     52  C   UNL A   1      43.023  30.241  32.844  1.00  0.00     0.034 A 
ATOM     53  C   UNL A   1      42.870  25.170  28.038  1.00  0.00     0.034 A 
ATOM     54  C   UNL A   1      44.156  29.357  32.858  1.00  0.00     0.049 A 
ATOM     55  C   UNL A   1      44.051  25.360  28.949  1.00  0.00     0.074 A 
ATOM     56  C   UNL A   1      45.252  29.379  33.703  1.00  0.00     0.029 A 
ATOM     57  N   UNL A   1      44.345  28.299  31.983  1.00  0.00    -0.354 N 
ATOM     58  N   UNL A   1      44.192  26.195  29.949  1.00  0.00    -0.248 NA
ATOM     59  C   UNL A   1      45.212  24.486  28.725  1.00  0.00     0.031 C 
ATOM     60  C   UNL A   1      46.110  28.338  33.330  1.00  0.00     0.029 A 
ATOM     61  C   UNL A   1      45.547  27.669  32.255  1.00  0.00     0.049 A 
ATOM     62  H   UNL A   1      43.717  28.036  31.272  1.00  0.00     0.167 HD
ATOM     63  C   UNL A   1      45.446  25.934  30.489  1.00  0.00     0.074 A 
ATOM     64  C   UNL A   1      46.013  24.844  29.720  1.00  0.00     0.031 C 
ATOM     65  C   UNL A   1      46.080  26.556  31.512  1.00  0.00     0.034 A 
BRANCH  52  66
ATOM     66  C   UNL A   1      43.012  31.397  33.806  1.00  0.00     0.023 A 
ATOM     67  C   UNL A   1      43.515  32.645  33.385  1.00  0.00     0.012 A 
ATOM     68  C   UNL A   1      42.456  31.272  35.093  1.00  0.00     0.148 A 
ATOM     69  C   UNL A   1      43.486  33.746  34.238  1.00  0.00     0.002 A 
ATOM     70  C   UNL A   1      42.401  32.384  35.926  1.00  0.00     0.091 A 
ATOM     71  F   UNL A   1      42.010  30.070  35.485  1.00  0.00    -0.205 F 
ATOM     72  C   UNL A   1      42.921  33.618  35.504  1.00  0.00     0.022 A 
BRANCH  70  73
ATOM     73  S   UNL A   1      41.632  32.333  37.550  1.00  0.00     0.127 S 
ATOM     74  O   UNL A   1      40.252  31.985  37.212  1.00  0.00    -0.237 OA
ATOM     75  O   UNL A   1      42.382  31.268  38.217  1.00  0.00    -0.237 OA
ATOM     76  O   UNL A   1      41.826  33.657  38.122  1.00  0.00    -0.744 OA
ENDBRANCH  70  73
ENDBRANCH  52  66
BRANCH  53  77
ATOM     77  C   UNL A   1      42.874  24.118  26.983  1.00  0.00     0.023 A 
ATOM     78  C   UNL A   1      43.568  24.354  25.782  1.00  0.00     0.012 A 
ATOM     79  C   UNL A   1      42.241  22.875  27.179  1.00  0.00     0.148 A 
ATOM     80  C   UNL A   1      43.615  23.380  24.784  1.00  0.00     0.002 A 
ATOM     81  C   UNL A   1      42.336  21.889  26.202  1.00  0.00     0.091 A 
ATOM     82  F   UNL A   1      41.567  22.675  28.321  1.00  0.00    -0.205 F 
ATOM     83  C   UNL A   1      43.011  22.144  24.999  1.00  0.00     0.022 A 
BRANCH  81  84
ATOM     84  S   UNL A   1      41.706  20.228  26.469  1.00  0.00     0.127 S 
ATOM     85  O   UNL A   1      42.280  19.893  27.769  1.00  0.00    -0.237 OA
ATOM     86  O   UNL A   1      40.257  20.441  26.470  1.00  0.00    -0.237 OA
ATOM     87  O   UNL A   1      42.188  19.450  25.335  1.00  0.00    -0.744 OA
ENDBRANCH  81  84
ENDBRANCH  53  77
BRANCH  65  88
ATOM     88  C   UNL A   1      47.464  26.081  31.865  1.00  0.00     0.023 A 
ATOM     89  C   UNL A   1      48.570  26.619  31.180  1.00  0.00     0.012 A 
ATOM     90  C   UNL A   1      47.675  25.171  32.918  1.00  0.00     0.148 A 
ATOM     91  C   UNL A   1      49.867  26.242  31.523  1.00  0.00     0.002 A 
ATOM     92  C   UNL A   1      48.973  24.829  33.282  1.00  0.00     0.091 A 
ATOM     93  F   UNL A   1      46.606  24.654  33.543  1.00  0.00    -0.205 F 
ATOM     94  C   UNL A   1      50.069  25.357  32.581  1.00  0.00     0.022 A 
BRANCH  92  95
ATOM     95  S   UNL A   1      49.325  23.764  34.685  1.00  0.00     0.127 S 
ATOM     96  O   UNL A   1      48.464  22.616  34.412  1.00  0.00    -0.237 OA
ATOM     97  O   UNL A   1      50.757  23.503  34.530  1.00  0.00    -0.237 OA
ATOM     98  O   UNL A   1      48.982  24.542  35.868  1.00  0.00    -0.744 OA
ENDBRANCH  92  95
ENDBRANCH  65  88
ENDBRANCH  39  40
ENDBRANCH  31  34
ENDBRANCH  29  30
ENDBRANCH  28  29
ENDBRANCH   1  28
TORSDOF 18
ENDMDL
