MODEL 1
REMARK VINA RESULT:     -11.7      0.000      0.000
REMARK SMILES O=C(CCS(=O)(=O)N1CCN(C(=O)[C@@H]2CCCO2)CC1)NCCCCNC(=O)c1ccc(-c2c3nc(c(-c4cccc(S(=O)(=O)[O-])c4F)c4ccc([nH]4)c(-c4cccc(S(=O)(=O)[O-])c4F)c4nc(c(-c5cccc(S(=O)(=O)[O-])c5F)c5ccc2[nH]5)C=C4)C=C3)cc1
REMARK SMILES IDX 23 1 22 2 21 3 1 4 2 5 3 7 4 8 5 9 6 10 7 11 8 12 9 13 20 14
REMARK SMILES IDX 10 15 19 16 11 17 12 18 13 19 14 20 15 21 18 22 16 23 17 24
REMARK SMILES IDX 24 25 25 26 26 27 27 28 28 30 29 31 30 32 91 33 31 34 90 35
REMARK SMILES IDX 32 36 33 37 34 38 84 39 35 40 89 41 83 42 85 43 36 44 88 45
REMARK SMILES IDX 82 46 81 47 37 49 69 50 49 51 68 52 50 53 53 54 67 55 86 56
REMARK SMILES IDX 51 57 52 58 66 60 87 61 54 62 38 63 39 64 47 65 40 66 42 67
REMARK SMILES IDX 48 68 41 69 43 70 44 71 45 72 46 73 70 74 71 75 79 76 72 77
REMARK SMILES IDX 74 78 80 79 73 80 75 81 76 82 77 83 78 84 55 85 56 86 64 87
REMARK SMILES IDX 57 88 59 89 65 90 58 91 60 92 61 93 62 94 63 95
REMARK H PARENT 21 6 26 29 85 48 53 59
REMARK Flexibility Score: inf
ROOT
ATOM      1  C   UNL A   1      33.207  28.747  27.046  1.00  0.00     0.023 C 
ENDROOT
BRANCH   1   2
ATOM      2  C   UNL A   1      31.853  28.029  26.892  1.00  0.00     0.116 C 
BRANCH   2   3
ATOM      3  N   UNL A   1      31.676  27.197  25.705  1.00  0.00    -0.356 N 
ATOM      4  O   UNL A   1      30.803  28.821  24.360  1.00  0.00    -0.275 OA
ATOM      5  C   UNL A   1      31.213  27.668  24.497  1.00  0.00     0.221 C 
ATOM      6  H   UNL A   1      31.903  26.242  25.773  1.00  0.00     0.163 HD
BRANCH   5   7
ATOM      7  C   UNL A   1      31.173  26.714  23.292  1.00  0.00     0.117 C 
BRANCH   7   8
ATOM      8  C   UNL A   1      31.837  25.358  23.417  1.00  0.00     0.164 C 
BRANCH   8   9
ATOM      9  S   UNL A   1      33.603  25.276  23.146  1.00  0.00     0.214 S 
ATOM     10  O   UNL A   1      33.921  25.933  21.906  1.00  0.00    -0.212 OA
ATOM     11  O   UNL A   1      34.206  25.689  24.401  1.00  0.00    -0.212 OA
BRANCH   9  12
ATOM     12  N   UNL A   1      33.900  23.627  22.952  1.00  0.00    -0.198 NA
ATOM     13  C   UNL A   1      34.529  22.933  24.131  1.00  0.00     0.123 C 
ATOM     14  C   UNL A   1      32.863  22.810  22.232  1.00  0.00     0.123 C 
ATOM     15  C   UNL A   1      33.485  22.269  24.991  1.00  0.00     0.136 C 
ATOM     16  C   UNL A   1      32.165  21.693  23.053  1.00  0.00     0.136 C 
ATOM     17  N   UNL A   1      32.927  21.202  24.204  1.00  0.00    -0.338 N 
ATOM     18  C   UNL A   1      33.469  19.946  24.432  1.00  0.00     0.251 C 
ATOM     19  O   UNL A   1      34.634  19.835  24.837  1.00  0.00    -0.272 OA
BRANCH  18  20
ATOM     20  C   UNL A   1      32.633  18.687  24.224  1.00  0.00     0.207 C 
ATOM     21  C   UNL A   1      32.666  17.766  25.408  1.00  0.00     0.044 C 
ATOM     22  O   UNL A   1      33.020  17.963  23.064  1.00  0.00    -0.368 OA
ATOM     23  C   UNL A   1      33.416  16.577  24.894  1.00  0.00     0.032 C 
ATOM     24  C   UNL A   1      33.779  16.837  23.460  1.00  0.00     0.161 C 
ENDBRANCH  18  20
ENDBRANCH   9  12
ENDBRANCH   8   9
ENDBRANCH   7   8
ENDBRANCH   5   7
ENDBRANCH   2   3
ENDBRANCH   1   2
BRANCH   1  25
ATOM     25  C   UNL A   1      33.309  30.293  27.176  1.00  0.00     0.023 C 
BRANCH  25  26
ATOM     26  C   UNL A   1      32.150  31.240  26.765  1.00  0.00     0.116 C 
BRANCH  26  27
ATOM     27  N   UNL A   1      32.301  32.620  27.234  1.00  0.00    -0.352 N 
ATOM     28  C   UNL A   1      33.249  33.343  27.942  1.00  0.00     0.251 C 
ATOM     29  H   UNL A   1      31.531  33.179  26.980  1.00  0.00     0.163 HD
ATOM     30  O   UNL A   1      32.980  34.534  28.132  1.00  0.00    -0.269 OA
BRANCH  28  31
ATOM     31  C   UNL A   1      34.531  32.832  28.545  1.00  0.00     0.039 A 
ATOM     32  C   UNL A   1      34.480  32.328  29.866  1.00  0.00     0.014 A 
ATOM     33  C   UNL A   1      35.788  32.884  27.949  1.00  0.00     0.014 A 
ATOM     34  C   UNL A   1      35.613  31.777  30.527  1.00  0.00     0.010 A 
ATOM     35  C   UNL A   1      36.918  32.298  28.603  1.00  0.00     0.010 A 
ATOM     36  C   UNL A   1      36.852  31.680  29.884  1.00  0.00    -0.014 A 
BRANCH  36  37
ATOM     37  C   UNL A   1      38.046  30.921  30.476  1.00  0.00     0.031 A 
ATOM     38  C   UNL A   1      38.673  31.405  31.771  1.00  0.00     0.074 A 
ATOM     39  C   UNL A   1      38.685  29.876  29.876  1.00  0.00     0.049 A 
ATOM     40  N   UNL A   1      39.735  30.956  32.399  1.00  0.00    -0.248 NA
ATOM     41  C   UNL A   1      38.017  32.531  32.451  1.00  0.00     0.031 C 
ATOM     42  C   UNL A   1      38.280  29.171  28.662  1.00  0.00     0.029 A 
ATOM     43  N   UNL A   1      39.894  29.256  30.183  1.00  0.00    -0.354 N 
ATOM     44  C   UNL A   1      39.863  31.731  33.543  1.00  0.00     0.074 A 
ATOM     45  C   UNL A   1      38.840  32.752  33.464  1.00  0.00     0.031 C 
ATOM     46  C   UNL A   1      39.274  28.370  28.237  1.00  0.00     0.029 A 
ATOM     47  C   UNL A   1      40.367  28.402  29.201  1.00  0.00     0.049 A 
ATOM     48  H   UNL A   1      40.373  29.414  31.028  1.00  0.00     0.167 HD
ATOM     49  C   UNL A   1      40.683  31.579  34.613  1.00  0.00     0.034 A 
ATOM     50  C   UNL A   1      41.514  27.691  29.076  1.00  0.00     0.034 A 
ATOM     51  C   UNL A   1      41.694  30.569  34.760  1.00  0.00     0.049 A 
ATOM     52  C   UNL A   1      42.480  27.593  30.234  1.00  0.00     0.074 A 
ATOM     53  C   UNL A   1      42.482  30.301  35.868  1.00  0.00     0.029 A 
ATOM     54  N   UNL A   1      42.085  29.683  33.773  1.00  0.00    -0.354 N 
ATOM     55  N   UNL A   1      42.421  28.173  31.405  1.00  0.00    -0.248 NA
ATOM     56  C   UNL A   1      43.613  26.658  30.095  1.00  0.00     0.031 C 
ATOM     57  C   UNL A   1      43.380  29.280  35.536  1.00  0.00     0.029 A 
ATOM     58  C   UNL A   1      43.120  28.884  34.237  1.00  0.00     0.049 A 
ATOM     59  H   UNL A   1      41.689  29.628  32.874  1.00  0.00     0.167 HD
ATOM     60  C   UNL A   1      43.446  27.610  32.163  1.00  0.00     0.074 A 
ATOM     61  C   UNL A   1      44.122  26.652  31.321  1.00  0.00     0.031 C 
ATOM     62  C   UNL A   1      43.773  27.868  33.453  1.00  0.00     0.034 A 
BRANCH  49  63
ATOM     63  C   UNL A   1      40.445  32.506  35.776  1.00  0.00     0.023 A 
ATOM     64  C   UNL A   1      41.230  33.673  35.892  1.00  0.00     0.012 A 
ATOM     65  C   UNL A   1      39.444  32.243  36.728  1.00  0.00     0.148 A 
ATOM     66  C   UNL A   1      41.069  34.530  36.978  1.00  0.00     0.002 A 
ATOM     67  C   UNL A   1      39.253  33.132  37.777  1.00  0.00     0.091 A 
ATOM     68  F   UNL A   1      38.715  31.126  36.600  1.00  0.00    -0.205 F 
ATOM     69  C   UNL A   1      40.077  34.263  37.915  1.00  0.00     0.022 A 
BRANCH  67  70
ATOM     70  S   UNL A   1      37.953  32.926  38.996  1.00  0.00     0.127 S 
ATOM     71  O   UNL A   1      38.024  34.195  39.717  1.00  0.00    -0.237 OA
ATOM     72  O   UNL A   1      36.767  32.768  38.154  1.00  0.00    -0.237 OA
ATOM     73  O   UNL A   1      38.312  31.747  39.771  1.00  0.00    -0.744 OA
ENDBRANCH  67  70
ENDBRANCH  49  63
BRANCH  50  74
ATOM     74  C   UNL A   1      41.794  26.873  27.848  1.00  0.00     0.023 A 
ATOM     75  C   UNL A   1      42.164  27.529  26.656  1.00  0.00     0.012 A 
ATOM     76  C   UNL A   1      41.601  25.475  27.826  1.00  0.00     0.148 A 
ATOM     77  C   UNL A   1      42.285  26.824  25.456  1.00  0.00     0.002 A 
ATOM     78  C   UNL A   1      41.759  24.772  26.632  1.00  0.00     0.091 A 
ATOM     79  F   UNL A   1      41.237  24.868  28.964  1.00  0.00    -0.205 F 
ATOM     80  C   UNL A   1      42.083  25.448  25.444  1.00  0.00     0.022 A 
BRANCH  78  81
ATOM     81  S   UNL A   1      41.573  22.988  26.503  1.00  0.00     0.127 S 
ATOM     82  O   UNL A   1      40.119  22.834  26.532  1.00  0.00    -0.237 OA
ATOM     83  O   UNL A   1      42.190  22.720  25.204  1.00  0.00    -0.237 OA
ATOM     84  O   UNL A   1      42.280  22.431  27.647  1.00  0.00    -0.744 OA
ENDBRANCH  78  81
ENDBRANCH  50  74
BRANCH  62  85
ATOM     85  C   UNL A   1      44.871  27.063  34.108  1.00  0.00     0.023 A 
ATOM     86  C   UNL A   1      46.209  27.500  34.054  1.00  0.00     0.012 A 
ATOM     87  C   UNL A   1      44.555  25.918  34.871  1.00  0.00     0.148 A 
ATOM     88  C   UNL A   1      47.215  26.800  34.726  1.00  0.00     0.002 A 
ATOM     89  C   UNL A   1      45.553  25.257  35.580  1.00  0.00     0.091 A 
ATOM     90  F   UNL A   1      43.282  25.500  34.898  1.00  0.00    -0.205 F 
ATOM     91  C   UNL A   1      46.885  25.690  35.500  1.00  0.00     0.022 A 
BRANCH  89  92
ATOM     92  S   UNL A   1      45.208  23.882  36.685  1.00  0.00     0.127 S 
ATOM     93  O   UNL A   1      46.547  23.532  37.155  1.00  0.00    -0.237 OA
ATOM     94  O   UNL A   1      44.352  24.504  37.697  1.00  0.00    -0.237 OA
ATOM     95  O   UNL A   1      44.548  22.868  35.875  1.00  0.00    -0.744 OA
ENDBRANCH  89  92
ENDBRANCH  62  85
ENDBRANCH  36  37
ENDBRANCH  28  31
ENDBRANCH  26  27
ENDBRANCH  25  26
ENDBRANCH   1  25
TORSDOF 18
ENDMDL
MODEL 2
REMARK VINA RESULT:     -11.4      1.713      7.758
REMARK SMILES O=C(CCS(=O)(=O)N1CCN(C(=O)[C@@H]2CCCO2)CC1)NCCCCNC(=O)c1ccc(-c2c3nc(c(-c4cccc(S(=O)(=O)[O-])c4F)c4ccc([nH]4)c(-c4cccc(S(=O)(=O)[O-])c4F)c4nc(c(-c5cccc(S(=O)(=O)[O-])c5F)c5ccc2[nH]5)C=C4)C=C3)cc1
REMARK SMILES IDX 23 1 22 2 21 3 1 4 2 5 3 7 4 8 5 9 6 10 7 11 8 12 9 13 20 14
REMARK SMILES IDX 10 15 19 16 11 17 12 18 13 19 14 20 15 21 18 22 16 23 17 24
REMARK SMILES IDX 24 25 25 26 26 27 27 28 28 30 29 31 30 32 91 33 31 34 90 35
REMARK SMILES IDX 32 36 33 37 34 38 84 39 35 40 89 41 83 42 85 43 36 44 88 45
REMARK SMILES IDX 82 46 81 47 37 49 69 50 49 51 68 52 50 53 53 54 67 55 86 56
REMARK SMILES IDX 51 57 52 58 66 60 87 61 54 62 38 63 39 64 47 65 40 66 42 67
REMARK SMILES IDX 48 68 41 69 43 70 44 71 45 72 46 73 70 74 71 75 79 76 72 77
REMARK SMILES IDX 74 78 80 79 73 80 75 81 76 82 77 83 78 84 55 85 56 86 64 87
REMARK SMILES IDX 57 88 59 89 65 90 58 91 60 92 61 93 62 94 63 95
REMARK H PARENT 21 6 26 29 85 48 53 59
REMARK Flexibility Score: inf
ROOT
ATOM      1  C   UNL A   1      30.331  28.550  23.450  1.00  0.00     0.023 C 
ENDROOT
BRANCH   1   2
ATOM      2  C   UNL A   1      30.885  27.591  22.379  1.00  0.00     0.116 C 
BRANCH   2   3
ATOM      3  N   UNL A   1      31.765  26.521  22.840  1.00  0.00    -0.356 N 
ATOM      4  O   UNL A   1      33.658  27.254  21.797  1.00  0.00    -0.275 OA
ATOM      5  C   UNL A   1      33.112  26.457  22.561  1.00  0.00     0.221 C 
ATOM      6  H   UNL A   1      31.370  25.802  23.383  1.00  0.00     0.163 HD
BRANCH   5   7
ATOM      7  C   UNL A   1      33.950  25.336  23.194  1.00  0.00     0.117 C 
BRANCH   7   8
ATOM      8  C   UNL A   1      33.240  24.107  23.724  1.00  0.00     0.164 C 
BRANCH   8   9
ATOM      9  S   UNL A   1      32.998  23.993  25.492  1.00  0.00     0.214 S 
ATOM     10  O   UNL A   1      34.011  24.769  26.157  1.00  0.00    -0.212 OA
ATOM     11  O   UNL A   1      31.584  24.245  25.706  1.00  0.00    -0.212 OA
BRANCH   9  12
ATOM     12  N   UNL A   1      33.287  22.366  25.829  1.00  0.00    -0.198 NA
ATOM     13  C   UNL A   1      32.112  21.442  25.642  1.00  0.00     0.123 C 
ATOM     14  C   UNL A   1      34.606  21.786  25.401  1.00  0.00     0.123 C 
ATOM     15  C   UNL A   1      32.147  20.787  24.284  1.00  0.00     0.136 C 
ATOM     16  C   UNL A   1      34.557  20.652  24.343  1.00  0.00     0.136 C 
ATOM     17  N   UNL A   1      33.293  19.916  24.282  1.00  0.00    -0.338 N 
ATOM     18  C   UNL A   1      33.030  18.586  24.574  1.00  0.00     0.251 C 
ATOM     19  O   UNL A   1      32.059  18.283  25.280  1.00  0.00    -0.272 OA
BRANCH  18  20
ATOM     20  C   UNL A   1      33.908  17.475  24.005  1.00  0.00     0.207 C 
ATOM     21  C   UNL A   1      33.327  16.109  24.219  1.00  0.00     0.044 C 
ATOM     22  O   UNL A   1      35.228  17.503  24.529  1.00  0.00    -0.368 OA
ATOM     23  C   UNL A   1      34.278  15.483  25.191  1.00  0.00     0.032 C 
ATOM     24  C   UNL A   1      35.359  16.480  25.496  1.00  0.00     0.161 C 
ENDBRANCH  18  20
ENDBRANCH   9  12
ENDBRANCH   8   9
ENDBRANCH   7   8
ENDBRANCH   5   7
ENDBRANCH   2   3
ENDBRANCH   1   2
BRANCH   1  25
ATOM     25  C   UNL A   1      30.998  28.698  24.846  1.00  0.00     0.023 C 
BRANCH  25  26
ATOM     26  C   UNL A   1      32.288  29.533  25.067  1.00  0.00     0.116 C 
BRANCH  26  27
ATOM     27  N   UNL A   1      32.102  30.726  25.898  1.00  0.00    -0.352 N 
ATOM     28  C   UNL A   1      32.829  31.396  26.870  1.00  0.00     0.251 C 
ATOM     29  H   UNL A   1      31.239  31.165  25.719  1.00  0.00     0.163 HD
ATOM     30  O   UNL A   1      32.290  32.405  27.338  1.00  0.00    -0.269 OA
BRANCH  28  31
ATOM     31  C   UNL A   1      34.163  31.007  27.450  1.00  0.00     0.039 A 
ATOM     32  C   UNL A   1      35.093  32.042  27.704  1.00  0.00     0.014 A 
ATOM     33  C   UNL A   1      34.602  29.708  27.685  1.00  0.00     0.014 A 
ATOM     34  C   UNL A   1      36.368  31.808  28.292  1.00  0.00     0.010 A 
ATOM     35  C   UNL A   1      35.870  29.478  28.307  1.00  0.00     0.010 A 
ATOM     36  C   UNL A   1      36.764  30.523  28.678  1.00  0.00    -0.014 A 
BRANCH  36  37
ATOM     37  C   UNL A   1      38.036  30.246  29.488  1.00  0.00     0.031 A 
ATOM     38  C   UNL A   1      39.002  29.172  29.022  1.00  0.00     0.074 A 
ATOM     39  C   UNL A   1      38.342  30.823  30.686  1.00  0.00     0.049 A 
ATOM     40  N   UNL A   1      40.093  28.727  29.602  1.00  0.00    -0.248 NA
ATOM     41  C   UNL A   1      38.709  28.523  27.737  1.00  0.00     0.031 C 
ATOM     42  C   UNL A   1      37.633  31.914  31.350  1.00  0.00     0.029 A 
ATOM     43  N   UNL A   1      39.325  30.505  31.620  1.00  0.00    -0.354 N 
ATOM     44  C   UNL A   1      40.616  27.763  28.750  1.00  0.00     0.074 A 
ATOM     45  C   UNL A   1      39.662  27.607  27.672  1.00  0.00     0.031 C 
ATOM     46  C   UNL A   1      38.069  32.050  32.616  1.00  0.00     0.029 A 
ATOM     47  C   UNL A   1      39.178  31.132  32.846  1.00  0.00     0.049 A 
ATOM     48  H   UNL A   1      40.063  29.884  31.425  1.00  0.00     0.167 HD
ATOM     49  C   UNL A   1      41.809  27.120  28.789  1.00  0.00     0.034 A 
ATOM     50  C   UNL A   1      39.851  31.031  34.017  1.00  0.00     0.034 A 
ATOM     51  C   UNL A   1      42.806  27.258  29.815  1.00  0.00     0.049 A 
ATOM     52  C   UNL A   1      41.135  30.237  34.092  1.00  0.00     0.074 A 
ATOM     53  C   UNL A   1      44.079  26.713  29.851  1.00  0.00     0.029 A 
ATOM     54  N   UNL A   1      42.642  27.959  30.995  1.00  0.00    -0.354 N 
ATOM     55  N   UNL A   1      41.717  29.526  33.161  1.00  0.00    -0.248 NA
ATOM     56  C   UNL A   1      41.912  30.320  35.344  1.00  0.00     0.031 C 
ATOM     57  C   UNL A   1      44.670  27.050  31.074  1.00  0.00     0.029 A 
ATOM     58  C   UNL A   1      43.781  27.840  31.779  1.00  0.00     0.049 A 
ATOM     59  H   UNL A   1      41.837  28.467  31.244  1.00  0.00     0.167 HD
ATOM     60  C   UNL A   1      42.957  29.157  33.680  1.00  0.00     0.074 A 
ATOM     61  C   UNL A   1      43.042  29.708  35.012  1.00  0.00     0.031 C 
ATOM     62  C   UNL A   1      43.935  28.434  33.081  1.00  0.00     0.034 A 
BRANCH  49  63
ATOM     63  C   UNL A   1      42.140  26.252  27.603  1.00  0.00     0.023 A 
ATOM     64  C   UNL A   1      42.759  26.838  26.478  1.00  0.00     0.012 A 
ATOM     65  C   UNL A   1      41.866  24.873  27.607  1.00  0.00     0.148 A 
ATOM     66  C   UNL A   1      43.040  26.077  25.347  1.00  0.00     0.002 A 
ATOM     67  C   UNL A   1      42.199  24.111  26.496  1.00  0.00     0.091 A 
ATOM     68  F   UNL A   1      41.273  24.340  28.684  1.00  0.00    -0.205 F 
ATOM     69  C   UNL A   1      42.766  24.713  25.359  1.00  0.00     0.022 A 
BRANCH  67  70
ATOM     70  S   UNL A   1      41.963  22.333  26.435  1.00  0.00     0.127 S 
ATOM     71  O   UNL A   1      42.605  21.996  25.166  1.00  0.00    -0.237 OA
ATOM     72  O   UNL A   1      42.690  21.888  27.624  1.00  0.00    -0.237 OA
ATOM     73  O   UNL A   1      40.524  22.117  26.484  1.00  0.00    -0.744 OA
ENDBRANCH  67  70
ENDBRANCH  49  63
BRANCH  50  74
ATOM     74  C   UNL A   1      39.427  31.807  35.230  1.00  0.00     0.023 A 
ATOM     75  C   UNL A   1      38.484  31.241  36.113  1.00  0.00     0.012 A 
ATOM     76  C   UNL A   1      39.868  33.128  35.460  1.00  0.00     0.148 A 
ATOM     77  C   UNL A   1      37.948  31.986  37.166  1.00  0.00     0.002 A 
ATOM     78  C   UNL A   1      39.357  33.853  36.535  1.00  0.00     0.091 A 
ATOM     79  F   UNL A   1      40.755  33.656  34.605  1.00  0.00    -0.205 F 
ATOM     80  C   UNL A   1      38.384  33.290  37.377  1.00  0.00     0.022 A 
BRANCH  78  81
ATOM     81  S   UNL A   1      39.879  35.527  36.938  1.00  0.00     0.127 S 
ATOM     82  O   UNL A   1      39.125  35.791  38.163  1.00  0.00    -0.237 OA
ATOM     83  O   UNL A   1      41.318  35.349  37.133  1.00  0.00    -0.237 OA
ATOM     84  O   UNL A   1      39.509  36.345  35.793  1.00  0.00    -0.744 OA
ENDBRANCH  78  81
ENDBRANCH  50  74
BRANCH  62  85
ATOM     85  C   UNL A   1      45.247  28.233  33.802  1.00  0.00     0.023 A 
ATOM     86  C   UNL A   1      46.281  29.182  33.685  1.00  0.00     0.012 A 
ATOM     87  C   UNL A   1      45.413  27.145  34.686  1.00  0.00     0.148 A 
ATOM     88  C   UNL A   1      47.465  29.039  34.413  1.00  0.00     0.002 A 
ATOM     89  C   UNL A   1      46.572  27.038  35.448  1.00  0.00     0.091 A 
ATOM     90  F   UNL A   1      44.431  26.238  34.774  1.00  0.00    -0.205 F 
ATOM     91  C   UNL A   1      47.604  27.978  35.304  1.00  0.00     0.022 A 
BRANCH  89  92
ATOM     92  S   UNL A   1      46.797  25.765  36.696  1.00  0.00     0.127 S 
ATOM     93  O   UNL A   1      46.854  24.553  35.881  1.00  0.00    -0.237 OA
ATOM     94  O   UNL A   1      48.072  26.149  37.305  1.00  0.00    -0.237 OA
ATOM     95  O   UNL A   1      45.648  25.862  37.586  1.00  0.00    -0.744 OA
ENDBRANCH  89  92
ENDBRANCH  62  85
ENDBRANCH  36  37
ENDBRANCH  28  31
ENDBRANCH  26  27
ENDBRANCH  25  26
ENDBRANCH   1  25
TORSDOF 18
ENDMDL
MODEL 3
REMARK VINA RESULT:     -11.4      1.926      7.732
REMARK SMILES O=C(CCS(=O)(=O)N1CCN(C(=O)[C@@H]2CCCO2)CC1)NCCCCNC(=O)c1ccc(-c2c3nc(c(-c4cccc(S(=O)(=O)[O-])c4F)c4ccc([nH]4)c(-c4cccc(S(=O)(=O)[O-])c4F)c4nc(c(-c5cccc(S(=O)(=O)[O-])c5F)c5ccc2[nH]5)C=C4)C=C3)cc1
REMARK SMILES IDX 23 1 22 2 21 3 1 4 2 5 3 7 4 8 5 9 6 10 7 11 8 12 9 13 20 14
REMARK SMILES IDX 10 15 19 16 11 17 12 18 13 19 14 20 15 21 18 22 16 23 17 24
REMARK SMILES IDX 24 25 25 26 26 27 27 28 28 30 29 31 30 32 91 33 31 34 90 35
REMARK SMILES IDX 32 36 33 37 34 38 84 39 35 40 89 41 83 42 85 43 36 44 88 45
REMARK SMILES IDX 82 46 81 47 37 49 69 50 49 51 68 52 50 53 53 54 67 55 86 56
REMARK SMILES IDX 51 57 52 58 66 60 87 61 54 62 38 63 39 64 47 65 40 66 42 67
REMARK SMILES IDX 48 68 41 69 43 70 44 71 45 72 46 73 70 74 71 75 79 76 72 77
REMARK SMILES IDX 74 78 80 79 73 80 75 81 76 82 77 83 78 84 55 85 56 86 64 87
REMARK SMILES IDX 57 88 59 89 65 90 58 91 60 92 61 93 62 94 63 95
REMARK H PARENT 21 6 26 29 85 48 53 59
REMARK Flexibility Score: inf
ROOT
ATOM      1  C   UNL A   1      34.145  30.474  27.198  1.00  0.00     0.023 C 
ENDROOT
BRANCH   1   2
ATOM      2  C   UNL A   1      34.153  28.950  27.419  1.00  0.00     0.116 C 
BRANCH   2   3
ATOM      3  N   UNL A   1      33.296  28.150  26.547  1.00  0.00    -0.356 N 
ATOM      4  O   UNL A   1      31.587  27.861  28.033  1.00  0.00    -0.275 OA
ATOM      5  C   UNL A   1      32.041  27.706  26.898  1.00  0.00     0.221 C 
ATOM      6  H   UNL A   1      33.637  27.915  25.655  1.00  0.00     0.163 HD
BRANCH   5   7
ATOM      7  C   UNL A   1      31.195  26.964  25.852  1.00  0.00     0.117 C 
BRANCH   7   8
ATOM      8  C   UNL A   1      31.740  25.685  25.251  1.00  0.00     0.164 C 
BRANCH   8   9
ATOM      9  S   UNL A   1      32.728  25.827  23.766  1.00  0.00     0.214 S 
ATOM     10  O   UNL A   1      31.904  26.330  22.699  1.00  0.00    -0.212 OA
ATOM     11  O   UNL A   1      33.943  26.509  24.175  1.00  0.00    -0.212 OA
BRANCH   9  12
ATOM     12  N   UNL A   1      33.132  24.231  23.402  1.00  0.00    -0.198 NA
ATOM     13  C   UNL A   1      34.358  23.694  24.094  1.00  0.00     0.123 C 
ATOM     14  C   UNL A   1      32.011  23.238  23.268  1.00  0.00     0.123 C 
ATOM     15  C   UNL A   1      33.988  22.929  25.339  1.00  0.00     0.136 C 
ATOM     16  C   UNL A   1      31.986  22.075  24.294  1.00  0.00     0.136 C 
ATOM     17  N   UNL A   1      33.279  21.756  24.901  1.00  0.00    -0.338 N 
ATOM     18  C   UNL A   1      34.044  20.604  24.795  1.00  0.00     0.251 C 
ATOM     19  O   UNL A   1      35.259  20.681  24.565  1.00  0.00    -0.272 OA
BRANCH  18  20
ATOM     20  C   UNL A   1      33.414  19.228  24.991  1.00  0.00     0.207 C 
ATOM     21  C   UNL A   1      34.304  18.111  24.535  1.00  0.00     0.044 C 
ATOM     22  O   UNL A   1      32.155  19.110  24.344  1.00  0.00    -0.368 OA
ATOM     23  C   UNL A   1      33.579  17.562  23.345  1.00  0.00     0.032 C 
ATOM     24  C   UNL A   1      32.317  18.355  23.160  1.00  0.00     0.161 C 
ENDBRANCH  18  20
ENDBRANCH   9  12
ENDBRANCH   8   9
ENDBRANCH   7   8
ENDBRANCH   5   7
ENDBRANCH   2   3
ENDBRANCH   1   2
BRANCH   1  25
ATOM     25  C   UNL A   1      32.965  31.368  27.672  1.00  0.00     0.023 C 
BRANCH  25  26
ATOM     26  C   UNL A   1      32.288  32.413  26.744  1.00  0.00     0.116 C 
BRANCH  26  27
ATOM     27  N   UNL A   1      32.141  33.744  27.338  1.00  0.00    -0.352 N 
ATOM     28  C   UNL A   1      32.854  34.532  28.228  1.00  0.00     0.251 C 
ATOM     29  H   UNL A   1      31.325  34.197  27.023  1.00  0.00     0.163 HD
ATOM     30  O   UNL A   1      32.363  35.640  28.473  1.00  0.00    -0.269 OA
BRANCH  28  31
ATOM     31  C   UNL A   1      34.118  34.173  28.963  1.00  0.00     0.039 A 
ATOM     32  C   UNL A   1      34.009  33.844  30.334  1.00  0.00     0.014 A 
ATOM     33  C   UNL A   1      35.406  34.213  28.436  1.00  0.00     0.014 A 
ATOM     34  C   UNL A   1      35.124  33.445  31.125  1.00  0.00     0.010 A 
ATOM     35  C   UNL A   1      36.520  33.778  29.223  1.00  0.00     0.010 A 
ATOM     36  C   UNL A   1      36.403  33.330  30.569  1.00  0.00    -0.014 A 
BRANCH  36  37
ATOM     37  C   UNL A   1      37.591  32.719  31.322  1.00  0.00     0.031 A 
ATOM     38  C   UNL A   1      38.247  31.458  30.789  1.00  0.00     0.074 A 
ATOM     39  C   UNL A   1      38.068  33.160  32.522  1.00  0.00     0.049 A 
ATOM     40  N   UNL A   1      39.211  30.737  31.314  1.00  0.00    -0.248 NA
ATOM     41  C   UNL A   1      37.762  30.948  29.499  1.00  0.00     0.031 C 
ATOM     42  C   UNL A   1      37.671  34.368  33.242  1.00  0.00     0.029 A 
ATOM     43  N   UNL A   1      38.970  32.576  33.408  1.00  0.00    -0.354 N 
ATOM     44  C   UNL A   1      39.452  29.706  30.416  1.00  0.00     0.074 A 
ATOM     45  C   UNL A   1      38.457  29.828  29.372  1.00  0.00     0.031 C 
ATOM     46  C   UNL A   1      38.166  34.346  34.493  1.00  0.00     0.029 A 
ATOM     47  C   UNL A   1      39.020  33.175  34.655  1.00  0.00     0.049 A 
ATOM     48  H   UNL A   1      39.525  31.799  33.167  1.00  0.00     0.167 HD
ATOM     49  C   UNL A   1      40.450  28.788  30.391  1.00  0.00     0.034 A 
ATOM     50  C   UNL A   1      39.683  32.870  35.796  1.00  0.00     0.034 A 
ATOM     51  C   UNL A   1      41.481  28.639  31.381  1.00  0.00     0.049 A 
ATOM     52  C   UNL A   1      40.732  31.781  35.799  1.00  0.00     0.074 A 
ATOM     53  C   UNL A   1      42.580  27.796  31.353  1.00  0.00     0.029 A 
ATOM     54  N   UNL A   1      41.533  29.315  32.585  1.00  0.00    -0.354 N 
ATOM     55  N   UNL A   1      41.092  30.983  34.827  1.00  0.00    -0.248 NA
ATOM     56  C   UNL A   1      41.544  31.625  37.022  1.00  0.00     0.031 C 
ATOM     57  C   UNL A   1      43.274  27.932  32.560  1.00  0.00     0.029 A 
ATOM     58  C   UNL A   1      42.630  28.892  33.320  1.00  0.00     0.049 A 
ATOM     59  H   UNL A   1      40.886  29.997  32.879  1.00  0.00     0.167 HD
ATOM     60  C   UNL A   1      42.217  30.301  35.287  1.00  0.00     0.074 A 
ATOM     61  C   UNL A   1      42.477  30.766  36.629  1.00  0.00     0.031 C 
ATOM     62  C   UNL A   1      42.966  29.382  34.631  1.00  0.00     0.034 A 
BRANCH  49  63
ATOM     63  C   UNL A   1      40.519  27.908  29.170  1.00  0.00     0.023 A 
ATOM     64  C   UNL A   1      39.661  26.791  29.083  1.00  0.00     0.012 A 
ATOM     65  C   UNL A   1      41.401  28.192  28.113  1.00  0.00     0.148 A 
ATOM     66  C   UNL A   1      39.727  25.930  27.991  1.00  0.00     0.002 A 
ATOM     67  C   UNL A   1      41.423  27.359  27.003  1.00  0.00     0.091 A 
ATOM     68  F   UNL A   1      42.211  29.254  28.221  1.00  0.00    -0.205 F 
ATOM     69  C   UNL A   1      40.602  26.219  26.949  1.00  0.00     0.022 A 
BRANCH  67  70
ATOM     70  S   UNL A   1      42.454  27.681  25.570  1.00  0.00     0.127 S 
ATOM     71  O   UNL A   1      41.899  28.944  25.088  1.00  0.00    -0.237 OA
ATOM     72  O   UNL A   1      43.784  27.788  26.169  1.00  0.00    -0.237 OA
ATOM     73  O   UNL A   1      42.275  26.541  24.682  1.00  0.00    -0.744 OA
ENDBRANCH  67  70
ENDBRANCH  49  63
BRANCH  50  74
ATOM     74  C   UNL A   1      39.502  33.682  37.046  1.00  0.00     0.023 A 
ATOM     75  C   UNL A   1      40.195  34.905  37.176  1.00  0.00     0.012 A 
ATOM     76  C   UNL A   1      38.740  33.211  38.135  1.00  0.00     0.148 A 
ATOM     77  C   UNL A   1      40.176  35.615  38.378  1.00  0.00     0.002 A 
ATOM     78  C   UNL A   1      38.696  33.944  39.320  1.00  0.00     0.091 A 
ATOM     79  F   UNL A   1      38.098  32.041  38.000  1.00  0.00    -0.205 F 
ATOM     80  C   UNL A   1      39.428  35.136  39.449  1.00  0.00     0.022 A 
BRANCH  78  81
ATOM     81  S   UNL A   1      37.726  33.452  40.753  1.00  0.00     0.127 S 
ATOM     82  O   UNL A   1      36.441  33.111  40.144  1.00  0.00    -0.237 OA
ATOM     83  O   UNL A   1      38.490  32.308  41.249  1.00  0.00    -0.237 OA
ATOM     84  O   UNL A   1      37.706  34.609  41.636  1.00  0.00    -0.744 OA
ENDBRANCH  78  81
ENDBRANCH  50  74
BRANCH  62  85
ATOM     85  C   UNL A   1      44.210  28.838  35.296  1.00  0.00     0.023 A 
ATOM     86  C   UNL A   1      45.463  29.443  35.075  1.00  0.00     0.012 A 
ATOM     87  C   UNL A   1      44.114  27.782  36.228  1.00  0.00     0.148 A 
ATOM     88  C   UNL A   1      46.600  28.992  35.749  1.00  0.00     0.002 A 
ATOM     89  C   UNL A   1      45.241  27.374  36.935  1.00  0.00     0.091 A 
ATOM     90  F   UNL A   1      42.921  27.201  36.414  1.00  0.00    -0.205 F 
ATOM     91  C   UNL A   1      46.487  27.970  36.688  1.00  0.00     0.022 A 
BRANCH  89  92
ATOM     92  S   UNL A   1      45.172  26.138  38.238  1.00  0.00     0.127 S 
ATOM     93  O   UNL A   1      44.076  26.637  39.067  1.00  0.00    -0.237 OA
ATOM     94  O   UNL A   1      44.862  24.918  37.491  1.00  0.00    -0.237 OA
ATOM     95  O   UNL A   1      46.483  26.144  38.871  1.00  0.00    -0.744 OA
ENDBRANCH  89  92
ENDBRANCH  62  85
ENDBRANCH  36  37
ENDBRANCH  28  31
ENDBRANCH  26  27
ENDBRANCH  25  26
ENDBRANCH   1  25
TORSDOF 18
ENDMDL
