MODEL 1
REMARK VINA RESULT:      -8.1      0.000      0.000
REMARK SMILES CC(C)c1nc(OCC(=O)NCCCCNC(=O)c2ccc(-c3c4nc(c(-c5cccc(S(=O)(=O)[O-])c5F)c5ccc([nH]5)c(-c5cccc(S(=O)(=O)[O-])c5F)c5nc(c(-c6cccc(S(=O)(=O)[O-])c6F)c6ccc3[nH]6)C=C5)C=C4)cc2)cc(-c2ccccn2)n1
REMARK SMILES IDX 13 1 12 2 11 3 9 4 10 5 8 7 7 8 6 9 4 10 5 11 90 12 83 13
REMARK SMILES IDX 82 14 2 15 1 16 3 17 84 18 85 19 89 20 86 21 88 22 87 23
REMARK SMILES IDX 14 24 15 25 16 26 17 27 18 29 19 30 20 31 81 32 21 33 80 34
REMARK SMILES IDX 22 35 23 36 24 37 74 38 25 39 79 40 73 41 75 42 26 43 78 44
REMARK SMILES IDX 72 45 71 46 27 48 59 49 39 50 58 51 40 52 43 53 57 54 76 55
REMARK SMILES IDX 41 56 42 57 56 59 77 60 44 61 28 62 29 63 37 64 30 65 32 66
REMARK SMILES IDX 38 67 31 68 33 69 34 70 35 71 36 72 60 73 61 74 69 75 62 76
REMARK SMILES IDX 64 77 70 78 63 79 65 80 66 81 67 82 68 83 45 84 46 85 54 86
REMARK SMILES IDX 47 87 49 88 55 89 48 90 50 91 51 92 52 93 53 94
REMARK H PARENT 11 6 16 28 75 47 43 58
REMARK Flexibility Score: inf
ROOT
ATOM      1  C   UNL A   1      51.387  27.727  21.961  1.00  0.00     0.023 C 
ENDROOT
BRANCH   1   2
ATOM      2  C   UNL A   1      50.063  27.062  22.333  1.00  0.00     0.116 C 
BRANCH   2   3
ATOM      3  N   UNL A   1      48.929  27.700  21.692  1.00  0.00    -0.353 N 
ATOM      4  C   UNL A   1      47.705  27.976  22.226  1.00  0.00     0.258 C 
ATOM      5  O   UNL A   1      46.852  28.519  21.522  1.00  0.00    -0.271 OA
ATOM      6  H   UNL A   1      49.058  27.965  20.753  1.00  0.00     0.163 HD
BRANCH   4   7
ATOM      7  C   UNL A   1      47.417  27.625  23.691  1.00  0.00     0.331 C 
BRANCH   7   8
ATOM      8  O   UNL A   1      46.303  28.262  24.289  1.00  0.00    -0.467 OA
BRANCH   8   9
ATOM      9  C   UNL A   1      45.433  27.492  25.006  1.00  0.00     0.217 A 
ATOM     10  C   UNL A   1      44.842  25.323  25.485  1.00  0.00     0.135 A 
ATOM     11  N   UNL A   1      45.651  26.179  24.832  1.00  0.00    -0.198 NA
ATOM     12  N   UNL A   1      43.820  25.704  26.266  1.00  0.00    -0.231 NA
ATOM     13  C   UNL A   1      43.618  27.031  26.411  1.00  0.00     0.096 A 
ATOM     14  C   UNL A   1      44.433  27.970  25.814  1.00  0.00     0.099 A 
BRANCH  10  15
ATOM     15  C   UNL A   1      45.130  23.844  25.318  1.00  0.00     0.051 C 
ATOM     16  C   UNL A   1      44.964  23.120  26.656  1.00  0.00     0.016 C 
ATOM     17  C   UNL A   1      44.262  23.172  24.251  1.00  0.00     0.016 C 
ENDBRANCH  10  15
BRANCH  13  18
ATOM     18  C   UNL A   1      42.455  27.457  27.204  1.00  0.00     0.089 A 
ATOM     19  C   UNL A   1      41.637  28.504  26.771  1.00  0.00     0.030 A 
ATOM     20  N   UNL A   1      42.271  26.841  28.400  1.00  0.00    -0.255 NA
ATOM     21  C   UNL A   1      40.596  28.933  27.588  1.00  0.00     0.004 A 
ATOM     22  C   UNL A   1      41.244  27.272  29.165  1.00  0.00     0.112 A 
ATOM     23  C   UNL A   1      40.393  28.306  28.810  1.00  0.00     0.020 A 
ENDBRANCH  13  18
ENDBRANCH   8   9
ENDBRANCH   7   8
ENDBRANCH   4   7
ENDBRANCH   2   3
ENDBRANCH   1   2
BRANCH   1  24
ATOM     24  C   UNL A   1      52.364  27.926  23.123  1.00  0.00     0.023 C 
BRANCH  24  25
ATOM     25  C   UNL A   1      51.821  27.610  24.514  1.00  0.00     0.116 C 
BRANCH  25  26
ATOM     26  N   UNL A   1      52.256  26.316  25.015  1.00  0.00    -0.352 N 
ATOM     27  C   UNL A   1      51.778  25.578  26.069  1.00  0.00     0.251 C 
ATOM     28  H   UNL A   1      53.008  25.909  24.526  1.00  0.00     0.163 HD
ATOM     29  O   UNL A   1      52.372  24.552  26.400  1.00  0.00    -0.269 OA
BRANCH  27  30
ATOM     30  C   UNL A   1      50.581  26.013  26.825  1.00  0.00     0.039 A 
ATOM     31  C   UNL A   1      50.761  26.841  27.938  1.00  0.00     0.014 A 
ATOM     32  C   UNL A   1      49.293  25.600  26.471  1.00  0.00     0.014 A 
ATOM     33  C   UNL A   1      49.653  27.290  28.661  1.00  0.00     0.010 A 
ATOM     34  C   UNL A   1      48.184  26.112  27.147  1.00  0.00     0.010 A 
ATOM     35  C   UNL A   1      48.350  26.953  28.256  1.00  0.00    -0.014 A 
BRANCH  35  36
ATOM     36  C   UNL A   1      47.168  27.494  28.980  1.00  0.00     0.031 A 
ATOM     37  C   UNL A   1      46.550  28.807  28.581  1.00  0.00     0.074 A 
ATOM     38  C   UNL A   1      46.676  26.818  30.038  1.00  0.00     0.049 A 
ATOM     39  N   UNL A   1      45.501  29.409  29.082  1.00  0.00    -0.248 NA
ATOM     40  C   UNL A   1      47.205  29.556  27.497  1.00  0.00     0.031 C 
ATOM     41  C   UNL A   1      47.236  25.580  30.586  1.00  0.00     0.029 A 
ATOM     42  N   UNL A   1      45.601  27.082  30.852  1.00  0.00    -0.354 N 
ATOM     43  C   UNL A   1      45.386  30.613  28.397  1.00  0.00     0.074 A 
ATOM     44  C   UNL A   1      46.496  30.676  27.471  1.00  0.00     0.031 C 
ATOM     45  C   UNL A   1      46.492  25.184  31.630  1.00  0.00     0.029 A 
ATOM     46  C   UNL A   1      45.417  26.147  31.844  1.00  0.00     0.049 A 
ATOM     47  H   UNL A   1      45.018  27.866  30.735  1.00  0.00     0.167 HD
ATOM     48  C   UNL A   1      44.428  31.566  28.502  1.00  0.00     0.034 A 
ATOM     49  C   UNL A   1      44.485  26.069  32.813  1.00  0.00     0.034 A 
ATOM     50  C   UNL A   1      43.305  31.486  29.398  1.00  0.00     0.049 A 
ATOM     51  C   UNL A   1      43.402  27.112  32.873  1.00  0.00     0.074 A 
ATOM     52  C   UNL A   1      42.237  32.360  29.520  1.00  0.00     0.029 A 
ATOM     53  N   UNL A   1      43.106  30.483  30.334  1.00  0.00    -0.354 N 
ATOM     54  N   UNL A   1      43.217  28.156  32.103  1.00  0.00    -0.248 NA
ATOM     55  C   UNL A   1      42.373  26.941  33.910  1.00  0.00     0.031 C 
ATOM     56  C   UNL A   1      41.407  31.896  30.547  1.00  0.00     0.029 A 
ATOM     57  C   UNL A   1      41.939  30.717  31.042  1.00  0.00     0.049 A 
ATOM     58  H   UNL A   1      43.707  29.716  30.474  1.00  0.00     0.167 HD
ATOM     59  C   UNL A   1      42.034  28.745  32.536  1.00  0.00     0.074 A 
ATOM     60  C   UNL A   1      41.533  27.924  33.620  1.00  0.00     0.031 C 
ATOM     61  C   UNL A   1      41.424  29.871  32.088  1.00  0.00     0.034 A 
BRANCH  48  62
ATOM     62  C   UNL A   1      44.523  32.759  27.584  1.00  0.00     0.023 A 
ATOM     63  C   UNL A   1      44.087  32.645  26.247  1.00  0.00     0.012 A 
ATOM     64  C   UNL A   1      44.981  34.006  28.054  1.00  0.00     0.148 A 
ATOM     65  C   UNL A   1      44.141  33.738  25.384  1.00  0.00     0.002 A 
ATOM     66  C   UNL A   1      44.988  35.104  27.202  1.00  0.00     0.091 A 
ATOM     67  F   UNL A   1      45.409  34.092  29.322  1.00  0.00    -0.205 F 
ATOM     68  C   UNL A   1      44.582  34.969  25.863  1.00  0.00     0.022 A 
BRANCH  66  69
ATOM     69  S   UNL A   1      45.459  36.751  27.742  1.00  0.00     0.127 S 
ATOM     70  O   UNL A   1      45.602  37.450  26.466  1.00  0.00    -0.237 OA
ATOM     71  O   UNL A   1      44.299  37.158  28.534  1.00  0.00    -0.237 OA
ATOM     72  O   UNL A   1      46.688  36.587  28.506  1.00  0.00    -0.744 OA
ENDBRANCH  66  69
ENDBRANCH  48  62
BRANCH  49  73
ATOM     73  C   UNL A   1      44.489  24.918  33.760  1.00  0.00     0.023 A 
ATOM     74  C   UNL A   1      44.018  23.662  33.330  1.00  0.00     0.012 A 
ATOM     75  C   UNL A   1      44.978  25.054  35.074  1.00  0.00     0.148 A 
ATOM     76  C   UNL A   1      43.998  22.573  34.200  1.00  0.00     0.002 A 
ATOM     77  C   UNL A   1      45.010  23.950  35.918  1.00  0.00     0.091 A 
ATOM     78  F   UNL A   1      45.413  26.260  35.468  1.00  0.00    -0.205 F 
ATOM     79  C   UNL A   1      44.504  22.714  35.490  1.00  0.00     0.022 A 
BRANCH  77  80
ATOM     80  S   UNL A   1      45.766  24.008  37.546  1.00  0.00     0.127 S 
ATOM     81  O   UNL A   1      47.119  24.461  37.231  1.00  0.00    -0.237 OA
ATOM     82  O   UNL A   1      44.929  24.995  38.231  1.00  0.00    -0.237 OA
ATOM     83  O   UNL A   1      45.658  22.658  38.078  1.00  0.00    -0.744 OA
ENDBRANCH  77  80
ENDBRANCH  49  73
BRANCH  61  84
ATOM     84  C   UNL A   1      40.126  30.266  32.742  1.00  0.00     0.023 A 
ATOM     85  C   UNL A   1      38.903  29.789  32.227  1.00  0.00     0.012 A 
ATOM     86  C   UNL A   1      40.119  31.076  33.895  1.00  0.00     0.148 A 
ATOM     87  C   UNL A   1      37.693  30.150  32.821  1.00  0.00     0.002 A 
ATOM     88  C   UNL A   1      38.913  31.388  34.513  1.00  0.00     0.091 A 
ATOM     89  F   UNL A   1      41.289  31.537  34.362  1.00  0.00    -0.205 F 
ATOM     90  C   UNL A   1      37.699  30.939  33.968  1.00  0.00     0.022 A 
BRANCH  88  91
ATOM     91  S   UNL A   1      38.835  32.316  36.048  1.00  0.00     0.127 S 
ATOM     92  O   UNL A   1      39.359  33.617  35.638  1.00  0.00    -0.237 OA
ATOM     93  O   UNL A   1      37.402  32.303  36.348  1.00  0.00    -0.237 OA
ATOM     94  O   UNL A   1      39.654  31.580  37.001  1.00  0.00    -0.744 OA
ENDBRANCH  88  91
ENDBRANCH  61  84
ENDBRANCH  35  36
ENDBRANCH  27  30
ENDBRANCH  25  26
ENDBRANCH  24  25
ENDBRANCH   1  24
TORSDOF 18
ENDMDL
MODEL 2
REMARK VINA RESULT:      -8.1      7.044     13.450
REMARK SMILES CC(C)c1nc(OCC(=O)NCCCCNC(=O)c2ccc(-c3c4nc(c(-c5cccc(S(=O)(=O)[O-])c5F)c5ccc([nH]5)c(-c5cccc(S(=O)(=O)[O-])c5F)c5nc(c(-c6cccc(S(=O)(=O)[O-])c6F)c6ccc3[nH]6)C=C5)C=C4)cc2)cc(-c2ccccn2)n1
REMARK SMILES IDX 13 1 12 2 11 3 9 4 10 5 8 7 7 8 6 9 4 10 5 11 90 12 83 13
REMARK SMILES IDX 82 14 2 15 1 16 3 17 84 18 85 19 89 20 86 21 88 22 87 23
REMARK SMILES IDX 14 24 15 25 16 26 17 27 18 29 19 30 20 31 81 32 21 33 80 34
REMARK SMILES IDX 22 35 23 36 24 37 74 38 25 39 79 40 73 41 75 42 26 43 78 44
REMARK SMILES IDX 72 45 71 46 27 48 59 49 39 50 58 51 40 52 43 53 57 54 76 55
REMARK SMILES IDX 41 56 42 57 56 59 77 60 44 61 28 62 29 63 37 64 30 65 32 66
REMARK SMILES IDX 38 67 31 68 33 69 34 70 35 71 36 72 60 73 61 74 69 75 62 76
REMARK SMILES IDX 64 77 70 78 63 79 65 80 66 81 67 82 68 83 45 84 46 85 54 86
REMARK SMILES IDX 47 87 49 88 55 89 48 90 50 91 51 92 52 93 53 94
REMARK H PARENT 11 6 16 28 75 47 43 58
REMARK Flexibility Score: inf
ROOT
ATOM      1  C   UNL A   1      39.315  29.151  32.950  1.00  0.00     0.023 C 
ENDROOT
BRANCH   1   2
ATOM      2  C   UNL A   1      38.291  30.233  33.288  1.00  0.00     0.116 C 
BRANCH   2   3
ATOM      3  N   UNL A   1      38.166  30.445  34.716  1.00  0.00    -0.353 N 
ATOM      4  C   UNL A   1      37.716  31.555  35.367  1.00  0.00     0.258 C 
ATOM      5  O   UNL A   1      37.689  31.559  36.599  1.00  0.00    -0.271 OA
ATOM      6  H   UNL A   1      38.443  29.694  35.289  1.00  0.00     0.163 HD
BRANCH   4   7
ATOM      7  C   UNL A   1      37.237  32.768  34.560  1.00  0.00     0.331 C 
BRANCH   7   8
ATOM      8  O   UNL A   1      35.837  32.972  34.492  1.00  0.00    -0.467 OA
BRANCH   8   9
ATOM      9  C   UNL A   1      35.295  33.295  33.281  1.00  0.00     0.217 A 
ATOM     10  C   UNL A   1      34.020  34.860  32.182  1.00  0.00     0.135 A 
ATOM     11  N   UNL A   1      34.607  34.448  33.321  1.00  0.00    -0.198 NA
ATOM     12  N   UNL A   1      34.054  34.175  31.028  1.00  0.00    -0.231 NA
ATOM     13  C   UNL A   1      34.743  33.015  31.023  1.00  0.00     0.096 A 
ATOM     14  C   UNL A   1      35.413  32.550  32.136  1.00  0.00     0.099 A 
BRANCH  10  15
ATOM     15  C   UNL A   1      33.286  36.186  32.229  1.00  0.00     0.051 C 
ATOM     16  C   UNL A   1      31.801  35.958  32.522  1.00  0.00     0.016 C 
ATOM     17  C   UNL A   1      33.872  37.170  33.246  1.00  0.00     0.016 C 
ENDBRANCH  10  15
BRANCH  13  18
ATOM     18  C   UNL A   1      34.724  32.221  29.785  1.00  0.00     0.089 A 
ATOM     19  C   UNL A   1      35.611  31.157  29.602  1.00  0.00     0.030 A 
ATOM     20  N   UNL A   1      33.867  32.625  28.812  1.00  0.00    -0.255 NA
ATOM     21  C   UNL A   1      35.619  30.481  28.386  1.00  0.00     0.004 A 
ATOM     22  C   UNL A   1      33.890  31.942  27.647  1.00  0.00     0.112 A 
ATOM     23  C   UNL A   1      34.742  30.881  27.386  1.00  0.00     0.020 A 
ENDBRANCH  13  18
ENDBRANCH   8   9
ENDBRANCH   7   8
ENDBRANCH   4   7
ENDBRANCH   2   3
ENDBRANCH   1   2
BRANCH   1  24
ATOM     24  C   UNL A   1      38.871  28.143  31.886  1.00  0.00     0.023 C 
BRANCH  24  25
ATOM     25  C   UNL A   1      37.829  28.642  30.888  1.00  0.00     0.116 C 
BRANCH  25  26
ATOM     26  N   UNL A   1      38.299  28.616  29.512  1.00  0.00    -0.352 N 
ATOM     27  C   UNL A   1      39.116  29.496  28.848  1.00  0.00     0.251 C 
ATOM     28  H   UNL A   1      37.984  27.852  28.976  1.00  0.00     0.163 HD
ATOM     29  O   UNL A   1      39.298  29.349  27.639  1.00  0.00    -0.269 OA
BRANCH  27  30
ATOM     30  C   UNL A   1      39.754  30.630  29.557  1.00  0.00     0.039 A 
ATOM     31  C   UNL A   1      41.070  30.476  30.007  1.00  0.00     0.014 A 
ATOM     32  C   UNL A   1      39.072  31.824  29.806  1.00  0.00     0.014 A 
ATOM     33  C   UNL A   1      41.712  31.532  30.660  1.00  0.00     0.010 A 
ATOM     34  C   UNL A   1      39.740  32.903  30.389  1.00  0.00     0.010 A 
ATOM     35  C   UNL A   1      41.064  32.766  30.832  1.00  0.00    -0.014 A 
BRANCH  35  36
ATOM     36  C   UNL A   1      41.774  33.914  31.458  1.00  0.00     0.031 A 
ATOM     37  C   UNL A   1      41.597  34.230  32.920  1.00  0.00     0.074 A 
ATOM     38  C   UNL A   1      42.548  34.709  30.692  1.00  0.00     0.049 A 
ATOM     39  N   UNL A   1      42.163  35.171  33.633  1.00  0.00    -0.248 NA
ATOM     40  C   UNL A   1      40.646  33.400  33.676  1.00  0.00     0.031 C 
ATOM     41  C   UNL A   1      42.733  34.569  29.246  1.00  0.00     0.029 A 
ATOM     42  N   UNL A   1      43.315  35.801  31.019  1.00  0.00    -0.354 N 
ATOM     43  C   UNL A   1      41.619  35.064  34.908  1.00  0.00     0.074 A 
ATOM     44  C   UNL A   1      40.649  33.992  34.862  1.00  0.00     0.031 C 
ATOM     45  C   UNL A   1      43.571  35.525  28.814  1.00  0.00     0.029 A 
ATOM     46  C   UNL A   1      43.967  36.359  29.944  1.00  0.00     0.049 A 
ATOM     47  H   UNL A   1      43.390  36.151  31.936  1.00  0.00     0.167 HD
ATOM     48  C   UNL A   1      41.921  35.771  36.025  1.00  0.00     0.034 A 
ATOM     49  C   UNL A   1      44.795  37.420  29.875  1.00  0.00     0.034 A 
ATOM     50  C   UNL A   1      42.912  36.813  36.078  1.00  0.00     0.049 A 
ATOM     51  C   UNL A   1      45.154  38.152  31.139  1.00  0.00     0.074 A 
ATOM     52  C   UNL A   1      43.349  37.529  37.180  1.00  0.00     0.029 A 
ATOM     53  N   UNL A   1      43.612  37.298  34.985  1.00  0.00    -0.354 N 
ATOM     54  N   UNL A   1      44.756  37.925  32.367  1.00  0.00    -0.248 NA
ATOM     55  C   UNL A   1      46.113  39.259  31.014  1.00  0.00     0.031 C 
ATOM     56  C   UNL A   1      44.296  38.464  36.746  1.00  0.00     0.029 A 
ATOM     57  C   UNL A   1      44.473  38.307  35.382  1.00  0.00     0.049 A 
ATOM     58  H   UNL A   1      43.513  36.972  34.062  1.00  0.00     0.167 HD
ATOM     59  C   UNL A   1      45.441  38.835  33.165  1.00  0.00     0.074 A 
ATOM     60  C   UNL A   1      46.300  39.598  32.282  1.00  0.00     0.031 C 
ATOM     61  C   UNL A   1      45.358  39.031  34.504  1.00  0.00     0.034 A 
BRANCH  48  62
ATOM     62  C   UNL A   1      41.207  35.401  37.301  1.00  0.00     0.023 A 
ATOM     63  C   UNL A   1      39.995  36.042  37.632  1.00  0.00     0.012 A 
ATOM     64  C   UNL A   1      41.697  34.381  38.141  1.00  0.00     0.148 A 
ATOM     65  C   UNL A   1      39.303  35.702  38.793  1.00  0.00     0.002 A 
ATOM     66  C   UNL A   1      40.978  34.015  39.273  1.00  0.00     0.091 A 
ATOM     67  F   UNL A   1      42.860  33.795  37.822  1.00  0.00    -0.205 F 
ATOM     68  C   UNL A   1      39.788  34.683  39.607  1.00  0.00     0.022 A 
BRANCH  66  69
ATOM     69  S   UNL A   1      41.474  32.660  40.343  1.00  0.00     0.127 S 
ATOM     70  O   UNL A   1      42.334  33.346  41.307  1.00  0.00    -0.237 OA
ATOM     71  O   UNL A   1      40.191  32.210  40.883  1.00  0.00    -0.237 OA
ATOM     72  O   UNL A   1      42.144  31.695  39.485  1.00  0.00    -0.744 OA
ENDBRANCH  66  69
ENDBRANCH  48  62
BRANCH  49  73
ATOM     73  C   UNL A   1      45.402  37.806  28.570  1.00  0.00     0.023 A 
ATOM     74  C   UNL A   1      46.326  36.942  27.950  1.00  0.00     0.012 A 
ATOM     75  C   UNL A   1      45.054  39.012  27.930  1.00  0.00     0.148 A 
ATOM     76  C   UNL A   1      46.919  37.286  26.736  1.00  0.00     0.002 A 
ATOM     77  C   UNL A   1      45.606  39.321  26.692  1.00  0.00     0.091 A 
ATOM     78  F   UNL A   1      44.182  39.826  28.540  1.00  0.00    -0.205 F 
ATOM     79  C   UNL A   1      46.552  38.470  26.102  1.00  0.00     0.022 A 
BRANCH  77  80
ATOM     80  S   UNL A   1      45.090  40.757  25.743  1.00  0.00     0.127 S 
ATOM     81  O   UNL A   1      45.907  40.628  24.539  1.00  0.00    -0.237 OA
ATOM     82  O   UNL A   1      43.663  40.493  25.552  1.00  0.00    -0.237 OA
ATOM     83  O   UNL A   1      45.379  41.909  26.584  1.00  0.00    -0.744 OA
ENDBRANCH  77  80
ENDBRANCH  49  73
BRANCH  61  84
ATOM     84  C   UNL A   1      46.244  40.089  35.109  1.00  0.00     0.023 A 
ATOM     85  C   UNL A   1      47.406  39.716  35.815  1.00  0.00     0.012 A 
ATOM     86  C   UNL A   1      45.949  41.456  34.939  1.00  0.00     0.148 A 
ATOM     87  C   UNL A   1      48.233  40.685  36.383  1.00  0.00     0.002 A 
ATOM     88  C   UNL A   1      46.807  42.417  35.462  1.00  0.00     0.091 A 
ATOM     89  F   UNL A   1      44.831  41.794  34.281  1.00  0.00    -0.205 F 
ATOM     90  C   UNL A   1      47.939  42.034  36.197  1.00  0.00     0.022 A 
BRANCH  88  91
ATOM     91  S   UNL A   1      46.558  44.174  35.187  1.00  0.00     0.127 S 
ATOM     92  O   UNL A   1      47.260  44.758  36.328  1.00  0.00    -0.237 OA
ATOM     93  O   UNL A   1      47.215  44.384  33.896  1.00  0.00    -0.237 OA
ATOM     94  O   UNL A   1      45.116  44.375  35.166  1.00  0.00    -0.744 OA
ENDBRANCH  88  91
ENDBRANCH  61  84
ENDBRANCH  35  36
ENDBRANCH  27  30
ENDBRANCH  25  26
ENDBRANCH  24  25
ENDBRANCH   1  24
TORSDOF 18
ENDMDL
MODEL 3
REMARK VINA RESULT:      -8.0      6.015     11.972
REMARK SMILES CC(C)c1nc(OCC(=O)NCCCCNC(=O)c2ccc(-c3c4nc(c(-c5cccc(S(=O)(=O)[O-])c5F)c5ccc([nH]5)c(-c5cccc(S(=O)(=O)[O-])c5F)c5nc(c(-c6cccc(S(=O)(=O)[O-])c6F)c6ccc3[nH]6)C=C5)C=C4)cc2)cc(-c2ccccn2)n1
REMARK SMILES IDX 13 1 12 2 11 3 9 4 10 5 8 7 7 8 6 9 4 10 5 11 90 12 83 13
REMARK SMILES IDX 82 14 2 15 1 16 3 17 84 18 85 19 89 20 86 21 88 22 87 23
REMARK SMILES IDX 14 24 15 25 16 26 17 27 18 29 19 30 20 31 81 32 21 33 80 34
REMARK SMILES IDX 22 35 23 36 24 37 74 38 25 39 79 40 73 41 75 42 26 43 78 44
REMARK SMILES IDX 72 45 71 46 27 48 59 49 39 50 58 51 40 52 43 53 57 54 76 55
REMARK SMILES IDX 41 56 42 57 56 59 77 60 44 61 28 62 29 63 37 64 30 65 32 66
REMARK SMILES IDX 38 67 31 68 33 69 34 70 35 71 36 72 60 73 61 74 69 75 62 76
REMARK SMILES IDX 64 77 70 78 63 79 65 80 66 81 67 82 68 83 45 84 46 85 54 86
REMARK SMILES IDX 47 87 49 88 55 89 48 90 50 91 51 92 52 93 53 94
REMARK H PARENT 11 6 16 28 75 47 43 58
REMARK Flexibility Score: inf
ROOT
ATOM      1  C   UNL A   1      47.566  22.152  36.453  1.00  0.00     0.023 C 
ENDROOT
BRANCH   1   2
ATOM      2  C   UNL A   1      46.089  21.836  36.684  1.00  0.00     0.116 C 
BRANCH   2   3
ATOM      3  N   UNL A   1      45.686  20.598  36.046  1.00  0.00    -0.353 N 
ATOM      4  C   UNL A   1      45.771  19.330  36.540  1.00  0.00     0.258 C 
ATOM      5  O   UNL A   1      45.384  18.388  35.845  1.00  0.00    -0.271 OA
ATOM      6  H   UNL A   1      45.304  20.683  35.144  1.00  0.00     0.163 HD
BRANCH   4   7
ATOM      7  C   UNL A   1      46.328  19.098  37.950  1.00  0.00     0.331 C 
BRANCH   7   8
ATOM      8  O   UNL A   1      45.490  18.404  38.857  1.00  0.00    -0.467 OA
BRANCH   8   9
ATOM      9  C   UNL A   1      45.995  18.092  40.086  1.00  0.00     0.217 A 
ATOM     10  C   UNL A   1      47.750  18.478  41.518  1.00  0.00     0.135 A 
ATOM     11  N   UNL A   1      47.155  18.721  40.336  1.00  0.00    -0.198 NA
ATOM     12  N   UNL A   1      47.273  17.626  42.439  1.00  0.00    -0.231 NA
ATOM     13  C   UNL A   1      46.113  17.000  42.154  1.00  0.00     0.096 A 
ATOM     14  C   UNL A   1      45.418  17.233  40.985  1.00  0.00     0.099 A 
BRANCH  10  15
ATOM     15  C   UNL A   1      49.035  19.232  41.808  1.00  0.00     0.051 C 
ATOM     16  C   UNL A   1      49.570  18.851  43.190  1.00  0.00     0.016 C 
ATOM     17  C   UNL A   1      50.120  19.012  40.751  1.00  0.00     0.016 C 
ENDBRANCH  10  15
BRANCH  13  18
ATOM     18  C   UNL A   1      45.621  16.009  43.123  1.00  0.00     0.089 A 
ATOM     19  C   UNL A   1      46.438  14.961  43.553  1.00  0.00     0.030 A 
ATOM     20  N   UNL A   1      44.323  16.121  43.506  1.00  0.00    -0.255 NA
ATOM     21  C   UNL A   1      45.911  13.996  44.407  1.00  0.00     0.004 A 
ATOM     22  C   UNL A   1      43.843  15.176  44.345  1.00  0.00     0.112 A 
ATOM     23  C   UNL A   1      44.587  14.104  44.812  1.00  0.00     0.020 A 
ENDBRANCH  13  18
ENDBRANCH   8   9
ENDBRANCH   7   8
ENDBRANCH   4   7
ENDBRANCH   2   3
ENDBRANCH   1   2
BRANCH   1  24
ATOM     24  C   UNL A   1      47.921  22.605  35.034  1.00  0.00     0.023 C 
BRANCH  24  25
ATOM     25  C   UNL A   1      48.182  24.098  34.855  1.00  0.00     0.116 C 
BRANCH  25  26
ATOM     26  N   UNL A   1      48.185  24.830  36.111  1.00  0.00    -0.352 N 
ATOM     27  C   UNL A   1      47.432  25.910  36.499  1.00  0.00     0.251 C 
ATOM     28  H   UNL A   1      48.825  24.503  36.785  1.00  0.00     0.163 HD
ATOM     29  O   UNL A   1      47.677  26.457  37.574  1.00  0.00    -0.269 OA
BRANCH  27  30
ATOM     30  C   UNL A   1      46.353  26.439  35.632  1.00  0.00     0.039 A 
ATOM     31  C   UNL A   1      45.116  25.787  35.638  1.00  0.00     0.014 A 
ATOM     32  C   UNL A   1      46.549  27.544  34.799  1.00  0.00     0.014 A 
ATOM     33  C   UNL A   1      44.067  26.271  34.851  1.00  0.00     0.010 A 
ATOM     34  C   UNL A   1      45.480  28.071  34.073  1.00  0.00     0.010 A 
ATOM     35  C   UNL A   1      44.230  27.436  34.081  1.00  0.00    -0.014 A 
BRANCH  35  36
ATOM     36  C   UNL A   1      43.092  27.995  33.303  1.00  0.00     0.031 A 
ATOM     37  C   UNL A   1      42.887  27.627  31.857  1.00  0.00     0.074 A 
ATOM     38  C   UNL A   1      42.261  28.880  33.891  1.00  0.00     0.049 A 
ATOM     39  N   UNL A   1      41.933  27.996  31.041  1.00  0.00    -0.248 NA
ATOM     40  C   UNL A   1      43.895  26.752  31.238  1.00  0.00     0.031 C 
ATOM     41  C   UNL A   1      42.399  29.391  35.257  1.00  0.00     0.029 A 
ATOM     42  N   UNL A   1      41.143  29.518  33.411  1.00  0.00    -0.354 N 
ATOM     43  C   UNL A   1      42.238  27.424  29.812  1.00  0.00     0.074 A 
ATOM     44  C   UNL A   1      43.488  26.714  29.977  1.00  0.00     0.031 C 
ATOM     45  C   UNL A   1      41.397  30.247  35.510  1.00  0.00     0.029 A 
ATOM     46  C   UNL A   1      40.557  30.366  34.323  1.00  0.00     0.049 A 
ATOM     47  H   UNL A   1      40.794  29.380  32.501  1.00  0.00     0.167 HD
ATOM     48  C   UNL A   1      41.529  27.456  28.656  1.00  0.00     0.034 A 
ATOM     49  C   UNL A   1      39.465  31.147  34.217  1.00  0.00     0.034 A 
ATOM     50  C   UNL A   1      40.268  28.132  28.502  1.00  0.00     0.049 A 
ATOM     51  C   UNL A   1      38.667  31.122  32.942  1.00  0.00     0.074 A 
ATOM     52  C   UNL A   1      39.433  28.154  27.398  1.00  0.00     0.029 A 
ATOM     53  N   UNL A   1      39.664  28.916  29.473  1.00  0.00    -0.354 N 
ATOM     54  N   UNL A   1      38.884  30.438  31.845  1.00  0.00    -0.248 NA
ATOM     55  C   UNL A   1      37.448  31.943  32.907  1.00  0.00     0.031 C 
ATOM     56  C   UNL A   1      38.336  28.971  27.694  1.00  0.00     0.029 A 
ATOM     57  C   UNL A   1      38.471  29.431  28.993  1.00  0.00     0.049 A 
ATOM     58  H   UNL A   1      40.029  29.081  30.372  1.00  0.00     0.167 HD
ATOM     59  C   UNL A   1      37.811  30.717  31.004  1.00  0.00     0.074 A 
ATOM     60  C   UNL A   1      36.934  31.612  31.731  1.00  0.00     0.031 C 
ATOM     61  C   UNL A   1      37.581  30.284  29.740  1.00  0.00     0.034 A 
BRANCH  48  62
ATOM     62  C   UNL A   1      42.075  26.691  27.477  1.00  0.00     0.023 A 
ATOM     63  C   UNL A   1      42.839  27.365  26.503  1.00  0.00     0.012 A 
ATOM     64  C   UNL A   1      41.888  25.298  27.363  1.00  0.00     0.148 A 
ATOM     65  C   UNL A   1      43.376  26.677  25.415  1.00  0.00     0.002 A 
ATOM     66  C   UNL A   1      42.466  24.610  26.302  1.00  0.00     0.091 A 
ATOM     67  F   UNL A   1      41.144  24.676  28.288  1.00  0.00    -0.205 F 
ATOM     68  C   UNL A   1      43.198  25.300  25.321  1.00  0.00     0.022 A 
BRANCH  66  69
ATOM     69  S   UNL A   1      42.365  22.825  26.132  1.00  0.00     0.127 S 
ATOM     70  O   UNL A   1      40.918  22.614  26.086  1.00  0.00    -0.237 OA
ATOM     71  O   UNL A   1      43.055  22.598  24.863  1.00  0.00    -0.237 OA
ATOM     72  O   UNL A   1      43.040  22.272  27.297  1.00  0.00    -0.744 OA
ENDBRANCH  66  69
ENDBRANCH  48  62
BRANCH  49  73
ATOM     73  C   UNL A   1      39.018  31.962  35.382  1.00  0.00     0.023 A 
ATOM     74  C   UNL A   1      39.224  33.356  35.375  1.00  0.00     0.012 A 
ATOM     75  C   UNL A   1      38.370  31.370  36.484  1.00  0.00     0.148 A 
ATOM     76  C   UNL A   1      38.828  34.139  36.458  1.00  0.00     0.002 A 
ATOM     77  C   UNL A   1      37.926  32.164  37.534  1.00  0.00     0.091 A 
ATOM     78  F   UNL A   1      38.193  30.041  36.477  1.00  0.00    -0.205 F 
ATOM     79  C   UNL A   1      38.170  33.546  37.532  1.00  0.00     0.022 A 
BRANCH  77  80
ATOM     80  S   UNL A   1      36.953  31.505  38.892  1.00  0.00     0.127 S 
ATOM     81  O   UNL A   1      37.822  31.769  40.037  1.00  0.00    -0.237 OA
ATOM     82  O   UNL A   1      35.748  32.334  38.829  1.00  0.00    -0.237 OA
ATOM     83  O   UNL A   1      36.734  30.102  38.574  1.00  0.00    -0.744 OA
ENDBRANCH  77  80
ENDBRANCH  49  73
BRANCH  61  84
ATOM     84  C   UNL A   1      36.311  30.739  29.069  1.00  0.00     0.023 A 
ATOM     85  C   UNL A   1      35.401  29.790  28.562  1.00  0.00     0.012 A 
ATOM     86  C   UNL A   1      35.998  32.110  28.980  1.00  0.00     0.148 A 
ATOM     87  C   UNL A   1      34.223  30.198  27.936  1.00  0.00     0.002 A 
ATOM     88  C   UNL A   1      34.797  32.508  28.402  1.00  0.00     0.091 A 
ATOM     89  F   UNL A   1      36.882  33.002  29.450  1.00  0.00    -0.205 F 
ATOM     90  C   UNL A   1      33.917  31.555  27.866  1.00  0.00     0.022 A 
BRANCH  88  91
ATOM     91  S   UNL A   1      34.278  34.226  28.358  1.00  0.00     0.127 S 
ATOM     92  O   UNL A   1      35.074  34.751  27.250  1.00  0.00    -0.237 OA
ATOM     93  O   UNL A   1      32.845  34.113  28.079  1.00  0.00    -0.237 OA
ATOM     94  O   UNL A   1      34.593  34.772  29.671  1.00  0.00    -0.744 OA
ENDBRANCH  88  91
ENDBRANCH  61  84
ENDBRANCH  35  36
ENDBRANCH  27  30
ENDBRANCH  25  26
ENDBRANCH  24  25
ENDBRANCH   1  24
TORSDOF 18
ENDMDL
