MODEL 1
REMARK VINA RESULT:     -11.5      0.000      0.000
REMARK SMILES O=C(NCCCCNC(=O)c1sccc1S(=O)(=O)Nc1ccccc1N1CCCCC1)c1ccc(-c2c3nc(c(-c4cccc(S(=O)(=O)[O-])c4F)c4ccc([nH]4)c(-c4cccc(S(=O)(=O)[O-])c4F)c4nc(c(-c5cccc(S(=O)(=O)[O-])c5F)c5ccc2[nH]5)C=C4)C=C3)cc1
REMARK SMILES IDX 6 1 5 2 4 3 3 4 1 5 2 6 32 8 33 9 94 10 34 11 93 12 35 13
REMARK SMILES IDX 36 14 37 15 87 16 38 17 92 18 86 19 88 20 39 21 91 22 85 23
REMARK SMILES IDX 84 24 40 26 72 27 52 28 71 29 53 30 56 31 70 32 89 33 54 34
REMARK SMILES IDX 55 35 69 37 90 38 57 39 41 40 42 41 50 42 43 43 45 44 51 45
REMARK SMILES IDX 44 46 46 47 47 48 48 49 49 50 73 51 74 52 82 53 75 54 77 55
REMARK SMILES IDX 83 56 76 57 78 58 79 59 80 60 81 61 58 62 59 63 67 64 60 65
REMARK SMILES IDX 62 66 68 67 61 68 63 69 64 70 65 71 66 72 7 73 8 74 9 75
REMARK SMILES IDX 10 77 11 78 12 79 15 80 13 81 14 82 16 83 17 84 18 85 19 86
REMARK SMILES IDX 20 88 21 89 25 90 22 91 24 92 23 93 26 94 27 95 31 96 28 97
REMARK SMILES IDX 30 98 29 99
REMARK H PARENT 3 7 88 25 56 36 8 76 19 87
REMARK Flexibility Score: inf
ROOT
ATOM      1  C   UNL A   1      35.373  23.361  23.237  1.00  0.00     0.023 C 
ENDROOT
BRANCH   1   2
ATOM      2  C   UNL A   1      36.773  22.964  23.717  1.00  0.00     0.023 C 
BRANCH   2   3
ATOM      3  C   UNL A   1      37.093  23.333  25.164  1.00  0.00     0.116 C 
BRANCH   3   4
ATOM      4  N   UNL A   1      37.977  22.382  25.811  1.00  0.00    -0.352 N 
ATOM      5  O   UNL A   1      39.846  21.649  26.829  1.00  0.00    -0.269 OA
ATOM      6  C   UNL A   1      39.128  22.596  26.527  1.00  0.00     0.251 C 
ATOM      7  H   UNL A   1      37.710  21.438  25.723  1.00  0.00     0.163 HD
BRANCH   6   8
ATOM      8  C   UNL A   1      39.512  23.971  26.909  1.00  0.00     0.039 A 
ATOM      9  C   UNL A   1      40.058  24.850  25.969  1.00  0.00     0.014 A 
ATOM     10  C   UNL A   1      39.290  24.390  28.222  1.00  0.00     0.014 A 
ATOM     11  C   UNL A   1      40.502  26.108  26.372  1.00  0.00     0.010 A 
ATOM     12  C   UNL A   1      39.678  25.675  28.609  1.00  0.00     0.010 A 
ATOM     13  C   UNL A   1      40.315  26.530  27.697  1.00  0.00    -0.014 A 
BRANCH  13  14
ATOM     14  C   UNL A   1      40.743  27.885  28.124  1.00  0.00     0.031 A 
ATOM     15  C   UNL A   1      42.200  28.252  28.153  1.00  0.00     0.074 A 
ATOM     16  C   UNL A   1      39.813  28.764  28.544  1.00  0.00     0.049 A 
ATOM     17  N   UNL A   1      42.762  29.351  28.583  1.00  0.00    -0.248 NA
ATOM     18  C   UNL A   1      43.150  27.251  27.642  1.00  0.00     0.031 C 
ATOM     19  C   UNL A   1      38.374  28.503  28.593  1.00  0.00     0.029 A 
ATOM     20  N   UNL A   1      39.940  30.036  29.036  1.00  0.00    -0.354 N 
ATOM     21  C   UNL A   1      44.131  29.159  28.440  1.00  0.00     0.074 A 
ATOM     22  C   UNL A   1      44.315  27.837  27.880  1.00  0.00     0.031 C 
ATOM     23  C   UNL A   1      37.751  29.577  29.100  1.00  0.00     0.029 A 
ATOM     24  C   UNL A   1      38.748  30.583  29.449  1.00  0.00     0.049 A 
ATOM     25  H   UNL A   1      40.800  30.513  29.088  1.00  0.00     0.167 HD
ATOM     26  C   UNL A   1      45.140  30.013  28.735  1.00  0.00     0.034 A 
ATOM     27  C   UNL A   1      38.487  31.750  30.068  1.00  0.00     0.034 A 
ATOM     28  C   UNL A   1      44.948  31.342  29.249  1.00  0.00     0.049 A 
ATOM     29  C   UNL A   1      39.620  32.692  30.357  1.00  0.00     0.074 A 
ATOM     30  C   UNL A   1      45.901  32.308  29.517  1.00  0.00     0.029 A 
ATOM     31  N   UNL A   1      43.718  31.893  29.577  1.00  0.00    -0.354 N 
ATOM     32  N   UNL A   1      40.897  32.543  30.100  1.00  0.00    -0.248 NA
ATOM     33  C   UNL A   1      39.279  33.973  30.992  1.00  0.00     0.031 C 
ATOM     34  C   UNL A   1      45.248  33.442  30.011  1.00  0.00     0.029 A 
ATOM     35  C   UNL A   1      43.887  33.184  30.045  1.00  0.00     0.049 A 
ATOM     36  H   UNL A   1      42.852  31.433  29.489  1.00  0.00     0.167 HD
ATOM     37  C   UNL A   1      41.510  33.718  30.518  1.00  0.00     0.074 A 
ATOM     38  C   UNL A   1      40.460  34.578  31.029  1.00  0.00     0.031 C 
ATOM     39  C   UNL A   1      42.825  34.049  30.494  1.00  0.00     0.034 A 
BRANCH  26  40
ATOM     40  C   UNL A   1      46.546  29.553  28.462  1.00  0.00     0.023 A 
ATOM     41  C   UNL A   1      47.147  29.864  27.226  1.00  0.00     0.012 A 
ATOM     42  C   UNL A   1      47.290  28.863  29.438  1.00  0.00     0.148 A 
ATOM     43  C   UNL A   1      48.459  29.473  26.955  1.00  0.00     0.002 A 
ATOM     44  C   UNL A   1      48.609  28.506  29.173  1.00  0.00     0.091 A 
ATOM     45  F   UNL A   1      46.696  28.547  30.597  1.00  0.00    -0.205 F 
ATOM     46  C   UNL A   1      49.192  28.804  27.931  1.00  0.00     0.022 A 
BRANCH  44  47
ATOM     47  S   UNL A   1      49.637  27.699  30.407  1.00  0.00     0.127 S 
ATOM     48  O   UNL A   1      49.080  26.347  30.419  1.00  0.00    -0.237 OA
ATOM     49  O   UNL A   1      50.975  27.800  29.824  1.00  0.00    -0.237 OA
ATOM     50  O   UNL A   1      49.455  28.475  31.627  1.00  0.00    -0.744 OA
ENDBRANCH  44  47
ENDBRANCH  26  40
BRANCH  27  51
ATOM     51  C   UNL A   1      37.077  32.097  30.395  1.00  0.00     0.023 A 
ATOM     52  C   UNL A   1      36.601  31.888  31.702  1.00  0.00     0.012 A 
ATOM     53  C   UNL A   1      36.242  32.723  29.448  1.00  0.00     0.148 A 
ATOM     54  C   UNL A   1      35.314  32.288  32.061  1.00  0.00     0.002 A 
ATOM     55  C   UNL A   1      34.980  33.169  29.827  1.00  0.00     0.091 A 
ATOM     56  F   UNL A   1      36.710  32.899  28.205  1.00  0.00    -0.205 F 
ATOM     57  C   UNL A   1      34.511  32.942  31.129  1.00  0.00     0.022 A 
BRANCH  55  58
ATOM     58  S   UNL A   1      33.941  34.148  28.737  1.00  0.00     0.127 S 
ATOM     59  O   UNL A   1      34.866  35.187  28.294  1.00  0.00    -0.237 OA
ATOM     60  O   UNL A   1      33.572  33.171  27.711  1.00  0.00    -0.237 OA
ATOM     61  O   UNL A   1      32.826  34.598  29.560  1.00  0.00    -0.744 OA
ENDBRANCH  55  58
ENDBRANCH  27  51
BRANCH  39  62
ATOM     62  C   UNL A   1      43.212  35.406  31.011  1.00  0.00     0.023 A 
ATOM     63  C   UNL A   1      43.476  35.575  32.384  1.00  0.00     0.012 A 
ATOM     64  C   UNL A   1      43.406  36.486  30.128  1.00  0.00     0.148 A 
ATOM     65  C   UNL A   1      43.914  36.805  32.873  1.00  0.00     0.002 A 
ATOM     66  C   UNL A   1      43.879  37.698  30.616  1.00  0.00     0.091 A 
ATOM     67  F   UNL A   1      43.126  36.308  28.828  1.00  0.00    -0.205 F 
ATOM     68  C   UNL A   1      44.128  37.860  31.989  1.00  0.00     0.022 A 
BRANCH  66  69
ATOM     69  S   UNL A   1      44.262  39.081  29.536  1.00  0.00     0.127 S 
ATOM     70  O   UNL A   1      42.998  39.814  29.532  1.00  0.00    -0.237 OA
ATOM     71  O   UNL A   1      45.351  39.747  30.252  1.00  0.00    -0.237 OA
ATOM     72  O   UNL A   1      44.653  38.493  28.262  1.00  0.00    -0.744 OA
ENDBRANCH  66  69
ENDBRANCH  39  62
ENDBRANCH  13  14
ENDBRANCH   6   8
ENDBRANCH   3   4
ENDBRANCH   2   3
ENDBRANCH   1   2
BRANCH   1  73
ATOM     73  C   UNL A   1      34.848  24.670  23.816  1.00  0.00     0.116 C 
BRANCH  73  74
ATOM     74  N   UNL A   1      33.647  25.132  23.157  1.00  0.00    -0.351 N 
ATOM     75  C   UNL A   1      32.426  24.516  23.097  1.00  0.00     0.262 C 
ATOM     76  H   UNL A   1      33.716  25.998  22.694  1.00  0.00     0.163 HD
ATOM     77  O   UNL A   1      31.606  24.951  22.291  1.00  0.00    -0.268 OA
BRANCH  75  78
ATOM     78  C   UNL A   1      32.188  23.337  23.892  1.00  0.00     0.112 A 
ATOM     79  S   UNL A   1      32.189  21.853  23.004  1.00  0.00    -0.137 S 
ATOM     80  C   UNL A   1      31.892  23.130  25.227  1.00  0.00     0.111 A 
ATOM     81  C   UNL A   1      31.874  20.926  24.394  1.00  0.00     0.067 A 
ATOM     82  C   UNL A   1      31.749  21.719  25.509  1.00  0.00     0.035 A 
BRANCH  80  83
ATOM     83  S   UNL A   1      31.763  24.272  26.527  1.00  0.00     0.263 S 
ATOM     84  O   UNL A   1      31.485  23.423  27.671  1.00  0.00    -0.201 OA
ATOM     85  O   UNL A   1      33.042  24.952  26.483  1.00  0.00    -0.201 OA
BRANCH  83  86
ATOM     86  N   UNL A   1      30.611  25.474  26.572  1.00  0.00    -0.277 N 
ATOM     87  H   UNL A   1      30.158  25.630  27.433  1.00  0.00     0.180 HD
BRANCH  86  88
ATOM     88  C   UNL A   1      30.221  26.299  25.478  1.00  0.00     0.072 A 
ATOM     89  C   UNL A   1      29.147  25.838  24.699  1.00  0.00     0.029 A 
ATOM     90  C   UNL A   1      30.908  27.480  25.119  1.00  0.00     0.061 A 
ATOM     91  C   UNL A   1      28.697  26.561  23.597  1.00  0.00     0.002 A 
ATOM     92  C   UNL A   1      30.417  28.200  24.013  1.00  0.00     0.028 A 
ATOM     93  C   UNL A   1      29.325  27.752  23.262  1.00  0.00     0.002 A 
BRANCH  90  94
ATOM     94  N   UNL A   1      32.087  27.942  25.718  1.00  0.00    -0.370 N 
ATOM     95  C   UNL A   1      33.181  28.271  24.807  1.00  0.00     0.116 C 
ATOM     96  C   UNL A   1      31.992  28.556  27.042  1.00  0.00     0.116 C 
ATOM     97  C   UNL A   1      34.510  28.446  25.529  1.00  0.00     0.021 C 
ATOM     98  C   UNL A   1      33.357  28.696  27.704  1.00  0.00     0.021 C 
ATOM     99  C   UNL A   1      34.357  29.338  26.752  1.00  0.00     0.004 C 
ENDBRANCH  90  94
ENDBRANCH  86  88
ENDBRANCH  83  86
ENDBRANCH  80  83
ENDBRANCH  75  78
ENDBRANCH  73  74
ENDBRANCH   1  73
TORSDOF 18
ENDMDL
MODEL 2
REMARK VINA RESULT:     -11.4      3.055      4.230
REMARK SMILES O=C(NCCCCNC(=O)c1sccc1S(=O)(=O)Nc1ccccc1N1CCCCC1)c1ccc(-c2c3nc(c(-c4cccc(S(=O)(=O)[O-])c4F)c4ccc([nH]4)c(-c4cccc(S(=O)(=O)[O-])c4F)c4nc(c(-c5cccc(S(=O)(=O)[O-])c5F)c5ccc2[nH]5)C=C4)C=C3)cc1
REMARK SMILES IDX 6 1 5 2 4 3 3 4 1 5 2 6 32 8 33 9 94 10 34 11 93 12 35 13
REMARK SMILES IDX 36 14 37 15 87 16 38 17 92 18 86 19 88 20 39 21 91 22 85 23
REMARK SMILES IDX 84 24 40 26 72 27 52 28 71 29 53 30 56 31 70 32 89 33 54 34
REMARK SMILES IDX 55 35 69 37 90 38 57 39 41 40 42 41 50 42 43 43 45 44 51 45
REMARK SMILES IDX 44 46 46 47 47 48 48 49 49 50 73 51 74 52 82 53 75 54 77 55
REMARK SMILES IDX 83 56 76 57 78 58 79 59 80 60 81 61 58 62 59 63 67 64 60 65
REMARK SMILES IDX 62 66 68 67 61 68 63 69 64 70 65 71 66 72 7 73 8 74 9 75
REMARK SMILES IDX 10 77 11 78 12 79 15 80 13 81 14 82 16 83 17 84 18 85 19 86
REMARK SMILES IDX 20 88 21 89 25 90 22 91 24 92 23 93 26 94 27 95 31 96 28 97
REMARK SMILES IDX 30 98 29 99
REMARK H PARENT 3 7 88 25 56 36 8 76 19 87
REMARK Flexibility Score: inf
ROOT
ATOM      1  C   UNL A   1      37.410  21.536  24.622  1.00  0.00     0.023 C 
ENDROOT
BRANCH   1   2
ATOM      2  C   UNL A   1      38.030  20.179  24.974  1.00  0.00     0.023 C 
BRANCH   2   3
ATOM      3  C   UNL A   1      38.874  20.160  26.246  1.00  0.00     0.116 C 
BRANCH   3   4
ATOM      4  N   UNL A   1      40.038  19.301  26.143  1.00  0.00    -0.352 N 
ATOM      5  O   UNL A   1      42.201  18.770  25.814  1.00  0.00    -0.269 OA
ATOM      6  C   UNL A   1      41.371  19.626  26.105  1.00  0.00     0.251 C 
ATOM      7  H   UNL A   1      39.842  18.337  26.093  1.00  0.00     0.163 HD
BRANCH   6   8
ATOM      8  C   UNL A   1      41.799  21.011  26.387  1.00  0.00     0.039 A 
ATOM      9  C   UNL A   1      42.176  21.396  27.677  1.00  0.00     0.014 A 
ATOM     10  C   UNL A   1      41.853  21.926  25.334  1.00  0.00     0.014 A 
ATOM     11  C   UNL A   1      42.483  22.730  27.941  1.00  0.00     0.010 A 
ATOM     12  C   UNL A   1      42.223  23.248  25.588  1.00  0.00     0.010 A 
ATOM     13  C   UNL A   1      42.509  23.667  26.897  1.00  0.00    -0.014 A 
BRANCH  13  14
ATOM     14  C   UNL A   1      42.880  25.079  27.160  1.00  0.00     0.031 A 
ATOM     15  C   UNL A   1      44.239  25.595  26.781  1.00  0.00     0.074 A 
ATOM     16  C   UNL A   1      42.004  25.879  27.798  1.00  0.00     0.049 A 
ATOM     17  N   UNL A   1      44.768  26.767  27.015  1.00  0.00    -0.248 NA
ATOM     18  C   UNL A   1      45.123  24.671  26.053  1.00  0.00     0.031 C 
ATOM     19  C   UNL A   1      40.670  25.474  28.245  1.00  0.00     0.029 A 
ATOM     20  N   UNL A   1      42.113  27.182  28.206  1.00  0.00    -0.354 N 
ATOM     21  C   UNL A   1      46.061  26.709  26.508  1.00  0.00     0.074 A 
ATOM     22  C   UNL A   1      46.236  25.385  25.950  1.00  0.00     0.031 C 
ATOM     23  C   UNL A   1      40.089  26.505  28.877  1.00  0.00     0.029 A 
ATOM     24  C   UNL A   1      41.023  27.624  28.917  1.00  0.00     0.049 A 
ATOM     25  H   UNL A   1      42.896  27.746  28.010  1.00  0.00     0.167 HD
ATOM     26  C   UNL A   1      47.008  27.676  26.496  1.00  0.00     0.034 A 
ATOM     27  C   UNL A   1      40.808  28.790  29.557  1.00  0.00     0.034 A 
ATOM     28  C   UNL A   1      46.813  29.005  27.012  1.00  0.00     0.049 A 
ATOM     29  C   UNL A   1      41.862  29.858  29.503  1.00  0.00     0.074 A 
ATOM     30  C   UNL A   1      47.687  30.076  26.986  1.00  0.00     0.029 A 
ATOM     31  N   UNL A   1      45.662  29.443  27.651  1.00  0.00    -0.354 N 
ATOM     32  N   UNL A   1      43.032  29.827  28.910  1.00  0.00    -0.248 NA
ATOM     33  C   UNL A   1      41.562  31.128  30.177  1.00  0.00     0.031 C 
ATOM     34  C   UNL A   1      47.067  31.162  27.614  1.00  0.00     0.029 A 
ATOM     35  C   UNL A   1      45.804  30.768  28.025  1.00  0.00     0.049 A 
ATOM     36  H   UNL A   1      44.862  28.892  27.814  1.00  0.00     0.167 HD
ATOM     37  C   UNL A   1      43.597  31.079  29.117  1.00  0.00     0.074 A 
ATOM     38  C   UNL A   1      42.633  31.852  29.875  1.00  0.00     0.031 C 
ATOM     39  C   UNL A   1      44.810  31.541  28.727  1.00  0.00     0.034 A 
BRANCH  26  40
ATOM     40  C   UNL A   1      48.332  27.349  25.860  1.00  0.00     0.023 A 
ATOM     41  C   UNL A   1      49.364  26.807  26.651  1.00  0.00     0.012 A 
ATOM     42  C   UNL A   1      48.540  27.526  24.479  1.00  0.00     0.148 A 
ATOM     43  C   UNL A   1      50.592  26.469  26.083  1.00  0.00     0.002 A 
ATOM     44  C   UNL A   1      49.757  27.156  23.912  1.00  0.00     0.091 A 
ATOM     45  F   UNL A   1      47.560  28.071  23.744  1.00  0.00    -0.205 F 
ATOM     46  C   UNL A   1      50.785  26.634  24.714  1.00  0.00     0.022 A 
BRANCH  44  47
ATOM     47  S   UNL A   1      50.054  27.279  22.144  1.00  0.00     0.127 S 
ATOM     48  O   UNL A   1      51.382  26.680  22.025  1.00  0.00    -0.237 OA
ATOM     49  O   UNL A   1      48.971  26.472  21.582  1.00  0.00    -0.237 OA
ATOM     50  O   UNL A   1      49.963  28.700  21.837  1.00  0.00    -0.744 OA
ENDBRANCH  44  47
ENDBRANCH  26  40
BRANCH  27  51
ATOM     51  C   UNL A   1      39.508  29.008  30.248  1.00  0.00     0.023 A 
ATOM     52  C   UNL A   1      39.320  28.486  31.541  1.00  0.00     0.012 A 
ATOM     53  C   UNL A   1      38.501  29.809  29.674  1.00  0.00     0.148 A 
ATOM     54  C   UNL A   1      38.147  28.752  32.250  1.00  0.00     0.002 A 
ATOM     55  C   UNL A   1      37.359  30.115  30.406  1.00  0.00     0.091 A 
ATOM     56  F   UNL A   1      38.695  30.282  28.435  1.00  0.00    -0.205 F 
ATOM     57  C   UNL A   1      37.176  29.578  31.689  1.00  0.00     0.022 A 
BRANCH  55  58
ATOM     58  S   UNL A   1      36.129  31.286  29.822  1.00  0.00     0.127 S 
ATOM     59  O   UNL A   1      35.289  31.453  31.004  1.00  0.00    -0.237 OA
ATOM     60  O   UNL A   1      36.953  32.448  29.481  1.00  0.00    -0.237 OA
ATOM     61  O   UNL A   1      35.495  30.648  28.676  1.00  0.00    -0.744 OA
ENDBRANCH  55  58
ENDBRANCH  27  51
BRANCH  39  62
ATOM     62  C   UNL A   1      45.166  32.957  29.086  1.00  0.00     0.023 A 
ATOM     63  C   UNL A   1      45.767  33.225  30.332  1.00  0.00     0.012 A 
ATOM     64  C   UNL A   1      44.995  34.002  28.158  1.00  0.00     0.148 A 
ATOM     65  C   UNL A   1      46.178  34.517  30.654  1.00  0.00     0.002 A 
ATOM     66  C   UNL A   1      45.441  35.280  28.471  1.00  0.00     0.091 A 
ATOM     67  F   UNL A   1      44.400  33.727  26.987  1.00  0.00    -0.205 F 
ATOM     68  C   UNL A   1      46.028  35.540  29.720  1.00  0.00     0.022 A 
BRANCH  66  69
ATOM     69  S   UNL A   1      45.363  36.635  27.294  1.00  0.00     0.127 S 
ATOM     70  O   UNL A   1      43.922  36.794  27.118  1.00  0.00    -0.237 OA
ATOM     71  O   UNL A   1      46.013  37.724  28.026  1.00  0.00    -0.237 OA
ATOM     72  O   UNL A   1      46.096  36.182  26.118  1.00  0.00    -0.744 OA
ENDBRANCH  66  69
ENDBRANCH  39  62
ENDBRANCH  13  14
ENDBRANCH   6   8
ENDBRANCH   3   4
ENDBRANCH   2   3
ENDBRANCH   1   2
BRANCH   1  73
ATOM     73  C   UNL A   1      35.888  21.538  24.539  1.00  0.00     0.116 C 
BRANCH  73  74
ATOM     74  N   UNL A   1      35.261  21.057  25.750  1.00  0.00    -0.351 N 
ATOM     75  C   UNL A   1      33.965  21.234  26.157  1.00  0.00     0.262 C 
ATOM     76  H   UNL A   1      35.836  20.537  26.356  1.00  0.00     0.163 HD
ATOM     77  O   UNL A   1      33.690  20.954  27.323  1.00  0.00    -0.268 OA
BRANCH  75  78
ATOM     78  C   UNL A   1      33.013  21.828  25.253  1.00  0.00     0.112 A 
ATOM     79  S   UNL A   1      32.749  20.940  23.792  1.00  0.00    -0.137 S 
ATOM     80  C   UNL A   1      32.294  23.010  25.266  1.00  0.00     0.111 A 
ATOM     81  C   UNL A   1      31.626  22.076  23.209  1.00  0.00     0.067 A 
ATOM     82  C   UNL A   1      31.465  23.120  24.086  1.00  0.00     0.035 A 
BRANCH  80  83
ATOM     83  S   UNL A   1      32.211  24.247  26.479  1.00  0.00     0.263 S 
ATOM     84  O   UNL A   1      31.708  23.527  27.635  1.00  0.00    -0.201 OA
ATOM     85  O   UNL A   1      33.573  24.739  26.528  1.00  0.00    -0.201 OA
BRANCH  83  86
ATOM     86  N   UNL A   1      31.245  25.597  26.338  1.00  0.00    -0.277 N 
ATOM     87  H   UNL A   1      30.271  25.453  26.327  1.00  0.00     0.180 HD
BRANCH  86  88
ATOM     88  C   UNL A   1      31.701  26.943  26.234  1.00  0.00     0.072 A 
ATOM     89  C   UNL A   1      31.476  27.767  27.348  1.00  0.00     0.029 A 
ATOM     90  C   UNL A   1      32.275  27.473  25.057  1.00  0.00     0.061 A 
ATOM     91  C   UNL A   1      31.869  29.104  27.343  1.00  0.00     0.002 A 
ATOM     92  C   UNL A   1      32.680  28.822  25.089  1.00  0.00     0.028 A 
ATOM     93  C   UNL A   1      32.485  29.628  26.216  1.00  0.00     0.002 A 
BRANCH  90  94
ATOM     94  N   UNL A   1      32.392  26.794  23.838  1.00  0.00    -0.370 N 
ATOM     95  C   UNL A   1      31.373  27.099  22.836  1.00  0.00     0.116 C 
ATOM     96  C   UNL A   1      33.711  26.294  23.452  1.00  0.00     0.116 C 
ATOM     97  C   UNL A   1      31.369  26.102  21.684  1.00  0.00     0.021 C 
ATOM     98  C   UNL A   1      33.629  25.301  22.299  1.00  0.00     0.021 C 
ATOM     99  C   UNL A   1      32.778  25.857  21.166  1.00  0.00     0.004 C 
ENDBRANCH  90  94
ENDBRANCH  86  88
ENDBRANCH  83  86
ENDBRANCH  80  83
ENDBRANCH  75  78
ENDBRANCH  73  74
ENDBRANCH   1  73
TORSDOF 18
ENDMDL
MODEL 3
REMARK VINA RESULT:     -11.4      3.882      9.072
REMARK SMILES O=C(NCCCCNC(=O)c1sccc1S(=O)(=O)Nc1ccccc1N1CCCCC1)c1ccc(-c2c3nc(c(-c4cccc(S(=O)(=O)[O-])c4F)c4ccc([nH]4)c(-c4cccc(S(=O)(=O)[O-])c4F)c4nc(c(-c5cccc(S(=O)(=O)[O-])c5F)c5ccc2[nH]5)C=C4)C=C3)cc1
REMARK SMILES IDX 6 1 5 2 4 3 3 4 1 5 2 6 32 8 33 9 94 10 34 11 93 12 35 13
REMARK SMILES IDX 36 14 37 15 87 16 38 17 92 18 86 19 88 20 39 21 91 22 85 23
REMARK SMILES IDX 84 24 40 26 72 27 52 28 71 29 53 30 56 31 70 32 89 33 54 34
REMARK SMILES IDX 55 35 69 37 90 38 57 39 41 40 42 41 50 42 43 43 45 44 51 45
REMARK SMILES IDX 44 46 46 47 47 48 48 49 49 50 73 51 74 52 82 53 75 54 77 55
REMARK SMILES IDX 83 56 76 57 78 58 79 59 80 60 81 61 58 62 59 63 67 64 60 65
REMARK SMILES IDX 62 66 68 67 61 68 63 69 64 70 65 71 66 72 7 73 8 74 9 75
REMARK SMILES IDX 10 77 11 78 12 79 15 80 13 81 14 82 16 83 17 84 18 85 19 86
REMARK SMILES IDX 20 88 21 89 25 90 22 91 24 92 23 93 26 94 27 95 31 96 28 97
REMARK SMILES IDX 30 98 29 99
REMARK H PARENT 3 7 88 25 56 36 8 76 19 87
REMARK Flexibility Score: inf
ROOT
ATOM      1  C   UNL A   1      31.608  28.062  26.818  1.00  0.00     0.023 C 
ENDROOT
BRANCH   1   2
ATOM      2  C   UNL A   1      33.059  28.261  27.268  1.00  0.00     0.023 C 
BRANCH   2   3
ATOM      3  C   UNL A   1      33.864  29.263  26.444  1.00  0.00     0.116 C 
BRANCH   3   4
ATOM      4  N   UNL A   1      33.769  30.620  26.947  1.00  0.00    -0.352 N 
ATOM      5  O   UNL A   1      34.189  32.359  28.313  1.00  0.00    -0.269 OA
ATOM      6  C   UNL A   1      34.548  31.274  27.869  1.00  0.00     0.251 C 
ATOM      7  H   UNL A   1      33.032  31.154  26.571  1.00  0.00     0.163 HD
BRANCH   6   8
ATOM      8  C   UNL A   1      35.804  30.655  28.341  1.00  0.00     0.039 A 
ATOM      9  C   UNL A   1      35.803  29.765  29.420  1.00  0.00     0.014 A 
ATOM     10  C   UNL A   1      36.992  30.950  27.671  1.00  0.00     0.014 A 
ATOM     11  C   UNL A   1      37.009  29.269  29.910  1.00  0.00     0.010 A 
ATOM     12  C   UNL A   1      38.193  30.401  28.125  1.00  0.00     0.010 A 
ATOM     13  C   UNL A   1      38.214  29.584  29.266  1.00  0.00    -0.014 A 
BRANCH  13  14
ATOM     14  C   UNL A   1      39.499  29.023  29.753  1.00  0.00     0.031 A 
ATOM     15  C   UNL A   1      40.254  29.697  30.864  1.00  0.00     0.074 A 
ATOM     16  C   UNL A   1      40.011  27.935  29.147  1.00  0.00     0.049 A 
ATOM     17  N   UNL A   1      41.430  29.405  31.354  1.00  0.00    -0.248 NA
ATOM     18  C   UNL A   1      39.609  30.857  31.500  1.00  0.00     0.031 C 
ATOM     19  C   UNL A   1      39.382  27.221  28.035  1.00  0.00     0.029 A 
ATOM     20  N   UNL A   1      41.185  27.261  29.358  1.00  0.00    -0.354 N 
ATOM     21  C   UNL A   1      41.689  30.368  32.321  1.00  0.00     0.074 A 
ATOM     22  C   UNL A   1      40.545  31.254  32.351  1.00  0.00     0.031 C 
ATOM     23  C   UNL A   1      40.183  26.215  27.653  1.00  0.00     0.029 A 
ATOM     24  C   UNL A   1      41.397  26.241  28.461  1.00  0.00     0.049 A 
ATOM     25  H   UNL A   1      41.815  27.485  30.080  1.00  0.00     0.167 HD
ATOM     26  C   UNL A   1      42.775  30.493  33.121  1.00  0.00     0.034 A 
ATOM     27  C   UNL A   1      42.461  25.433  28.288  1.00  0.00     0.034 A 
ATOM     28  C   UNL A   1      43.889  29.582  33.117  1.00  0.00     0.049 A 
ATOM     29  C   UNL A   1      43.640  25.572  29.206  1.00  0.00     0.074 A 
ATOM     30  C   UNL A   1      45.004  29.584  33.934  1.00  0.00     0.029 A 
ATOM     31  N   UNL A   1      44.029  28.509  32.250  1.00  0.00    -0.354 N 
ATOM     32  N   UNL A   1      43.813  26.412  30.199  1.00  0.00    -0.248 NA
ATOM     33  C   UNL A   1      44.757  24.639  29.006  1.00  0.00     0.031 C 
ATOM     34  C   UNL A   1      45.823  28.513  33.559  1.00  0.00     0.029 A 
ATOM     35  C   UNL A   1      45.213  27.841  32.512  1.00  0.00     0.049 A 
ATOM     36  H   UNL A   1      43.382  28.258  31.552  1.00  0.00     0.167 HD
ATOM     37  C   UNL A   1      45.045  26.094  30.757  1.00  0.00     0.074 A 
ATOM     38  C   UNL A   1      45.568  24.971  30.004  1.00  0.00     0.031 C 
ATOM     39  C   UNL A   1      45.690  26.688  31.791  1.00  0.00     0.034 A 
BRANCH  26  40
ATOM     40  C   UNL A   1      42.791  31.631  34.105  1.00  0.00     0.023 A 
ATOM     41  C   UNL A   1      43.345  32.868  33.722  1.00  0.00     0.012 A 
ATOM     42  C   UNL A   1      42.215  31.497  35.383  1.00  0.00     0.148 A 
ATOM     43  C   UNL A   1      43.349  33.948  34.605  1.00  0.00     0.002 A 
ATOM     44  C   UNL A   1      42.192  32.589  36.245  1.00  0.00     0.091 A 
ATOM     45  F   UNL A   1      41.717  30.306  35.744  1.00  0.00    -0.205 F 
ATOM     46  C   UNL A   1      42.764  33.812  35.860  1.00  0.00     0.022 A 
BRANCH  44  47
ATOM     47  S   UNL A   1      41.398  32.507  37.855  1.00  0.00     0.127 S 
ATOM     48  O   UNL A   1      41.447  33.904  38.282  1.00  0.00    -0.237 OA
ATOM     49  O   UNL A   1      40.058  32.020  37.525  1.00  0.00    -0.237 OA
ATOM     50  O   UNL A   1      42.200  31.572  38.633  1.00  0.00    -0.744 OA
ENDBRANCH  44  47
ENDBRANCH  26  40
BRANCH  27  51
ATOM     51  C   UNL A   1      42.413  24.390  27.228  1.00  0.00     0.023 A 
ATOM     52  C   UNL A   1      43.228  24.525  26.089  1.00  0.00     0.012 A 
ATOM     53  C   UNL A   1      41.642  23.221  27.389  1.00  0.00     0.148 A 
ATOM     54  C   UNL A   1      43.272  23.518  25.124  1.00  0.00     0.002 A 
ATOM     55  C   UNL A   1      41.732  22.198  26.452  1.00  0.00     0.091 A 
ATOM     56  F   UNL A   1      40.861  23.119  28.474  1.00  0.00    -0.205 F 
ATOM     57  C   UNL A   1      42.537  22.350  25.313  1.00  0.00     0.022 A 
BRANCH  55  58
ATOM     58  S   UNL A   1      40.938  20.605  26.690  1.00  0.00     0.127 S 
ATOM     59  O   UNL A   1      40.964  20.472  28.143  1.00  0.00    -0.237 OA
ATOM     60  O   UNL A   1      39.611  20.837  26.115  1.00  0.00    -0.237 OA
ATOM     61  O   UNL A   1      41.750  19.649  25.949  1.00  0.00    -0.744 OA
ENDBRANCH  55  58
ENDBRANCH  27  51
BRANCH  39  62
ATOM     62  C   UNL A   1      47.026  26.127  32.194  1.00  0.00     0.023 A 
ATOM     63  C   UNL A   1      47.102  25.235  33.282  1.00  0.00     0.012 A 
ATOM     64  C   UNL A   1      48.183  26.407  31.442  1.00  0.00     0.148 A 
ATOM     65  C   UNL A   1      48.315  24.640  33.624  1.00  0.00     0.002 A 
ATOM     66  C   UNL A   1      49.381  25.782  31.766  1.00  0.00     0.091 A 
ATOM     67  F   UNL A   1      48.091  27.277  30.426  1.00  0.00    -0.205 F 
ATOM     68  C   UNL A   1      49.450  24.903  32.859  1.00  0.00     0.022 A 
BRANCH  66  69
ATOM     69  S   UNL A   1      50.869  25.999  30.783  1.00  0.00     0.127 S 
ATOM     70  O   UNL A   1      51.839  25.202  31.530  1.00  0.00    -0.237 OA
ATOM     71  O   UNL A   1      50.478  25.431  29.491  1.00  0.00    -0.237 OA
ATOM     72  O   UNL A   1      51.120  27.434  30.755  1.00  0.00    -0.744 OA
ENDBRANCH  66  69
ENDBRANCH  39  62
ENDBRANCH  13  14
ENDBRANCH   6   8
ENDBRANCH   3   4
ENDBRANCH   2   3
ENDBRANCH   1   2
BRANCH   1  73
ATOM     73  C   UNL A   1      31.246  26.628  26.449  1.00  0.00     0.116 C 
BRANCH  73  74
ATOM     74  N   UNL A   1      30.102  26.548  25.567  1.00  0.00    -0.351 N 
ATOM     75  C   UNL A   1      30.092  26.519  24.198  1.00  0.00     0.262 C 
ATOM     76  H   UNL A   1      29.223  26.509  26.006  1.00  0.00     0.163 HD
ATOM     77  O   UNL A   1      29.014  26.691  23.632  1.00  0.00    -0.268 OA
BRANCH  75  78
ATOM     78  C   UNL A   1      31.337  26.394  23.483  1.00  0.00     0.112 A 
ATOM     79  S   UNL A   1      31.953  27.877  22.837  1.00  0.00    -0.137 S 
ATOM     80  C   UNL A   1      32.136  25.319  23.137  1.00  0.00     0.111 A 
ATOM     81  C   UNL A   1      33.315  27.113  22.166  1.00  0.00     0.067 A 
ATOM     82  C   UNL A   1      33.301  25.760  22.403  1.00  0.00     0.035 A 
BRANCH  80  83
ATOM     83  S   UNL A   1      31.963  23.637  23.524  1.00  0.00     0.263 S 
ATOM     84  O   UNL A   1      32.147  23.619  24.963  1.00  0.00    -0.201 OA
ATOM     85  O   UNL A   1      30.647  23.324  23.005  1.00  0.00    -0.201 OA
BRANCH  83  86
ATOM     86  N   UNL A   1      32.978  22.457  22.929  1.00  0.00    -0.277 N 
ATOM     87  H   UNL A   1      33.437  22.647  22.078  1.00  0.00     0.180 HD
BRANCH  86  88
ATOM     88  C   UNL A   1      33.244  21.198  23.540  1.00  0.00     0.072 A 
ATOM     89  C   UNL A   1      32.298  20.184  23.319  1.00  0.00     0.029 A 
ATOM     90  C   UNL A   1      34.346  20.973  24.395  1.00  0.00     0.061 A 
ATOM     91  C   UNL A   1      32.455  18.920  23.883  1.00  0.00     0.002 A 
ATOM     92  C   UNL A   1      34.489  19.680  24.934  1.00  0.00     0.028 A 
ATOM     93  C   UNL A   1      33.561  18.664  24.682  1.00  0.00     0.002 A 
BRANCH  90  94
ATOM     94  N   UNL A   1      35.253  21.953  24.817  1.00  0.00    -0.370 N 
ATOM     95  C   UNL A   1      35.065  22.454  26.177  1.00  0.00     0.116 C 
ATOM     96  C   UNL A   1      36.559  22.012  24.160  1.00  0.00     0.116 C 
ATOM     97  C   UNL A   1      35.861  23.724  26.448  1.00  0.00     0.021 C 
ATOM     98  C   UNL A   1      37.295  23.310  24.473  1.00  0.00     0.021 C 
ATOM     99  C   UNL A   1      37.299  23.582  25.970  1.00  0.00     0.004 C 
ENDBRANCH  90  94
ENDBRANCH  86  88
ENDBRANCH  83  86
ENDBRANCH  80  83
ENDBRANCH  75  78
ENDBRANCH  73  74
ENDBRANCH   1  73
TORSDOF 18
ENDMDL
