MODEL 1
REMARK VINA RESULT:     -11.9      0.000      0.000
REMARK SMILES C[C@@H]1CCC[N@@H+]([C@@H]2CCC[C@]([NH3+])(C(=O)NCCCCNC(=O)c3ccc(-c4c5nc(c(-c6cccc(S(=O)(=O)[O-])c6F)c6ccc([nH]6)c(-c6cccc(S(=O)(=O)[O-])c6F)c6nc(c(-c7cccc(S(=O)(=O)[O-])c7F)c7ccc4[nH]7)C=C6)C=C5)cc3)C2)C1
REMARK SMILES IDX 18 1 17 2 16 3 15 4 13 5 14 6 11 8 7 9 8 10 86 11 9 12 10 13
REMARK SMILES IDX 6 14 1 15 2 16 3 17 87 18 4 19 5 20 12 22 19 26 20 27 21 28
REMARK SMILES IDX 22 30 23 31 24 32 85 33 25 34 84 35 26 36 27 37 28 38 78 39
REMARK SMILES IDX 29 40 83 41 77 42 79 43 30 44 82 45 76 46 75 47 31 49 63 50
REMARK SMILES IDX 43 51 62 52 44 53 47 54 61 55 80 56 45 57 46 58 60 60 81 61
REMARK SMILES IDX 48 62 32 63 33 64 41 65 34 66 36 67 42 68 35 69 37 70 38 71
REMARK SMILES IDX 39 72 40 73 64 74 65 75 73 76 66 77 68 78 74 79 67 80 69 81
REMARK SMILES IDX 70 82 71 83 72 84 49 85 50 86 58 87 51 88 53 89 59 90 52 91
REMARK SMILES IDX 54 92 55 93 56 94 57 95
REMARK H PARENT 15 7 6 21 12 23 12 24 12 25 20 29 79 48 47 59
REMARK Flexibility Score: inf
ROOT
ATOM      1  C   UNL A   1      31.024  32.079  26.291  1.00  0.00     0.023 C 
ENDROOT
BRANCH   1   2
ATOM      2  C   UNL A   1      31.064  30.777  25.502  1.00  0.00     0.023 C 
BRANCH   2   3
ATOM      3  C   UNL A   1      32.299  29.924  25.750  1.00  0.00     0.116 C 
BRANCH   3   4
ATOM      4  N   UNL A   1      33.070  29.672  24.541  1.00  0.00    -0.351 N 
ATOM      5  C   UNL A   1      33.137  28.561  23.735  1.00  0.00     0.281 C 
ATOM      6  O   UNL A   1      33.814  28.631  22.708  1.00  0.00    -0.268 OA
ATOM      7  H   UNL A   1      33.639  30.422  24.254  1.00  0.00     0.163 HD
BRANCH   5   8
ATOM      8  C   UNL A   1      32.403  27.253  24.155  1.00  0.00     0.179 C 
ATOM      9  C   UNL A   1      32.159  24.710  23.791  1.00  0.00     0.190 C 
ATOM     10  C   UNL A   1      30.625  24.890  23.856  1.00  0.00     0.065 C 
ATOM     11  C   UNL A   1      32.914  26.009  23.382  1.00  0.00     0.144 C 
ATOM     12  C   UNL A   1      30.122  26.217  24.398  1.00  0.00     0.013 C 
ATOM     13  C   UNL A   1      30.904  27.367  23.804  1.00  0.00     0.079 C 
BRANCH   9  14
ATOM     14  N   UNL A   1      32.612  23.504  23.054  1.00  0.00    -0.332 N 
ATOM     15  C   UNL A   1      36.365  22.709  23.486  1.00  0.00     0.013 C 
ATOM     16  C   UNL A   1      34.900  22.814  23.907  1.00  0.00     0.041 C 
ATOM     17  C   UNL A   1      34.342  21.451  24.326  1.00  0.00     0.015 C 
ATOM     18  C   UNL A   1      34.054  23.448  22.784  1.00  0.00     0.265 C 
ATOM     19  C   UNL A   1      32.837  21.505  24.582  1.00  0.00     0.062 C 
ATOM     20  C   UNL A   1      32.086  22.196  23.444  1.00  0.00     0.262 C 
ATOM     21  H   UNL A   1      32.129  23.688  22.175  1.00  0.00     0.348 HD
ENDBRANCH   9  14
BRANCH   8  22
ATOM     22  N   UNL A   1      32.696  27.010  25.595  1.00  0.00    -0.345 N 
ATOM     23  H   UNL A   1      31.885  26.579  26.039  1.00  0.00     0.345 HD
ATOM     24  H   UNL A   1      32.905  27.897  26.054  1.00  0.00     0.345 HD
ATOM     25  H   UNL A   1      33.500  26.388  25.677  1.00  0.00     0.345 HD
ENDBRANCH   8  22
ENDBRANCH   5   8
ENDBRANCH   3   4
ENDBRANCH   2   3
ENDBRANCH   1   2
BRANCH   1  26
ATOM     26  C   UNL A   1      32.365  32.537  26.854  1.00  0.00     0.116 C 
BRANCH  26  27
ATOM     27  N   UNL A   1      32.303  33.830  27.525  1.00  0.00    -0.352 N 
ATOM     28  C   UNL A   1      33.173  34.362  28.450  1.00  0.00     0.251 C 
ATOM     29  H   UNL A   1      31.538  34.400  27.284  1.00  0.00     0.163 HD
ATOM     30  O   UNL A   1      32.927  35.428  28.997  1.00  0.00    -0.269 OA
BRANCH  28  31
ATOM     31  C   UNL A   1      34.389  33.599  28.799  1.00  0.00     0.039 A 
ATOM     32  C   UNL A   1      35.634  34.219  28.668  1.00  0.00     0.014 A 
ATOM     33  C   UNL A   1      34.283  32.316  29.339  1.00  0.00     0.014 A 
ATOM     34  C   UNL A   1      36.769  33.582  29.170  1.00  0.00     0.010 A 
ATOM     35  C   UNL A   1      35.403  31.718  29.905  1.00  0.00     0.010 A 
ATOM     36  C   UNL A   1      36.654  32.351  29.838  1.00  0.00    -0.014 A 
BRANCH  36  37
ATOM     37  C   UNL A   1      37.816  31.738  30.528  1.00  0.00     0.031 A 
ATOM     38  C   UNL A   1      38.626  30.669  29.849  1.00  0.00     0.074 A 
ATOM     39  C   UNL A   1      38.070  32.065  31.811  1.00  0.00     0.049 A 
ATOM     40  N   UNL A   1      39.631  29.976  30.319  1.00  0.00    -0.248 NA
ATOM     41  C   UNL A   1      38.240  30.310  28.475  1.00  0.00     0.031 C 
ATOM     42  C   UNL A   1      37.294  33.018  32.610  1.00  0.00     0.029 A 
ATOM     43  N   UNL A   1      39.030  31.611  32.681  1.00  0.00    -0.354 N 
ATOM     44  C   UNL A   1      39.974  29.079  29.317  1.00  0.00     0.074 A 
ATOM     45  C   UNL A   1      39.051  29.292  28.224  1.00  0.00     0.031 C 
ATOM     46  C   UNL A   1      37.808  33.075  33.849  1.00  0.00     0.029 A 
ATOM     47  C   UNL A   1      38.931  32.148  33.944  1.00  0.00     0.049 A 
ATOM     48  H   UNL A   1      39.725  30.962  32.424  1.00  0.00     0.167 HD
ATOM     49  C   UNL A   1      40.986  28.180  29.295  1.00  0.00     0.034 A 
ATOM     50  C   UNL A   1      39.657  31.915  35.055  1.00  0.00     0.034 A 
ATOM     51  C   UNL A   1      41.932  28.005  30.364  1.00  0.00     0.049 A 
ATOM     52  C   UNL A   1      40.806  30.947  34.987  1.00  0.00     0.074 A 
ATOM     53  C   UNL A   1      43.058  27.203  30.393  1.00  0.00     0.029 A 
ATOM     54  N   UNL A   1      41.859  28.635  31.596  1.00  0.00    -0.354 N 
ATOM     55  N   UNL A   1      41.231  30.243  33.965  1.00  0.00    -0.248 NA
ATOM     56  C   UNL A   1      41.596  30.765  36.212  1.00  0.00     0.031 C 
ATOM     57  C   UNL A   1      43.656  27.332  31.651  1.00  0.00     0.029 A 
ATOM     58  C   UNL A   1      42.910  28.229  32.400  1.00  0.00     0.049 A 
ATOM     59  H   UNL A   1      41.161  29.278  31.861  1.00  0.00     0.167 HD
ATOM     60  C   UNL A   1      42.352  29.556  34.416  1.00  0.00     0.074 A 
ATOM     61  C   UNL A   1      42.556  29.951  35.795  1.00  0.00     0.031 C 
ATOM     62  C   UNL A   1      43.130  28.664  33.755  1.00  0.00     0.034 A 
BRANCH  49  63
ATOM     63  C   UNL A   1      41.164  27.358  28.047  1.00  0.00     0.023 A 
ATOM     64  C   UNL A   1      41.756  27.946  26.911  1.00  0.00     0.012 A 
ATOM     65  C   UNL A   1      40.809  25.995  28.015  1.00  0.00     0.148 A 
ATOM     66  C   UNL A   1      41.964  27.200  25.752  1.00  0.00     0.002 A 
ATOM     67  C   UNL A   1      41.057  25.247  26.869  1.00  0.00     0.091 A 
ATOM     68  F   UNL A   1      40.225  25.460  29.097  1.00  0.00    -0.205 F 
ATOM     69  C   UNL A   1      41.625  25.850  25.734  1.00  0.00     0.022 A 
BRANCH  67  70
ATOM     70  S   UNL A   1      40.726  23.485  26.773  1.00  0.00     0.127 S 
ATOM     71  O   UNL A   1      39.298  23.470  26.456  1.00  0.00    -0.237 OA
ATOM     72  O   UNL A   1      41.598  23.066  25.676  1.00  0.00    -0.237 OA
ATOM     73  O   UNL A   1      41.084  22.939  28.074  1.00  0.00    -0.744 OA
ENDBRANCH  67  70
ENDBRANCH  49  63
BRANCH  50  74
ATOM     74  C   UNL A   1      39.358  32.665  36.307  1.00  0.00     0.023 A 
ATOM     75  C   UNL A   1      39.960  33.920  36.520  1.00  0.00     0.012 A 
ATOM     76  C   UNL A   1      38.459  32.163  37.268  1.00  0.00     0.148 A 
ATOM     77  C   UNL A   1      39.694  34.649  37.680  1.00  0.00     0.002 A 
ATOM     78  C   UNL A   1      38.155  32.920  38.394  1.00  0.00     0.091 A 
ATOM     79  F   UNL A   1      37.906  30.960  37.055  1.00  0.00    -0.205 F 
ATOM     80  C   UNL A   1      38.784  34.156  38.610  1.00  0.00     0.022 A 
BRANCH  78  81
ATOM     81  S   UNL A   1      36.892  32.423  39.571  1.00  0.00     0.127 S 
ATOM     82  O   UNL A   1      37.349  31.090  39.956  1.00  0.00    -0.237 OA
ATOM     83  O   UNL A   1      37.024  33.445  40.610  1.00  0.00    -0.237 OA
ATOM     84  O   UNL A   1      35.634  32.478  38.838  1.00  0.00    -0.744 OA
ENDBRANCH  78  81
ENDBRANCH  50  74
BRANCH  62  85
ATOM     85  C   UNL A   1      44.286  28.058  34.505  1.00  0.00     0.023 A 
ATOM     86  C   UNL A   1      45.524  28.730  34.535  1.00  0.00     0.012 A 
ATOM     87  C   UNL A   1      44.128  26.864  35.236  1.00  0.00     0.148 A 
ATOM     88  C   UNL A   1      46.595  28.209  35.259  1.00  0.00     0.002 A 
ATOM     89  C   UNL A   1      45.186  26.376  35.992  1.00  0.00     0.091 A 
ATOM     90  F   UNL A   1      42.949  26.230  35.178  1.00  0.00    -0.205 F 
ATOM     91  C   UNL A   1      46.424  27.040  35.997  1.00  0.00     0.022 A 
BRANCH  89  92
ATOM     92  S   UNL A   1      45.028  24.929  37.046  1.00  0.00     0.127 S 
ATOM     93  O   UNL A   1      44.038  25.378  38.022  1.00  0.00    -0.237 OA
ATOM     94  O   UNL A   1      44.546  23.913  36.110  1.00  0.00    -0.237 OA
ATOM     95  O   UNL A   1      46.361  24.674  37.578  1.00  0.00    -0.744 OA
ENDBRANCH  89  92
ENDBRANCH  62  85
ENDBRANCH  36  37
ENDBRANCH  28  31
ENDBRANCH  26  27
ENDBRANCH   1  26
TORSDOF 16
ENDMDL
MODEL 2
REMARK VINA RESULT:     -11.9      2.046      8.025
REMARK SMILES C[C@@H]1CCC[N@@H+]([C@@H]2CCC[C@]([NH3+])(C(=O)NCCCCNC(=O)c3ccc(-c4c5nc(c(-c6cccc(S(=O)(=O)[O-])c6F)c6ccc([nH]6)c(-c6cccc(S(=O)(=O)[O-])c6F)c6nc(c(-c7cccc(S(=O)(=O)[O-])c7F)c7ccc4[nH]7)C=C6)C=C5)cc3)C2)C1
REMARK SMILES IDX 18 1 17 2 16 3 15 4 13 5 14 6 11 8 7 9 8 10 86 11 9 12 10 13
REMARK SMILES IDX 6 14 1 15 2 16 3 17 87 18 4 19 5 20 12 22 19 26 20 27 21 28
REMARK SMILES IDX 22 30 23 31 24 32 85 33 25 34 84 35 26 36 27 37 28 38 78 39
REMARK SMILES IDX 29 40 83 41 77 42 79 43 30 44 82 45 76 46 75 47 31 49 63 50
REMARK SMILES IDX 43 51 62 52 44 53 47 54 61 55 80 56 45 57 46 58 60 60 81 61
REMARK SMILES IDX 48 62 32 63 33 64 41 65 34 66 36 67 42 68 35 69 37 70 38 71
REMARK SMILES IDX 39 72 40 73 64 74 65 75 73 76 66 77 68 78 74 79 67 80 69 81
REMARK SMILES IDX 70 82 71 83 72 84 49 85 50 86 58 87 51 88 53 89 59 90 52 91
REMARK SMILES IDX 54 92 55 93 56 94 57 95
REMARK H PARENT 15 7 6 21 12 23 12 24 12 25 20 29 79 48 47 59
REMARK Flexibility Score: inf
ROOT
ATOM      1  C   UNL A   1      32.386  29.650  25.179  1.00  0.00     0.023 C 
ENDROOT
BRANCH   1   2
ATOM      2  C   UNL A   1      31.088  29.348  24.441  1.00  0.00     0.023 C 
BRANCH   2   3
ATOM      3  C   UNL A   1      30.923  27.897  24.017  1.00  0.00     0.116 C 
BRANCH   3   4
ATOM      4  N   UNL A   1      30.276  27.077  25.031  1.00  0.00    -0.351 N 
ATOM      5  C   UNL A   1      30.678  25.906  25.628  1.00  0.00     0.281 C 
ATOM      6  O   UNL A   1      29.977  25.447  26.532  1.00  0.00    -0.268 OA
ATOM      7  H   UNL A   1      29.405  27.417  25.340  1.00  0.00     0.163 HD
BRANCH   5   8
ATOM      8  C   UNL A   1      31.962  25.182  25.128  1.00  0.00     0.179 C 
ATOM      9  C   UNL A   1      33.541  23.159  25.409  1.00  0.00     0.190 C 
ATOM     10  C   UNL A   1      34.738  24.125  25.248  1.00  0.00     0.065 C 
ATOM     11  C   UNL A   1      32.242  23.866  25.901  1.00  0.00     0.144 C 
ATOM     12  C   UNL A   1      34.422  25.509  24.709  1.00  0.00     0.013 C 
ATOM     13  C   UNL A   1      33.192  26.077  25.382  1.00  0.00     0.079 C 
BRANCH   9  14
ATOM     14  N   UNL A   1      33.848  21.907  26.143  1.00  0.00    -0.332 N 
ATOM     15  C   UNL A   1      32.573  18.705  24.403  1.00  0.00     0.013 C 
ATOM     16  C   UNL A   1      33.473  19.923  24.606  1.00  0.00     0.041 C 
ATOM     17  C   UNL A   1      34.940  19.512  24.765  1.00  0.00     0.015 C 
ATOM     18  C   UNL A   1      32.991  20.764  25.805  1.00  0.00     0.265 C 
ATOM     19  C   UNL A   1      35.826  20.698  25.141  1.00  0.00     0.062 C 
ATOM     20  C   UNL A   1      35.244  21.503  26.303  1.00  0.00     0.262 C 
ATOM     21  H   UNL A   1      33.598  22.228  27.079  1.00  0.00     0.348 HD
ENDBRANCH   9  14
BRANCH   8  22
ATOM     22  N   UNL A   1      31.742  24.801  23.705  1.00  0.00    -0.345 N 
ATOM     23  H   UNL A   1      32.115  23.865  23.542  1.00  0.00     0.345 HD
ATOM     24  H   UNL A   1      32.218  25.468  23.096  1.00  0.00     0.345 HD
ATOM     25  H   UNL A   1      30.743  24.808  23.500  1.00  0.00     0.345 HD
ENDBRANCH   8  22
ENDBRANCH   5   8
ENDBRANCH   3   4
ENDBRANCH   2   3
ENDBRANCH   1   2
BRANCH   1  26
ATOM     26  C   UNL A   1      32.223  30.038  26.644  1.00  0.00     0.116 C 
BRANCH  26  27
ATOM     27  N   UNL A   1      32.176  31.479  26.863  1.00  0.00    -0.352 N 
ATOM     28  C   UNL A   1      33.126  32.294  27.436  1.00  0.00     0.251 C 
ATOM     29  H   UNL A   1      31.355  31.930  26.559  1.00  0.00     0.163 HD
ATOM     30  O   UNL A   1      32.893  33.477  27.638  1.00  0.00    -0.269 OA
BRANCH  28  31
ATOM     31  C   UNL A   1      34.416  31.700  27.841  1.00  0.00     0.039 A 
ATOM     32  C   UNL A   1      35.523  32.538  27.999  1.00  0.00     0.014 A 
ATOM     33  C   UNL A   1      34.499  30.341  28.150  1.00  0.00     0.014 A 
ATOM     34  C   UNL A   1      36.693  32.024  28.560  1.00  0.00     0.010 A 
ATOM     35  C   UNL A   1      35.640  29.851  28.777  1.00  0.00     0.010 A 
ATOM     36  C   UNL A   1      36.741  30.692  29.001  1.00  0.00    -0.014 A 
BRANCH  36  37
ATOM     37  C   UNL A   1      37.910  30.171  29.753  1.00  0.00     0.031 A 
ATOM     38  C   UNL A   1      38.185  30.645  31.153  1.00  0.00     0.074 A 
ATOM     39  C   UNL A   1      38.788  29.359  29.130  1.00  0.00     0.049 A 
ATOM     40  N   UNL A   1      39.190  30.352  31.937  1.00  0.00    -0.248 NA
ATOM     41  C   UNL A   1      37.223  31.592  31.739  1.00  0.00     0.031 C 
ATOM     42  C   UNL A   1      38.682  28.908  27.740  1.00  0.00     0.029 A 
ATOM     43  N   UNL A   1      39.958  28.794  29.572  1.00  0.00    -0.354 N 
ATOM     44  C   UNL A   1      39.002  31.102  33.090  1.00  0.00     0.074 A 
ATOM     45  C   UNL A   1      37.804  31.888  32.893  1.00  0.00     0.031 C 
ATOM     46  C   UNL A   1      39.742  28.138  27.445  1.00  0.00     0.029 A 
ATOM     47  C   UNL A   1      40.615  28.061  28.611  1.00  0.00     0.049 A 
ATOM     48  H   UNL A   1      40.295  28.903  30.491  1.00  0.00     0.167 HD
ATOM     49  C   UNL A   1      39.742  31.112  34.224  1.00  0.00     0.034 A 
ATOM     50  C   UNL A   1      41.792  27.407  28.660  1.00  0.00     0.034 A 
ATOM     51  C   UNL A   1      40.905  30.293  34.435  1.00  0.00     0.049 A 
ATOM     52  C   UNL A   1      42.568  27.395  29.949  1.00  0.00     0.074 A 
ATOM     53  C   UNL A   1      41.656  30.147  35.587  1.00  0.00     0.029 A 
ATOM     54  N   UNL A   1      41.491  29.487  33.471  1.00  0.00    -0.354 N 
ATOM     55  N   UNL A   1      42.274  27.963  31.093  1.00  0.00    -0.248 NA
ATOM     56  C   UNL A   1      43.821  26.626  29.964  1.00  0.00     0.031 C 
ATOM     57  C   UNL A   1      42.710  29.268  35.314  1.00  0.00     0.029 A 
ATOM     58  C   UNL A   1      42.603  28.853  33.996  1.00  0.00     0.049 A 
ATOM     59  H   UNL A   1      41.163  29.382  32.549  1.00  0.00     0.167 HD
ATOM     60  C   UNL A   1      43.288  27.600  31.971  1.00  0.00     0.074 A 
ATOM     61  C   UNL A   1      44.190  26.739  31.233  1.00  0.00     0.031 C 
ATOM     62  C   UNL A   1      43.467  27.961  33.265  1.00  0.00     0.034 A 
BRANCH  49  63
ATOM     63  C   UNL A   1      39.279  31.993  35.353  1.00  0.00     0.023 A 
ATOM     64  C   UNL A   1      38.373  31.479  36.304  1.00  0.00     0.012 A 
ATOM     65  C   UNL A   1      39.783  33.298  35.513  1.00  0.00     0.148 A 
ATOM     66  C   UNL A   1      37.952  32.260  37.379  1.00  0.00     0.002 A 
ATOM     67  C   UNL A   1      39.391  34.057  36.610  1.00  0.00     0.091 A 
ATOM     68  F   UNL A   1      40.624  33.778  34.586  1.00  0.00    -0.205 F 
ATOM     69  C   UNL A   1      38.468  33.543  37.538  1.00  0.00     0.022 A 
BRANCH  67  70
ATOM     70  S   UNL A   1      40.055  35.691  36.945  1.00  0.00     0.127 S 
ATOM     71  O   UNL A   1      39.642  36.428  35.751  1.00  0.00    -0.237 OA
ATOM     72  O   UNL A   1      39.347  36.068  38.168  1.00  0.00    -0.237 OA
ATOM     73  O   UNL A   1      41.491  35.514  37.106  1.00  0.00    -0.744 OA
ENDBRANCH  67  70
ENDBRANCH  49  63
BRANCH  50  74
ATOM     74  C   UNL A   1      42.272  26.651  27.469  1.00  0.00     0.023 A 
ATOM     75  C   UNL A   1      43.021  27.321  26.482  1.00  0.00     0.012 A 
ATOM     76  C   UNL A   1      42.023  25.273  27.324  1.00  0.00     0.148 A 
ATOM     77  C   UNL A   1      43.491  26.639  25.359  1.00  0.00     0.002 A 
ATOM     78  C   UNL A   1      42.541  24.587  26.230  1.00  0.00     0.091 A 
ATOM     79  F   UNL A   1      41.295  24.655  28.265  1.00  0.00    -0.205 F 
ATOM     80  C   UNL A   1      43.261  25.272  25.239  1.00  0.00     0.022 A 
BRANCH  78  81
ATOM     81  S   UNL A   1      42.411  22.803  26.068  1.00  0.00     0.127 S 
ATOM     82  O   UNL A   1      40.964  22.606  26.071  1.00  0.00    -0.237 OA
ATOM     83  O   UNL A   1      43.065  22.565  24.781  1.00  0.00    -0.237 OA
ATOM     84  O   UNL A   1      43.130  22.255  27.212  1.00  0.00    -0.744 OA
ENDBRANCH  78  81
ENDBRANCH  50  74
BRANCH  62  85
ATOM     85  C   UNL A   1      44.678  27.421  33.979  1.00  0.00     0.023 A 
ATOM     86  C   UNL A   1      45.855  28.194  34.033  1.00  0.00     0.012 A 
ATOM     87  C   UNL A   1      44.628  26.186  34.655  1.00  0.00     0.148 A 
ATOM     88  C   UNL A   1      46.973  27.733  34.725  1.00  0.00     0.002 A 
ATOM     89  C   UNL A   1      45.732  25.756  35.381  1.00  0.00     0.091 A 
ATOM     90  F   UNL A   1      43.506  25.458  34.576  1.00  0.00    -0.205 F 
ATOM     91  C   UNL A   1      46.909  26.521  35.409  1.00  0.00     0.022 A 
BRANCH  89  92
ATOM     92  S   UNL A   1      45.707  24.254  36.368  1.00  0.00     0.127 S 
ATOM     93  O   UNL A   1      45.578  23.224  35.339  1.00  0.00    -0.237 OA
ATOM     94  O   UNL A   1      47.010  24.294  37.031  1.00  0.00    -0.237 OA
ATOM     95  O   UNL A   1      44.569  24.386  37.268  1.00  0.00    -0.744 OA
ENDBRANCH  89  92
ENDBRANCH  62  85
ENDBRANCH  36  37
ENDBRANCH  28  31
ENDBRANCH  26  27
ENDBRANCH   1  26
TORSDOF 16
ENDMDL
MODEL 3
REMARK VINA RESULT:     -11.8      5.722     11.280
REMARK SMILES C[C@@H]1CCC[N@@H+]([C@@H]2CCC[C@]([NH3+])(C(=O)NCCCCNC(=O)c3ccc(-c4c5nc(c(-c6cccc(S(=O)(=O)[O-])c6F)c6ccc([nH]6)c(-c6cccc(S(=O)(=O)[O-])c6F)c6nc(c(-c7cccc(S(=O)(=O)[O-])c7F)c7ccc4[nH]7)C=C6)C=C5)cc3)C2)C1
REMARK SMILES IDX 18 1 17 2 16 3 15 4 13 5 14 6 11 8 7 9 8 10 86 11 9 12 10 13
REMARK SMILES IDX 6 14 1 15 2 16 3 17 87 18 4 19 5 20 12 22 19 26 20 27 21 28
REMARK SMILES IDX 22 30 23 31 24 32 85 33 25 34 84 35 26 36 27 37 28 38 78 39
REMARK SMILES IDX 29 40 83 41 77 42 79 43 30 44 82 45 76 46 75 47 31 49 63 50
REMARK SMILES IDX 43 51 62 52 44 53 47 54 61 55 80 56 45 57 46 58 60 60 81 61
REMARK SMILES IDX 48 62 32 63 33 64 41 65 34 66 36 67 42 68 35 69 37 70 38 71
REMARK SMILES IDX 39 72 40 73 64 74 65 75 73 76 66 77 68 78 74 79 67 80 69 81
REMARK SMILES IDX 70 82 71 83 72 84 49 85 50 86 58 87 51 88 53 89 59 90 52 91
REMARK SMILES IDX 54 92 55 93 56 94 57 95
REMARK H PARENT 15 7 6 21 12 23 12 24 12 25 20 29 79 48 47 59
REMARK Flexibility Score: inf
ROOT
ATOM      1  C   UNL A   1      37.820  19.615  24.810  1.00  0.00     0.023 C 
ENDROOT
BRANCH   1   2
ATOM      2  C   UNL A   1      36.656  20.588  24.679  1.00  0.00     0.023 C 
BRANCH   2   3
ATOM      3  C   UNL A   1      36.875  21.933  25.355  1.00  0.00     0.116 C 
BRANCH   3   4
ATOM      4  N   UNL A   1      36.013  22.140  26.509  1.00  0.00    -0.351 N 
ATOM      5  C   UNL A   1      34.743  22.657  26.599  1.00  0.00     0.281 C 
ATOM      6  O   UNL A   1      34.192  22.648  27.701  1.00  0.00    -0.268 OA
ATOM      7  H   UNL A   1      36.406  21.863  27.369  1.00  0.00     0.163 HD
BRANCH   5   8
ATOM      8  C   UNL A   1      34.064  23.267  25.338  1.00  0.00     0.179 C 
ATOM      9  C   UNL A   1      32.175  24.772  24.426  1.00  0.00     0.190 C 
ATOM     10  C   UNL A   1      31.926  23.719  23.322  1.00  0.00     0.065 C 
ATOM     11  C   UNL A   1      32.863  24.184  25.694  1.00  0.00     0.144 C 
ATOM     12  C   UNL A   1      33.006  22.668  23.134  1.00  0.00     0.013 C 
ATOM     13  C   UNL A   1      33.473  22.136  24.471  1.00  0.00     0.079 C 
BRANCH   9  14
ATOM     14  N   UNL A   1      31.010  25.638  24.733  1.00  0.00    -0.332 N 
ATOM     15  C   UNL A   1      31.620  28.147  27.603  1.00  0.00     0.013 C 
ATOM     16  C   UNL A   1      31.765  27.569  26.196  1.00  0.00     0.041 C 
ATOM     17  C   UNL A   1      31.299  28.568  25.132  1.00  0.00     0.015 C 
ATOM     18  C   UNL A   1      31.012  26.228  26.077  1.00  0.00     0.265 C 
ATOM     19  C   UNL A   1      31.273  27.945  23.738  1.00  0.00     0.062 C 
ATOM     20  C   UNL A   1      30.554  26.596  23.726  1.00  0.00     0.262 C 
ATOM     21  H   UNL A   1      30.288  24.918  24.701  1.00  0.00     0.348 HD
ENDBRANCH   9  14
BRANCH   8  22
ATOM     22  N   UNL A   1      35.068  24.128  24.654  1.00  0.00    -0.345 N 
ATOM     23  H   UNL A   1      35.958  23.632  24.595  1.00  0.00     0.345 HD
ATOM     24  H   UNL A   1      35.193  24.991  25.183  1.00  0.00     0.345 HD
ATOM     25  H   UNL A   1      34.741  24.351  23.713  1.00  0.00     0.345 HD
ENDBRANCH   8  22
ENDBRANCH   5   8
ENDBRANCH   3   4
ENDBRANCH   2   3
ENDBRANCH   1   2
BRANCH   1  26
ATOM     26  C   UNL A   1      38.754  19.877  25.986  1.00  0.00     0.116 C 
BRANCH  26  27
ATOM     27  N   UNL A   1      40.026  19.170  25.887  1.00  0.00    -0.352 N 
ATOM     28  C   UNL A   1      41.298  19.653  26.101  1.00  0.00     0.251 C 
ATOM     29  H   UNL A   1      39.968  18.220  25.635  1.00  0.00     0.163 HD
ATOM     30  O   UNL A   1      42.276  18.952  25.881  1.00  0.00    -0.269 OA
BRANCH  28  31
ATOM     31  C   UNL A   1      41.458  21.046  26.563  1.00  0.00     0.039 A 
ATOM     32  C   UNL A   1      42.083  21.283  27.789  1.00  0.00     0.014 A 
ATOM     33  C   UNL A   1      41.074  22.108  25.740  1.00  0.00     0.014 A 
ATOM     34  C   UNL A   1      42.410  22.590  28.148  1.00  0.00     0.010 A 
ATOM     35  C   UNL A   1      41.468  23.401  26.066  1.00  0.00     0.010 A 
ATOM     36  C   UNL A   1      42.151  23.652  27.266  1.00  0.00    -0.014 A 
BRANCH  36  37
ATOM     37  C   UNL A   1      42.641  25.025  27.549  1.00  0.00     0.031 A 
ATOM     38  C   UNL A   1      41.729  26.045  28.171  1.00  0.00     0.074 A 
ATOM     39  C   UNL A   1      43.875  25.383  27.137  1.00  0.00     0.049 A 
ATOM     40  N   UNL A   1      41.961  27.306  28.430  1.00  0.00    -0.248 NA
ATOM     41  C   UNL A   1      40.371  25.600  28.521  1.00  0.00     0.031 C 
ATOM     42  C   UNL A   1      44.818  24.509  26.434  1.00  0.00     0.029 A 
ATOM     43  N   UNL A   1      44.536  26.583  27.222  1.00  0.00    -0.354 N 
ATOM     44  C   UNL A   1      40.774  27.813  28.939  1.00  0.00     0.074 A 
ATOM     45  C   UNL A   1      39.812  26.733  28.924  1.00  0.00     0.031 C 
ATOM     46  C   UNL A   1      45.933  25.202  26.152  1.00  0.00     0.029 A 
ATOM     47  C   UNL A   1      45.777  26.573  26.628  1.00  0.00     0.049 A 
ATOM     48  H   UNL A   1      44.158  27.375  27.667  1.00  0.00     0.167 HD
ATOM     49  C   UNL A   1      40.515  29.057  29.406  1.00  0.00     0.034 A 
ATOM     50  C   UNL A   1      46.684  27.558  26.477  1.00  0.00     0.034 A 
ATOM     51  C   UNL A   1      41.488  30.114  29.465  1.00  0.00     0.049 A 
ATOM     52  C   UNL A   1      46.390  28.916  27.050  1.00  0.00     0.074 A 
ATOM     53  C   UNL A   1      41.357  31.372  30.024  1.00  0.00     0.029 A 
ATOM     54  N   UNL A   1      42.769  30.041  28.940  1.00  0.00    -0.354 N 
ATOM     55  N   UNL A   1      45.325  29.324  27.698  1.00  0.00    -0.248 NA
ATOM     56  C   UNL A   1      47.432  29.941  26.901  1.00  0.00     0.031 C 
ATOM     57  C   UNL A   1      42.553  32.069  29.818  1.00  0.00     0.029 A 
ATOM     58  C   UNL A   1      43.435  31.236  29.147  1.00  0.00     0.049 A 
ATOM     59  H   UNL A   1      43.149  29.253  28.486  1.00  0.00     0.167 HD
ATOM     60  C   UNL A   1      45.580  30.642  28.058  1.00  0.00     0.074 A 
ATOM     61  C   UNL A   1      46.911  30.955  27.579  1.00  0.00     0.031 C 
ATOM     62  C   UNL A   1      44.777  31.520  28.707  1.00  0.00     0.034 A 
BRANCH  49  63
ATOM     63  C   UNL A   1      39.139  29.326  29.953  1.00  0.00     0.023 A 
ATOM     64  C   UNL A   1      38.847  28.983  31.290  1.00  0.00     0.012 A 
ATOM     65  C   UNL A   1      38.158  29.972  29.175  1.00  0.00     0.148 A 
ATOM     66  C   UNL A   1      37.593  29.251  31.834  1.00  0.00     0.002 A 
ATOM     67  C   UNL A   1      36.923  30.273  29.738  1.00  0.00     0.091 A 
ATOM     68  F   UNL A   1      38.446  30.267  27.900  1.00  0.00    -0.205 F 
ATOM     69  C   UNL A   1      36.635  29.905  31.063  1.00  0.00     0.022 A 
BRANCH  67  70
ATOM     70  S   UNL A   1      35.651  31.178  28.851  1.00  0.00     0.127 S 
ATOM     71  O   UNL A   1      34.862  31.732  29.952  1.00  0.00    -0.237 OA
ATOM     72  O   UNL A   1      36.434  32.165  28.108  1.00  0.00    -0.237 OA
ATOM     73  O   UNL A   1      34.965  30.198  28.022  1.00  0.00    -0.744 OA
ENDBRANCH  67  70
ENDBRANCH  49  63
BRANCH  50  74
ATOM     74  C   UNL A   1      47.986  27.271  25.811  1.00  0.00     0.023 A 
ATOM     75  C   UNL A   1      49.050  26.746  26.572  1.00  0.00     0.012 A 
ATOM     76  C   UNL A   1      48.168  27.480  24.431  1.00  0.00     0.148 A 
ATOM     77  C   UNL A   1      50.278  26.461  25.975  1.00  0.00     0.002 A 
ATOM     78  C   UNL A   1      49.377  27.141  23.832  1.00  0.00     0.091 A 
ATOM     79  F   UNL A   1      47.149  27.995  23.726  1.00  0.00    -0.205 F 
ATOM     80  C   UNL A   1      50.438  26.647  24.605  1.00  0.00     0.022 A 
BRANCH  78  81
ATOM     81  S   UNL A   1      49.620  27.219  22.054  1.00  0.00     0.127 S 
ATOM     82  O   UNL A   1      49.362  28.629  21.777  1.00  0.00    -0.237 OA
ATOM     83  O   UNL A   1      51.018  26.808  21.919  1.00  0.00    -0.237 OA
ATOM     84  O   UNL A   1      48.666  26.274  21.489  1.00  0.00    -0.744 OA
ENDBRANCH  78  81
ENDBRANCH  50  74
BRANCH  62  85
ATOM     85  C   UNL A   1      45.314  32.905  28.954  1.00  0.00     0.023 A 
ATOM     86  C   UNL A   1      46.026  33.173  30.140  1.00  0.00     0.012 A 
ATOM     87  C   UNL A   1      45.178  33.918  27.984  1.00  0.00     0.148 A 
ATOM     88  C   UNL A   1      46.571  34.435  30.370  1.00  0.00     0.002 A 
ATOM     89  C   UNL A   1      45.763  35.159  28.200  1.00  0.00     0.091 A 
ATOM     90  F   UNL A   1      44.480  33.649  26.872  1.00  0.00    -0.205 F 
ATOM     91  C   UNL A   1      46.450  35.424  29.396  1.00  0.00     0.022 A 
BRANCH  89  92
ATOM     92  S   UNL A   1      45.737  36.462  26.963  1.00  0.00     0.127 S 
ATOM     93  O   UNL A   1      46.237  35.762  25.782  1.00  0.00    -0.237 OA
ATOM     94  O   UNL A   1      44.318  36.814  26.909  1.00  0.00    -0.237 OA
ATOM     95  O   UNL A   1      46.600  37.518  27.477  1.00  0.00    -0.744 OA
ENDBRANCH  89  92
ENDBRANCH  62  85
ENDBRANCH  36  37
ENDBRANCH  28  31
ENDBRANCH  26  27
ENDBRANCH   1  26
TORSDOF 16
ENDMDL
