MODEL 1
REMARK VINA RESULT:     -11.0      0.000      0.000
REMARK SMILES CC[C@@H](Nc1ccc([N+](=O)[O-])c(N)n1)C(=O)NCCCCNC(=O)c1ccc(-c2c3nc(c(-c4cccc(S(=O)(=O)[O-])c4F)c4ccc([nH]4)c(-c4cccc(S(=O)(=O)[O-])c4F)c4nc(c(-c5cccc(S(=O)(=O)[O-])c5F)c5ccc2[nH]5)C=C4)C=C3)cc1
REMARK SMILES IDX 19 1 18 2 17 3 15 4 16 5 3 7 2 8 1 9 4 10 5 12 6 13 14 14
REMARK SMILES IDX 7 15 12 16 8 17 13 18 9 21 10 22 11 23 20 24 21 25 22 26
REMARK SMILES IDX 23 27 24 29 25 30 26 31 87 32 27 33 86 34 28 35 29 36 30 37
REMARK SMILES IDX 80 38 31 39 85 40 79 41 81 42 32 43 84 44 78 45 77 46 33 48
REMARK SMILES IDX 65 49 45 50 64 51 46 52 49 53 63 54 82 55 47 56 48 57 62 59
REMARK SMILES IDX 83 60 50 61 34 62 35 63 43 64 36 65 38 66 44 67 37 68 39 69
REMARK SMILES IDX 40 70 41 71 42 72 66 73 67 74 75 75 68 76 70 77 76 78 69 79
REMARK SMILES IDX 71 80 72 81 73 82 74 83 51 84 52 85 60 86 53 87 55 88 61 89
REMARK SMILES IDX 54 90 56 91 57 92 58 93 59 94
REMARK H PARENT 17 6 4 11 13 19 13 20 22 28 81 47 49 58
REMARK Flexibility Score: inf
ROOT
ATOM      1  C   UNL A   1      31.928  27.439  26.007  1.00  0.00     0.023 C 
ENDROOT
BRANCH   1   2
ATOM      2  C   UNL A   1      31.192  26.138  25.692  1.00  0.00     0.116 C 
BRANCH   2   3
ATOM      3  N   UNL A   1      31.441  25.142  26.716  1.00  0.00    -0.354 N 
ATOM      4  C   UNL A   1      31.921  23.870  26.604  1.00  0.00     0.242 C 
ATOM      5  O   UNL A   1      31.984  23.185  27.630  1.00  0.00    -0.273 OA
ATOM      6  H   UNL A   1      31.233  25.429  27.634  1.00  0.00     0.163 HD
BRANCH   4   7
ATOM      7  C   UNL A   1      32.393  23.289  25.252  1.00  0.00     0.169 C 
BRANCH   7   8
ATOM      8  C   UNL A   1      33.881  22.912  25.328  1.00  0.00     0.031 C 
ATOM      9  C   UNL A   1      34.796  24.084  25.654  1.00  0.00     0.006 C 
ENDBRANCH   7   8
BRANCH   7  10
ATOM     10  N   UNL A   1      31.565  22.171  24.806  1.00  0.00    -0.358 N 
ATOM     11  H   UNL A   1      30.596  22.334  24.753  1.00  0.00     0.162 HD
BRANCH  10  12
ATOM     12  C   UNL A   1      31.994  20.922  24.453  1.00  0.00     0.129 A 
ATOM     13  C   UNL A   1      32.169  20.489  23.146  1.00  0.00     0.054 A 
ATOM     14  N   UNL A   1      32.239  20.102  25.498  1.00  0.00    -0.208 NA
ATOM     15  C   UNL A   1      32.557  19.173  22.903  1.00  0.00     0.093 A 
ATOM     16  C   UNL A   1      32.633  18.824  25.278  1.00  0.00     0.204 A 
ATOM     17  C   UNL A   1      32.791  18.328  23.988  1.00  0.00     0.311 A 
BRANCH  16  18
ATOM     18  N   UNL A   1      32.947  18.132  26.431  1.00  0.00    -0.378 N 
ATOM     19  H   UNL A   1      32.621  17.211  26.557  1.00  0.00     0.158 HD
ATOM     20  H   UNL A   1      33.498  18.557  27.127  1.00  0.00     0.158 HD
ENDBRANCH  16  18
BRANCH  17  21
ATOM     21  N   UNL A   1      33.186  16.948  23.740  1.00  0.00     0.066 N 
ATOM     22  O   UNL A   1      32.848  16.079  24.560  1.00  0.00    -0.258 OA
ATOM     23  O   UNL A   1      33.828  16.714  22.705  1.00  0.00    -0.258 OA
ENDBRANCH  17  21
ENDBRANCH  10  12
ENDBRANCH   7  10
ENDBRANCH   4   7
ENDBRANCH   2   3
ENDBRANCH   1   2
BRANCH   1  24
ATOM     24  C   UNL A   1      33.399  27.449  25.584  1.00  0.00     0.023 C 
BRANCH  24  25
ATOM     25  C   UNL A   1      33.949  28.818  25.200  1.00  0.00     0.116 C 
BRANCH  25  26
ATOM     26  N   UNL A   1      33.052  29.910  25.559  1.00  0.00    -0.352 N 
ATOM     27  C   UNL A   1      33.130  30.744  26.648  1.00  0.00     0.251 C 
ATOM     28  H   UNL A   1      32.298  30.068  24.946  1.00  0.00     0.163 HD
ATOM     29  O   UNL A   1      32.228  31.542  26.890  1.00  0.00    -0.269 OA
BRANCH  27  30
ATOM     30  C   UNL A   1      34.301  30.644  27.540  1.00  0.00     0.039 A 
ATOM     31  C   UNL A   1      34.504  29.469  28.269  1.00  0.00     0.014 A 
ATOM     32  C   UNL A   1      35.229  31.686  27.595  1.00  0.00     0.014 A 
ATOM     33  C   UNL A   1      35.682  29.309  29.003  1.00  0.00     0.010 A 
ATOM     34  C   UNL A   1      36.428  31.500  28.274  1.00  0.00     0.010 A 
ATOM     35  C   UNL A   1      36.667  30.309  28.979  1.00  0.00    -0.014 A 
BRANCH  35  36
ATOM     36  C   UNL A   1      37.976  30.138  29.658  1.00  0.00     0.031 A 
ATOM     37  C   UNL A   1      39.000  29.203  29.080  1.00  0.00     0.074 A 
ATOM     38  C   UNL A   1      38.178  30.701  30.865  1.00  0.00     0.049 A 
ATOM     39  N   UNL A   1      40.129  28.795  29.595  1.00  0.00    -0.248 NA
ATOM     40  C   UNL A   1      38.694  28.620  27.763  1.00  0.00     0.031 C 
ATOM     41  C   UNL A   1      37.219  31.553  31.572  1.00  0.00     0.029 A 
ATOM     42  N   UNL A   1      39.235  30.596  31.736  1.00  0.00    -0.354 N 
ATOM     43  C   UNL A   1      40.641  27.868  28.698  1.00  0.00     0.074 A 
ATOM     44  C   UNL A   1      39.690  27.760  27.612  1.00  0.00     0.031 C 
ATOM     45  C   UNL A   1      37.720  31.872  32.775  1.00  0.00     0.029 A 
ATOM     46  C   UNL A   1      39.019  31.228  32.938  1.00  0.00     0.049 A 
ATOM     47  H   UNL A   1      40.066  30.116  31.519  1.00  0.00     0.167 HD
ATOM     48  C   UNL A   1      41.809  27.186  28.758  1.00  0.00     0.034 A 
ATOM     49  C   UNL A   1      39.773  31.266  34.056  1.00  0.00     0.034 A 
ATOM     50  C   UNL A   1      42.780  27.348  29.805  1.00  0.00     0.049 A 
ATOM     51  C   UNL A   1      41.103  30.565  34.067  1.00  0.00     0.074 A 
ATOM     52  C   UNL A   1      44.048  26.804  29.893  1.00  0.00     0.029 A 
ATOM     53  N   UNL A   1      42.588  28.109  30.948  1.00  0.00    -0.354 N 
ATOM     54  N   UNL A   1      41.656  29.837  33.128  1.00  0.00    -0.248 NA
ATOM     55  C   UNL A   1      41.931  30.718  35.273  1.00  0.00     0.031 C 
ATOM     56  C   UNL A   1      44.620  27.228  31.098  1.00  0.00     0.029 A 
ATOM     57  C   UNL A   1      43.712  28.043  31.753  1.00  0.00     0.049 A 
ATOM     58  H   UNL A   1      41.774  28.621  31.156  1.00  0.00     0.167 HD
ATOM     59  C   UNL A   1      42.907  29.472  33.613  1.00  0.00     0.074 A 
ATOM     60  C   UNL A   1      43.037  30.071  34.925  1.00  0.00     0.031 C 
ATOM     61  C   UNL A   1      43.853  28.697  33.030  1.00  0.00     0.034 A 
BRANCH  48  62
ATOM     62  C   UNL A   1      42.126  26.246  27.627  1.00  0.00     0.023 A 
ATOM     63  C   UNL A   1      42.806  26.733  26.492  1.00  0.00     0.012 A 
ATOM     64  C   UNL A   1      41.788  24.881  27.698  1.00  0.00     0.148 A 
ATOM     65  C   UNL A   1      43.110  25.884  25.428  1.00  0.00     0.002 A 
ATOM     66  C   UNL A   1      42.132  24.033  26.652  1.00  0.00     0.091 A 
ATOM     67  F   UNL A   1      41.117  24.441  28.771  1.00  0.00    -0.205 F 
ATOM     68  C   UNL A   1      42.783  24.534  25.512  1.00  0.00     0.022 A 
BRANCH  66  69
ATOM     69  S   UNL A   1      41.815  22.266  26.712  1.00  0.00     0.127 S 
ATOM     70  O   UNL A   1      42.585  21.866  27.888  1.00  0.00    -0.237 OA
ATOM     71  O   UNL A   1      40.363  22.212  26.889  1.00  0.00    -0.237 OA
ATOM     72  O   UNL A   1      42.284  21.740  25.437  1.00  0.00    -0.744 OA
ENDBRANCH  66  69
ENDBRANCH  48  62
BRANCH  49  73
ATOM     73  C   UNL A   1      39.300  32.054  35.229  1.00  0.00     0.023 A 
ATOM     74  C   UNL A   1      38.457  31.441  36.175  1.00  0.00     0.012 A 
ATOM     75  C   UNL A   1      39.737  33.375  35.449  1.00  0.00     0.148 A 
ATOM     76  C   UNL A   1      38.042  32.136  37.312  1.00  0.00     0.002 A 
ATOM     77  C   UNL A   1      39.363  34.043  36.609  1.00  0.00     0.091 A 
ATOM     78  F   UNL A   1      40.530  33.942  34.530  1.00  0.00    -0.205 F 
ATOM     79  C   UNL A   1      38.504  33.431  37.535  1.00  0.00     0.022 A 
BRANCH  77  80
ATOM     80  S   UNL A   1      40.022  35.656  37.048  1.00  0.00     0.127 S 
ATOM     81  O   UNL A   1      39.663  36.454  35.878  1.00  0.00    -0.237 OA
ATOM     82  O   UNL A   1      39.269  35.970  38.263  1.00  0.00    -0.237 OA
ATOM     83  O   UNL A   1      41.448  35.451  37.263  1.00  0.00    -0.744 OA
ENDBRANCH  77  80
ENDBRANCH  49  73
BRANCH  61  84
ATOM     84  C   UNL A   1      45.137  28.464  33.780  1.00  0.00     0.023 A 
ATOM     85  C   UNL A   1      46.231  29.325  33.569  1.00  0.00     0.012 A 
ATOM     86  C   UNL A   1      45.218  27.468  34.774  1.00  0.00     0.148 A 
ATOM     87  C   UNL A   1      47.393  29.189  34.326  1.00  0.00     0.002 A 
ATOM     88  C   UNL A   1      46.364  27.366  35.554  1.00  0.00     0.091 A 
ATOM     89  F   UNL A   1      44.171  26.649  34.945  1.00  0.00    -0.205 F 
ATOM     90  C   UNL A   1      47.455  28.221  35.327  1.00  0.00     0.022 A 
BRANCH  88  91
ATOM     91  S   UNL A   1      46.497  26.213  36.925  1.00  0.00     0.127 S 
ATOM     92  O   UNL A   1      47.882  26.411  37.348  1.00  0.00    -0.237 OA
ATOM     93  O   UNL A   1      45.493  26.724  37.860  1.00  0.00    -0.237 OA
ATOM     94  O   UNL A   1      46.194  24.898  36.374  1.00  0.00    -0.744 OA
ENDBRANCH  88  91
ENDBRANCH  61  84
ENDBRANCH  35  36
ENDBRANCH  27  30
ENDBRANCH  25  26
ENDBRANCH  24  25
ENDBRANCH   1  24
TORSDOF 19
ENDMDL
MODEL 2
REMARK VINA RESULT:     -11.0      2.435      3.991
REMARK SMILES CC[C@@H](Nc1ccc([N+](=O)[O-])c(N)n1)C(=O)NCCCCNC(=O)c1ccc(-c2c3nc(c(-c4cccc(S(=O)(=O)[O-])c4F)c4ccc([nH]4)c(-c4cccc(S(=O)(=O)[O-])c4F)c4nc(c(-c5cccc(S(=O)(=O)[O-])c5F)c5ccc2[nH]5)C=C4)C=C3)cc1
REMARK SMILES IDX 19 1 18 2 17 3 15 4 16 5 3 7 2 8 1 9 4 10 5 12 6 13 14 14
REMARK SMILES IDX 7 15 12 16 8 17 13 18 9 21 10 22 11 23 20 24 21 25 22 26
REMARK SMILES IDX 23 27 24 29 25 30 26 31 87 32 27 33 86 34 28 35 29 36 30 37
REMARK SMILES IDX 80 38 31 39 85 40 79 41 81 42 32 43 84 44 78 45 77 46 33 48
REMARK SMILES IDX 65 49 45 50 64 51 46 52 49 53 63 54 82 55 47 56 48 57 62 59
REMARK SMILES IDX 83 60 50 61 34 62 35 63 43 64 36 65 38 66 44 67 37 68 39 69
REMARK SMILES IDX 40 70 41 71 42 72 66 73 67 74 75 75 68 76 70 77 76 78 69 79
REMARK SMILES IDX 71 80 72 81 73 82 74 83 51 84 52 85 60 86 53 87 55 88 61 89
REMARK SMILES IDX 54 90 56 91 57 92 58 93 59 94
REMARK H PARENT 17 6 4 11 13 19 13 20 22 28 81 47 49 58
REMARK Flexibility Score: inf
ROOT
ATOM      1  C   UNL A   1      31.696  27.766  26.616  1.00  0.00     0.023 C 
ENDROOT
BRANCH   1   2
ATOM      2  C   UNL A   1      32.261  26.368  26.374  1.00  0.00     0.116 C 
BRANCH   2   3
ATOM      3  N   UNL A   1      31.404  25.356  26.962  1.00  0.00    -0.354 N 
ATOM      4  C   UNL A   1      30.889  24.218  26.414  1.00  0.00     0.242 C 
ATOM      5  O   UNL A   1      30.122  23.542  27.107  1.00  0.00    -0.273 OA
ATOM      6  H   UNL A   1      31.157  25.515  27.901  1.00  0.00     0.163 HD
BRANCH   4   7
ATOM      7  C   UNL A   1      31.253  23.760  24.984  1.00  0.00     0.169 C 
BRANCH   7   8
ATOM      8  C   UNL A   1      31.416  22.232  24.942  1.00  0.00     0.031 C 
ATOM      9  C   UNL A   1      32.724  21.738  25.545  1.00  0.00     0.006 C 
ENDBRANCH   7   8
BRANCH   7  10
ATOM     10  N   UNL A   1      30.298  24.238  23.986  1.00  0.00    -0.358 N 
ATOM     11  H   UNL A   1      29.815  23.550  23.474  1.00  0.00     0.162 HD
BRANCH  10  12
ATOM     12  C   UNL A   1      30.003  25.539  23.690  1.00  0.00     0.129 A 
ATOM     13  C   UNL A   1      28.832  26.185  24.059  1.00  0.00     0.054 A 
ATOM     14  N   UNL A   1      30.959  26.179  22.981  1.00  0.00    -0.208 NA
ATOM     15  C   UNL A   1      28.613  27.499  23.652  1.00  0.00     0.093 A 
ATOM     16  C   UNL A   1      30.768  27.463  22.591  1.00  0.00     0.204 A 
ATOM     17  C   UNL A   1      29.597  28.147  22.905  1.00  0.00     0.311 A 
BRANCH  16  18
ATOM     18  N   UNL A   1      31.864  28.024  21.966  1.00  0.00    -0.378 N 
ATOM     19  H   UNL A   1      32.758  27.936  22.369  1.00  0.00     0.158 HD
ATOM     20  H   UNL A   1      31.751  28.512  21.119  1.00  0.00     0.158 HD
ENDBRANCH  16  18
BRANCH  17  21
ATOM     21  N   UNL A   1      29.370  29.517  22.467  1.00  0.00     0.066 N 
ATOM     22  O   UNL A   1      29.524  30.435  23.290  1.00  0.00    -0.258 OA
ATOM     23  O   UNL A   1      29.051  29.693  21.282  1.00  0.00    -0.258 OA
ENDBRANCH  17  21
ENDBRANCH  10  12
ENDBRANCH   7  10
ENDBRANCH   4   7
ENDBRANCH   2   3
ENDBRANCH   1   2
BRANCH   1  24
ATOM     24  C   UNL A   1      32.009  28.773  25.506  1.00  0.00     0.023 C 
BRANCH  24  25
ATOM     25  C   UNL A   1      33.125  29.760  25.828  1.00  0.00     0.116 C 
BRANCH  25  26
ATOM     26  N   UNL A   1      32.628  31.022  26.364  1.00  0.00    -0.352 N 
ATOM     27  C   UNL A   1      33.227  31.842  27.289  1.00  0.00     0.251 C 
ATOM     28  H   UNL A   1      31.756  31.323  26.020  1.00  0.00     0.163 HD
ATOM     29  O   UNL A   1      32.631  32.815  27.742  1.00  0.00    -0.269 OA
BRANCH  27  30
ATOM     30  C   UNL A   1      34.590  31.516  27.754  1.00  0.00     0.039 A 
ATOM     31  C   UNL A   1      35.556  32.524  27.795  1.00  0.00     0.014 A 
ATOM     32  C   UNL A   1      34.882  30.229  28.211  1.00  0.00     0.014 A 
ATOM     33  C   UNL A   1      36.803  32.259  28.367  1.00  0.00     0.010 A 
ATOM     34  C   UNL A   1      36.100  29.985  28.836  1.00  0.00     0.010 A 
ATOM     35  C   UNL A   1      37.068  30.999  28.924  1.00  0.00    -0.014 A 
BRANCH  35  36
ATOM     36  C   UNL A   1      38.339  30.705  29.633  1.00  0.00     0.031 A 
ATOM     37  C   UNL A   1      39.315  29.728  29.041  1.00  0.00     0.074 A 
ATOM     38  C   UNL A   1      38.539  31.197  30.871  1.00  0.00     0.049 A 
ATOM     39  N   UNL A   1      40.395  29.218  29.570  1.00  0.00    -0.248 NA
ATOM     40  C   UNL A   1      39.013  29.228  27.690  1.00  0.00     0.031 C 
ATOM     41  C   UNL A   1      37.619  32.082  31.589  1.00  0.00     0.029 A 
ATOM     42  N   UNL A   1      39.557  30.979  31.767  1.00  0.00    -0.354 N 
ATOM     43  C   UNL A   1      40.871  28.299  28.645  1.00  0.00     0.074 A 
ATOM     44  C   UNL A   1      39.952  28.308  27.528  1.00  0.00     0.031 C 
ATOM     45  C   UNL A   1      38.101  32.310  32.820  1.00  0.00     0.029 A 
ATOM     46  C   UNL A   1      39.347  31.568  32.991  1.00  0.00     0.049 A 
ATOM     47  H   UNL A   1      40.360  30.451  31.552  1.00  0.00     0.167 HD
ATOM     48  C   UNL A   1      41.987  27.534  28.708  1.00  0.00     0.034 A 
ATOM     49  C   UNL A   1      40.063  31.502  34.132  1.00  0.00     0.034 A 
ATOM     50  C   UNL A   1      42.931  27.580  29.789  1.00  0.00     0.049 A 
ATOM     51  C   UNL A   1      41.341  30.710  34.149  1.00  0.00     0.074 A 
ATOM     52  C   UNL A   1      44.155  26.944  29.889  1.00  0.00     0.029 A 
ATOM     53  N   UNL A   1      42.755  28.299  30.961  1.00  0.00    -0.354 N 
ATOM     54  N   UNL A   1      41.873  29.988  33.192  1.00  0.00    -0.248 NA
ATOM     55  C   UNL A   1      42.137  30.749  35.384  1.00  0.00     0.031 C 
ATOM     56  C   UNL A   1      44.715  27.271  31.129  1.00  0.00     0.029 A 
ATOM     57  C   UNL A   1      43.844  28.118  31.795  1.00  0.00     0.049 A 
ATOM     58  H   UNL A   1      41.972  28.857  31.169  1.00  0.00     0.167 HD
ATOM     59  C   UNL A   1      43.079  29.513  33.696  1.00  0.00     0.074 A 
ATOM     60  C   UNL A   1      43.207  30.042  35.039  1.00  0.00     0.031 C 
ATOM     61  C   UNL A   1      43.988  28.701  33.106  1.00  0.00     0.034 A 
BRANCH  48  62
ATOM     62  C   UNL A   1      42.275  26.627  27.542  1.00  0.00     0.023 A 
ATOM     63  C   UNL A   1      42.985  27.129  26.432  1.00  0.00     0.012 A 
ATOM     64  C   UNL A   1      41.881  25.275  27.557  1.00  0.00     0.148 A 
ATOM     65  C   UNL A   1      43.263  26.311  25.338  1.00  0.00     0.002 A 
ATOM     66  C   UNL A   1      42.200  24.455  26.481  1.00  0.00     0.091 A 
ATOM     67  F   UNL A   1      41.182  24.822  28.608  1.00  0.00    -0.205 F 
ATOM     68  C   UNL A   1      42.880  24.973  25.367  1.00  0.00     0.022 A 
BRANCH  66  69
ATOM     69  S   UNL A   1      41.810  22.702  26.470  1.00  0.00     0.127 S 
ATOM     70  O   UNL A   1      42.421  22.269  25.216  1.00  0.00    -0.237 OA
ATOM     71  O   UNL A   1      42.487  22.220  27.676  1.00  0.00    -0.237 OA
ATOM     72  O   UNL A   1      40.356  22.624  26.529  1.00  0.00    -0.744 OA
ENDBRANCH  66  69
ENDBRANCH  48  62
BRANCH  49  73
ATOM     73  C   UNL A   1      39.608  32.267  35.326  1.00  0.00     0.023 A 
ATOM     74  C   UNL A   1      39.850  33.652  35.390  1.00  0.00     0.012 A 
ATOM     75  C   UNL A   1      38.876  31.647  36.358  1.00  0.00     0.148 A 
ATOM     76  C   UNL A   1      39.388  34.405  36.471  1.00  0.00     0.002 A 
ATOM     77  C   UNL A   1      38.373  32.411  37.405  1.00  0.00     0.091 A 
ATOM     78  F   UNL A   1      38.667  30.325  36.282  1.00  0.00    -0.205 F 
ATOM     79  C   UNL A   1      38.640  33.788  37.471  1.00  0.00     0.022 A 
BRANCH  77  80
ATOM     80  S   UNL A   1      37.282  31.729  38.659  1.00  0.00     0.127 S 
ATOM     81  O   UNL A   1      36.143  32.640  38.593  1.00  0.00    -0.237 OA
ATOM     82  O   UNL A   1      37.028  30.384  38.140  1.00  0.00    -0.237 OA
ATOM     83  O   UNL A   1      38.046  31.757  39.900  1.00  0.00    -0.744 OA
ENDBRANCH  77  80
ENDBRANCH  49  73
BRANCH  61  84
ATOM     84  C   UNL A   1      45.227  28.345  33.882  1.00  0.00     0.023 A 
ATOM     85  C   UNL A   1      46.350  29.193  33.828  1.00  0.00     0.012 A 
ATOM     86  C   UNL A   1      45.237  27.235  34.751  1.00  0.00     0.148 A 
ATOM     87  C   UNL A   1      47.469  28.936  34.617  1.00  0.00     0.002 A 
ATOM     88  C   UNL A   1      46.340  27.008  35.565  1.00  0.00     0.091 A 
ATOM     89  F   UNL A   1      44.165  26.430  34.771  1.00  0.00    -0.205 F 
ATOM     90  C   UNL A   1      47.459  27.854  35.494  1.00  0.00     0.022 A 
BRANCH  88  91
ATOM     91  S   UNL A   1      46.378  25.696  36.791  1.00  0.00     0.127 S 
ATOM     92  O   UNL A   1      46.315  24.501  35.951  1.00  0.00    -0.237 OA
ATOM     93  O   UNL A   1      47.670  25.916  37.443  1.00  0.00    -0.237 OA
ATOM     94  O   UNL A   1      45.223  25.916  37.651  1.00  0.00    -0.744 OA
ENDBRANCH  88  91
ENDBRANCH  61  84
ENDBRANCH  35  36
ENDBRANCH  27  30
ENDBRANCH  25  26
ENDBRANCH  24  25
ENDBRANCH   1  24
TORSDOF 19
ENDMDL
MODEL 3
REMARK VINA RESULT:     -10.9      1.569      7.801
REMARK SMILES CC[C@@H](Nc1ccc([N+](=O)[O-])c(N)n1)C(=O)NCCCCNC(=O)c1ccc(-c2c3nc(c(-c4cccc(S(=O)(=O)[O-])c4F)c4ccc([nH]4)c(-c4cccc(S(=O)(=O)[O-])c4F)c4nc(c(-c5cccc(S(=O)(=O)[O-])c5F)c5ccc2[nH]5)C=C4)C=C3)cc1
REMARK SMILES IDX 19 1 18 2 17 3 15 4 16 5 3 7 2 8 1 9 4 10 5 12 6 13 14 14
REMARK SMILES IDX 7 15 12 16 8 17 13 18 9 21 10 22 11 23 20 24 21 25 22 26
REMARK SMILES IDX 23 27 24 29 25 30 26 31 87 32 27 33 86 34 28 35 29 36 30 37
REMARK SMILES IDX 80 38 31 39 85 40 79 41 81 42 32 43 84 44 78 45 77 46 33 48
REMARK SMILES IDX 65 49 45 50 64 51 46 52 49 53 63 54 82 55 47 56 48 57 62 59
REMARK SMILES IDX 83 60 50 61 34 62 35 63 43 64 36 65 38 66 44 67 37 68 39 69
REMARK SMILES IDX 40 70 41 71 42 72 66 73 67 74 75 75 68 76 70 77 76 78 69 79
REMARK SMILES IDX 71 80 72 81 73 82 74 83 51 84 52 85 60 86 53 87 55 88 61 89
REMARK SMILES IDX 54 90 56 91 57 92 58 93 59 94
REMARK H PARENT 17 6 4 11 13 19 13 20 22 28 81 47 49 58
REMARK Flexibility Score: inf
ROOT
ATOM      1  C   UNL A   1      31.736  27.722  26.819  1.00  0.00     0.023 C 
ENDROOT
BRANCH   1   2
ATOM      2  C   UNL A   1      32.024  26.335  26.247  1.00  0.00     0.116 C 
BRANCH   2   3
ATOM      3  N   UNL A   1      31.167  25.336  26.856  1.00  0.00    -0.354 N 
ATOM      4  C   UNL A   1      31.257  23.976  26.839  1.00  0.00     0.242 C 
ATOM      5  O   UNL A   1      30.356  23.331  27.386  1.00  0.00    -0.273 OA
ATOM      6  H   UNL A   1      30.403  25.697  27.361  1.00  0.00     0.163 HD
BRANCH   4   7
ATOM      7  C   UNL A   1      32.447  23.242  26.180  1.00  0.00     0.169 C 
BRANCH   7   8
ATOM      8  C   UNL A   1      33.776  23.814  26.700  1.00  0.00     0.031 C 
ATOM      9  C   UNL A   1      34.811  24.049  25.609  1.00  0.00     0.006 C 
ENDBRANCH   7   8
BRANCH   7  10
ATOM     10  N   UNL A   1      32.370  21.792  26.349  1.00  0.00    -0.358 N 
ATOM     11  H   UNL A   1      32.193  21.464  27.260  1.00  0.00     0.162 HD
BRANCH  10  12
ATOM     12  C   UNL A   1      32.517  20.844  25.375  1.00  0.00     0.129 A 
ATOM     13  C   UNL A   1      32.513  21.108  24.013  1.00  0.00     0.054 A 
ATOM     14  N   UNL A   1      32.664  19.585  25.842  1.00  0.00    -0.208 NA
ATOM     15  C   UNL A   1      32.613  20.053  23.108  1.00  0.00     0.093 A 
ATOM     16  C   UNL A   1      32.779  18.551  24.974  1.00  0.00     0.204 A 
ATOM     17  C   UNL A   1      32.747  18.754  23.598  1.00  0.00     0.311 A 
BRANCH  16  18
ATOM     18  N   UNL A   1      33.028  17.337  25.584  1.00  0.00    -0.378 N 
ATOM     19  H   UNL A   1      32.277  16.777  25.889  1.00  0.00     0.158 HD
ATOM     20  H   UNL A   1      33.954  17.031  25.714  1.00  0.00     0.158 HD
ENDBRANCH  16  18
BRANCH  17  21
ATOM     21  N   UNL A   1      32.842  17.647  22.657  1.00  0.00     0.066 N 
ATOM     22  O   UNL A   1      33.596  16.699  22.932  1.00  0.00    -0.258 OA
ATOM     23  O   UNL A   1      32.144  17.704  21.634  1.00  0.00    -0.258 OA
ENDBRANCH  17  21
ENDBRANCH  10  12
ENDBRANCH   7  10
ENDBRANCH   4   7
ENDBRANCH   2   3
ENDBRANCH   1   2
BRANCH   1  24
ATOM     24  C   UNL A   1      31.679  28.836  25.772  1.00  0.00     0.023 C 
BRANCH  24  25
ATOM     25  C   UNL A   1      32.890  29.763  25.752  1.00  0.00     0.116 C 
BRANCH  25  26
ATOM     26  N   UNL A   1      32.590  31.097  26.259  1.00  0.00    -0.352 N 
ATOM     27  C   UNL A   1      33.266  31.807  27.223  1.00  0.00     0.251 C 
ATOM     28  H   UNL A   1      31.808  31.544  25.862  1.00  0.00     0.163 HD
ATOM     29  O   UNL A   1      32.823  32.873  27.640  1.00  0.00    -0.269 OA
BRANCH  27  30
ATOM     30  C   UNL A   1      34.518  31.250  27.771  1.00  0.00     0.039 A 
ATOM     31  C   UNL A   1      35.595  32.105  28.016  1.00  0.00     0.014 A 
ATOM     32  C   UNL A   1      34.593  29.895  28.104  1.00  0.00     0.014 A 
ATOM     33  C   UNL A   1      36.729  31.614  28.667  1.00  0.00     0.010 A 
ATOM     34  C   UNL A   1      35.695  29.424  28.807  1.00  0.00     0.010 A 
ATOM     35  C   UNL A   1      36.770  30.279  29.099  1.00  0.00    -0.014 A 
BRANCH  35  36
ATOM     36  C   UNL A   1      37.910  29.742  29.885  1.00  0.00     0.031 A 
ATOM     37  C   UNL A   1      38.171  30.261  31.270  1.00  0.00     0.074 A 
ATOM     38  C   UNL A   1      38.790  28.909  29.296  1.00  0.00     0.049 A 
ATOM     39  N   UNL A   1      39.194  30.043  32.053  1.00  0.00    -0.248 NA
ATOM     40  C   UNL A   1      37.166  31.178  31.833  1.00  0.00     0.031 C 
ATOM     41  C   UNL A   1      38.692  28.409  27.923  1.00  0.00     0.029 A 
ATOM     42  N   UNL A   1      39.968  28.379  29.760  1.00  0.00    -0.354 N 
ATOM     43  C   UNL A   1      38.987  30.836  33.174  1.00  0.00     0.074 A 
ATOM     44  C   UNL A   1      37.749  31.554  32.962  1.00  0.00     0.031 C 
ATOM     45  C   UNL A   1      39.777  27.668  27.648  1.00  0.00     0.029 A 
ATOM     46  C   UNL A   1      40.658  27.661  28.812  1.00  0.00     0.049 A 
ATOM     47  H   UNL A   1      40.288  28.501  30.683  1.00  0.00     0.167 HD
ATOM     48  C   UNL A   1      39.746  30.938  34.291  1.00  0.00     0.034 A 
ATOM     49  C   UNL A   1      41.874  27.080  28.864  1.00  0.00     0.034 A 
ATOM     50  C   UNL A   1      40.938  30.171  34.524  1.00  0.00     0.049 A 
ATOM     51  C   UNL A   1      42.661  27.142  30.144  1.00  0.00     0.074 A 
ATOM     52  C   UNL A   1      41.707  30.105  35.671  1.00  0.00     0.029 A 
ATOM     53  N   UNL A   1      41.538  29.341  33.590  1.00  0.00    -0.354 N 
ATOM     54  N   UNL A   1      42.359  27.750  31.266  1.00  0.00    -0.248 NA
ATOM     55  C   UNL A   1      43.936  26.410  30.183  1.00  0.00     0.031 C 
ATOM     56  C   UNL A   1      42.779  29.240  35.427  1.00  0.00     0.029 A 
ATOM     57  C   UNL A   1      42.672  28.762  34.131  1.00  0.00     0.049 A 
ATOM     58  H   UNL A   1      41.206  29.186  32.676  1.00  0.00     0.167 HD
ATOM     59  C   UNL A   1      43.386  27.450  32.153  1.00  0.00     0.074 A 
ATOM     60  C   UNL A   1      44.313  26.592  31.442  1.00  0.00     0.031 C 
ATOM     61  C   UNL A   1      43.554  27.860  33.433  1.00  0.00     0.034 A 
BRANCH  48  62
ATOM     62  C   UNL A   1      39.271  31.872  35.371  1.00  0.00     0.023 A 
ATOM     63  C   UNL A   1      39.533  33.253  35.257  1.00  0.00     0.012 A 
ATOM     64  C   UNL A   1      38.538  31.396  36.474  1.00  0.00     0.148 A 
ATOM     65  C   UNL A   1      39.107  34.140  36.244  1.00  0.00     0.002 A 
ATOM     66  C   UNL A   1      38.079  32.293  37.433  1.00  0.00     0.091 A 
ATOM     67  F   UNL A   1      38.322  30.078  36.582  1.00  0.00    -0.205 F 
ATOM     68  C   UNL A   1      38.372  33.662  37.325  1.00  0.00     0.022 A 
BRANCH  66  69
ATOM     69  S   UNL A   1      37.062  31.771  38.818  1.00  0.00     0.127 S 
ATOM     70  O   UNL A   1      36.831  30.363  38.503  1.00  0.00    -0.237 OA
ATOM     71  O   UNL A   1      37.945  32.002  39.962  1.00  0.00    -0.237 OA
ATOM     72  O   UNL A   1      35.886  32.631  38.785  1.00  0.00    -0.744 OA
ENDBRANCH  66  69
ENDBRANCH  48  62
BRANCH  49  73
ATOM     73  C   UNL A   1      42.381  26.337  27.676  1.00  0.00     0.023 A 
ATOM     74  C   UNL A   1      43.244  26.988  26.774  1.00  0.00     0.012 A 
ATOM     75  C   UNL A   1      42.073  24.977  27.476  1.00  0.00     0.148 A 
ATOM     76  C   UNL A   1      43.777  26.302  25.682  1.00  0.00     0.002 A 
ATOM     77  C   UNL A   1      42.650  24.286  26.417  1.00  0.00     0.091 A 
ATOM     78  F   UNL A   1      41.240  24.381  28.341  1.00  0.00    -0.205 F 
ATOM     79  C   UNL A   1      43.491  24.950  25.510  1.00  0.00     0.022 A 
BRANCH  77  80
ATOM     80  S   UNL A   1      42.451  22.513  26.200  1.00  0.00     0.127 S 
ATOM     81  O   UNL A   1      40.998  22.384  26.110  1.00  0.00    -0.237 OA
ATOM     82  O   UNL A   1      43.169  22.279  24.946  1.00  0.00    -0.237 OA
ATOM     83  O   UNL A   1      43.072  21.903  27.368  1.00  0.00    -0.744 OA
ENDBRANCH  77  80
ENDBRANCH  49  73
BRANCH  61  84
ATOM     84  C   UNL A   1      44.767  27.374  34.178  1.00  0.00     0.023 A 
ATOM     85  C   UNL A   1      45.950  28.137  34.154  1.00  0.00     0.012 A 
ATOM     86  C   UNL A   1      44.698  26.225  34.993  1.00  0.00     0.148 A 
ATOM     87  C   UNL A   1      47.052  27.756  34.918  1.00  0.00     0.002 A 
ATOM     88  C   UNL A   1      45.786  25.876  35.784  1.00  0.00     0.091 A 
ATOM     89  F   UNL A   1      43.567  25.504  34.985  1.00  0.00    -0.205 F 
ATOM     90  C   UNL A   1      46.966  26.637  35.743  1.00  0.00     0.022 A 
BRANCH  88  91
ATOM     91  S   UNL A   1      45.732  24.506  36.945  1.00  0.00     0.127 S 
ATOM     92  O   UNL A   1      45.981  23.363  36.068  1.00  0.00    -0.237 OA
ATOM     93  O   UNL A   1      46.831  24.827  37.857  1.00  0.00    -0.237 OA
ATOM     94  O   UNL A   1      44.409  24.549  37.555  1.00  0.00    -0.744 OA
ENDBRANCH  88  91
ENDBRANCH  61  84
ENDBRANCH  35  36
ENDBRANCH  27  30
ENDBRANCH  25  26
ENDBRANCH  24  25
ENDBRANCH   1  24
TORSDOF 19
ENDMDL
