MODEL 1
REMARK VINA RESULT:     -10.9      0.000      0.000
REMARK SMILES C[C@@H]1C[C@@H]1C(=O)NCCC(=O)N[C@@](C)(C(=O)NCCCCNC(=O)c1ccc(-c2c3nc(c(-c4cccc(S(=O)(=O)[O-])c4F)c4ccc([nH]4)c(-c4cccc(S(=O)(=O)[O-])c4F)c4nc(c(-c5cccc(S(=O)(=O)[O-])c5F)c5ccc2[nH]5)C=C4)C=C3)cc1)C(F)(F)F
REMARK SMILES IDX 18 1 17 2 15 3 16 4 13 6 14 7 12 8 10 9 11 10 9 12 8 13 7 14
REMARK SMILES IDX 5 15 6 16 4 18 1 19 2 20 3 21 88 22 89 23 90 24 91 25 19 26
REMARK SMILES IDX 20 27 21 28 22 29 23 30 24 32 25 33 26 34 87 35 27 36 86 37
REMARK SMILES IDX 28 38 29 39 30 40 80 41 31 42 85 43 79 44 81 45 32 46 84 47
REMARK SMILES IDX 78 48 77 49 33 51 65 52 45 53 64 54 46 55 49 56 63 57 82 58
REMARK SMILES IDX 47 59 48 60 62 62 83 63 50 64 34 65 35 66 43 67 36 68 38 69
REMARK SMILES IDX 44 70 37 71 39 72 40 73 41 74 42 75 66 76 67 77 75 78 68 79
REMARK SMILES IDX 70 80 76 81 69 82 71 83 72 84 73 85 74 86 51 87 52 88 60 89
REMARK SMILES IDX 53 90 55 91 61 92 54 93 56 94 57 95 58 96 59 97
REMARK H PARENT 17 5 12 11 7 17 22 31 81 50 49 61
REMARK Flexibility Score: inf
ROOT
ATOM      1  C   UNL A   1      34.680  24.416  25.659  1.00  0.00     0.116 C 
ENDROOT
BRANCH   1   2
ATOM      2  N   UNL A   1      33.847  23.857  26.708  1.00  0.00    -0.354 N 
ATOM      3  C   UNL A   1      32.519  23.596  26.827  1.00  0.00     0.254 C 
ATOM      4  O   UNL A   1      32.195  23.087  27.903  1.00  0.00    -0.272 OA
ATOM      5  H   UNL A   1      34.359  23.613  27.513  1.00  0.00     0.163 HD
BRANCH   3   6
ATOM      6  C   UNL A   1      31.533  23.782  25.655  1.00  0.00     0.212 C 
ATOM      7  C   UNL A   1      30.266  22.985  26.023  1.00  0.00     0.056 C 
BRANCH   6   8
ATOM      8  N   UNL A   1      32.156  23.206  24.402  1.00  0.00    -0.335 N 
ATOM      9  C   UNL A   1      32.623  21.980  24.042  1.00  0.00     0.222 C 
ATOM     10  O   UNL A   1      33.459  21.949  23.133  1.00  0.00    -0.275 OA
ATOM     11  H   UNL A   1      32.242  23.870  23.681  1.00  0.00     0.164 HD
BRANCH   9  12
ATOM     12  C   UNL A   1      32.100  20.683  24.619  1.00  0.00     0.121 C 
BRANCH  12  13
ATOM     13  C   UNL A   1      32.927  20.050  25.735  1.00  0.00     0.125 C 
BRANCH  13  14
ATOM     14  N   UNL A   1      34.284  19.693  25.381  1.00  0.00    -0.355 N 
ATOM     15  C   UNL A   1      34.757  18.693  24.577  1.00  0.00     0.223 C 
ATOM     16  O   UNL A   1      35.969  18.494  24.515  1.00  0.00    -0.275 OA
ATOM     17  H   UNL A   1      34.980  20.260  25.785  1.00  0.00     0.163 HD
BRANCH  15  18
ATOM     18  C   UNL A   1      33.807  17.849  23.813  1.00  0.00     0.081 C 
ATOM     19  C   UNL A   1      34.128  15.791  25.432  1.00  0.00     0.008 C 
ATOM     20  C   UNL A   1      33.500  16.422  24.235  1.00  0.00    -0.001 C 
ATOM     21  C   UNL A   1      34.307  16.682  22.995  1.00  0.00     0.018 C 
ENDBRANCH  15  18
ENDBRANCH  13  14
ENDBRANCH  12  13
ENDBRANCH   9  12
ENDBRANCH   6   8
BRANCH   6  22
ATOM     22  C   UNL A   1      31.255  25.299  25.648  1.00  0.00     0.420 C 
ATOM     23  F   UNL A   1      31.936  25.939  24.670  1.00  0.00    -0.168 F 
ATOM     24  F   UNL A   1      29.949  25.549  25.414  1.00  0.00    -0.168 F 
ATOM     25  F   UNL A   1      31.515  25.906  26.826  1.00  0.00    -0.168 F 
ENDBRANCH   6  22
ENDBRANCH   3   6
ENDBRANCH   1   2
BRANCH   1  26
ATOM     26  C   UNL A   1      36.115  23.917  25.812  1.00  0.00     0.023 C 
BRANCH  26  27
ATOM     27  C   UNL A   1      36.255  22.393  25.722  1.00  0.00     0.023 C 
BRANCH  27  28
ATOM     28  C   UNL A   1      37.356  21.904  24.787  1.00  0.00     0.116 C 
BRANCH  28  29
ATOM     29  N   UNL A   1      38.129  20.823  25.371  1.00  0.00    -0.352 N 
ATOM     30  C   UNL A   1      39.287  20.902  26.105  1.00  0.00     0.251 C 
ATOM     31  H   UNL A   1      37.778  19.916  25.222  1.00  0.00     0.163 HD
ATOM     32  O   UNL A   1      39.915  19.881  26.372  1.00  0.00    -0.269 OA
BRANCH  30  33
ATOM     33  C   UNL A   1      39.777  22.223  26.546  1.00  0.00     0.039 A 
ATOM     34  C   UNL A   1      40.621  22.291  27.654  1.00  0.00     0.014 A 
ATOM     35  C   UNL A   1      39.422  23.385  25.853  1.00  0.00     0.014 A 
ATOM     36  C   UNL A   1      41.143  23.525  28.043  1.00  0.00     0.010 A 
ATOM     37  C   UNL A   1      40.013  24.598  26.191  1.00  0.00     0.010 A 
ATOM     38  C   UNL A   1      40.866  24.685  27.300  1.00  0.00    -0.014 A 
BRANCH  38  39
ATOM     39  C   UNL A   1      41.465  25.990  27.681  1.00  0.00     0.031 A 
ATOM     40  C   UNL A   1      42.890  26.311  27.316  1.00  0.00     0.074 A 
ATOM     41  C   UNL A   1      40.741  26.867  28.404  1.00  0.00     0.049 A 
ATOM     42  N   UNL A   1      43.571  27.404  27.545  1.00  0.00    -0.248 NA
ATOM     43  C   UNL A   1      43.662  25.260  26.632  1.00  0.00     0.031 C 
ATOM     44  C   UNL A   1      39.383  26.634  28.901  1.00  0.00     0.029 A 
ATOM     45  N   UNL A   1      41.050  28.124  28.860  1.00  0.00    -0.354 N 
ATOM     46  C   UNL A   1      44.853  27.162  27.067  1.00  0.00     0.074 A 
ATOM     47  C   UNL A   1      44.869  25.804  26.571  1.00  0.00     0.031 C 
ATOM     48  C   UNL A   1      38.972  27.717  29.579  1.00  0.00     0.029 A 
ATOM     49  C   UNL A   1      40.043  28.709  29.589  1.00  0.00     0.049 A 
ATOM     50  H   UNL A   1      41.913  28.565  28.683  1.00  0.00     0.167 HD
ATOM     51  C   UNL A   1      45.913  28.002  27.015  1.00  0.00     0.034 A 
ATOM     52  C   UNL A   1      39.986  29.909  30.201  1.00  0.00     0.034 A 
ATOM     53  C   UNL A   1      45.882  29.364  27.476  1.00  0.00     0.049 A 
ATOM     54  C   UNL A   1      41.158  30.845  30.081  1.00  0.00     0.074 A 
ATOM     55  C   UNL A   1      46.871  30.328  27.379  1.00  0.00     0.029 A 
ATOM     56  N   UNL A   1      44.815  29.951  28.136  1.00  0.00    -0.354 N 
ATOM     57  N   UNL A   1      42.302  30.660  29.469  1.00  0.00    -0.248 NA
ATOM     58  C   UNL A   1      41.015  32.171  30.699  1.00  0.00     0.031 C 
ATOM     59  C   UNL A   1      46.414  31.485  28.016  1.00  0.00     0.029 A 
ATOM     60  C   UNL A   1      45.124  31.259  28.466  1.00  0.00     0.049 A 
ATOM     61  H   UNL A   1      43.961  29.504  28.340  1.00  0.00     0.167 HD
ATOM     62  C   UNL A   1      43.000  31.856  29.594  1.00  0.00     0.074 A 
ATOM     63  C   UNL A   1      42.139  32.764  30.324  1.00  0.00     0.031 C 
ATOM     64  C   UNL A   1      44.242  32.169  29.153  1.00  0.00     0.034 A 
BRANCH  51  65
ATOM     65  C   UNL A   1      47.191  27.485  26.404  1.00  0.00     0.023 A 
ATOM     66  C   UNL A   1      47.511  27.807  25.068  1.00  0.00     0.012 A 
ATOM     67  C   UNL A   1      48.101  26.726  27.166  1.00  0.00     0.148 A 
ATOM     68  C   UNL A   1      48.694  27.351  24.490  1.00  0.00     0.002 A 
ATOM     69  C   UNL A   1      49.302  26.318  26.599  1.00  0.00     0.091 A 
ATOM     70  F   UNL A   1      47.772  26.411  28.427  1.00  0.00    -0.205 F 
ATOM     71  C   UNL A   1      49.593  26.616  25.258  1.00  0.00     0.022 A 
BRANCH  69  72
ATOM     72  S   UNL A   1      50.565  25.442  27.528  1.00  0.00     0.127 S 
ATOM     73  O   UNL A   1      51.656  25.380  26.556  1.00  0.00    -0.237 OA
ATOM     74  O   UNL A   1      50.801  26.348  28.653  1.00  0.00    -0.237 OA
ATOM     75  O   UNL A   1      49.980  24.160  27.892  1.00  0.00    -0.744 OA
ENDBRANCH  69  72
ENDBRANCH  51  65
BRANCH  52  76
ATOM     76  C   UNL A   1      38.750  30.314  30.928  1.00  0.00     0.023 A 
ATOM     77  C   UNL A   1      38.642  30.067  32.312  1.00  0.00     0.012 A 
ATOM     78  C   UNL A   1      37.697  30.969  30.263  1.00  0.00     0.148 A 
ATOM     79  C   UNL A   1      37.492  30.434  33.011  1.00  0.00     0.002 A 
ATOM     80  C   UNL A   1      36.580  31.385  30.976  1.00  0.00     0.091 A 
ATOM     81  F   UNL A   1      37.817  31.188  28.947  1.00  0.00    -0.205 F 
ATOM     82  C   UNL A   1      36.466  31.102  32.347  1.00  0.00     0.022 A 
BRANCH  80  83
ATOM     83  S   UNL A   1      35.273  32.369  30.234  1.00  0.00     0.127 S 
ATOM     84  O   UNL A   1      34.332  32.501  31.342  1.00  0.00    -0.237 OA
ATOM     85  O   UNL A   1      35.987  33.596  29.879  1.00  0.00    -0.237 OA
ATOM     86  O   UNL A   1      34.801  31.598  29.091  1.00  0.00    -0.744 OA
ENDBRANCH  80  83
ENDBRANCH  52  76
BRANCH  64  87
ATOM     87  C   UNL A   1      44.740  33.570  29.399  1.00  0.00     0.023 A 
ATOM     88  C   UNL A   1      45.423  33.880  30.591  1.00  0.00     0.012 A 
ATOM     89  C   UNL A   1      44.586  34.563  28.411  1.00  0.00     0.148 A 
ATOM     90  C   UNL A   1      45.910  35.170  30.813  1.00  0.00     0.002 A 
ATOM     91  C   UNL A   1      45.121  35.828  28.615  1.00  0.00     0.091 A 
ATOM     92  F   UNL A   1      43.917  34.253  27.291  1.00  0.00    -0.205 F 
ATOM     93  C   UNL A   1      45.770  36.138  29.821  1.00  0.00     0.022 A 
BRANCH  91  94
ATOM     94  S   UNL A   1      45.078  37.106  27.353  1.00  0.00     0.127 S 
ATOM     95  O   UNL A   1      45.579  38.266  28.088  1.00  0.00    -0.237 OA
ATOM     96  O   UNL A   1      46.000  36.577  26.346  1.00  0.00    -0.237 OA
ATOM     97  O   UNL A   1      43.692  37.194  26.916  1.00  0.00    -0.744 OA
ENDBRANCH  91  94
ENDBRANCH  64  87
ENDBRANCH  38  39
ENDBRANCH  30  33
ENDBRANCH  28  29
ENDBRANCH  27  28
ENDBRANCH  26  27
ENDBRANCH   1  26
TORSDOF 20
ENDMDL
MODEL 2
REMARK VINA RESULT:     -10.9      2.984      4.989
REMARK SMILES C[C@@H]1C[C@@H]1C(=O)NCCC(=O)N[C@@](C)(C(=O)NCCCCNC(=O)c1ccc(-c2c3nc(c(-c4cccc(S(=O)(=O)[O-])c4F)c4ccc([nH]4)c(-c4cccc(S(=O)(=O)[O-])c4F)c4nc(c(-c5cccc(S(=O)(=O)[O-])c5F)c5ccc2[nH]5)C=C4)C=C3)cc1)C(F)(F)F
REMARK SMILES IDX 18 1 17 2 15 3 16 4 13 6 14 7 12 8 10 9 11 10 9 12 8 13 7 14
REMARK SMILES IDX 5 15 6 16 4 18 1 19 2 20 3 21 88 22 89 23 90 24 91 25 19 26
REMARK SMILES IDX 20 27 21 28 22 29 23 30 24 32 25 33 26 34 87 35 27 36 86 37
REMARK SMILES IDX 28 38 29 39 30 40 80 41 31 42 85 43 79 44 81 45 32 46 84 47
REMARK SMILES IDX 78 48 77 49 33 51 65 52 45 53 64 54 46 55 49 56 63 57 82 58
REMARK SMILES IDX 47 59 48 60 62 62 83 63 50 64 34 65 35 66 43 67 36 68 38 69
REMARK SMILES IDX 44 70 37 71 39 72 40 73 41 74 42 75 66 76 67 77 75 78 68 79
REMARK SMILES IDX 70 80 76 81 69 82 71 83 72 84 73 85 74 86 51 87 52 88 60 89
REMARK SMILES IDX 53 90 55 91 61 92 54 93 56 94 57 95 58 96 59 97
REMARK H PARENT 17 5 12 11 7 17 22 31 81 50 49 61
REMARK Flexibility Score: inf
ROOT
ATOM      1  C   UNL A   1      34.690  22.904  23.217  1.00  0.00     0.116 C 
ENDROOT
BRANCH   1   2
ATOM      2  N   UNL A   1      34.422  24.328  23.120  1.00  0.00    -0.354 N 
ATOM      3  C   UNL A   1      33.379  25.123  23.475  1.00  0.00     0.254 C 
ATOM      4  O   UNL A   1      33.547  26.320  23.234  1.00  0.00    -0.272 OA
ATOM      5  H   UNL A   1      35.161  24.829  22.705  1.00  0.00     0.163 HD
BRANCH   3   6
ATOM      6  C   UNL A   1      32.157  24.585  24.248  1.00  0.00     0.212 C 
ATOM      7  C   UNL A   1      31.901  23.160  23.719  1.00  0.00     0.056 C 
BRANCH   6   8
ATOM      8  N   UNL A   1      30.965  25.466  23.946  1.00  0.00    -0.335 N 
ATOM      9  C   UNL A   1      30.460  26.611  24.481  1.00  0.00     0.222 C 
ATOM     10  O   UNL A   1      29.257  26.824  24.302  1.00  0.00    -0.275 OA
ATOM     11  H   UNL A   1      30.432  25.136  23.187  1.00  0.00     0.164 HD
BRANCH   9  12
ATOM     12  C   UNL A   1      31.308  27.653  25.174  1.00  0.00     0.121 C 
BRANCH  12  13
ATOM     13  C   UNL A   1      31.134  29.096  24.705  1.00  0.00     0.125 C 
BRANCH  13  14
ATOM     14  N   UNL A   1      30.937  29.272  23.282  1.00  0.00    -0.355 N 
ATOM     15  C   UNL A   1      29.982  29.973  22.600  1.00  0.00     0.223 C 
ATOM     16  O   UNL A   1      29.931  29.883  21.374  1.00  0.00    -0.275 OA
ATOM     17  H   UNL A   1      31.596  28.813  22.714  1.00  0.00     0.163 HD
BRANCH  15  18
ATOM     18  C   UNL A   1      29.007  30.807  23.342  1.00  0.00     0.081 C 
ATOM     19  C   UNL A   1      27.051  29.073  22.990  1.00  0.00     0.008 C 
ATOM     20  C   UNL A   1      27.566  30.363  23.532  1.00  0.00    -0.001 C 
ATOM     21  C   UNL A   1      27.885  31.507  22.613  1.00  0.00     0.018 C 
ENDBRANCH  15  18
ENDBRANCH  13  14
ENDBRANCH  12  13
ENDBRANCH   9  12
ENDBRANCH   6   8
BRANCH   6  22
ATOM     22  C   UNL A   1      32.635  24.556  25.715  1.00  0.00     0.420 C 
ATOM     23  F   UNL A   1      31.624  24.772  26.586  1.00  0.00    -0.168 F 
ATOM     24  F   UNL A   1      33.146  23.348  26.032  1.00  0.00    -0.168 F 
ATOM     25  F   UNL A   1      33.631  25.431  25.979  1.00  0.00    -0.168 F 
ENDBRANCH   6  22
ENDBRANCH   3   6
ENDBRANCH   1   2
BRANCH   1  26
ATOM     26  C   UNL A   1      36.116  22.676  23.712  1.00  0.00     0.023 C 
BRANCH  26  27
ATOM     27  C   UNL A   1      36.601  23.728  24.717  1.00  0.00     0.023 C 
BRANCH  27  28
ATOM     28  C   UNL A   1      36.920  23.188  26.107  1.00  0.00     0.116 C 
BRANCH  28  29
ATOM     29  N   UNL A   1      38.096  22.336  26.105  1.00  0.00    -0.352 N 
ATOM     30  C   UNL A   1      39.400  22.682  26.361  1.00  0.00     0.251 C 
ATOM     31  H   UNL A   1      37.939  21.388  25.894  1.00  0.00     0.163 HD
ATOM     32  O   UNL A   1      40.302  21.879  26.140  1.00  0.00    -0.269 OA
BRANCH  30  33
ATOM     33  C   UNL A   1      39.703  24.031  26.878  1.00  0.00     0.039 A 
ATOM     34  C   UNL A   1      39.724  24.233  28.258  1.00  0.00     0.014 A 
ATOM     35  C   UNL A   1      39.988  25.085  26.004  1.00  0.00     0.014 A 
ATOM     36  C   UNL A   1      40.072  25.486  28.763  1.00  0.00     0.010 A 
ATOM     37  C   UNL A   1      40.418  26.307  26.512  1.00  0.00     0.010 A 
ATOM     38  C   UNL A   1      40.448  26.526  27.896  1.00  0.00    -0.014 A 
BRANCH  38  39
ATOM     39  C   UNL A   1      40.872  27.845  28.434  1.00  0.00     0.031 A 
ATOM     40  C   UNL A   1      42.333  28.171  28.593  1.00  0.00     0.074 A 
ATOM     41  C   UNL A   1      39.937  28.731  28.831  1.00  0.00     0.049 A 
ATOM     42  N   UNL A   1      42.887  29.275  29.023  1.00  0.00    -0.248 NA
ATOM     43  C   UNL A   1      43.299  27.113  28.253  1.00  0.00     0.031 C 
ATOM     44  C   UNL A   1      38.491  28.496  28.818  1.00  0.00     0.029 A 
ATOM     45  N   UNL A   1      40.062  30.000  29.338  1.00  0.00    -0.354 N 
ATOM     46  C   UNL A   1      44.255  29.035  29.038  1.00  0.00     0.074 A 
ATOM     47  C   UNL A   1      44.447  27.666  28.613  1.00  0.00     0.031 C 
ATOM     48  C   UNL A   1      37.864  29.590  29.279  1.00  0.00     0.029 A 
ATOM     49  C   UNL A   1      38.860  30.592  29.646  1.00  0.00     0.049 A 
ATOM     50  H   UNL A   1      40.931  30.445  29.468  1.00  0.00     0.167 HD
ATOM     51  C   UNL A   1      45.263  29.883  29.347  1.00  0.00     0.034 A 
ATOM     52  C   UNL A   1      38.588  31.804  30.169  1.00  0.00     0.034 A 
ATOM     53  C   UNL A   1      45.069  31.254  29.735  1.00  0.00     0.049 A 
ATOM     54  C   UNL A   1      39.725  32.748  30.452  1.00  0.00     0.074 A 
ATOM     55  C   UNL A   1      46.026  32.225  29.972  1.00  0.00     0.029 A 
ATOM     56  N   UNL A   1      43.836  31.846  29.957  1.00  0.00    -0.354 N 
ATOM     57  N   UNL A   1      41.012  32.560  30.292  1.00  0.00    -0.248 NA
ATOM     58  C   UNL A   1      39.371  34.086  30.946  1.00  0.00     0.031 C 
ATOM     59  C   UNL A   1      45.372  33.392  30.377  1.00  0.00     0.029 A 
ATOM     60  C   UNL A   1      44.006  33.164  30.344  1.00  0.00     0.049 A 
ATOM     61  H   UNL A   1      42.966  31.395  29.855  1.00  0.00     0.167 HD
ATOM     62  C   UNL A   1      41.619  33.765  30.628  1.00  0.00     0.074 A 
ATOM     63  C   UNL A   1      40.554  34.682  30.982  1.00  0.00     0.031 C 
ATOM     64  C   UNL A   1      42.937  34.080  30.651  1.00  0.00     0.034 A 
BRANCH  51  65
ATOM     65  C   UNL A   1      46.676  29.364  29.243  1.00  0.00     0.023 A 
ATOM     66  C   UNL A   1      47.288  28.766  30.365  1.00  0.00     0.012 A 
ATOM     67  C   UNL A   1      47.377  29.419  28.024  1.00  0.00     0.148 A 
ATOM     68  C   UNL A   1      48.587  28.267  30.285  1.00  0.00     0.002 A 
ATOM     69  C   UNL A   1      48.653  28.873  27.937  1.00  0.00     0.091 A 
ATOM     70  F   UNL A   1      46.788  30.009  26.974  1.00  0.00    -0.205 F 
ATOM     71  C   UNL A   1      49.264  28.311  29.070  1.00  0.00     0.022 A 
BRANCH  69  72
ATOM     72  S   UNL A   1      49.574  28.802  26.398  1.00  0.00     0.127 S 
ATOM     73  O   UNL A   1      50.574  27.778  26.700  1.00  0.00    -0.237 OA
ATOM     74  O   UNL A   1      48.546  28.387  25.443  1.00  0.00    -0.237 OA
ATOM     75  O   UNL A   1      50.100  30.142  26.181  1.00  0.00    -0.744 OA
ENDBRANCH  69  72
ENDBRANCH  51  65
BRANCH  52  76
ATOM     76  C   UNL A   1      37.175  32.214  30.399  1.00  0.00     0.023 A 
ATOM     77  C   UNL A   1      36.565  31.951  31.643  1.00  0.00     0.012 A 
ATOM     78  C   UNL A   1      36.442  32.888  29.405  1.00  0.00     0.148 A 
ATOM     79  C   UNL A   1      35.241  32.322  31.877  1.00  0.00     0.002 A 
ATOM     80  C   UNL A   1      35.144  33.308  29.666  1.00  0.00     0.091 A 
ATOM     81  F   UNL A   1      37.038  33.123  28.228  1.00  0.00    -0.205 F 
ATOM     82  C   UNL A   1      34.534  33.009  30.894  1.00  0.00     0.022 A 
BRANCH  80  83
ATOM     83  S   UNL A   1      34.206  34.315  28.511  1.00  0.00     0.127 S 
ATOM     84  O   UNL A   1      32.870  34.280  29.101  1.00  0.00    -0.237 OA
ATOM     85  O   UNL A   1      34.892  35.603  28.611  1.00  0.00    -0.237 OA
ATOM     86  O   UNL A   1      34.343  33.660  27.216  1.00  0.00    -0.744 OA
ENDBRANCH  80  83
ENDBRANCH  52  76
BRANCH  64  87
ATOM     87  C   UNL A   1      43.313  35.491  31.024  1.00  0.00     0.023 A 
ATOM     88  C   UNL A   1      43.599  35.817  32.364  1.00  0.00     0.012 A 
ATOM     89  C   UNL A   1      43.449  36.478  30.028  1.00  0.00     0.148 A 
ATOM     90  C   UNL A   1      43.974  37.115  32.713  1.00  0.00     0.002 A 
ATOM     91  C   UNL A   1      43.876  37.753  30.374  1.00  0.00     0.091 A 
ATOM     92  F   UNL A   1      43.155  36.153  28.760  1.00  0.00    -0.205 F 
ATOM     93  C   UNL A   1      44.125  38.079  31.718  1.00  0.00     0.022 A 
BRANCH  91  94
ATOM     94  S   UNL A   1      44.195  39.027  29.148  1.00  0.00     0.127 S 
ATOM     95  O   UNL A   1      44.545  40.169  29.990  1.00  0.00    -0.237 OA
ATOM     96  O   UNL A   1      45.315  38.458  28.395  1.00  0.00    -0.237 OA
ATOM     97  O   UNL A   1      42.964  39.168  28.383  1.00  0.00    -0.744 OA
ENDBRANCH  91  94
ENDBRANCH  64  87
ENDBRANCH  38  39
ENDBRANCH  30  33
ENDBRANCH  28  29
ENDBRANCH  27  28
ENDBRANCH  26  27
ENDBRANCH   1  26
TORSDOF 20
ENDMDL
MODEL 3
REMARK VINA RESULT:     -10.8      2.538      8.379
REMARK SMILES C[C@@H]1C[C@@H]1C(=O)NCCC(=O)N[C@@](C)(C(=O)NCCCCNC(=O)c1ccc(-c2c3nc(c(-c4cccc(S(=O)(=O)[O-])c4F)c4ccc([nH]4)c(-c4cccc(S(=O)(=O)[O-])c4F)c4nc(c(-c5cccc(S(=O)(=O)[O-])c5F)c5ccc2[nH]5)C=C4)C=C3)cc1)C(F)(F)F
REMARK SMILES IDX 18 1 17 2 15 3 16 4 13 6 14 7 12 8 10 9 11 10 9 12 8 13 7 14
REMARK SMILES IDX 5 15 6 16 4 18 1 19 2 20 3 21 88 22 89 23 90 24 91 25 19 26
REMARK SMILES IDX 20 27 21 28 22 29 23 30 24 32 25 33 26 34 87 35 27 36 86 37
REMARK SMILES IDX 28 38 29 39 30 40 80 41 31 42 85 43 79 44 81 45 32 46 84 47
REMARK SMILES IDX 78 48 77 49 33 51 65 52 45 53 64 54 46 55 49 56 63 57 82 58
REMARK SMILES IDX 47 59 48 60 62 62 83 63 50 64 34 65 35 66 43 67 36 68 38 69
REMARK SMILES IDX 44 70 37 71 39 72 40 73 41 74 42 75 66 76 67 77 75 78 68 79
REMARK SMILES IDX 70 80 76 81 69 82 71 83 72 84 73 85 74 86 51 87 52 88 60 89
REMARK SMILES IDX 53 90 55 91 61 92 54 93 56 94 57 95 58 96 59 97
REMARK H PARENT 17 5 12 11 7 17 22 31 81 50 49 61
REMARK Flexibility Score: inf
ROOT
ATOM      1  C   UNL A   1      36.021  21.088  25.731  1.00  0.00     0.116 C 
ENDROOT
BRANCH   1   2
ATOM      2  N   UNL A   1      34.774  20.345  25.708  1.00  0.00    -0.354 N 
ATOM      3  C   UNL A   1      33.461  20.694  25.714  1.00  0.00     0.254 C 
ATOM      4  O   UNL A   1      32.681  19.741  25.669  1.00  0.00    -0.272 OA
ATOM      5  H   UNL A   1      34.911  19.370  25.684  1.00  0.00     0.163 HD
BRANCH   3   6
ATOM      6  C   UNL A   1      32.998  22.164  25.631  1.00  0.00     0.212 C 
ATOM      7  C   UNL A   1      33.964  22.974  26.519  1.00  0.00     0.056 C 
BRANCH   6   8
ATOM      8  N   UNL A   1      31.592  22.261  26.183  1.00  0.00    -0.335 N 
ATOM      9  C   UNL A   1      30.848  23.256  26.736  1.00  0.00     0.222 C 
ATOM     10  O   UNL A   1      29.922  22.910  27.477  1.00  0.00    -0.275 OA
ATOM     11  H   UNL A   1      31.104  21.408  26.128  1.00  0.00     0.164 HD
BRANCH   9  12
ATOM     12  C   UNL A   1      31.035  24.720  26.409  1.00  0.00     0.121 C 
BRANCH  12  13
ATOM     13  C   UNL A   1      30.275  25.251  25.197  1.00  0.00     0.125 C 
BRANCH  13  14
ATOM     14  N   UNL A   1      30.321  26.685  25.008  1.00  0.00    -0.355 N 
ATOM     15  C   UNL A   1      31.253  27.467  24.383  1.00  0.00     0.223 C 
ATOM     16  O   UNL A   1      31.151  28.692  24.450  1.00  0.00    -0.275 OA
ATOM     17  H   UNL A   1      29.559  27.177  25.390  1.00  0.00     0.163 HD
BRANCH  15  18
ATOM     18  C   UNL A   1      32.383  26.836  23.661  1.00  0.00     0.081 C 
ATOM     19  C   UNL A   1      33.926  26.838  25.799  1.00  0.00     0.008 C 
ATOM     20  C   UNL A   1      33.697  26.528  24.359  1.00  0.00    -0.001 C 
ATOM     21  C   UNL A   1      33.627  27.629  23.340  1.00  0.00     0.018 C 
ENDBRANCH  15  18
ENDBRANCH  13  14
ENDBRANCH  12  13
ENDBRANCH   9  12
ENDBRANCH   6   8
BRANCH   6  22
ATOM     22  C   UNL A   1      33.177  22.522  24.142  1.00  0.00     0.420 C 
ATOM     23  F   UNL A   1      33.284  21.422  23.361  1.00  0.00    -0.168 F 
ATOM     24  F   UNL A   1      32.109  23.203  23.677  1.00  0.00    -0.168 F 
ATOM     25  F   UNL A   1      34.232  23.331  23.900  1.00  0.00    -0.168 F 
ENDBRANCH   6  22
ENDBRANCH   3   6
ENDBRANCH   1   2
BRANCH   1  26
ATOM     26  C   UNL A   1      36.939  20.598  24.614  1.00  0.00     0.023 C 
BRANCH  26  27
ATOM     27  C   UNL A   1      38.013  19.609  25.082  1.00  0.00     0.023 C 
BRANCH  27  28
ATOM     28  C   UNL A   1      39.176  20.237  25.842  1.00  0.00     0.116 C 
BRANCH  28  29
ATOM     29  N   UNL A   1      40.270  19.302  26.036  1.00  0.00    -0.352 N 
ATOM     30  C   UNL A   1      41.596  19.577  26.263  1.00  0.00     0.251 C 
ATOM     31  H   UNL A   1      40.031  18.348  26.001  1.00  0.00     0.163 HD
ATOM     32  O   UNL A   1      42.425  18.672  26.224  1.00  0.00    -0.269 OA
BRANCH  30  33
ATOM     33  C   UNL A   1      42.012  20.969  26.529  1.00  0.00     0.039 A 
ATOM     34  C   UNL A   1      42.269  21.353  27.845  1.00  0.00     0.014 A 
ATOM     35  C   UNL A   1      42.171  21.880  25.480  1.00  0.00     0.014 A 
ATOM     36  C   UNL A   1      42.725  22.646  28.105  1.00  0.00     0.010 A 
ATOM     37  C   UNL A   1      42.708  23.138  25.734  1.00  0.00     0.010 A 
ATOM     38  C   UNL A   1      42.974  23.541  27.050  1.00  0.00    -0.014 A 
BRANCH  38  39
ATOM     39  C   UNL A   1      43.512  24.900  27.321  1.00  0.00     0.031 A 
ATOM     40  C   UNL A   1      42.613  25.986  27.847  1.00  0.00     0.074 A 
ATOM     41  C   UNL A   1      44.802  25.171  27.041  1.00  0.00     0.049 A 
ATOM     42  N   UNL A   1      42.911  27.220  28.162  1.00  0.00    -0.248 NA
ATOM     43  C   UNL A   1      41.187  25.656  28.017  1.00  0.00     0.031 C 
ATOM     44  C   UNL A   1      45.751  24.231  26.439  1.00  0.00     0.029 A 
ATOM     45  N   UNL A   1      45.535  26.318  27.212  1.00  0.00    -0.354 N 
ATOM     46  C   UNL A   1      41.714  27.820  28.532  1.00  0.00     0.074 A 
ATOM     47  C   UNL A   1      40.675  26.827  28.363  1.00  0.00     0.031 C 
ATOM     48  C   UNL A   1      46.942  24.835  26.304  1.00  0.00     0.029 A 
ATOM     49  C   UNL A   1      46.837  26.210  26.784  1.00  0.00     0.049 A 
ATOM     50  H   UNL A   1      45.163  27.142  27.603  1.00  0.00     0.167 HD
ATOM     51  C   UNL A   1      41.499  29.072  28.997  1.00  0.00     0.034 A 
ATOM     52  C   UNL A   1      47.836  27.115  26.776  1.00  0.00     0.034 A 
ATOM     53  C   UNL A   1      42.540  30.044  29.197  1.00  0.00     0.049 A 
ATOM     54  C   UNL A   1      47.585  28.483  27.350  1.00  0.00     0.074 A 
ATOM     55  C   UNL A   1      42.442  31.306  29.757  1.00  0.00     0.029 A 
ATOM     56  N   UNL A   1      43.864  29.871  28.830  1.00  0.00    -0.354 N 
ATOM     57  N   UNL A   1      46.481  28.974  27.859  1.00  0.00    -0.248 NA
ATOM     58  C   UNL A   1      48.727  29.407  27.390  1.00  0.00     0.031 C 
ATOM     59  C   UNL A   1      43.702  31.910  29.692  1.00  0.00     0.029 A 
ATOM     60  C   UNL A   1      44.594  31.007  29.136  1.00  0.00     0.049 A 
ATOM     61  H   UNL A   1      44.234  29.059  28.413  1.00  0.00     0.167 HD
ATOM     62  C   UNL A   1      46.804  30.248  28.313  1.00  0.00     0.074 A 
ATOM     63  C   UNL A   1      48.212  30.443  28.036  1.00  0.00     0.031 C 
ATOM     64  C   UNL A   1      46.005  31.173  28.897  1.00  0.00     0.034 A 
BRANCH  51  65
ATOM     65  C   UNL A   1      40.086  29.455  29.361  1.00  0.00     0.023 A 
ATOM     66  C   UNL A   1      39.191  29.871  28.354  1.00  0.00     0.012 A 
ATOM     67  C   UNL A   1      39.629  29.351  30.689  1.00  0.00     0.148 A 
ATOM     68  C   UNL A   1      37.877  30.215  28.667  1.00  0.00     0.002 A 
ATOM     69  C   UNL A   1      38.304  29.646  30.986  1.00  0.00     0.091 A 
ATOM     70  F   UNL A   1      40.499  28.974  31.637  1.00  0.00    -0.205 F 
ATOM     71  C   UNL A   1      37.431  30.092  29.980  1.00  0.00     0.022 A 
BRANCH  69  72
ATOM     72  S   UNL A   1      37.609  29.437  32.629  1.00  0.00     0.127 S 
ATOM     73  O   UNL A   1      38.462  30.319  33.424  1.00  0.00    -0.237 OA
ATOM     74  O   UNL A   1      36.238  29.916  32.446  1.00  0.00    -0.237 OA
ATOM     75  O   UNL A   1      37.721  28.018  32.936  1.00  0.00    -0.744 OA
ENDBRANCH  69  72
ENDBRANCH  51  65
BRANCH  52  76
ATOM     76  C   UNL A   1      49.180  26.734  26.259  1.00  0.00     0.023 A 
ATOM     77  C   UNL A   1      50.007  25.885  27.023  1.00  0.00     0.012 A 
ATOM     78  C   UNL A   1      49.630  27.182  25.004  1.00  0.00     0.148 A 
ATOM     79  C   UNL A   1      51.271  25.520  26.559  1.00  0.00     0.002 A 
ATOM     80  C   UNL A   1      50.865  26.767  24.521  1.00  0.00     0.091 A 
ATOM     81  F   UNL A   1      48.831  27.993  24.296  1.00  0.00    -0.205 F 
ATOM     82  C   UNL A   1      51.696  25.952  25.305  1.00  0.00     0.022 A 
BRANCH  80  83
ATOM     83  S   UNL A   1      51.435  27.162  22.865  1.00  0.00     0.127 S 
ATOM     84  O   UNL A   1      50.302  26.737  22.048  1.00  0.00    -0.237 OA
ATOM     85  O   UNL A   1      51.625  28.610  22.950  1.00  0.00    -0.237 OA
ATOM     86  O   UNL A   1      52.667  26.405  22.681  1.00  0.00    -0.744 OA
ENDBRANCH  80  83
ENDBRANCH  52  76
BRANCH  64  87
ATOM     87  C   UNL A   1      46.637  32.472  29.328  1.00  0.00     0.023 A 
ATOM     88  C   UNL A   1      47.329  32.551  30.552  1.00  0.00     0.012 A 
ATOM     89  C   UNL A   1      46.598  33.597  28.481  1.00  0.00     0.148 A 
ATOM     90  C   UNL A   1      47.940  33.743  30.945  1.00  0.00     0.002 A 
ATOM     91  C   UNL A   1      47.254  34.763  28.853  1.00  0.00     0.091 A 
ATOM     92  F   UNL A   1      45.918  33.507  27.329  1.00  0.00    -0.205 F 
ATOM     93  C   UNL A   1      47.913  34.844  30.091  1.00  0.00     0.022 A 
BRANCH  91  94
ATOM     94  S   UNL A   1      47.359  36.194  27.772  1.00  0.00     0.127 S 
ATOM     95  O   UNL A   1      48.053  35.641  26.611  1.00  0.00    -0.237 OA
ATOM     96  O   UNL A   1      45.948  36.514  27.544  1.00  0.00    -0.237 OA
ATOM     97  O   UNL A   1      48.094  37.208  28.516  1.00  0.00    -0.744 OA
ENDBRANCH  91  94
ENDBRANCH  64  87
ENDBRANCH  38  39
ENDBRANCH  30  33
ENDBRANCH  28  29
ENDBRANCH  27  28
ENDBRANCH  26  27
ENDBRANCH   1  26
TORSDOF 20
ENDMDL
