MODEL 1
REMARK VINA RESULT:     -11.6      0.000      0.000
REMARK SMILES C[C@@H](CC(=O)NCCCCNC(=O)c1ccc(-c2c3nc(c(-c4cccc(S(=O)(=O)[O-])c4F)c4ccc([nH]4)c(-c4cccc(S(=O)(=O)[O-])c4F)c4nc(c(-c5cccc(S(=O)(=O)[O-])c5F)c5ccc2[nH]5)C=C4)C=C3)cc1)N1C(=O)CCCC1=O
REMARK SMILES IDX 9 1 8 2 7 3 6 4 4 5 5 6 3 8 2 9 1 10 77 11 78 12 83 13 79 14
REMARK SMILES IDX 80 15 82 16 84 17 81 18 10 19 11 20 12 21 13 23 14 24 15 25
REMARK SMILES IDX 76 26 16 27 75 28 17 29 18 30 19 31 69 32 20 33 74 34 68 35
REMARK SMILES IDX 70 36 21 37 73 38 67 39 66 40 22 42 54 43 34 44 53 45 35 46
REMARK SMILES IDX 38 47 52 48 71 49 36 50 37 51 51 53 72 54 39 55 23 56 24 57
REMARK SMILES IDX 32 58 25 59 27 60 33 61 26 62 28 63 29 64 30 65 31 66 55 67
REMARK SMILES IDX 56 68 64 69 57 70 59 71 65 72 58 73 60 74 61 75 62 76 63 77
REMARK SMILES IDX 40 78 41 79 49 80 42 81 44 82 50 83 43 84 45 85 46 86 47 87
REMARK SMILES IDX 48 88
REMARK H PARENT 6 7 11 22 70 41 38 52
REMARK Flexibility Score: inf
ROOT
ATOM      1  C   UNL A   1      35.619  22.718  24.403  1.00  0.00     0.023 C 
ENDROOT
BRANCH   1   2
ATOM      2  C   UNL A   1      34.169  23.087  24.695  1.00  0.00     0.023 C 
BRANCH   2   3
ATOM      3  C   UNL A   1      33.961  23.977  25.920  1.00  0.00     0.116 C 
BRANCH   3   4
ATOM      4  N   UNL A   1      32.810  23.577  26.704  1.00  0.00    -0.356 N 
ATOM      5  C   UNL A   1      31.496  23.891  26.551  1.00  0.00     0.222 C 
ATOM      6  O   UNL A   1      30.688  23.527  27.407  1.00  0.00    -0.275 OA
ATOM      7  H   UNL A   1      33.010  22.986  27.466  1.00  0.00     0.163 HD
BRANCH   5   8
ATOM      8  C   UNL A   1      31.017  24.628  25.323  1.00  0.00     0.125 C 
BRANCH   8   9
ATOM      9  C   UNL A   1      30.590  26.097  25.492  1.00  0.00     0.099 C 
ATOM     10  C   UNL A   1      29.508  26.568  24.514  1.00  0.00     0.032 C 
BRANCH   9  11
ATOM     11  N   UNL A   1      31.698  27.062  25.674  1.00  0.00    -0.279 N 
ATOM     12  C   UNL A   1      32.619  27.247  24.639  1.00  0.00     0.229 C 
ATOM     13  C   UNL A   1      31.758  27.733  26.898  1.00  0.00     0.229 C 
ATOM     14  O   UNL A   1      32.526  26.704  23.539  1.00  0.00    -0.274 OA
ATOM     15  C   UNL A   1      33.724  28.251  24.850  1.00  0.00     0.101 C 
ATOM     16  C   UNL A   1      32.878  28.729  27.089  1.00  0.00     0.101 C 
ATOM     17  O   UNL A   1      30.908  27.613  27.784  1.00  0.00    -0.274 OA
ATOM     18  C   UNL A   1      34.108  28.346  26.304  1.00  0.00     0.020 C 
ENDBRANCH   9  11
ENDBRANCH   8   9
ENDBRANCH   5   8
ENDBRANCH   3   4
ENDBRANCH   2   3
ENDBRANCH   1   2
BRANCH   1  19
ATOM     19  C   UNL A   1      36.458  22.519  25.650  1.00  0.00     0.116 C 
BRANCH  19  20
ATOM     20  N   UNL A   1      37.313  21.338  25.564  1.00  0.00    -0.352 N 
ATOM     21  C   UNL A   1      38.646  21.231  25.881  1.00  0.00     0.251 C 
ATOM     22  H   UNL A   1      36.880  20.516  25.240  1.00  0.00     0.163 HD
ATOM     23  O   UNL A   1      39.278  20.216  25.631  1.00  0.00    -0.269 OA
BRANCH  21  24
ATOM     24  C   UNL A   1      39.297  22.396  26.510  1.00  0.00     0.039 A 
ATOM     25  C   UNL A   1      40.362  22.195  27.391  1.00  0.00     0.014 A 
ATOM     26  C   UNL A   1      38.907  23.681  26.132  1.00  0.00     0.014 A 
ATOM     27  C   UNL A   1      41.089  23.297  27.844  1.00  0.00     0.010 A 
ATOM     28  C   UNL A   1      39.685  24.762  26.510  1.00  0.00     0.010 A 
ATOM     29  C   UNL A   1      40.775  24.583  27.378  1.00  0.00    -0.014 A 
BRANCH  29  30
ATOM     30  C   UNL A   1      41.527  25.789  27.796  1.00  0.00     0.031 A 
ATOM     31  C   UNL A   1      40.806  26.847  28.585  1.00  0.00     0.074 A 
ATOM     32  C   UNL A   1      42.779  25.999  27.345  1.00  0.00     0.049 A 
ATOM     33  N   UNL A   1      41.172  28.070  28.856  1.00  0.00    -0.248 NA
ATOM     34  C   UNL A   1      39.464  26.496  29.086  1.00  0.00     0.031 C 
ATOM     35  C   UNL A   1      43.552  25.073  26.516  1.00  0.00     0.029 A 
ATOM     36  N   UNL A   1      43.606  27.085  27.487  1.00  0.00    -0.354 N 
ATOM     37  C   UNL A   1      40.083  28.654  29.491  1.00  0.00     0.074 A 
ATOM     38  C   UNL A   1      39.033  27.662  29.542  1.00  0.00     0.031 C 
ATOM     39  C   UNL A   1      44.737  25.632  26.216  1.00  0.00     0.029 A 
ATOM     40  C   UNL A   1      44.793  26.968  26.801  1.00  0.00     0.049 A 
ATOM     41  H   UNL A   1      43.372  27.873  28.030  1.00  0.00     0.167 HD
ATOM     42  C   UNL A   1      39.978  29.898  30.013  1.00  0.00     0.034 A 
ATOM     43  C   UNL A   1      45.803  27.849  26.650  1.00  0.00     0.034 A 
ATOM     44  C   UNL A   1      41.060  30.840  30.037  1.00  0.00     0.049 A 
ATOM     45  C   UNL A   1      45.696  29.194  27.321  1.00  0.00     0.074 A 
ATOM     46  C   UNL A   1      41.100  32.089  30.630  1.00  0.00     0.029 A 
ATOM     47  N   UNL A   1      42.301  30.627  29.458  1.00  0.00    -0.354 N 
ATOM     48  N   UNL A   1      44.710  29.683  28.033  1.00  0.00    -0.248 NA
ATOM     49  C   UNL A   1      46.853  30.095  27.200  1.00  0.00     0.031 C 
ATOM     50  C   UNL A   1      42.370  32.631  30.410  1.00  0.00     0.029 A 
ATOM     51  C   UNL A   1      43.122  31.715  29.690  1.00  0.00     0.049 A 
ATOM     52  H   UNL A   1      42.561  29.820  28.956  1.00  0.00     0.167 HD
ATOM     53  C   UNL A   1      45.142  30.926  28.482  1.00  0.00     0.074 A 
ATOM     54  C   UNL A   1      46.483  31.112  27.967  1.00  0.00     0.031 C 
ATOM     55  C   UNL A   1      44.484  31.837  29.239  1.00  0.00     0.034 A 
BRANCH  42  56
ATOM     56  C   UNL A   1      38.674  30.279  30.658  1.00  0.00     0.023 A 
ATOM     57  C   UNL A   1      38.438  29.929  32.004  1.00  0.00     0.012 A 
ATOM     58  C   UNL A   1      37.702  31.015  29.954  1.00  0.00     0.148 A 
ATOM     59  C   UNL A   1      37.239  30.272  32.627  1.00  0.00     0.002 A 
ATOM     60  C   UNL A   1      36.528  31.393  30.597  1.00  0.00     0.091 A 
ATOM     61  F   UNL A   1      37.931  31.316  28.668  1.00  0.00    -0.205 F 
ATOM     62  C   UNL A   1      36.290  31.012  31.927  1.00  0.00     0.022 A 
BRANCH  60  63
ATOM     63  S   UNL A   1      35.280  32.415  29.806  1.00  0.00     0.127 S 
ATOM     64  O   UNL A   1      36.074  33.558  29.358  1.00  0.00    -0.237 OA
ATOM     65  O   UNL A   1      34.804  31.545  28.729  1.00  0.00    -0.237 OA
ATOM     66  O   UNL A   1      34.290  32.702  30.833  1.00  0.00    -0.744 OA
ENDBRANCH  60  63
ENDBRANCH  42  56
BRANCH  43  67
ATOM     67  C   UNL A   1      47.031  27.456  25.903  1.00  0.00     0.023 A 
ATOM     68  C   UNL A   1      48.033  26.727  26.575  1.00  0.00     0.012 A 
ATOM     69  C   UNL A   1      47.204  27.761  24.540  1.00  0.00     0.148 A 
ATOM     70  C   UNL A   1      49.196  26.336  25.912  1.00  0.00     0.002 A 
ATOM     71  C   UNL A   1      48.344  27.326  23.871  1.00  0.00     0.091 A 
ATOM     72  F   UNL A   1      46.247  28.465  23.919  1.00  0.00    -0.205 F 
ATOM     73  C   UNL A   1      49.348  26.627  24.559  1.00  0.00     0.022 A 
BRANCH  71  74
ATOM     74  S   UNL A   1      48.566  27.545  22.102  1.00  0.00     0.127 S 
ATOM     75  O   UNL A   1      49.787  28.345  22.051  1.00  0.00    -0.237 OA
ATOM     76  O   UNL A   1      48.715  26.165  21.639  1.00  0.00    -0.237 OA
ATOM     77  O   UNL A   1      47.354  28.205  21.636  1.00  0.00    -0.744 OA
ENDBRANCH  71  74
ENDBRANCH  43  67
BRANCH  55  78
ATOM     78  C   UNL A   1      45.210  33.096  29.623  1.00  0.00     0.023 A 
ATOM     79  C   UNL A   1      46.032  33.107  30.766  1.00  0.00     0.012 A 
ATOM     80  C   UNL A   1      45.183  34.217  28.771  1.00  0.00     0.148 A 
ATOM     81  C   UNL A   1      46.811  34.225  31.061  1.00  0.00     0.002 A 
ATOM     82  C   UNL A   1      45.996  35.309  29.047  1.00  0.00     0.091 A 
ATOM     83  F   UNL A   1      44.379  34.185  27.698  1.00  0.00    -0.205 F 
ATOM     84  C   UNL A   1      46.805  35.317  30.195  1.00  0.00     0.022 A 
BRANCH  82  85
ATOM     85  S   UNL A   1      46.129  36.717  27.939  1.00  0.00     0.127 S 
ATOM     86  O   UNL A   1      47.108  37.551  28.635  1.00  0.00    -0.237 OA
ATOM     87  O   UNL A   1      46.620  36.096  26.709  1.00  0.00    -0.237 OA
ATOM     88  O   UNL A   1      44.790  37.280  27.840  1.00  0.00    -0.744 OA
ENDBRANCH  82  85
ENDBRANCH  55  78
ENDBRANCH  29  30
ENDBRANCH  21  24
ENDBRANCH  19  20
ENDBRANCH   1  19
TORSDOF 16
ENDMDL
MODEL 2
REMARK VINA RESULT:     -11.5      5.169      9.932
REMARK SMILES C[C@@H](CC(=O)NCCCCNC(=O)c1ccc(-c2c3nc(c(-c4cccc(S(=O)(=O)[O-])c4F)c4ccc([nH]4)c(-c4cccc(S(=O)(=O)[O-])c4F)c4nc(c(-c5cccc(S(=O)(=O)[O-])c5F)c5ccc2[nH]5)C=C4)C=C3)cc1)N1C(=O)CCCC1=O
REMARK SMILES IDX 9 1 8 2 7 3 6 4 4 5 5 6 3 8 2 9 1 10 77 11 78 12 83 13 79 14
REMARK SMILES IDX 80 15 82 16 84 17 81 18 10 19 11 20 12 21 13 23 14 24 15 25
REMARK SMILES IDX 76 26 16 27 75 28 17 29 18 30 19 31 69 32 20 33 74 34 68 35
REMARK SMILES IDX 70 36 21 37 73 38 67 39 66 40 22 42 54 43 34 44 53 45 35 46
REMARK SMILES IDX 38 47 52 48 71 49 36 50 37 51 51 53 72 54 39 55 23 56 24 57
REMARK SMILES IDX 32 58 25 59 27 60 33 61 26 62 28 63 29 64 30 65 31 66 55 67
REMARK SMILES IDX 56 68 64 69 57 70 59 71 65 72 58 73 60 74 61 75 62 76 63 77
REMARK SMILES IDX 40 78 41 79 49 80 42 81 44 82 50 83 43 84 45 85 46 86 47 87
REMARK SMILES IDX 48 88
REMARK H PARENT 6 7 11 22 70 41 38 52
REMARK Flexibility Score: inf
ROOT
ATOM      1  C   UNL A   1      32.150  28.011  25.122  1.00  0.00     0.023 C 
ENDROOT
BRANCH   1   2
ATOM      2  C   UNL A   1      31.232  27.312  26.118  1.00  0.00     0.023 C 
BRANCH   2   3
ATOM      3  C   UNL A   1      30.606  26.010  25.618  1.00  0.00     0.116 C 
BRANCH   3   4
ATOM      4  N   UNL A   1      30.652  24.958  26.613  1.00  0.00    -0.356 N 
ATOM      5  C   UNL A   1      31.610  24.023  26.853  1.00  0.00     0.222 C 
ATOM      6  O   UNL A   1      31.393  23.142  27.688  1.00  0.00    -0.275 OA
ATOM      7  H   UNL A   1      29.868  24.912  27.208  1.00  0.00     0.163 HD
BRANCH   5   8
ATOM      8  C   UNL A   1      32.945  24.088  26.151  1.00  0.00     0.125 C 
BRANCH   8   9
ATOM      9  C   UNL A   1      33.092  23.324  24.824  1.00  0.00     0.099 C 
ATOM     10  C   UNL A   1      31.939  22.366  24.504  1.00  0.00     0.032 C 
BRANCH   9  11
ATOM     11  N   UNL A   1      34.435  22.759  24.562  1.00  0.00    -0.279 N 
ATOM     12  C   UNL A   1      34.915  21.733  25.382  1.00  0.00     0.229 C 
ATOM     13  C   UNL A   1      35.155  23.305  23.497  1.00  0.00     0.229 C 
ATOM     14  O   UNL A   1      34.253  21.209  26.277  1.00  0.00    -0.274 OA
ATOM     15  C   UNL A   1      36.279  21.167  25.076  1.00  0.00     0.101 C 
ATOM     16  C   UNL A   1      36.522  22.726  23.214  1.00  0.00     0.101 C 
ATOM     17  O   UNL A   1      34.703  24.166  22.738  1.00  0.00    -0.274 OA
ATOM     18  C   UNL A   1      37.182  22.210  24.469  1.00  0.00     0.020 C 
ENDBRANCH   9  11
ENDBRANCH   8   9
ENDBRANCH   5   8
ENDBRANCH   3   4
ENDBRANCH   2   3
ENDBRANCH   1   2
BRANCH   1  19
ATOM     19  C   UNL A   1      33.148  28.950  25.770  1.00  0.00     0.116 C 
BRANCH  19  20
ATOM     20  N   UNL A   1      32.548  30.225  26.153  1.00  0.00    -0.352 N 
ATOM     21  C   UNL A   1      33.045  31.171  27.018  1.00  0.00     0.251 C 
ATOM     22  H   UNL A   1      31.679  30.433  25.741  1.00  0.00     0.163 HD
ATOM     23  O   UNL A   1      32.374  32.133  27.358  1.00  0.00    -0.269 OA
BRANCH  21  24
ATOM     24  C   UNL A   1      34.409  30.971  27.543  1.00  0.00     0.039 A 
ATOM     25  C   UNL A   1      35.265  32.067  27.666  1.00  0.00     0.014 A 
ATOM     26  C   UNL A   1      34.782  29.708  28.006  1.00  0.00     0.014 A 
ATOM     27  C   UNL A   1      36.485  31.908  28.326  1.00  0.00     0.010 A 
ATOM     28  C   UNL A   1      35.949  29.576  28.738  1.00  0.00     0.010 A 
ATOM     29  C   UNL A   1      36.817  30.669  28.895  1.00  0.00    -0.014 A 
BRANCH  29  30
ATOM     30  C   UNL A   1      38.081  30.444  29.636  1.00  0.00     0.031 A 
ATOM     31  C   UNL A   1      39.105  29.517  29.041  1.00  0.00     0.074 A 
ATOM     32  C   UNL A   1      38.237  30.936  30.879  1.00  0.00     0.049 A 
ATOM     33  N   UNL A   1      40.161  28.986  29.594  1.00  0.00    -0.248 NA
ATOM     34  C   UNL A   1      38.874  29.084  27.650  1.00  0.00     0.031 C 
ATOM     35  C   UNL A   1      37.278  31.790  31.584  1.00  0.00     0.029 A 
ATOM     36  N   UNL A   1      39.246  30.748  31.791  1.00  0.00    -0.354 N 
ATOM     37  C   UNL A   1      40.675  28.106  28.650  1.00  0.00     0.074 A 
ATOM     38  C   UNL A   1      39.802  28.153  27.499  1.00  0.00     0.031 C 
ATOM     39  C   UNL A   1      37.741  32.046  32.820  1.00  0.00     0.029 A 
ATOM     40  C   UNL A   1      39.009  31.347  33.007  1.00  0.00     0.049 A 
ATOM     41  H   UNL A   1      40.062  30.234  31.593  1.00  0.00     0.167 HD
ATOM     42  C   UNL A   1      41.794  27.348  28.726  1.00  0.00     0.034 A 
ATOM     43  C   UNL A   1      39.728  31.319  34.147  1.00  0.00     0.034 A 
ATOM     44  C   UNL A   1      42.700  27.382  29.837  1.00  0.00     0.049 A 
ATOM     45  C   UNL A   1      41.018  30.541  34.170  1.00  0.00     0.074 A 
ATOM     46  C   UNL A   1      43.915  26.737  29.976  1.00  0.00     0.029 A 
ATOM     47  N   UNL A   1      42.499  28.119  30.994  1.00  0.00    -0.354 N 
ATOM     48  N   UNL A   1      41.560  29.817  33.220  1.00  0.00    -0.248 NA
ATOM     49  C   UNL A   1      41.814  30.602  35.405  1.00  0.00     0.031 C 
ATOM     50  C   UNL A   1      44.450  27.086  31.220  1.00  0.00     0.029 A 
ATOM     51  C   UNL A   1      43.573  27.956  31.848  1.00  0.00     0.049 A 
ATOM     52  H   UNL A   1      41.708  28.676  31.179  1.00  0.00     0.167 HD
ATOM     53  C   UNL A   1      42.777  29.374  33.724  1.00  0.00     0.074 A 
ATOM     54  C   UNL A   1      42.898  29.918  35.062  1.00  0.00     0.031 C 
ATOM     55  C   UNL A   1      43.706  28.580  33.140  1.00  0.00     0.034 A 
BRANCH  42  56
ATOM     56  C   UNL A   1      42.129  26.477  27.546  1.00  0.00     0.023 A 
ATOM     57  C   UNL A   1      42.837  27.026  26.457  1.00  0.00     0.012 A 
ATOM     58  C   UNL A   1      41.785  25.111  27.529  1.00  0.00     0.148 A 
ATOM     59  C   UNL A   1      43.162  26.241  25.352  1.00  0.00     0.002 A 
ATOM     60  C   UNL A   1      42.154  24.324  26.444  1.00  0.00     0.091 A 
ATOM     61  F   UNL A   1      41.090  24.612  28.561  1.00  0.00    -0.205 F 
ATOM     62  C   UNL A   1      42.830  24.889  25.351  1.00  0.00     0.022 A 
BRANCH  60  63
ATOM     63  S   UNL A   1      41.842  22.555  26.385  1.00  0.00     0.127 S 
ATOM     64  O   UNL A   1      42.424  22.110  27.651  1.00  0.00    -0.237 OA
ATOM     65  O   UNL A   1      40.381  22.500  26.334  1.00  0.00    -0.237 OA
ATOM     66  O   UNL A   1      42.508  22.073  25.183  1.00  0.00    -0.744 OA
ENDBRANCH  60  63
ENDBRANCH  42  56
BRANCH  43  67
ATOM     67  C   UNL A   1      39.290  32.117  35.327  1.00  0.00     0.023 A 
ATOM     68  C   UNL A   1      38.394  31.537  36.247  1.00  0.00     0.012 A 
ATOM     69  C   UNL A   1      39.771  33.418  35.568  1.00  0.00     0.148 A 
ATOM     70  C   UNL A   1      37.963  32.247  37.367  1.00  0.00     0.002 A 
ATOM     71  C   UNL A   1      39.376  34.103  36.713  1.00  0.00     0.091 A 
ATOM     72  F   UNL A   1      40.614  33.959  34.677  1.00  0.00    -0.205 F 
ATOM     73  C   UNL A   1      38.459  33.525  37.605  1.00  0.00     0.022 A 
BRANCH  71  74
ATOM     74  S   UNL A   1      40.060  35.701  37.164  1.00  0.00     0.127 S 
ATOM     75  O   UNL A   1      39.454  35.928  38.473  1.00  0.00    -0.237 OA
ATOM     76  O   UNL A   1      41.497  35.421  37.191  1.00  0.00    -0.237 OA
ATOM     77  O   UNL A   1      39.650  36.614  36.106  1.00  0.00    -0.744 OA
ENDBRANCH  71  74
ENDBRANCH  43  67
BRANCH  55  78
ATOM     78  C   UNL A   1      44.970  28.289  33.900  1.00  0.00     0.023 A 
ATOM     79  C   UNL A   1      46.053  29.186  33.823  1.00  0.00     0.012 A 
ATOM     80  C   UNL A   1      45.026  27.203  34.795  1.00  0.00     0.148 A 
ATOM     81  C   UNL A   1      47.180  28.998  34.621  1.00  0.00     0.002 A 
ATOM     82  C   UNL A   1      46.132  27.048  35.619  1.00  0.00     0.091 A 
ATOM     83  F   UNL A   1      43.986  26.356  34.836  1.00  0.00    -0.205 F 
ATOM     84  C   UNL A   1      47.213  27.940  35.528  1.00  0.00     0.022 A 
BRANCH  82  85
ATOM     85  S   UNL A   1      46.221  25.777  36.885  1.00  0.00     0.127 S 
ATOM     86  O   UNL A   1      45.061  26.102  37.714  1.00  0.00    -0.237 OA
ATOM     87  O   UNL A   1      46.086  24.550  36.101  1.00  0.00    -0.237 OA
ATOM     88  O   UNL A   1      47.515  25.942  37.533  1.00  0.00    -0.744 OA
ENDBRANCH  82  85
ENDBRANCH  55  78
ENDBRANCH  29  30
ENDBRANCH  21  24
ENDBRANCH  19  20
ENDBRANCH   1  19
TORSDOF 16
ENDMDL
MODEL 3
REMARK VINA RESULT:     -11.5      5.274     10.204
REMARK SMILES C[C@@H](CC(=O)NCCCCNC(=O)c1ccc(-c2c3nc(c(-c4cccc(S(=O)(=O)[O-])c4F)c4ccc([nH]4)c(-c4cccc(S(=O)(=O)[O-])c4F)c4nc(c(-c5cccc(S(=O)(=O)[O-])c5F)c5ccc2[nH]5)C=C4)C=C3)cc1)N1C(=O)CCCC1=O
REMARK SMILES IDX 9 1 8 2 7 3 6 4 4 5 5 6 3 8 2 9 1 10 77 11 78 12 83 13 79 14
REMARK SMILES IDX 80 15 82 16 84 17 81 18 10 19 11 20 12 21 13 23 14 24 15 25
REMARK SMILES IDX 76 26 16 27 75 28 17 29 18 30 19 31 69 32 20 33 74 34 68 35
REMARK SMILES IDX 70 36 21 37 73 38 67 39 66 40 22 42 54 43 34 44 53 45 35 46
REMARK SMILES IDX 38 47 52 48 71 49 36 50 37 51 51 53 72 54 39 55 23 56 24 57
REMARK SMILES IDX 32 58 25 59 27 60 33 61 26 62 28 63 29 64 30 65 31 66 55 67
REMARK SMILES IDX 56 68 64 69 57 70 59 71 65 72 58 73 60 74 61 75 62 76 63 77
REMARK SMILES IDX 40 78 41 79 49 80 42 81 44 82 50 83 43 84 45 85 46 86 47 87
REMARK SMILES IDX 48 88
REMARK H PARENT 6 7 11 22 70 41 38 52
REMARK Flexibility Score: inf
ROOT
ATOM      1  C   UNL A   1      32.447  28.067  24.756  1.00  0.00     0.023 C 
ENDROOT
BRANCH   1   2
ATOM      2  C   UNL A   1      31.415  27.571  25.763  1.00  0.00     0.023 C 
BRANCH   2   3
ATOM      3  C   UNL A   1      30.789  26.216  25.435  1.00  0.00     0.116 C 
BRANCH   3   4
ATOM      4  N   UNL A   1      30.915  25.272  26.527  1.00  0.00    -0.356 N 
ATOM      5  C   UNL A   1      30.972  23.913  26.505  1.00  0.00     0.222 C 
ATOM      6  O   UNL A   1      30.968  23.294  27.571  1.00  0.00    -0.275 OA
ATOM      7  H   UNL A   1      30.967  25.675  27.423  1.00  0.00     0.163 HD
BRANCH   5   8
ATOM      8  C   UNL A   1      31.094  23.166  25.198  1.00  0.00     0.125 C 
BRANCH   8   9
ATOM      9  C   UNL A   1      32.440  23.242  24.456  1.00  0.00     0.099 C 
ATOM     10  C   UNL A   1      32.326  23.452  22.941  1.00  0.00     0.032 C 
BRANCH   9  11
ATOM     11  N   UNL A   1      33.440  22.223  24.849  1.00  0.00    -0.279 N 
ATOM     12  C   UNL A   1      34.462  22.576  25.734  1.00  0.00     0.229 C 
ATOM     13  C   UNL A   1      33.298  20.950  24.290  1.00  0.00     0.229 C 
ATOM     14  O   UNL A   1      34.546  23.678  26.275  1.00  0.00    -0.274 OA
ATOM     15  C   UNL A   1      35.453  21.509  26.127  1.00  0.00     0.101 C 
ATOM     16  C   UNL A   1      34.307  19.899  24.694  1.00  0.00     0.101 C 
ATOM     17  O   UNL A   1      32.359  20.626  23.559  1.00  0.00    -0.274 OA
ATOM     18  C   UNL A   1      35.649  20.507  25.019  1.00  0.00     0.020 C 
ENDBRANCH   9  11
ENDBRANCH   8   9
ENDBRANCH   5   8
ENDBRANCH   3   4
ENDBRANCH   2   3
ENDBRANCH   1   2
BRANCH   1  19
ATOM     19  C   UNL A   1      33.392  29.110  25.318  1.00  0.00     0.116 C 
BRANCH  19  20
ATOM     20  N   UNL A   1      32.687  30.273  25.849  1.00  0.00    -0.352 N 
ATOM     21  C   UNL A   1      33.075  31.106  26.872  1.00  0.00     0.251 C 
ATOM     22  H   UNL A   1      31.827  30.489  25.422  1.00  0.00     0.163 HD
ATOM     23  O   UNL A   1      32.323  31.963  27.311  1.00  0.00    -0.269 OA
BRANCH  21  24
ATOM     24  C   UNL A   1      34.422  30.912  27.441  1.00  0.00     0.039 A 
ATOM     25  C   UNL A   1      35.261  32.015  27.613  1.00  0.00     0.014 A 
ATOM     26  C   UNL A   1      34.793  29.646  27.896  1.00  0.00     0.014 A 
ATOM     27  C   UNL A   1      36.458  31.858  28.313  1.00  0.00     0.010 A 
ATOM     28  C   UNL A   1      35.936  29.514  28.666  1.00  0.00     0.010 A 
ATOM     29  C   UNL A   1      36.785  30.614  28.872  1.00  0.00    -0.014 A 
BRANCH  29  30
ATOM     30  C   UNL A   1      38.025  30.390  29.652  1.00  0.00     0.031 A 
ATOM     31  C   UNL A   1      39.072  29.471  29.086  1.00  0.00     0.074 A 
ATOM     32  C   UNL A   1      38.137  30.875  30.903  1.00  0.00     0.049 A 
ATOM     33  N   UNL A   1      40.112  28.942  29.671  1.00  0.00    -0.248 NA
ATOM     34  C   UNL A   1      38.890  29.046  27.685  1.00  0.00     0.031 C 
ATOM     35  C   UNL A   1      37.152  31.720  31.581  1.00  0.00     0.029 A 
ATOM     36  N   UNL A   1      39.117  30.686  31.847  1.00  0.00    -0.354 N 
ATOM     37  C   UNL A   1      40.662  28.071  28.739  1.00  0.00     0.074 A 
ATOM     38  C   UNL A   1      39.827  28.120  27.560  1.00  0.00     0.031 C 
ATOM     39  C   UNL A   1      37.573  31.970  32.833  1.00  0.00     0.029 A 
ATOM     40  C   UNL A   1      38.837  31.276  33.058  1.00  0.00     0.049 A 
ATOM     41  H   UNL A   1      39.942  30.177  31.673  1.00  0.00     0.167 HD
ATOM     42  C   UNL A   1      41.781  27.317  28.847  1.00  0.00     0.034 A 
ATOM     43  C   UNL A   1      39.518  31.245  34.221  1.00  0.00     0.034 A 
ATOM     44  C   UNL A   1      42.650  27.349  29.987  1.00  0.00     0.049 A 
ATOM     45  C   UNL A   1      40.810  30.472  34.282  1.00  0.00     0.074 A 
ATOM     46  C   UNL A   1      43.863  26.708  30.163  1.00  0.00     0.029 A 
ATOM     47  N   UNL A   1      42.407  28.077  31.142  1.00  0.00    -0.354 N 
ATOM     48  N   UNL A   1      41.387  29.757  33.346  1.00  0.00    -0.248 NA
ATOM     49  C   UNL A   1      41.565  30.529  35.543  1.00  0.00     0.031 C 
ATOM     50  C   UNL A   1      44.355  27.052  31.426  1.00  0.00     0.029 A 
ATOM     51  C   UNL A   1      43.453  27.914  32.030  1.00  0.00     0.049 A 
ATOM     52  H   UNL A   1      41.607  28.629  31.304  1.00  0.00     0.167 HD
ATOM     53  C   UNL A   1      42.589  29.317  33.887  1.00  0.00     0.074 A 
ATOM     54  C   UNL A   1      42.663  29.852  35.231  1.00  0.00     0.031 C 
ATOM     55  C   UNL A   1      43.540  28.530  33.329  1.00  0.00     0.034 A 
BRANCH  42  56
ATOM     56  C   UNL A   1      42.160  26.455  27.673  1.00  0.00     0.023 A 
ATOM     57  C   UNL A   1      42.936  27.003  26.632  1.00  0.00     0.012 A 
ATOM     58  C   UNL A   1      41.786  25.098  27.617  1.00  0.00     0.148 A 
ATOM     59  C   UNL A   1      43.302  26.226  25.535  1.00  0.00     0.002 A 
ATOM     60  C   UNL A   1      42.195  24.318  26.542  1.00  0.00     0.091 A 
ATOM     61  F   UNL A   1      41.025  24.601  28.603  1.00  0.00    -0.205 F 
ATOM     62  C   UNL A   1      42.941  24.882  25.495  1.00  0.00     0.022 A 
BRANCH  60  63
ATOM     63  S   UNL A   1      41.847  22.558  26.439  1.00  0.00     0.127 S 
ATOM     64  O   UNL A   1      40.386  22.549  26.373  1.00  0.00    -0.237 OA
ATOM     65  O   UNL A   1      42.516  22.182  25.193  1.00  0.00    -0.237 OA
ATOM     66  O   UNL A   1      42.425  21.967  27.638  1.00  0.00    -0.744 OA
ENDBRANCH  60  63
ENDBRANCH  42  56
BRANCH  43  67
ATOM     67  C   UNL A   1      39.037  32.033  35.391  1.00  0.00     0.023 A 
ATOM     68  C   UNL A   1      39.189  33.434  35.378  1.00  0.00     0.012 A 
ATOM     69  C   UNL A   1      38.404  31.423  36.491  1.00  0.00     0.148 A 
ATOM     70  C   UNL A   1      38.748  34.209  36.450  1.00  0.00     0.002 A 
ATOM     71  C   UNL A   1      37.922  32.207  37.535  1.00  0.00     0.091 A 
ATOM     72  F   UNL A   1      38.277  30.089  36.492  1.00  0.00    -0.205 F 
ATOM     73  C   UNL A   1      38.107  33.597  37.524  1.00  0.00     0.022 A 
BRANCH  71  74
ATOM     74  S   UNL A   1      36.973  31.518  38.897  1.00  0.00     0.127 S 
ATOM     75  O   UNL A   1      36.792  30.135  38.466  1.00  0.00    -0.237 OA
ATOM     76  O   UNL A   1      37.887  31.697  40.026  1.00  0.00    -0.237 OA
ATOM     77  O   UNL A   1      35.762  32.324  38.974  1.00  0.00    -0.744 OA
ENDBRANCH  71  74
ENDBRANCH  43  67
BRANCH  55  78
ATOM     78  C   UNL A   1      44.780  28.241  34.128  1.00  0.00     0.023 A 
ATOM     79  C   UNL A   1      45.871  29.129  34.072  1.00  0.00     0.012 A 
ATOM     80  C   UNL A   1      44.802  27.165  35.038  1.00  0.00     0.148 A 
ATOM     81  C   UNL A   1      46.973  28.944  34.904  1.00  0.00     0.002 A 
ATOM     82  C   UNL A   1      45.884  27.014  35.895  1.00  0.00     0.091 A 
ATOM     83  F   UNL A   1      43.756  26.326  35.059  1.00  0.00    -0.205 F 
ATOM     84  C   UNL A   1      46.973  27.897  35.825  1.00  0.00     0.022 A 
BRANCH  82  85
ATOM     85  S   UNL A   1      45.928  25.757  37.179  1.00  0.00     0.127 S 
ATOM     86  O   UNL A   1      46.217  24.551  36.405  1.00  0.00    -0.237 OA
ATOM     87  O   UNL A   1      47.029  26.218  38.025  1.00  0.00    -0.237 OA
ATOM     88  O   UNL A   1      44.619  25.788  37.818  1.00  0.00    -0.744 OA
ENDBRANCH  82  85
ENDBRANCH  55  78
ENDBRANCH  29  30
ENDBRANCH  21  24
ENDBRANCH  19  20
ENDBRANCH   1  19
TORSDOF 16
ENDMDL
