MODEL 1
REMARK VINA RESULT:     -12.8      0.000      0.000
REMARK SMILES O=C(NCCCCNC(=O)c1cc(Cl)ccc1NC(=O)c1ccc2c(c1)C(=O)N(Cc1ccco1)C2=O)c1ccc(-c2c3nc(c(-c4cccc(S(=O)(=O)[O-])c4F)c4ccc([nH]4)c(-c4cccc(S(=O)(=O)[O-])c4F)c4nc(c(-c5cccc(S(=O)(=O)[O-])c5F)c5ccc2[nH]5)C=C4)C=C3)cc1
REMARK SMILES IDX 6 1 5 2 4 3 3 4 1 5 2 6 38 8 39 9 100 10 40 11 99 12 41 13
REMARK SMILES IDX 42 14 43 15 93 16 44 17 98 18 92 19 94 20 45 21 97 22 91 23
REMARK SMILES IDX 90 24 46 26 78 27 58 28 77 29 59 30 62 31 76 32 95 33 60 34
REMARK SMILES IDX 61 35 75 37 96 38 63 39 47 40 48 41 56 42 49 43 51 44 57 45
REMARK SMILES IDX 50 46 52 47 53 48 54 49 55 50 79 51 80 52 88 53 81 54 83 55
REMARK SMILES IDX 89 56 82 57 84 58 85 59 86 60 87 61 64 62 65 63 73 64 66 65
REMARK SMILES IDX 68 66 74 67 67 68 69 69 70 70 71 71 72 72 7 73 8 74 9 75
REMARK SMILES IDX 10 77 11 78 12 79 17 80 13 81 16 82 14 83 15 84 18 85 19 86
REMARK SMILES IDX 20 88 21 89 22 90 26 91 23 92 25 93 24 94 27 95 36 96 28 97
REMARK SMILES IDX 29 98 37 99 30 100 31 101 32 102 35 103 33 104 34 105
REMARK H PARENT 3 7 94 25 62 36 8 76 18 87
REMARK Flexibility Score: inf
ROOT
ATOM      1  C   UNL A   1      36.659  20.300  25.008  1.00  0.00     0.023 C 
ENDROOT
BRANCH   1   2
ATOM      2  C   UNL A   1      38.072  19.742  24.896  1.00  0.00     0.023 C 
BRANCH   2   3
ATOM      3  C   UNL A   1      39.066  20.316  25.893  1.00  0.00     0.116 C 
BRANCH   3   4
ATOM      4  N   UNL A   1      40.274  19.515  26.025  1.00  0.00    -0.352 N 
ATOM      5  O   UNL A   1      42.485  19.129  26.264  1.00  0.00    -0.269 OA
ATOM      6  C   UNL A   1      41.551  19.922  26.340  1.00  0.00     0.251 C 
ATOM      7  H   UNL A   1      40.163  18.550  25.867  1.00  0.00     0.163 HD
BRANCH   6   8
ATOM      8  C   UNL A   1      41.784  21.329  26.733  1.00  0.00     0.039 A 
ATOM      9  C   UNL A   1      41.865  22.323  25.756  1.00  0.00     0.014 A 
ATOM     10  C   UNL A   1      41.970  21.649  28.079  1.00  0.00     0.014 A 
ATOM     11  C   UNL A   1      42.318  23.587  26.100  1.00  0.00     0.010 A 
ATOM     12  C   UNL A   1      42.311  22.958  28.436  1.00  0.00     0.010 A 
ATOM     13  C   UNL A   1      42.526  23.929  27.446  1.00  0.00    -0.014 A 
BRANCH  13  14
ATOM     14  C   UNL A   1      42.884  25.332  27.784  1.00  0.00     0.031 A 
ATOM     15  C   UNL A   1      44.289  25.847  27.645  1.00  0.00     0.074 A 
ATOM     16  C   UNL A   1      41.903  26.150  28.215  1.00  0.00     0.049 A 
ATOM     17  N   UNL A   1      44.746  27.050  27.884  1.00  0.00    -0.248 NA
ATOM     18  C   UNL A   1      45.317  24.897  27.191  1.00  0.00     0.031 C 
ATOM     19  C   UNL A   1      40.508  25.752  28.428  1.00  0.00     0.029 A 
ATOM     20  N   UNL A   1      41.922  27.478  28.555  1.00  0.00    -0.354 N 
ATOM     21  C   UNL A   1      46.116  26.995  27.654  1.00  0.00     0.074 A 
ATOM     22  C   UNL A   1      46.418  25.636  27.257  1.00  0.00     0.031 C 
ATOM     23  C   UNL A   1      39.802  26.814  28.834  1.00  0.00     0.029 A 
ATOM     24  C   UNL A   1      40.702  27.949  28.983  1.00  0.00     0.049 A 
ATOM     25  H   UNL A   1      42.729  28.039  28.499  1.00  0.00     0.167 HD
ATOM     26  C   UNL A   1      47.033  27.988  27.756  1.00  0.00     0.034 A 
ATOM     27  C   UNL A   1      40.347  29.149  29.475  1.00  0.00     0.034 A 
ATOM     28  C   UNL A   1      46.719  29.342  28.132  1.00  0.00     0.049 A 
ATOM     29  C   UNL A   1      41.384  30.228  29.571  1.00  0.00     0.074 A 
ATOM     30  C   UNL A   1      47.569  30.434  28.197  1.00  0.00     0.029 A 
ATOM     31  N   UNL A   1      45.467  29.790  28.526  1.00  0.00    -0.354 N 
ATOM     32  N   UNL A   1      42.648  30.188  29.230  1.00  0.00    -0.248 NA
ATOM     33  C   UNL A   1      40.941  31.527  30.093  1.00  0.00     0.031 C 
ATOM     34  C   UNL A   1      46.841  31.528  28.674  1.00  0.00     0.029 A 
ATOM     35  C   UNL A   1      45.526  31.134  28.856  1.00  0.00     0.049 A 
ATOM     36  H   UNL A   1      44.656  29.233  28.566  1.00  0.00     0.167 HD
ATOM     37  C   UNL A   1      43.147  31.461  29.468  1.00  0.00     0.074 A 
ATOM     38  C   UNL A   1      42.038  32.258  29.957  1.00  0.00     0.031 C 
ATOM     39  C   UNL A   1      44.409  31.926  29.306  1.00  0.00     0.034 A 
BRANCH  26  40
ATOM     40  C   UNL A   1      48.473  27.659  27.447  1.00  0.00     0.023 A 
ATOM     41  C   UNL A   1      49.308  27.132  28.453  1.00  0.00     0.012 A 
ATOM     42  C   UNL A   1      48.975  27.796  26.136  1.00  0.00     0.148 A 
ATOM     43  C   UNL A   1      50.626  26.776  28.168  1.00  0.00     0.002 A 
ATOM     44  C   UNL A   1      50.275  27.395  25.850  1.00  0.00     0.091 A 
ATOM     45  F   UNL A   1      48.173  28.313  25.195  1.00  0.00    -0.205 F 
ATOM     46  C   UNL A   1      51.105  26.897  26.867  1.00  0.00     0.022 A 
BRANCH  44  47
ATOM     47  S   UNL A   1      50.959  27.432  24.189  1.00  0.00     0.127 S 
ATOM     48  O   UNL A   1      49.928  26.726  23.430  1.00  0.00    -0.237 OA
ATOM     49  O   UNL A   1      51.035  28.869  23.921  1.00  0.00    -0.237 OA
ATOM     50  O   UNL A   1      52.248  26.758  24.267  1.00  0.00    -0.744 OA
ENDBRANCH  44  47
ENDBRANCH  26  40
BRANCH  27  51
ATOM     51  C   UNL A   1      38.940  29.385  29.900  1.00  0.00     0.023 A 
ATOM     52  C   UNL A   1      38.539  29.052  31.208  1.00  0.00     0.012 A 
ATOM     53  C   UNL A   1      38.010  29.975  29.023  1.00  0.00     0.148 A 
ATOM     54  C   UNL A   1      37.227  29.275  31.623  1.00  0.00     0.002 A 
ATOM     55  C   UNL A   1      36.723  30.252  29.463  1.00  0.00     0.091 A 
ATOM     56  F   UNL A   1      38.413  30.278  27.780  1.00  0.00    -0.205 F 
ATOM     57  C   UNL A   1      36.323  29.884  30.756  1.00  0.00     0.022 A 
BRANCH  55  58
ATOM     58  S   UNL A   1      35.540  31.162  28.464  1.00  0.00     0.127 S 
ATOM     59  O   UNL A   1      35.016  30.112  27.593  1.00  0.00    -0.237 OA
ATOM     60  O   UNL A   1      34.604  31.647  29.478  1.00  0.00    -0.237 OA
ATOM     61  O   UNL A   1      36.305  32.208  27.801  1.00  0.00    -0.744 OA
ENDBRANCH  55  58
ENDBRANCH  27  51
BRANCH  39  62
ATOM     62  C   UNL A   1      44.657  33.379  29.618  1.00  0.00     0.023 A 
ATOM     63  C   UNL A   1      45.025  33.772  30.921  1.00  0.00     0.012 A 
ATOM     64  C   UNL A   1      44.578  34.351  28.600  1.00  0.00     0.148 A 
ATOM     65  C   UNL A   1      45.268  35.114  31.213  1.00  0.00     0.002 A 
ATOM     66  C   UNL A   1      44.877  35.676  28.886  1.00  0.00     0.091 A 
ATOM     67  F   UNL A   1      44.208  33.960  27.372  1.00  0.00    -0.205 F 
ATOM     68  C   UNL A   1      45.207  36.063  30.195  1.00  0.00     0.022 A 
BRANCH  66  69
ATOM     69  S   UNL A   1      44.919  36.949  27.620  1.00  0.00     0.127 S 
ATOM     70  O   UNL A   1      45.142  38.153  28.418  1.00  0.00    -0.237 OA
ATOM     71  O   UNL A   1      46.062  36.535  26.806  1.00  0.00    -0.237 OA
ATOM     72  O   UNL A   1      43.635  36.883  26.938  1.00  0.00    -0.744 OA
ENDBRANCH  66  69
ENDBRANCH  39  62
ENDBRANCH  13  14
ENDBRANCH   6   8
ENDBRANCH   3   4
ENDBRANCH   2   3
ENDBRANCH   1   2
BRANCH   1  73
ATOM     73  C   UNL A   1      36.581  21.756  25.458  1.00  0.00     0.116 C 
BRANCH  73  74
ATOM     74  N   UNL A   1      35.716  21.950  26.616  1.00  0.00    -0.352 N 
ATOM     75  C   UNL A   1      34.386  22.302  26.643  1.00  0.00     0.253 C 
ATOM     76  H   UNL A   1      36.140  21.811  27.493  1.00  0.00     0.163 HD
ATOM     77  O   UNL A   1      33.821  22.597  27.688  1.00  0.00    -0.269 OA
BRANCH  75  78
ATOM     78  C   UNL A   1      33.662  22.399  25.360  1.00  0.00     0.064 A 
ATOM     79  C   UNL A   1      33.139  21.220  24.806  1.00  0.00     0.036 A 
ATOM     80  C   UNL A   1      33.609  23.622  24.670  1.00  0.00     0.054 A 
ATOM     81  C   UNL A   1      32.712  21.220  23.487  1.00  0.00     0.041 A 
ATOM     82  C   UNL A   1      33.303  23.555  23.309  1.00  0.00     0.028 A 
ATOM     83  Cl  UNL A   1      32.124  19.773  22.774  1.00  0.00    -0.084 Cl
ATOM     84  C   UNL A   1      32.838  22.372  22.722  1.00  0.00     0.023 A 
BRANCH  80  85
ATOM     85  N   UNL A   1      33.856  24.833  25.370  1.00  0.00    -0.321 N 
ATOM     86  C   UNL A   1      33.187  26.039  25.420  1.00  0.00     0.255 C 
ATOM     87  H   UNL A   1      34.664  24.806  25.930  1.00  0.00     0.170 HD
ATOM     88  O   UNL A   1      33.648  27.001  26.031  1.00  0.00    -0.269 OA
BRANCH  86  89
ATOM     89  C   UNL A   1      31.888  26.218  24.747  1.00  0.00     0.041 A 
ATOM     90  C   UNL A   1      30.763  25.592  25.335  1.00  0.00     0.015 A 
ATOM     91  C   UNL A   1      31.758  27.096  23.658  1.00  0.00     0.028 A 
ATOM     92  C   UNL A   1      29.474  25.945  24.938  1.00  0.00     0.015 A 
ATOM     93  C   UNL A   1      30.470  27.448  23.312  1.00  0.00     0.054 A 
ATOM     94  C   UNL A   1      29.366  26.911  23.955  1.00  0.00     0.053 A 
ATOM     95  C   UNL A   1      29.988  28.513  22.432  1.00  0.00     0.261 C 
ATOM     96  C   UNL A   1      28.192  27.652  23.508  1.00  0.00     0.261 C 
ATOM     97  O   UNL A   1      30.720  29.244  21.791  1.00  0.00    -0.269 OA
ATOM     98  N   UNL A   1      28.631  28.550  22.574  1.00  0.00    -0.267 N 
ATOM     99  O   UNL A   1      27.082  27.500  23.977  1.00  0.00    -0.269 OA
BRANCH  98 100
ATOM    100  C   UNL A   1      27.768  29.506  21.916  1.00  0.00     0.204 C 
BRANCH 100 101
ATOM    101  C   UNL A   1      28.153  30.877  22.344  1.00  0.00     0.123 A 
ATOM    102  C   UNL A   1      28.531  31.414  23.559  1.00  0.00     0.047 A 
ATOM    103  O   UNL A   1      28.126  31.853  21.394  1.00  0.00    -0.467 OA
ATOM    104  C   UNL A   1      28.718  32.798  23.343  1.00  0.00     0.042 A 
ATOM    105  C   UNL A   1      28.468  33.013  22.009  1.00  0.00     0.195 A 
ENDBRANCH 100 101
ENDBRANCH  98 100
ENDBRANCH  86  89
ENDBRANCH  80  85
ENDBRANCH  75  78
ENDBRANCH  73  74
ENDBRANCH   1  73
TORSDOF 18
ENDMDL
MODEL 2
REMARK VINA RESULT:     -12.8      1.475      7.230
REMARK SMILES O=C(NCCCCNC(=O)c1cc(Cl)ccc1NC(=O)c1ccc2c(c1)C(=O)N(Cc1ccco1)C2=O)c1ccc(-c2c3nc(c(-c4cccc(S(=O)(=O)[O-])c4F)c4ccc([nH]4)c(-c4cccc(S(=O)(=O)[O-])c4F)c4nc(c(-c5cccc(S(=O)(=O)[O-])c5F)c5ccc2[nH]5)C=C4)C=C3)cc1
REMARK SMILES IDX 6 1 5 2 4 3 3 4 1 5 2 6 38 8 39 9 100 10 40 11 99 12 41 13
REMARK SMILES IDX 42 14 43 15 93 16 44 17 98 18 92 19 94 20 45 21 97 22 91 23
REMARK SMILES IDX 90 24 46 26 78 27 58 28 77 29 59 30 62 31 76 32 95 33 60 34
REMARK SMILES IDX 61 35 75 37 96 38 63 39 47 40 48 41 56 42 49 43 51 44 57 45
REMARK SMILES IDX 50 46 52 47 53 48 54 49 55 50 79 51 80 52 88 53 81 54 83 55
REMARK SMILES IDX 89 56 82 57 84 58 85 59 86 60 87 61 64 62 65 63 73 64 66 65
REMARK SMILES IDX 68 66 74 67 67 68 69 69 70 70 71 71 72 72 7 73 8 74 9 75
REMARK SMILES IDX 10 77 11 78 12 79 17 80 13 81 16 82 14 83 15 84 18 85 19 86
REMARK SMILES IDX 20 88 21 89 22 90 26 91 23 92 25 93 24 94 27 95 36 96 28 97
REMARK SMILES IDX 29 98 37 99 30 100 31 101 32 102 35 103 33 104 34 105
REMARK H PARENT 3 7 94 25 62 36 8 76 18 87
REMARK Flexibility Score: inf
ROOT
ATOM      1  C   UNL A   1      36.538  20.333  25.007  1.00  0.00     0.023 C 
ENDROOT
BRANCH   1   2
ATOM      2  C   UNL A   1      37.931  19.770  24.758  1.00  0.00     0.023 C 
BRANCH   2   3
ATOM      3  C   UNL A   1      38.991  20.229  25.747  1.00  0.00     0.116 C 
BRANCH   3   4
ATOM      4  N   UNL A   1      40.034  19.238  25.971  1.00  0.00    -0.352 N 
ATOM      5  O   UNL A   1      42.140  18.479  26.255  1.00  0.00    -0.269 OA
ATOM      6  C   UNL A   1      41.370  19.435  26.238  1.00  0.00     0.251 C 
ATOM      7  H   UNL A   1      39.744  18.298  25.925  1.00  0.00     0.163 HD
BRANCH   6   8
ATOM      8  C   UNL A   1      41.866  20.810  26.467  1.00  0.00     0.039 A 
ATOM      9  C   UNL A   1      42.241  21.213  27.749  1.00  0.00     0.014 A 
ATOM     10  C   UNL A   1      41.909  21.715  25.404  1.00  0.00     0.014 A 
ATOM     11  C   UNL A   1      42.473  22.555  28.006  1.00  0.00     0.010 A 
ATOM     12  C   UNL A   1      42.260  23.047  25.647  1.00  0.00     0.010 A 
ATOM     13  C   UNL A   1      42.507  23.488  26.956  1.00  0.00    -0.014 A 
BRANCH  13  14
ATOM     14  C   UNL A   1      42.889  24.892  27.255  1.00  0.00     0.031 A 
ATOM     15  C   UNL A   1      41.936  25.850  27.915  1.00  0.00     0.074 A 
ATOM     16  C   UNL A   1      44.133  25.296  26.925  1.00  0.00     0.049 A 
ATOM     17  N   UNL A   1      42.135  27.098  28.255  1.00  0.00    -0.248 NA
ATOM     18  C   UNL A   1      40.587  25.354  28.229  1.00  0.00     0.031 C 
ATOM     19  C   UNL A   1      45.132  24.467  26.243  1.00  0.00     0.029 A 
ATOM     20  N   UNL A   1      44.770  26.495  27.110  1.00  0.00    -0.354 N 
ATOM     21  C   UNL A   1      40.931  27.552  28.780  1.00  0.00     0.074 A 
ATOM     22  C   UNL A   1      40.003  26.443  28.713  1.00  0.00     0.031 C 
ATOM     23  C   UNL A   1      46.261  25.171  26.092  1.00  0.00     0.029 A 
ATOM     24  C   UNL A   1      46.046  26.520  26.597  1.00  0.00     0.049 A 
ATOM     25  H   UNL A   1      44.355  27.263  27.565  1.00  0.00     0.167 HD
ATOM     26  C   UNL A   1      40.632  28.776  29.278  1.00  0.00     0.034 A 
ATOM     27  C   UNL A   1      46.938  27.523  26.507  1.00  0.00     0.034 A 
ATOM     28  C   UNL A   1      41.569  29.867  29.359  1.00  0.00     0.049 A 
ATOM     29  C   UNL A   1      46.577  28.865  27.072  1.00  0.00     0.074 A 
ATOM     30  C   UNL A   1      41.379  31.123  29.910  1.00  0.00     0.029 A 
ATOM     31  N   UNL A   1      42.863  29.845  28.860  1.00  0.00    -0.354 N 
ATOM     32  N   UNL A   1      45.476  29.235  27.676  1.00  0.00    -0.248 NA
ATOM     33  C   UNL A   1      47.594  29.919  26.970  1.00  0.00     0.031 C 
ATOM     34  C   UNL A   1      42.540  31.873  29.703  1.00  0.00     0.029 A 
ATOM     35  C   UNL A   1      43.474  31.070  29.070  1.00  0.00     0.049 A 
ATOM     36  H   UNL A   1      43.285  29.071  28.419  1.00  0.00     0.167 HD
ATOM     37  C   UNL A   1      45.675  30.557  28.052  1.00  0.00     0.074 A 
ATOM     38  C   UNL A   1      47.015  30.912  27.631  1.00  0.00     0.031 C 
ATOM     39  C   UNL A   1      44.821  31.402  28.680  1.00  0.00     0.034 A 
BRANCH  26  40
ATOM     40  C   UNL A   1      39.233  29.012  29.792  1.00  0.00     0.023 A 
ATOM     41  C   UNL A   1      38.886  28.618  31.100  1.00  0.00     0.012 A 
ATOM     42  C   UNL A   1      38.286  29.699  29.005  1.00  0.00     0.148 A 
ATOM     43  C   UNL A   1      37.612  28.876  31.605  1.00  0.00     0.002 A 
ATOM     44  C   UNL A   1      37.034  29.994  29.533  1.00  0.00     0.091 A 
ATOM     45  F   UNL A   1      38.628  30.053  27.758  1.00  0.00    -0.205 F 
ATOM     46  C   UNL A   1      36.691  29.572  30.827  1.00  0.00     0.022 A 
BRANCH  44  47
ATOM     47  S   UNL A   1      35.807  30.959  28.642  1.00  0.00     0.127 S 
ATOM     48  O   UNL A   1      36.625  32.040  28.093  1.00  0.00    -0.237 OA
ATOM     49  O   UNL A   1      35.324  29.999  27.650  1.00  0.00    -0.237 OA
ATOM     50  O   UNL A   1      34.818  31.366  29.629  1.00  0.00    -0.744 OA
ENDBRANCH  44  47
ENDBRANCH  26  40
BRANCH  27  51
ATOM     51  C   UNL A   1      48.258  27.281  25.864  1.00  0.00     0.023 A 
ATOM     52  C   UNL A   1      49.337  26.809  26.635  1.00  0.00     0.012 A 
ATOM     53  C   UNL A   1      48.433  27.479  24.481  1.00  0.00     0.148 A 
ATOM     54  C   UNL A   1      50.577  26.569  26.044  1.00  0.00     0.002 A 
ATOM     55  C   UNL A   1      49.652  27.179  23.888  1.00  0.00     0.091 A 
ATOM     56  F   UNL A   1      47.394  27.936  23.768  1.00  0.00    -0.205 F 
ATOM     57  C   UNL A   1      50.732  26.743  24.671  1.00  0.00     0.022 A 
BRANCH  55  58
ATOM     58  S   UNL A   1      49.897  27.236  22.110  1.00  0.00     0.127 S 
ATOM     59  O   UNL A   1      48.904  26.272  21.642  1.00  0.00    -0.237 OA
ATOM     60  O   UNL A   1      49.590  28.634  21.810  1.00  0.00    -0.237 OA
ATOM     61  O   UNL A   1      51.289  26.865  21.891  1.00  0.00    -0.744 OA
ENDBRANCH  55  58
ENDBRANCH  27  51
BRANCH  39  62
ATOM     62  C   UNL A   1      45.324  32.787  28.994  1.00  0.00     0.023 A 
ATOM     63  C   UNL A   1      45.113  33.841  28.082  1.00  0.00     0.012 A 
ATOM     64  C   UNL A   1      45.960  33.053  30.222  1.00  0.00     0.148 A 
ATOM     65  C   UNL A   1      45.564  35.128  28.371  1.00  0.00     0.002 A 
ATOM     66  C   UNL A   1      46.356  34.348  30.528  1.00  0.00     0.091 A 
ATOM     67  F   UNL A   1      46.169  32.034  31.068  1.00  0.00    -0.205 F 
ATOM     68  C   UNL A   1      46.174  35.385  29.597  1.00  0.00     0.022 A 
BRANCH  66  69
ATOM     69  S   UNL A   1      47.059  34.791  32.120  1.00  0.00     0.127 S 
ATOM     70  O   UNL A   1      47.618  36.113  31.840  1.00  0.00    -0.237 OA
ATOM     71  O   UNL A   1      45.880  34.798  32.986  1.00  0.00    -0.237 OA
ATOM     72  O   UNL A   1      48.034  33.756  32.432  1.00  0.00    -0.744 OA
ENDBRANCH  66  69
ENDBRANCH  39  62
ENDBRANCH  13  14
ENDBRANCH   6   8
ENDBRANCH   3   4
ENDBRANCH   2   3
ENDBRANCH   1   2
BRANCH   1  73
ATOM     73  C   UNL A   1      36.512  21.754  25.561  1.00  0.00     0.116 C 
BRANCH  73  74
ATOM     74  N   UNL A   1      35.609  21.909  26.695  1.00  0.00    -0.352 N 
ATOM     75  C   UNL A   1      34.273  22.238  26.688  1.00  0.00     0.253 C 
ATOM     76  H   UNL A   1      36.007  21.757  27.583  1.00  0.00     0.163 HD
ATOM     77  O   UNL A   1      33.671  22.501  27.722  1.00  0.00    -0.269 OA
BRANCH  75  78
ATOM     78  C   UNL A   1      33.588  22.352  25.386  1.00  0.00     0.064 A 
ATOM     79  C   UNL A   1      33.066  21.182  24.810  1.00  0.00     0.036 A 
ATOM     80  C   UNL A   1      33.570  23.579  24.702  1.00  0.00     0.054 A 
ATOM     81  C   UNL A   1      32.678  21.195  23.479  1.00  0.00     0.041 A 
ATOM     82  C   UNL A   1      33.302  23.524  23.332  1.00  0.00     0.028 A 
ATOM     83  Cl  UNL A   1      32.093  19.760  22.740  1.00  0.00    -0.084 Cl
ATOM     84  C   UNL A   1      32.839  22.350  22.724  1.00  0.00     0.023 A 
BRANCH  80  85
ATOM     85  N   UNL A   1      33.811  24.782  25.416  1.00  0.00    -0.321 N 
ATOM     86  C   UNL A   1      33.139  25.987  25.477  1.00  0.00     0.255 C 
ATOM     87  H   UNL A   1      34.617  24.752  25.979  1.00  0.00     0.170 HD
ATOM     88  O   UNL A   1      33.595  26.943  26.100  1.00  0.00    -0.269 OA
BRANCH  86  89
ATOM     89  C   UNL A   1      31.841  26.170  24.801  1.00  0.00     0.041 A 
ATOM     90  C   UNL A   1      30.713  25.551  25.389  1.00  0.00     0.015 A 
ATOM     91  C   UNL A   1      31.718  27.044  23.709  1.00  0.00     0.028 A 
ATOM     92  C   UNL A   1      29.426  25.910  24.988  1.00  0.00     0.015 A 
ATOM     93  C   UNL A   1      30.432  27.403  23.358  1.00  0.00     0.054 A 
ATOM     94  C   UNL A   1      29.325  26.873  24.002  1.00  0.00     0.053 A 
ATOM     95  C   UNL A   1      29.958  28.467  22.474  1.00  0.00     0.261 C 
ATOM     96  C   UNL A   1      28.155  27.619  23.550  1.00  0.00     0.261 C 
ATOM     97  O   UNL A   1      30.695  29.192  21.832  1.00  0.00    -0.269 OA
ATOM     98  N   UNL A   1      28.601  28.511  22.614  1.00  0.00    -0.267 N 
ATOM     99  O   UNL A   1      27.043  27.473  24.018  1.00  0.00    -0.269 OA
BRANCH  98 100
ATOM    100  C   UNL A   1      27.743  29.469  21.951  1.00  0.00     0.204 C 
BRANCH 100 101
ATOM    101  C   UNL A   1      28.135  30.839  22.375  1.00  0.00     0.123 A 
ATOM    102  C   UNL A   1      28.237  31.451  23.609  1.00  0.00     0.047 A 
ATOM    103  O   UNL A   1      28.446  31.727  21.389  1.00  0.00    -0.467 OA
ATOM    104  C   UNL A   1      28.604  32.793  23.360  1.00  0.00     0.042 A 
ATOM    105  C   UNL A   1      28.727  32.908  21.996  1.00  0.00     0.195 A 
ENDBRANCH 100 101
ENDBRANCH  98 100
ENDBRANCH  86  89
ENDBRANCH  80  85
ENDBRANCH  75  78
ENDBRANCH  73  74
ENDBRANCH   1  73
TORSDOF 18
ENDMDL
MODEL 3
REMARK VINA RESULT:     -12.6      2.613      5.294
REMARK SMILES O=C(NCCCCNC(=O)c1cc(Cl)ccc1NC(=O)c1ccc2c(c1)C(=O)N(Cc1ccco1)C2=O)c1ccc(-c2c3nc(c(-c4cccc(S(=O)(=O)[O-])c4F)c4ccc([nH]4)c(-c4cccc(S(=O)(=O)[O-])c4F)c4nc(c(-c5cccc(S(=O)(=O)[O-])c5F)c5ccc2[nH]5)C=C4)C=C3)cc1
REMARK SMILES IDX 6 1 5 2 4 3 3 4 1 5 2 6 38 8 39 9 100 10 40 11 99 12 41 13
REMARK SMILES IDX 42 14 43 15 93 16 44 17 98 18 92 19 94 20 45 21 97 22 91 23
REMARK SMILES IDX 90 24 46 26 78 27 58 28 77 29 59 30 62 31 76 32 95 33 60 34
REMARK SMILES IDX 61 35 75 37 96 38 63 39 47 40 48 41 56 42 49 43 51 44 57 45
REMARK SMILES IDX 50 46 52 47 53 48 54 49 55 50 79 51 80 52 88 53 81 54 83 55
REMARK SMILES IDX 89 56 82 57 84 58 85 59 86 60 87 61 64 62 65 63 73 64 66 65
REMARK SMILES IDX 68 66 74 67 67 68 69 69 70 70 71 71 72 72 7 73 8 74 9 75
REMARK SMILES IDX 10 77 11 78 12 79 17 80 13 81 16 82 14 83 15 84 18 85 19 86
REMARK SMILES IDX 20 88 21 89 22 90 26 91 23 92 25 93 24 94 27 95 36 96 28 97
REMARK SMILES IDX 29 98 37 99 30 100 31 101 32 102 35 103 33 104 34 105
REMARK H PARENT 3 7 94 25 62 36 8 76 18 87
REMARK Flexibility Score: inf
ROOT
ATOM      1  C   UNL A   1      35.011  23.423  23.655  1.00  0.00     0.023 C 
ENDROOT
BRANCH   1   2
ATOM      2  C   UNL A   1      36.436  23.020  24.010  1.00  0.00     0.023 C 
BRANCH   2   3
ATOM      3  C   UNL A   1      36.641  22.616  25.462  1.00  0.00     0.116 C 
BRANCH   3   4
ATOM      4  N   UNL A   1      37.579  21.515  25.624  1.00  0.00    -0.352 N 
ATOM      5  O   UNL A   1      39.579  20.538  26.002  1.00  0.00    -0.269 OA
ATOM      6  C   UNL A   1      38.883  21.547  26.066  1.00  0.00     0.251 C 
ATOM      7  H   UNL A   1      37.234  20.625  25.384  1.00  0.00     0.163 HD
BRANCH   6   8
ATOM      8  C   UNL A   1      39.439  22.817  26.583  1.00  0.00     0.039 A 
ATOM      9  C   UNL A   1      39.045  24.032  26.018  1.00  0.00     0.014 A 
ATOM     10  C   UNL A   1      40.392  22.791  27.602  1.00  0.00     0.014 A 
ATOM     11  C   UNL A   1      39.738  25.191  26.335  1.00  0.00     0.010 A 
ATOM     12  C   UNL A   1      41.005  23.982  28.004  1.00  0.00     0.010 A 
ATOM     13  C   UNL A   1      40.712  25.187  27.347  1.00  0.00    -0.014 A 
BRANCH  13  14
ATOM     14  C   UNL A   1      41.337  26.475  27.747  1.00  0.00     0.031 A 
ATOM     15  C   UNL A   1      42.757  26.812  27.388  1.00  0.00     0.074 A 
ATOM     16  C   UNL A   1      40.588  27.354  28.443  1.00  0.00     0.049 A 
ATOM     17  N   UNL A   1      43.430  27.903  27.652  1.00  0.00    -0.248 NA
ATOM     18  C   UNL A   1      43.527  25.800  26.648  1.00  0.00     0.031 C 
ATOM     19  C   UNL A   1      39.209  27.121  28.884  1.00  0.00     0.029 A 
ATOM     20  N   UNL A   1      40.873  28.613  28.905  1.00  0.00    -0.354 N 
ATOM     21  C   UNL A   1      44.711  27.696  27.153  1.00  0.00     0.074 A 
ATOM     22  C   UNL A   1      44.723  26.371  26.570  1.00  0.00     0.031 C 
ATOM     23  C   UNL A   1      38.761  28.206  29.526  1.00  0.00     0.029 A 
ATOM     24  C   UNL A   1      39.838  29.183  29.608  1.00  0.00     0.049 A 
ATOM     25  H   UNL A   1      41.734  29.064  28.748  1.00  0.00     0.167 HD
ATOM     26  C   UNL A   1      45.774  28.537  27.173  1.00  0.00     0.034 A 
ATOM     27  C   UNL A   1      39.767  30.347  30.279  1.00  0.00     0.034 A 
ATOM     28  C   UNL A   1      45.747  29.862  27.737  1.00  0.00     0.049 A 
ATOM     29  C   UNL A   1      40.959  31.257  30.278  1.00  0.00     0.074 A 
ATOM     30  C   UNL A   1      46.753  30.813  27.744  1.00  0.00     0.029 A 
ATOM     31  N   UNL A   1      44.670  30.418  28.413  1.00  0.00    -0.354 N 
ATOM     32  N   UNL A   1      42.120  31.093  29.693  1.00  0.00    -0.248 NA
ATOM     33  C   UNL A   1      40.823  32.526  31.004  1.00  0.00     0.031 C 
ATOM     34  C   UNL A   1      46.300  31.924  28.463  1.00  0.00     0.029 A 
ATOM     35  C   UNL A   1      44.994  31.689  28.859  1.00  0.00     0.049 A 
ATOM     36  H   UNL A   1      43.803  29.973  28.555  1.00  0.00     0.167 HD
ATOM     37  C   UNL A   1      42.844  32.248  29.955  1.00  0.00     0.074 A 
ATOM     38  C   UNL A   1      41.978  33.116  30.730  1.00  0.00     0.031 C 
ATOM     39  C   UNL A   1      44.113  32.558  29.596  1.00  0.00     0.034 A 
BRANCH  26  40
ATOM     40  C   UNL A   1      47.067  28.063  26.556  1.00  0.00     0.023 A 
ATOM     41  C   UNL A   1      48.079  27.518  27.371  1.00  0.00     0.012 A 
ATOM     42  C   UNL A   1      47.244  28.080  25.157  1.00  0.00     0.148 A 
ATOM     43  C   UNL A   1      49.258  27.028  26.809  1.00  0.00     0.002 A 
ATOM     44  C   UNL A   1      48.401  27.548  24.601  1.00  0.00     0.091 A 
ATOM     45  F   UNL A   1      46.277  28.615  24.398  1.00  0.00    -0.205 F 
ATOM     46  C   UNL A   1      49.414  27.033  25.425  1.00  0.00     0.022 A 
BRANCH  44  47
ATOM     47  S   UNL A   1      48.661  27.431  22.826  1.00  0.00     0.127 S 
ATOM     48  O   UNL A   1      48.578  25.987  22.611  1.00  0.00    -0.237 OA
ATOM     49  O   UNL A   1      47.527  28.192  22.300  1.00  0.00    -0.237 OA
ATOM     50  O   UNL A   1      49.966  28.025  22.569  1.00  0.00    -0.744 OA
ENDBRANCH  44  47
ENDBRANCH  26  40
BRANCH  27  51
ATOM     51  C   UNL A   1      38.513  30.711  30.994  1.00  0.00     0.023 A 
ATOM     52  C   UNL A   1      38.371  30.403  32.359  1.00  0.00     0.012 A 
ATOM     53  C   UNL A   1      37.479  31.399  30.331  1.00  0.00     0.148 A 
ATOM     54  C   UNL A   1      37.206  30.745  33.044  1.00  0.00     0.002 A 
ATOM     55  C   UNL A   1      36.348  31.792  31.034  1.00  0.00     0.091 A 
ATOM     56  F   UNL A   1      37.633  31.676  29.028  1.00  0.00    -0.205 F 
ATOM     57  C   UNL A   1      36.200  31.448  32.386  1.00  0.00     0.022 A 
BRANCH  55  58
ATOM     58  S   UNL A   1      35.072  32.823  30.304  1.00  0.00     0.127 S 
ATOM     59  O   UNL A   1      35.838  33.995  29.888  1.00  0.00    -0.237 OA
ATOM     60  O   UNL A   1      34.593  31.978  29.210  1.00  0.00    -0.237 OA
ATOM     61  O   UNL A   1      34.095  33.050  31.361  1.00  0.00    -0.744 OA
ENDBRANCH  55  58
ENDBRANCH  27  51
BRANCH  39  62
ATOM     62  C   UNL A   1      44.635  33.913  29.998  1.00  0.00     0.023 A 
ATOM     63  C   UNL A   1      45.352  34.069  31.202  1.00  0.00     0.012 A 
ATOM     64  C   UNL A   1      44.460  35.025  29.150  1.00  0.00     0.148 A 
ATOM     65  C   UNL A   1      45.848  35.317  31.574  1.00  0.00     0.002 A 
ATOM     66  C   UNL A   1      45.006  36.252  29.499  1.00  0.00     0.091 A 
ATOM     67  F   UNL A   1      43.759  34.860  28.018  1.00  0.00    -0.205 F 
ATOM     68  C   UNL A   1      45.687  36.405  30.718  1.00  0.00     0.022 A 
BRANCH  66  69
ATOM     69  S   UNL A   1      44.933  37.683  28.416  1.00  0.00     0.127 S 
ATOM     70  O   UNL A   1      45.578  37.173  27.207  1.00  0.00    -0.237 OA
ATOM     71  O   UNL A   1      43.492  37.903  28.294  1.00  0.00    -0.237 OA
ATOM     72  O   UNL A   1      45.652  38.746  29.104  1.00  0.00    -0.744 OA
ENDBRANCH  66  69
ENDBRANCH  39  62
ENDBRANCH  13  14
ENDBRANCH   6   8
ENDBRANCH   3   4
ENDBRANCH   2   3
ENDBRANCH   1   2
BRANCH   1  73
ATOM     73  C   UNL A   1      34.601  24.812  24.134  1.00  0.00     0.116 C 
BRANCH  73  74
ATOM     74  N   UNL A   1      33.985  25.619  23.087  1.00  0.00    -0.352 N 
ATOM     75  C   UNL A   1      33.154  26.707  23.221  1.00  0.00     0.253 C 
ATOM     76  H   UNL A   1      34.192  25.349  22.163  1.00  0.00     0.163 HD
ATOM     77  O   UNL A   1      32.569  27.190  22.259  1.00  0.00    -0.269 OA
BRANCH  75  78
ATOM     78  C   UNL A   1      32.909  27.238  24.575  1.00  0.00     0.064 A 
ATOM     79  C   UNL A   1      33.953  27.926  25.213  1.00  0.00     0.036 A 
ATOM     80  C   UNL A   1      31.704  26.952  25.239  1.00  0.00     0.054 A 
ATOM     81  C   UNL A   1      33.866  28.185  26.572  1.00  0.00     0.041 A 
ATOM     82  C   UNL A   1      31.707  27.103  26.628  1.00  0.00     0.028 A 
ATOM     83  Cl  UNL A   1      35.158  28.974  27.382  1.00  0.00    -0.084 Cl
ATOM     84  C   UNL A   1      32.767  27.732  27.292  1.00  0.00     0.023 A 
BRANCH  80  85
ATOM     85  N   UNL A   1      30.570  26.543  24.488  1.00  0.00    -0.321 N 
ATOM     86  C   UNL A   1      30.201  25.335  23.931  1.00  0.00     0.255 C 
ATOM     87  H   UNL A   1      29.918  27.264  24.334  1.00  0.00     0.170 HD
ATOM     88  O   UNL A   1      29.201  25.235  23.224  1.00  0.00    -0.269 OA
BRANCH  86  89
ATOM     89  C   UNL A   1      30.991  24.113  24.170  1.00  0.00     0.041 A 
ATOM     90  C   UNL A   1      31.213  23.740  25.517  1.00  0.00     0.015 A 
ATOM     91  C   UNL A   1      31.373  23.285  23.102  1.00  0.00     0.028 A 
ATOM     92  C   UNL A   1      31.688  22.464  25.824  1.00  0.00     0.015 A 
ATOM     93  C   UNL A   1      31.809  22.020  23.440  1.00  0.00     0.054 A 
ATOM     94  C   UNL A   1      31.931  21.616  24.760  1.00  0.00     0.053 A 
ATOM     95  C   UNL A   1      32.024  20.841  22.600  1.00  0.00     0.261 C 
ATOM     96  C   UNL A   1      32.192  20.181  24.759  1.00  0.00     0.261 C 
ATOM     97  O   UNL A   1      31.896  20.840  21.390  1.00  0.00    -0.269 OA
ATOM     98  N   UNL A   1      32.280  19.803  23.448  1.00  0.00    -0.267 N 
ATOM     99  O   UNL A   1      32.233  19.505  25.768  1.00  0.00    -0.269 OA
BRANCH  98 100
ATOM    100  C   UNL A   1      32.494  18.437  23.023  1.00  0.00     0.204 C 
BRANCH 100 101
ATOM    101  C   UNL A   1      33.504  17.807  23.913  1.00  0.00     0.123 A 
ATOM    102  C   UNL A   1      34.830  18.087  24.179  1.00  0.00     0.047 A 
ATOM    103  O   UNL A   1      33.109  16.712  24.621  1.00  0.00    -0.467 OA
ATOM    104  C   UNL A   1      35.276  17.092  25.078  1.00  0.00     0.042 A 
ATOM    105  C   UNL A   1      34.190  16.285  25.322  1.00  0.00     0.195 A 
ENDBRANCH 100 101
ENDBRANCH  98 100
ENDBRANCH  86  89
ENDBRANCH  80  85
ENDBRANCH  75  78
ENDBRANCH  73  74
ENDBRANCH   1  73
TORSDOF 18
ENDMDL
