MODEL 1
REMARK VINA RESULT:     -12.4      0.000      0.000
REMARK SMILES O=C(NCCCCNC(=O)c1c(F)cccc1Oc1cccc(Cl)c1)c1ccc(-c2c3nc(c(-c4cccc(S(=O)(=O)[O-])c4F)c4ccc([nH]4)c(-c4cccc(S(=O)(=O)[O-])c4F)c4nc(c(-c5cccc(S(=O)(=O)[O-])c5F)c5ccc2[nH]5)C=C4)C=C3)cc1
REMARK SMILES IDX 5 1 4 2 3 3 1 4 2 5 26 7 27 8 88 9 28 10 87 11 29 12 30 13
REMARK SMILES IDX 31 14 81 15 32 16 86 17 80 18 82 19 33 20 85 21 79 22 78 23
REMARK SMILES IDX 34 25 66 26 46 27 65 28 47 29 50 30 64 31 83 32 48 33 49 34
REMARK SMILES IDX 63 36 84 37 51 38 35 39 36 40 44 41 37 42 39 43 45 44 38 45
REMARK SMILES IDX 40 46 41 47 42 48 43 49 67 50 68 51 76 52 69 53 71 54 77 55
REMARK SMILES IDX 70 56 72 57 73 58 74 59 75 60 52 61 53 62 61 63 54 64 56 65
REMARK SMILES IDX 62 66 55 67 57 68 58 69 59 70 60 71 6 72 7 73 8 74 9 75
REMARK SMILES IDX 10 77 11 78 12 79 17 80 13 81 14 82 16 83 15 84 18 85 19 86
REMARK SMILES IDX 20 87 25 88 21 89 23 90 22 91 24 92
REMARK H PARENT 3 6 82 24 50 35 8 76
REMARK Flexibility Score: inf
ROOT
ATOM      1  C   UNL A   1      31.719  31.949  26.905  1.00  0.00     0.023 C 
ENDROOT
BRANCH   1   2
ATOM      2  C   UNL A   1      32.917  32.790  27.327  1.00  0.00     0.116 C 
BRANCH   2   3
ATOM      3  N   UNL A   1      32.572  34.153  27.704  1.00  0.00    -0.352 N 
ATOM      4  O   UNL A   1      32.602  36.054  28.912  1.00  0.00    -0.269 OA
ATOM      5  C   UNL A   1      33.098  34.951  28.697  1.00  0.00     0.251 C 
ATOM      6  H   UNL A   1      31.857  34.567  27.170  1.00  0.00     0.163 HD
BRANCH   5   7
ATOM      7  C   UNL A   1      34.219  34.460  29.530  1.00  0.00     0.039 A 
ATOM      8  C   UNL A   1      35.540  34.577  29.099  1.00  0.00     0.014 A 
ATOM      9  C   UNL A   1      33.937  33.837  30.750  1.00  0.00     0.014 A 
ATOM     10  C   UNL A   1      36.548  33.898  29.776  1.00  0.00     0.010 A 
ATOM     11  C   UNL A   1      34.969  33.239  31.482  1.00  0.00     0.010 A 
ATOM     12  C   UNL A   1      36.275  33.210  30.970  1.00  0.00    -0.014 A 
BRANCH  12  13
ATOM     13  C   UNL A   1      37.376  32.482  31.659  1.00  0.00     0.031 A 
ATOM     14  C   UNL A   1      38.110  31.353  30.983  1.00  0.00     0.074 A 
ATOM     15  C   UNL A   1      37.748  32.878  32.892  1.00  0.00     0.049 A 
ATOM     16  N   UNL A   1      39.141  30.671  31.417  1.00  0.00    -0.248 NA
ATOM     17  C   UNL A   1      37.631  30.923  29.659  1.00  0.00     0.031 C 
ATOM     18  C   UNL A   1      37.090  33.932  33.668  1.00  0.00     0.029 A 
ATOM     19  N   UNL A   1      38.773  32.460  33.704  1.00  0.00    -0.354 N 
ATOM     20  C   UNL A   1      39.409  29.716  30.443  1.00  0.00     0.074 A 
ATOM     21  C   UNL A   1      38.424  29.893  29.398  1.00  0.00     0.031 C 
ATOM     22  C   UNL A   1      37.753  34.110  34.820  1.00  0.00     0.029 A 
ATOM     23  C   UNL A   1      38.854  33.154  34.889  1.00  0.00     0.049 A 
ATOM     24  H   UNL A   1      39.391  31.734  33.461  1.00  0.00     0.167 HD
ATOM     25  C   UNL A   1      40.399  28.792  30.410  1.00  0.00     0.034 A 
ATOM     26  C   UNL A   1      39.712  33.037  35.922  1.00  0.00     0.034 A 
ATOM     27  C   UNL A   1      41.415  28.658  31.419  1.00  0.00     0.049 A 
ATOM     28  C   UNL A   1      40.817  32.023  35.843  1.00  0.00     0.074 A 
ATOM     29  C   UNL A   1      42.504  27.804  31.428  1.00  0.00     0.029 A 
ATOM     30  N   UNL A   1      41.471  29.391  32.593  1.00  0.00    -0.354 N 
ATOM     31  N   UNL A   1      41.128  31.221  34.855  1.00  0.00    -0.248 NA
ATOM     32  C   UNL A   1      41.703  31.909  37.011  1.00  0.00     0.031 C 
ATOM     33  C   UNL A   1      43.212  28.010  32.614  1.00  0.00     0.029 A 
ATOM     34  C   UNL A   1      42.569  28.999  33.341  1.00  0.00     0.049 A 
ATOM     35  H   UNL A   1      40.826  30.086  32.857  1.00  0.00     0.167 HD
ATOM     36  C   UNL A   1      42.246  30.513  35.275  1.00  0.00     0.074 A 
ATOM     37  C   UNL A   1      42.581  31.004  36.597  1.00  0.00     0.031 C 
ATOM     38  C   UNL A   1      42.918  29.526  34.635  1.00  0.00     0.034 A 
BRANCH  25  39
ATOM     39  C   UNL A   1      40.488  27.883  29.212  1.00  0.00     0.023 A 
ATOM     40  C   UNL A   1      39.560  26.832  29.075  1.00  0.00     0.012 A 
ATOM     41  C   UNL A   1      41.403  28.140  28.171  1.00  0.00     0.148 A 
ATOM     42  C   UNL A   1      39.548  26.041  27.928  1.00  0.00     0.002 A 
ATOM     43  C   UNL A   1      41.362  27.369  27.014  1.00  0.00     0.091 A 
ATOM     44  F   UNL A   1      42.287  29.136  28.329  1.00  0.00    -0.205 F 
ATOM     45  C   UNL A   1      40.439  26.317  26.894  1.00  0.00     0.022 A 
BRANCH  43  46
ATOM     46  S   UNL A   1      42.415  27.688  25.594  1.00  0.00     0.127 S 
ATOM     47  O   UNL A   1      43.734  27.770  26.219  1.00  0.00    -0.237 OA
ATOM     48  O   UNL A   1      42.201  26.493  24.777  1.00  0.00    -0.237 OA
ATOM     49  O   UNL A   1      41.928  28.927  25.002  1.00  0.00    -0.744 OA
ENDBRANCH  43  46
ENDBRANCH  25  39
BRANCH  26  50
ATOM     50  C   UNL A   1      39.582  33.957  37.086  1.00  0.00     0.023 A 
ATOM     51  C   UNL A   1      39.936  35.312  36.938  1.00  0.00     0.012 A 
ATOM     52  C   UNL A   1      39.033  33.519  38.307  1.00  0.00     0.148 A 
ATOM     53  C   UNL A   1      39.752  36.212  37.989  1.00  0.00     0.002 A 
ATOM     54  C   UNL A   1      38.796  34.432  39.327  1.00  0.00     0.091 A 
ATOM     55  F   UNL A   1      38.725  32.220  38.437  1.00  0.00    -0.205 F 
ATOM     56  C   UNL A   1      39.167  35.776  39.176  1.00  0.00     0.022 A 
BRANCH  54  57
ATOM     57  S   UNL A   1      37.903  33.981  40.820  1.00  0.00     0.127 S 
ATOM     58  O   UNL A   1      38.871  33.128  41.502  1.00  0.00    -0.237 OA
ATOM     59  O   UNL A   1      37.679  35.284  41.448  1.00  0.00    -0.237 OA
ATOM     60  O   UNL A   1      36.686  33.326  40.359  1.00  0.00    -0.744 OA
ENDBRANCH  54  57
ENDBRANCH  26  50
BRANCH  38  61
ATOM     61  C   UNL A   1      44.082  28.887  35.344  1.00  0.00     0.023 A 
ATOM     62  C   UNL A   1      45.358  29.474  35.230  1.00  0.00     0.012 A 
ATOM     63  C   UNL A   1      43.894  27.794  36.211  1.00  0.00     0.148 A 
ATOM     64  C   UNL A   1      46.433  28.975  35.963  1.00  0.00     0.002 A 
ATOM     65  C   UNL A   1      44.961  27.328  36.969  1.00  0.00     0.091 A 
ATOM     66  F   UNL A   1      42.674  27.244  36.292  1.00  0.00    -0.205 F 
ATOM     67  C   UNL A   1      46.232  27.913  36.842  1.00  0.00     0.022 A 
BRANCH  65  68
ATOM     68  S   UNL A   1      44.782  26.027  38.196  1.00  0.00     0.127 S 
ATOM     69  O   UNL A   1      43.702  26.552  39.030  1.00  0.00    -0.237 OA
ATOM     70  O   UNL A   1      44.413  24.875  37.374  1.00  0.00    -0.237 OA
ATOM     71  O   UNL A   1      46.077  25.913  38.853  1.00  0.00    -0.744 OA
ENDBRANCH  65  68
ENDBRANCH  38  61
ENDBRANCH  12  13
ENDBRANCH   5   7
ENDBRANCH   2   3
ENDBRANCH   1   2
BRANCH   1  72
ATOM     72  C   UNL A   1      31.976  30.453  26.747  1.00  0.00     0.023 C 
BRANCH  72  73
ATOM     73  C   UNL A   1      31.667  29.871  25.373  1.00  0.00     0.116 C 
BRANCH  73  74
ATOM     74  N   UNL A   1      32.828  29.777  24.504  1.00  0.00    -0.352 N 
ATOM     75  C   UNL A   1      33.186  28.740  23.675  1.00  0.00     0.258 C 
ATOM     76  H   UNL A   1      33.433  30.553  24.509  1.00  0.00     0.163 HD
ATOM     77  O   UNL A   1      34.065  28.875  22.830  1.00  0.00    -0.269 OA
BRANCH  75  78
ATOM     78  C   UNL A   1      32.478  27.464  23.791  1.00  0.00     0.118 A 
ATOM     79  C   UNL A   1      33.021  26.555  24.710  1.00  0.00     0.139 A 
ATOM     80  C   UNL A   1      31.370  27.095  23.016  1.00  0.00     0.143 A 
ATOM     81  F   UNL A   1      34.097  26.885  25.440  1.00  0.00    -0.206 F 
ATOM     82  C   UNL A   1      32.512  25.269  24.840  1.00  0.00     0.040 A 
ATOM     83  C   UNL A   1      30.859  25.792  23.166  1.00  0.00     0.048 A 
ATOM     84  C   UNL A   1      31.427  24.882  24.063  1.00  0.00     0.007 A 
BRANCH  80  85
ATOM     85  O   UNL A   1      30.716  27.794  22.024  1.00  0.00    -0.456 OA
BRANCH  85  86
ATOM     86  C   UNL A   1      29.687  28.641  22.331  1.00  0.00     0.128 A 
ATOM     87  C   UNL A   1      28.551  28.108  22.944  1.00  0.00     0.047 A 
ATOM     88  C   UNL A   1      29.824  30.019  22.163  1.00  0.00     0.067 A 
ATOM     89  C   UNL A   1      27.503  28.950  23.318  1.00  0.00     0.005 A 
ATOM     90  C   UNL A   1      28.779  30.855  22.553  1.00  0.00     0.044 A 
ATOM     91  C   UNL A   1      27.617  30.327  23.119  1.00  0.00     0.021 A 
ATOM     92  Cl  UNL A   1      28.931  32.559  22.360  1.00  0.00    -0.084 Cl
ENDBRANCH  85  86
ENDBRANCH  80  85
ENDBRANCH  75  78
ENDBRANCH  73  74
ENDBRANCH  72  73
ENDBRANCH   1  72
TORSDOF 16
ENDMDL
MODEL 2
REMARK VINA RESULT:     -12.4      6.001      9.202
REMARK SMILES O=C(NCCCCNC(=O)c1c(F)cccc1Oc1cccc(Cl)c1)c1ccc(-c2c3nc(c(-c4cccc(S(=O)(=O)[O-])c4F)c4ccc([nH]4)c(-c4cccc(S(=O)(=O)[O-])c4F)c4nc(c(-c5cccc(S(=O)(=O)[O-])c5F)c5ccc2[nH]5)C=C4)C=C3)cc1
REMARK SMILES IDX 5 1 4 2 3 3 1 4 2 5 26 7 27 8 88 9 28 10 87 11 29 12 30 13
REMARK SMILES IDX 31 14 81 15 32 16 86 17 80 18 82 19 33 20 85 21 79 22 78 23
REMARK SMILES IDX 34 25 66 26 46 27 65 28 47 29 50 30 64 31 83 32 48 33 49 34
REMARK SMILES IDX 63 36 84 37 51 38 35 39 36 40 44 41 37 42 39 43 45 44 38 45
REMARK SMILES IDX 40 46 41 47 42 48 43 49 67 50 68 51 76 52 69 53 71 54 77 55
REMARK SMILES IDX 70 56 72 57 73 58 74 59 75 60 52 61 53 62 61 63 54 64 56 65
REMARK SMILES IDX 62 66 55 67 57 68 58 69 59 70 60 71 6 72 7 73 8 74 9 75
REMARK SMILES IDX 10 77 11 78 12 79 17 80 13 81 14 82 16 83 15 84 18 85 19 86
REMARK SMILES IDX 20 87 25 88 21 89 23 90 22 91 24 92
REMARK H PARENT 3 6 82 24 50 35 8 76
REMARK Flexibility Score: inf
ROOT
ATOM      1  C   UNL A   1      35.541  21.061  24.910  1.00  0.00     0.023 C 
ENDROOT
BRANCH   1   2
ATOM      2  C   UNL A   1      37.008  21.399  24.675  1.00  0.00     0.116 C 
BRANCH   2   3
ATOM      3  N   UNL A   1      37.919  20.312  25.004  1.00  0.00    -0.352 N 
ATOM      4  O   UNL A   1      39.771  19.314  25.810  1.00  0.00    -0.269 OA
ATOM      5  C   UNL A   1      39.097  20.337  25.719  1.00  0.00     0.251 C 
ATOM      6  H   UNL A   1      37.654  19.427  24.666  1.00  0.00     0.163 HD
BRANCH   5   7
ATOM      7  C   UNL A   1      39.571  21.602  26.326  1.00  0.00     0.039 A 
ATOM      8  C   UNL A   1      39.018  22.828  25.957  1.00  0.00     0.014 A 
ATOM      9  C   UNL A   1      40.615  21.560  27.255  1.00  0.00     0.014 A 
ATOM     10  C   UNL A   1      39.637  24.010  26.352  1.00  0.00     0.010 A 
ATOM     11  C   UNL A   1      41.173  22.753  27.730  1.00  0.00     0.010 A 
ATOM     12  C   UNL A   1      40.730  23.988  27.234  1.00  0.00    -0.014 A 
BRANCH  12  13
ATOM     13  C   UNL A   1      41.376  25.272  27.624  1.00  0.00     0.031 A 
ATOM     14  C   UNL A   1      42.785  25.598  27.202  1.00  0.00     0.074 A 
ATOM     15  C   UNL A   1      40.663  26.174  28.327  1.00  0.00     0.049 A 
ATOM     16  N   UNL A   1      43.462  26.703  27.392  1.00  0.00    -0.248 NA
ATOM     17  C   UNL A   1      43.539  24.559  26.481  1.00  0.00     0.031 C 
ATOM     18  C   UNL A   1      39.304  25.960  28.830  1.00  0.00     0.029 A 
ATOM     19  N   UNL A   1      40.967  27.450  28.728  1.00  0.00    -0.354 N 
ATOM     20  C   UNL A   1      44.723  26.481  26.853  1.00  0.00     0.074 A 
ATOM     21  C   UNL A   1      44.728  25.129  26.336  1.00  0.00     0.031 C 
ATOM     22  C   UNL A   1      38.875  27.080  29.429  1.00  0.00     0.029 A 
ATOM     23  C   UNL A   1      39.941  28.076  29.398  1.00  0.00     0.049 A 
ATOM     24  H   UNL A   1      41.837  27.878  28.553  1.00  0.00     0.167 HD
ATOM     25  C   UNL A   1      45.774  27.331  26.771  1.00  0.00     0.034 A 
ATOM     26  C   UNL A   1      39.862  29.311  29.933  1.00  0.00     0.034 A 
ATOM     27  C   UNL A   1      45.748  28.695  27.228  1.00  0.00     0.049 A 
ATOM     28  C   UNL A   1      41.033  30.242  29.802  1.00  0.00     0.074 A 
ATOM     29  C   UNL A   1      46.740  29.655  27.112  1.00  0.00     0.029 A 
ATOM     30  N   UNL A   1      44.685  29.294  27.884  1.00  0.00    -0.354 N 
ATOM     31  N   UNL A   1      42.166  30.053  29.173  1.00  0.00    -0.248 NA
ATOM     32  C   UNL A   1      40.910  31.563  30.436  1.00  0.00     0.031 C 
ATOM     33  C   UNL A   1      46.281  30.830  27.712  1.00  0.00     0.029 A 
ATOM     34  C   UNL A   1      45.001  30.607  28.192  1.00  0.00     0.049 A 
ATOM     35  H   UNL A   1      43.833  28.852  28.099  1.00  0.00     0.167 HD
ATOM     36  C   UNL A   1      42.888  31.229  29.327  1.00  0.00     0.074 A 
ATOM     37  C   UNL A   1      42.051  32.139  30.081  1.00  0.00     0.031 C 
ATOM     38  C   UNL A   1      44.143  31.518  28.904  1.00  0.00     0.034 A 
BRANCH  25  39
ATOM     39  C   UNL A   1      47.035  26.848  26.104  1.00  0.00     0.023 A 
ATOM     40  C   UNL A   1      47.222  27.089  24.729  1.00  0.00     0.012 A 
ATOM     41  C   UNL A   1      48.080  26.271  26.854  1.00  0.00     0.148 A 
ATOM     42  C   UNL A   1      48.422  26.752  24.105  1.00  0.00     0.002 A 
ATOM     43  C   UNL A   1      49.286  25.969  26.233  1.00  0.00     0.091 A 
ATOM     44  F   UNL A   1      47.874  26.037  28.159  1.00  0.00    -0.205 F 
ATOM     45  C   UNL A   1      49.457  26.205  24.859  1.00  0.00     0.022 A 
BRANCH  43  46
ATOM     46  S   UNL A   1      50.708  25.330  27.127  1.00  0.00     0.127 S 
ATOM     47  O   UNL A   1      51.067  26.473  27.964  1.00  0.00    -0.237 OA
ATOM     48  O   UNL A   1      50.131  24.199  27.855  1.00  0.00    -0.237 OA
ATOM     49  O   UNL A   1      51.690  24.966  26.114  1.00  0.00    -0.744 OA
ENDBRANCH  43  46
ENDBRANCH  25  39
BRANCH  26  50
ATOM     50  C   UNL A   1      38.594  29.742  30.585  1.00  0.00     0.023 A 
ATOM     51  C   UNL A   1      38.391  29.465  31.951  1.00  0.00     0.012 A 
ATOM     52  C   UNL A   1      37.630  30.494  29.886  1.00  0.00     0.148 A 
ATOM     53  C   UNL A   1      37.246  29.924  32.605  1.00  0.00     0.002 A 
ATOM     54  C   UNL A   1      36.524  30.999  30.557  1.00  0.00     0.091 A 
ATOM     55  F   UNL A   1      37.830  30.726  28.580  1.00  0.00    -0.205 F 
ATOM     56  C   UNL A   1      36.322  30.704  31.913  1.00  0.00     0.022 A 
BRANCH  54  57
ATOM     57  S   UNL A   1      35.377  32.142  29.778  1.00  0.00     0.127 S 
ATOM     58  O   UNL A   1      34.443  32.418  30.866  1.00  0.00    -0.237 OA
ATOM     59  O   UNL A   1      36.253  33.258  29.419  1.00  0.00    -0.237 OA
ATOM     60  O   UNL A   1      34.830  31.423  28.635  1.00  0.00    -0.744 OA
ENDBRANCH  54  57
ENDBRANCH  26  50
BRANCH  38  61
ATOM     61  C   UNL A   1      44.712  32.868  29.248  1.00  0.00     0.023 A 
ATOM     62  C   UNL A   1      45.446  33.017  30.442  1.00  0.00     0.012 A 
ATOM     63  C   UNL A   1      44.628  33.945  28.345  1.00  0.00     0.148 A 
ATOM     64  C   UNL A   1      46.081  34.222  30.736  1.00  0.00     0.002 A 
ATOM     65  C   UNL A   1      45.298  35.130  28.626  1.00  0.00     0.091 A 
ATOM     66  F   UNL A   1      43.913  33.784  27.223  1.00  0.00    -0.205 F 
ATOM     67  C   UNL A   1      46.019  35.272  29.823  1.00  0.00     0.022 A 
BRANCH  65  68
ATOM     68  S   UNL A   1      45.355  36.506  27.471  1.00  0.00     0.127 S 
ATOM     69  O   UNL A   1      43.942  36.863  27.364  1.00  0.00    -0.237 OA
ATOM     70  O   UNL A   1      46.178  37.479  28.190  1.00  0.00    -0.237 OA
ATOM     71  O   UNL A   1      45.960  35.984  26.253  1.00  0.00    -0.744 OA
ENDBRANCH  65  68
ENDBRANCH  38  61
ENDBRANCH  12  13
ENDBRANCH   5   7
ENDBRANCH   2   3
ENDBRANCH   1   2
BRANCH   1  72
ATOM     72  C   UNL A   1      34.987  21.416  26.287  1.00  0.00     0.023 C 
BRANCH  72  73
ATOM     73  C   UNL A   1      35.001  22.898  26.643  1.00  0.00     0.116 C 
BRANCH  73  74
ATOM     74  N   UNL A   1      33.707  23.411  27.059  1.00  0.00    -0.352 N 
ATOM     75  C   UNL A   1      32.629  23.738  26.270  1.00  0.00     0.258 C 
ATOM     76  H   UNL A   1      33.585  23.539  28.027  1.00  0.00     0.163 HD
ATOM     77  O   UNL A   1      31.523  23.946  26.757  1.00  0.00    -0.269 OA
BRANCH  75  78
ATOM     78  C   UNL A   1      32.810  23.805  24.818  1.00  0.00     0.118 A 
ATOM     79  C   UNL A   1      32.332  22.700  24.100  1.00  0.00     0.139 A 
ATOM     80  C   UNL A   1      33.464  24.845  24.145  1.00  0.00     0.143 A 
ATOM     81  F   UNL A   1      31.726  21.685  24.735  1.00  0.00    -0.206 F 
ATOM     82  C   UNL A   1      32.535  22.586  22.731  1.00  0.00     0.040 A 
ATOM     83  C   UNL A   1      33.654  24.720  22.756  1.00  0.00     0.048 A 
ATOM     84  C   UNL A   1      33.203  23.599  22.053  1.00  0.00     0.007 A 
BRANCH  80  85
ATOM     85  O   UNL A   1      34.059  25.983  24.647  1.00  0.00    -0.456 OA
BRANCH  85  86
ATOM     86  C   UNL A   1      33.296  27.017  25.117  1.00  0.00     0.128 A 
ATOM     87  C   UNL A   1      33.633  27.582  26.349  1.00  0.00     0.047 A 
ATOM     88  C   UNL A   1      32.296  27.580  24.326  1.00  0.00     0.067 A 
ATOM     89  C   UNL A   1      32.909  28.671  26.835  1.00  0.00     0.005 A 
ATOM     90  C   UNL A   1      31.586  28.677  24.813  1.00  0.00     0.044 A 
ATOM     91  C   UNL A   1      31.880  29.217  26.066  1.00  0.00     0.021 A 
ATOM     92  Cl  UNL A   1      30.351  29.392  23.849  1.00  0.00    -0.084 Cl
ENDBRANCH  85  86
ENDBRANCH  80  85
ENDBRANCH  75  78
ENDBRANCH  73  74
ENDBRANCH  72  73
ENDBRANCH   1  72
TORSDOF 16
ENDMDL
MODEL 3
REMARK VINA RESULT:     -12.4      2.641      8.347
REMARK SMILES O=C(NCCCCNC(=O)c1c(F)cccc1Oc1cccc(Cl)c1)c1ccc(-c2c3nc(c(-c4cccc(S(=O)(=O)[O-])c4F)c4ccc([nH]4)c(-c4cccc(S(=O)(=O)[O-])c4F)c4nc(c(-c5cccc(S(=O)(=O)[O-])c5F)c5ccc2[nH]5)C=C4)C=C3)cc1
REMARK SMILES IDX 5 1 4 2 3 3 1 4 2 5 26 7 27 8 88 9 28 10 87 11 29 12 30 13
REMARK SMILES IDX 31 14 81 15 32 16 86 17 80 18 82 19 33 20 85 21 79 22 78 23
REMARK SMILES IDX 34 25 66 26 46 27 65 28 47 29 50 30 64 31 83 32 48 33 49 34
REMARK SMILES IDX 63 36 84 37 51 38 35 39 36 40 44 41 37 42 39 43 45 44 38 45
REMARK SMILES IDX 40 46 41 47 42 48 43 49 67 50 68 51 76 52 69 53 71 54 77 55
REMARK SMILES IDX 70 56 72 57 73 58 74 59 75 60 52 61 53 62 61 63 54 64 56 65
REMARK SMILES IDX 62 66 55 67 57 68 58 69 59 70 60 71 6 72 7 73 8 74 9 75
REMARK SMILES IDX 10 77 11 78 12 79 17 80 13 81 14 82 16 83 15 84 18 85 19 86
REMARK SMILES IDX 20 87 25 88 21 89 23 90 22 91 24 92
REMARK H PARENT 3 6 82 24 50 35 8 76
REMARK Flexibility Score: inf
ROOT
ATOM      1  C   UNL A   1      31.905  29.054  26.612  1.00  0.00     0.023 C 
ENDROOT
BRANCH   1   2
ATOM      2  C   UNL A   1      32.919  30.090  26.143  1.00  0.00     0.116 C 
BRANCH   2   3
ATOM      3  N   UNL A   1      32.712  31.412  26.716  1.00  0.00    -0.352 N 
ATOM      4  O   UNL A   1      33.117  33.214  28.005  1.00  0.00    -0.269 OA
ATOM      5  C   UNL A   1      33.519  32.142  27.560  1.00  0.00     0.251 C 
ATOM      6  H   UNL A   1      31.869  31.851  26.460  1.00  0.00     0.163 HD
BRANCH   5   7
ATOM      7  C   UNL A   1      34.839  31.611  27.969  1.00  0.00     0.039 A 
ATOM      8  C   UNL A   1      34.986  30.282  28.369  1.00  0.00     0.014 A 
ATOM      9  C   UNL A   1      35.942  32.470  27.988  1.00  0.00     0.014 A 
ATOM     10  C   UNL A   1      36.170  29.873  28.975  1.00  0.00     0.010 A 
ATOM     11  C   UNL A   1      37.163  32.026  28.508  1.00  0.00     0.010 A 
ATOM     12  C   UNL A   1      37.271  30.742  29.064  1.00  0.00    -0.014 A 
BRANCH  12  13
ATOM     13  C   UNL A   1      38.515  30.274  29.733  1.00  0.00     0.031 A 
ATOM     14  C   UNL A   1      38.868  30.718  31.129  1.00  0.00     0.074 A 
ATOM     15  C   UNL A   1      39.313  29.399  29.089  1.00  0.00     0.049 A 
ATOM     16  N   UNL A   1      39.873  30.341  31.879  1.00  0.00    -0.248 NA
ATOM     17  C   UNL A   1      37.993  31.715  31.769  1.00  0.00     0.031 C 
ATOM     18  C   UNL A   1      39.102  28.924  27.719  1.00  0.00     0.029 A 
ATOM     19  N   UNL A   1      40.446  28.741  29.497  1.00  0.00    -0.354 N 
ATOM     20  C   UNL A   1      39.773  31.075  33.055  1.00  0.00     0.074 A 
ATOM     21  C   UNL A   1      38.616  31.934  32.919  1.00  0.00     0.031 C 
ATOM     22  C   UNL A   1      40.042  28.018  27.418  1.00  0.00     0.029 A 
ATOM     23  C   UNL A   1      40.954  27.881  28.550  1.00  0.00     0.049 A 
ATOM     24  H   UNL A   1      40.856  28.871  30.382  1.00  0.00     0.167 HD
ATOM     25  C   UNL A   1      40.557  31.022  34.158  1.00  0.00     0.034 A 
ATOM     26  C   UNL A   1      42.032  27.072  28.582  1.00  0.00     0.034 A 
ATOM     27  C   UNL A   1      41.669  30.124  34.318  1.00  0.00     0.049 A 
ATOM     28  C   UNL A   1      42.865  27.013  29.830  1.00  0.00     0.074 A 
ATOM     29  C   UNL A   1      42.470  29.944  35.433  1.00  0.00     0.029 A 
ATOM     30  N   UNL A   1      42.139  29.258  33.344  1.00  0.00    -0.354 N 
ATOM     31  N   UNL A   1      42.674  27.620  30.975  1.00  0.00    -0.248 NA
ATOM     32  C   UNL A   1      44.051  26.145  29.799  1.00  0.00     0.031 C 
ATOM     33  C   UNL A   1      43.433  28.979  35.129  1.00  0.00     0.029 A 
ATOM     34  C   UNL A   1      43.227  28.550  33.827  1.00  0.00     0.049 A 
ATOM     35  H   UNL A   1      41.756  29.160  32.443  1.00  0.00     0.167 HD
ATOM     36  C   UNL A   1      43.708  27.204  31.804  1.00  0.00     0.074 A 
ATOM     37  C   UNL A   1      44.506  26.266  31.040  1.00  0.00     0.031 C 
ATOM     38  C   UNL A   1      43.986  27.586  33.074  1.00  0.00     0.034 A 
BRANCH  25  39
ATOM     39  C   UNL A   1      40.214  31.913  35.324  1.00  0.00     0.023 A 
ATOM     40  C   UNL A   1      40.843  33.167  35.440  1.00  0.00     0.012 A 
ATOM     41  C   UNL A   1      39.189  31.565  36.227  1.00  0.00     0.148 A 
ATOM     42  C   UNL A   1      40.469  34.059  36.444  1.00  0.00     0.002 A 
ATOM     43  C   UNL A   1      38.798  32.473  37.205  1.00  0.00     0.091 A 
ATOM     44  F   UNL A   1      38.614  30.359  36.108  1.00  0.00    -0.205 F 
ATOM     45  C   UNL A   1      39.440  33.717  37.317  1.00  0.00     0.022 A 
BRANCH  43  46
ATOM     46  S   UNL A   1      37.433  32.161  38.332  1.00  0.00     0.127 S 
ATOM     47  O   UNL A   1      36.397  33.037  37.788  1.00  0.00    -0.237 OA
ATOM     48  O   UNL A   1      37.190  30.732  38.133  1.00  0.00    -0.237 OA
ATOM     49  O   UNL A   1      37.918  32.518  39.659  1.00  0.00    -0.744 OA
ENDBRANCH  43  46
ENDBRANCH  25  39
BRANCH  26  50
ATOM     50  C   UNL A   1      42.332  26.212  27.404  1.00  0.00     0.023 A 
ATOM     51  C   UNL A   1      43.156  26.711  26.377  1.00  0.00     0.012 A 
ATOM     52  C   UNL A   1      41.877  24.881  27.335  1.00  0.00     0.148 A 
ATOM     53  C   UNL A   1      43.515  25.901  25.298  1.00  0.00     0.002 A 
ATOM     54  C   UNL A   1      42.289  24.061  26.291  1.00  0.00     0.091 A 
ATOM     55  F   UNL A   1      41.074  24.432  28.310  1.00  0.00    -0.205 F 
ATOM     56  C   UNL A   1      43.096  24.572  25.264  1.00  0.00     0.022 A 
BRANCH  54  57
ATOM     57  S   UNL A   1      41.924  22.302  26.261  1.00  0.00     0.127 S 
ATOM     58  O   UNL A   1      42.674  21.860  25.089  1.00  0.00    -0.237 OA
ATOM     59  O   UNL A   1      42.466  21.855  27.545  1.00  0.00    -0.237 OA
ATOM     60  O   UNL A   1      40.473  22.209  26.163  1.00  0.00    -0.744 OA
ENDBRANCH  54  57
ENDBRANCH  26  50
BRANCH  38  61
ATOM     61  C   UNL A   1      45.209  27.010  33.734  1.00  0.00     0.023 A 
ATOM     62  C   UNL A   1      46.413  27.741  33.702  1.00  0.00     0.012 A 
ATOM     63  C   UNL A   1      45.138  25.819  34.483  1.00  0.00     0.148 A 
ATOM     64  C   UNL A   1      47.533  27.290  34.398  1.00  0.00     0.002 A 
ATOM     65  C   UNL A   1      46.247  25.398  35.208  1.00  0.00     0.091 A 
ATOM     66  F   UNL A   1      43.986  25.134  34.487  1.00  0.00    -0.205 F 
ATOM     67  C   UNL A   1      47.446  26.128  35.161  1.00  0.00     0.022 A 
BRANCH  65  68
ATOM     68  S   UNL A   1      46.206  23.967  36.294  1.00  0.00     0.127 S 
ATOM     69  O   UNL A   1      46.001  22.877  35.342  1.00  0.00    -0.237 OA
ATOM     70  O   UNL A   1      47.536  24.002  36.903  1.00  0.00    -0.237 OA
ATOM     71  O   UNL A   1      45.108  24.197  37.222  1.00  0.00    -0.744 OA
ENDBRANCH  65  68
ENDBRANCH  38  61
ENDBRANCH  12  13
ENDBRANCH   5   7
ENDBRANCH   2   3
ENDBRANCH   1   2
BRANCH   1  72
ATOM     72  C   UNL A   1      32.484  27.793  27.248  1.00  0.00     0.023 C 
BRANCH  72  73
ATOM     73  C   UNL A   1      32.281  26.503  26.461  1.00  0.00     0.116 C 
BRANCH  73  74
ATOM     74  N   UNL A   1      31.031  25.827  26.762  1.00  0.00    -0.352 N 
ATOM     75  C   UNL A   1      30.655  24.547  26.427  1.00  0.00     0.258 C 
ATOM     76  H   UNL A   1      30.369  26.350  27.269  1.00  0.00     0.163 HD
ATOM     77  O   UNL A   1      29.668  24.021  26.930  1.00  0.00    -0.269 OA
BRANCH  75  78
ATOM     78  C   UNL A   1      31.474  23.796  25.473  1.00  0.00     0.118 A 
ATOM     79  C   UNL A   1      32.463  22.981  26.041  1.00  0.00     0.139 A 
ATOM     80  C   UNL A   1      31.366  23.894  24.080  1.00  0.00     0.143 A 
ATOM     81  F   UNL A   1      32.595  22.896  27.374  1.00  0.00    -0.206 F 
ATOM     82  C   UNL A   1      33.379  22.299  25.249  1.00  0.00     0.040 A 
ATOM     83  C   UNL A   1      32.294  23.189  23.291  1.00  0.00     0.048 A 
ATOM     84  C   UNL A   1      33.297  22.405  23.866  1.00  0.00     0.007 A 
BRANCH  80  85
ATOM     85  O   UNL A   1      30.520  24.668  23.314  1.00  0.00    -0.456 OA
BRANCH  85  86
ATOM     86  C   UNL A   1      30.731  26.014  23.188  1.00  0.00     0.128 A 
ATOM     87  C   UNL A   1      29.701  26.884  23.549  1.00  0.00     0.047 A 
ATOM     88  C   UNL A   1      31.989  26.507  22.840  1.00  0.00     0.067 A 
ATOM     89  C   UNL A   1      29.900  28.263  23.482  1.00  0.00     0.005 A 
ATOM     90  C   UNL A   1      32.184  27.886  22.790  1.00  0.00     0.044 A 
ATOM     91  C   UNL A   1      31.144  28.765  23.098  1.00  0.00     0.021 A 
ATOM     92  Cl  UNL A   1      33.731  28.516  22.369  1.00  0.00    -0.084 Cl
ENDBRANCH  85  86
ENDBRANCH  80  85
ENDBRANCH  75  78
ENDBRANCH  73  74
ENDBRANCH  72  73
ENDBRANCH   1  72
TORSDOF 16
ENDMDL
