MODEL 1
REMARK VINA RESULT:     -11.6      0.000      0.000
REMARK SMILES COCc1c(C(=O)NCCCCNC(=O)c2ccc(-c3c4nc(c(-c5cccc(S(=O)(=O)[O-])c5F)c5ccc([nH]5)c(-c5cccc(S(=O)(=O)[O-])c5F)c5nc(c(-c6cccc(S(=O)(=O)[O-])c6F)c6ccc3[nH]6)C=C5)C=C4)cc2)sc2ccccc12
REMARK SMILES IDX 11 1 10 2 9 3 8 4 6 5 7 6 5 8 4 9 85 10 79 11 80 12 84 13
REMARK SMILES IDX 81 14 83 15 82 16 3 17 2 18 1 19 12 20 13 21 14 22 15 24
REMARK SMILES IDX 16 25 17 26 78 27 18 28 77 29 19 30 20 31 21 32 71 33 22 34
REMARK SMILES IDX 76 35 70 36 72 37 23 38 75 39 69 40 68 41 24 43 56 44 36 45
REMARK SMILES IDX 55 46 37 47 40 48 54 49 73 50 38 51 39 52 53 54 74 55 41 56
REMARK SMILES IDX 25 57 26 58 34 59 27 60 29 61 35 62 28 63 30 64 31 65 32 66
REMARK SMILES IDX 33 67 57 68 58 69 66 70 59 71 61 72 67 73 60 74 62 75 63 76
REMARK SMILES IDX 64 77 65 78 42 79 43 80 51 81 44 82 46 83 52 84 45 85 47 86
REMARK SMILES IDX 48 87 49 88 50 89
REMARK H PARENT 8 7 13 23 72 42 40 53
REMARK Flexibility Score: inf
ROOT
ATOM      1  C   UNL A   1      35.338  21.487  25.486  1.00  0.00     0.023 C 
ENDROOT
BRANCH   1   2
ATOM      2  C   UNL A   1      34.535  22.218  26.569  1.00  0.00     0.023 C 
BRANCH   2   3
ATOM      3  C   UNL A   1      33.056  21.834  26.617  1.00  0.00     0.116 C 
BRANCH   3   4
ATOM      4  N   UNL A   1      32.419  22.077  25.336  1.00  0.00    -0.351 N 
ATOM      5  C   UNL A   1      31.982  23.213  24.698  1.00  0.00     0.261 C 
ATOM      6  O   UNL A   1      31.489  23.006  23.583  1.00  0.00    -0.268 OA
ATOM      7  H   UNL A   1      32.267  21.256  24.816  1.00  0.00     0.163 HD
BRANCH   5   8
ATOM      8  C   UNL A   1      32.122  24.573  25.228  1.00  0.00     0.099 A 
ATOM      9  C   UNL A   1      33.196  25.442  24.982  1.00  0.00     0.009 A 
ATOM     10  C   UNL A   1      33.069  26.685  25.734  1.00  0.00    -0.001 A 
ATOM     11  S   UNL A   1      30.905  25.356  26.124  1.00  0.00    -0.130 S 
ATOM     12  C   UNL A   1      31.859  26.737  26.430  1.00  0.00     0.035 A 
ATOM     13  C   UNL A   1      33.931  27.805  25.879  1.00  0.00     0.010 A 
ATOM     14  C   UNL A   1      31.509  27.828  27.253  1.00  0.00     0.019 A 
ATOM     15  C   UNL A   1      33.588  28.897  26.683  1.00  0.00     0.001 A 
ATOM     16  C   UNL A   1      32.387  28.904  27.371  1.00  0.00     0.001 A 
BRANCH   9  17
ATOM     17  C   UNL A   1      34.340  25.053  24.061  1.00  0.00     0.197 C 
BRANCH  17  18
ATOM     18  O   UNL A   1      34.011  25.018  22.668  1.00  0.00    -0.380 OA
ATOM     19  C   UNL A   1      33.564  26.280  22.188  1.00  0.00     0.195 C 
ENDBRANCH  17  18
ENDBRANCH   9  17
ENDBRANCH   5   8
ENDBRANCH   3   4
ENDBRANCH   2   3
ENDBRANCH   1   2
BRANCH   1  20
ATOM     20  C   UNL A   1      36.803  21.902  25.369  1.00  0.00     0.116 C 
BRANCH  20  21
ATOM     21  N   UNL A   1      37.729  20.780  25.441  1.00  0.00    -0.352 N 
ATOM     22  C   UNL A   1      39.023  20.776  25.906  1.00  0.00     0.251 C 
ATOM     23  H   UNL A   1      37.385  19.917  25.116  1.00  0.00     0.163 HD
ATOM     24  O   UNL A   1      39.717  19.769  25.809  1.00  0.00    -0.269 OA
BRANCH  22  25
ATOM     25  C   UNL A   1      39.576  22.014  26.488  1.00  0.00     0.039 A 
ATOM     26  C   UNL A   1      40.624  21.922  27.410  1.00  0.00     0.014 A 
ATOM     27  C   UNL A   1      39.096  23.260  26.080  1.00  0.00     0.014 A 
ATOM     28  C   UNL A   1      41.241  23.087  27.869  1.00  0.00     0.010 A 
ATOM     29  C   UNL A   1      39.752  24.415  26.490  1.00  0.00     0.010 A 
ATOM     30  C   UNL A   1      40.832  24.340  27.384  1.00  0.00    -0.014 A 
BRANCH  30  31
ATOM     31  C   UNL A   1      41.520  25.595  27.777  1.00  0.00     0.031 A 
ATOM     32  C   UNL A   1      40.761  26.658  28.521  1.00  0.00     0.074 A 
ATOM     33  C   UNL A   1      42.777  25.830  27.352  1.00  0.00     0.049 A 
ATOM     34  N   UNL A   1      41.126  27.877  28.820  1.00  0.00    -0.248 NA
ATOM     35  C   UNL A   1      39.396  26.316  28.956  1.00  0.00     0.031 C 
ATOM     36  C   UNL A   1      43.592  24.904  26.563  1.00  0.00     0.029 A 
ATOM     37  N   UNL A   1      43.576  26.937  27.490  1.00  0.00    -0.354 N 
ATOM     38  C   UNL A   1      40.025  28.463  29.432  1.00  0.00     0.074 A 
ATOM     39  C   UNL A   1      38.969  27.473  29.441  1.00  0.00     0.031 C 
ATOM     40  C   UNL A   1      44.768  25.484  26.277  1.00  0.00     0.029 A 
ATOM     41  C   UNL A   1      44.782  26.834  26.834  1.00  0.00     0.049 A 
ATOM     42  H   UNL A   1      43.312  27.731  28.009  1.00  0.00     0.167 HD
ATOM     43  C   UNL A   1      39.911  29.703  29.962  1.00  0.00     0.034 A 
ATOM     44  C   UNL A   1      45.777  27.730  26.684  1.00  0.00     0.034 A 
ATOM     45  C   UNL A   1      40.981  30.660  30.002  1.00  0.00     0.049 A 
ATOM     46  C   UNL A   1      45.645  29.082  27.332  1.00  0.00     0.074 A 
ATOM     47  C   UNL A   1      40.995  31.911  30.593  1.00  0.00     0.029 A 
ATOM     48  N   UNL A   1      42.229  30.473  29.430  1.00  0.00    -0.354 N 
ATOM     49  N   UNL A   1      44.649  29.566  28.034  1.00  0.00    -0.248 NA
ATOM     50  C   UNL A   1      46.787  30.000  27.200  1.00  0.00     0.031 C 
ATOM     51  C   UNL A   1      42.251  32.484  30.371  1.00  0.00     0.029 A 
ATOM     52  C   UNL A   1      43.024  31.583  29.657  1.00  0.00     0.049 A 
ATOM     53  H   UNL A   1      42.510  29.669  28.936  1.00  0.00     0.167 HD
ATOM     54  C   UNL A   1      45.060  30.823  28.463  1.00  0.00     0.074 A 
ATOM     55  C   UNL A   1      46.400  31.023  27.951  1.00  0.00     0.031 C 
ATOM     56  C   UNL A   1      44.383  31.734  29.203  1.00  0.00     0.034 A 
BRANCH  43  57
ATOM     57  C   UNL A   1      38.596  30.075  30.596  1.00  0.00     0.023 A 
ATOM     58  C   UNL A   1      38.328  29.672  31.921  1.00  0.00     0.012 A 
ATOM     59  C   UNL A   1      37.655  30.866  29.910  1.00  0.00     0.148 A 
ATOM     60  C   UNL A   1      37.128  30.020  32.540  1.00  0.00     0.002 A 
ATOM     61  C   UNL A   1      36.481  31.246  30.550  1.00  0.00     0.091 A 
ATOM     62  F   UNL A   1      37.917  31.220  28.645  1.00  0.00    -0.205 F 
ATOM     63  C   UNL A   1      36.211  30.815  31.859  1.00  0.00     0.022 A 
BRANCH  61  64
ATOM     64  S   UNL A   1      35.272  32.334  29.785  1.00  0.00     0.127 S 
ATOM     65  O   UNL A   1      34.332  32.550  30.885  1.00  0.00    -0.237 OA
ATOM     66  O   UNL A   1      36.083  33.501  29.439  1.00  0.00    -0.237 OA
ATOM     67  O   UNL A   1      34.744  31.603  28.642  1.00  0.00    -0.744 OA
ENDBRANCH  61  64
ENDBRANCH  43  57
BRANCH  44  68
ATOM     68  C   UNL A   1      47.017  27.348  25.951  1.00  0.00     0.023 A 
ATOM     69  C   UNL A   1      47.993  26.575  26.610  1.00  0.00     0.012 A 
ATOM     70  C   UNL A   1      47.224  27.715  24.607  1.00  0.00     0.148 A 
ATOM     71  C   UNL A   1      49.165  26.198  25.953  1.00  0.00     0.002 A 
ATOM     72  C   UNL A   1      48.370  27.292  23.944  1.00  0.00     0.091 A 
ATOM     73  F   UNL A   1      46.291  28.463  24.002  1.00  0.00    -0.205 F 
ATOM     74  C   UNL A   1      49.349  26.546  24.618  1.00  0.00     0.022 A 
BRANCH  72  75
ATOM     75  S   UNL A   1      48.628  27.584  22.189  1.00  0.00     0.127 S 
ATOM     76  O   UNL A   1      48.651  26.223  21.659  1.00  0.00    -0.237 OA
ATOM     77  O   UNL A   1      47.442  28.364  21.833  1.00  0.00    -0.237 OA
ATOM     78  O   UNL A   1      49.879  28.324  22.097  1.00  0.00    -0.744 OA
ENDBRANCH  72  75
ENDBRANCH  44  68
BRANCH  56  79
ATOM     79  C   UNL A   1      45.088  33.015  29.561  1.00  0.00     0.023 A 
ATOM     80  C   UNL A   1      45.929  33.061  30.689  1.00  0.00     0.012 A 
ATOM     81  C   UNL A   1      44.998  34.139  28.715  1.00  0.00     0.148 A 
ATOM     82  C   UNL A   1      46.654  34.215  30.982  1.00  0.00     0.002 A 
ATOM     83  C   UNL A   1      45.758  35.269  28.989  1.00  0.00     0.091 A 
ATOM     84  F   UNL A   1      44.176  34.079  27.657  1.00  0.00    -0.205 F 
ATOM     85  C   UNL A   1      46.580  35.312  30.127  1.00  0.00     0.022 A 
BRANCH  83  86
ATOM     86  S   UNL A   1      45.800  36.690  27.890  1.00  0.00     0.127 S 
ATOM     87  O   UNL A   1      44.424  37.173  27.975  1.00  0.00    -0.237 OA
ATOM     88  O   UNL A   1      46.791  37.553  28.534  1.00  0.00    -0.237 OA
ATOM     89  O   UNL A   1      46.203  36.177  26.588  1.00  0.00    -0.744 OA
ENDBRANCH  83  86
ENDBRANCH  56  79
ENDBRANCH  30  31
ENDBRANCH  22  25
ENDBRANCH  20  21
ENDBRANCH   1  20
TORSDOF 16
ENDMDL
MODEL 2
REMARK VINA RESULT:     -11.5      5.471      9.924
REMARK SMILES COCc1c(C(=O)NCCCCNC(=O)c2ccc(-c3c4nc(c(-c5cccc(S(=O)(=O)[O-])c5F)c5ccc([nH]5)c(-c5cccc(S(=O)(=O)[O-])c5F)c5nc(c(-c6cccc(S(=O)(=O)[O-])c6F)c6ccc3[nH]6)C=C5)C=C4)cc2)sc2ccccc12
REMARK SMILES IDX 11 1 10 2 9 3 8 4 6 5 7 6 5 8 4 9 85 10 79 11 80 12 84 13
REMARK SMILES IDX 81 14 83 15 82 16 3 17 2 18 1 19 12 20 13 21 14 22 15 24
REMARK SMILES IDX 16 25 17 26 78 27 18 28 77 29 19 30 20 31 21 32 71 33 22 34
REMARK SMILES IDX 76 35 70 36 72 37 23 38 75 39 69 40 68 41 24 43 56 44 36 45
REMARK SMILES IDX 55 46 37 47 40 48 54 49 73 50 38 51 39 52 53 54 74 55 41 56
REMARK SMILES IDX 25 57 26 58 34 59 27 60 29 61 35 62 28 63 30 64 31 65 32 66
REMARK SMILES IDX 33 67 57 68 58 69 66 70 59 71 61 72 67 73 60 74 62 75 63 76
REMARK SMILES IDX 64 77 65 78 42 79 43 80 51 81 44 82 46 83 52 84 45 85 47 86
REMARK SMILES IDX 48 87 49 88 50 89
REMARK H PARENT 8 7 13 23 72 42 40 53
REMARK Flexibility Score: inf
ROOT
ATOM      1  C   UNL A   1      32.054  28.476  26.478  1.00  0.00     0.023 C 
ENDROOT
BRANCH   1   2
ATOM      2  C   UNL A   1      32.617  27.075  26.209  1.00  0.00     0.023 C 
BRANCH   2   3
ATOM      3  C   UNL A   1      31.611  25.945  26.430  1.00  0.00     0.116 C 
BRANCH   3   4
ATOM      4  N   UNL A   1      31.527  25.092  25.260  1.00  0.00    -0.351 N 
ATOM      5  C   UNL A   1      30.933  25.232  24.028  1.00  0.00     0.261 C 
ATOM      6  O   UNL A   1      31.097  24.265  23.277  1.00  0.00    -0.268 OA
ATOM      7  H   UNL A   1      31.993  24.232  25.371  1.00  0.00     0.163 HD
BRANCH   5   8
ATOM      8  C   UNL A   1      30.210  26.429  23.583  1.00  0.00     0.099 A 
ATOM      9  C   UNL A   1      30.756  27.485  22.838  1.00  0.00     0.009 A 
ATOM     10  C   UNL A   1      29.792  28.562  22.641  1.00  0.00    -0.001 A 
ATOM     11  S   UNL A   1      28.535  26.640  23.793  1.00  0.00    -0.130 S 
ATOM     12  C   UNL A   1      28.539  28.223  23.155  1.00  0.00     0.035 A 
ATOM     13  C   UNL A   1      29.904  29.846  22.043  1.00  0.00     0.010 A 
ATOM     14  C   UNL A   1      27.441  29.107  23.111  1.00  0.00     0.019 A 
ATOM     15  C   UNL A   1      28.818  30.725  21.982  1.00  0.00     0.001 A 
ATOM     16  C   UNL A   1      27.596  30.360  22.520  1.00  0.00     0.001 A 
BRANCH   9  17
ATOM     17  C   UNL A   1      32.198  27.462  22.361  1.00  0.00     0.197 C 
BRANCH  17  18
ATOM     18  O   UNL A   1      32.914  28.689  22.538  1.00  0.00    -0.380 OA
ATOM     19  C   UNL A   1      34.315  28.481  22.668  1.00  0.00     0.195 C 
ENDBRANCH  17  18
ENDBRANCH   9  17
ENDBRANCH   5   8
ENDBRANCH   3   4
ENDBRANCH   2   3
ENDBRANCH   1   2
BRANCH   1  20
ATOM     20  C   UNL A   1      32.848  29.626  25.860  1.00  0.00     0.116 C 
BRANCH  20  21
ATOM     21  N   UNL A   1      32.395  30.940  26.299  1.00  0.00    -0.352 N 
ATOM     22  C   UNL A   1      33.023  31.809  27.159  1.00  0.00     0.251 C 
ATOM     23  H   UNL A   1      31.533  31.242  25.934  1.00  0.00     0.163 HD
ATOM     24  O   UNL A   1      32.467  32.844  27.515  1.00  0.00    -0.269 OA
BRANCH  22  25
ATOM     25  C   UNL A   1      34.360  31.460  27.677  1.00  0.00     0.039 A 
ATOM     26  C   UNL A   1      35.341  32.454  27.749  1.00  0.00     0.014 A 
ATOM     27  C   UNL A   1      34.622  30.169  28.140  1.00  0.00     0.014 A 
ATOM     28  C   UNL A   1      36.567  32.169  28.355  1.00  0.00     0.010 A 
ATOM     29  C   UNL A   1      35.817  29.906  28.798  1.00  0.00     0.010 A 
ATOM     30  C   UNL A   1      36.799  30.903  28.916  1.00  0.00    -0.014 A 
BRANCH  30  31
ATOM     31  C   UNL A   1      38.051  30.588  29.648  1.00  0.00     0.031 A 
ATOM     32  C   UNL A   1      39.035  29.618  29.056  1.00  0.00     0.074 A 
ATOM     33  C   UNL A   1      38.236  31.068  30.893  1.00  0.00     0.049 A 
ATOM     34  N   UNL A   1      40.104  29.093  29.596  1.00  0.00    -0.248 NA
ATOM     35  C   UNL A   1      38.760  29.148  27.687  1.00  0.00     0.031 C 
ATOM     36  C   UNL A   1      37.318  31.962  31.603  1.00  0.00     0.029 A 
ATOM     37  N   UNL A   1      39.241  30.840  31.800  1.00  0.00    -0.354 N 
ATOM     38  C   UNL A   1      40.601  28.198  28.657  1.00  0.00     0.074 A 
ATOM     39  C   UNL A   1      39.705  28.233  27.522  1.00  0.00     0.031 C 
ATOM     40  C   UNL A   1      37.794  32.196  32.835  1.00  0.00     0.029 A 
ATOM     41  C   UNL A   1      39.034  31.447  33.018  1.00  0.00     0.049 A 
ATOM     42  H   UNL A   1      40.034  30.293  31.599  1.00  0.00     0.167 HD
ATOM     43  C   UNL A   1      41.718  27.436  28.722  1.00  0.00     0.034 A 
ATOM     44  C   UNL A   1      39.753  31.392  34.157  1.00  0.00     0.034 A 
ATOM     45  C   UNL A   1      42.635  27.450  29.828  1.00  0.00     0.049 A 
ATOM     46  C   UNL A   1      41.020  30.580  34.183  1.00  0.00     0.074 A 
ATOM     47  C   UNL A   1      43.840  26.782  29.954  1.00  0.00     0.029 A 
ATOM     48  N   UNL A   1      42.452  28.171  30.997  1.00  0.00    -0.354 N 
ATOM     49  N   UNL A   1      41.552  29.854  33.230  1.00  0.00    -0.248 NA
ATOM     50  C   UNL A   1      41.806  30.609  35.425  1.00  0.00     0.031 C 
ATOM     51  C   UNL A   1      44.382  27.093  31.205  1.00  0.00     0.029 A 
ATOM     52  C   UNL A   1      43.523  27.969  31.850  1.00  0.00     0.049 A 
ATOM     53  H   UNL A   1      41.676  28.744  31.192  1.00  0.00     0.167 HD
ATOM     54  C   UNL A   1      42.753  29.375  33.741  1.00  0.00     0.074 A 
ATOM     55  C   UNL A   1      42.877  29.903  35.084  1.00  0.00     0.031 C 
ATOM     56  C   UNL A   1      43.665  28.561  33.155  1.00  0.00     0.034 A 
BRANCH  43  57
ATOM     57  C   UNL A   1      42.041  26.565  27.537  1.00  0.00     0.023 A 
ATOM     58  C   UNL A   1      42.732  27.118  26.439  1.00  0.00     0.012 A 
ATOM     59  C   UNL A   1      41.716  25.195  27.530  1.00  0.00     0.148 A 
ATOM     60  C   UNL A   1      43.062  26.330  25.338  1.00  0.00     0.002 A 
ATOM     61  C   UNL A   1      42.088  24.406  26.448  1.00  0.00     0.091 A 
ATOM     62  F   UNL A   1      41.040  24.692  28.572  1.00  0.00    -0.205 F 
ATOM     63  C   UNL A   1      42.751  24.974  25.348  1.00  0.00     0.022 A 
BRANCH  61  64
ATOM     64  S   UNL A   1      41.801  22.633  26.401  1.00  0.00     0.127 S 
ATOM     65  O   UNL A   1      42.454  22.262  25.145  1.00  0.00    -0.237 OA
ATOM     66  O   UNL A   1      42.494  22.175  27.605  1.00  0.00    -0.237 OA
ATOM     67  O   UNL A   1      40.356  22.462  26.431  1.00  0.00    -0.744 OA
ENDBRANCH  61  64
ENDBRANCH  43  57
BRANCH  44  68
ATOM     68  C   UNL A   1      39.329  32.191  35.343  1.00  0.00     0.023 A 
ATOM     69  C   UNL A   1      38.457  31.610  36.284  1.00  0.00     0.012 A 
ATOM     70  C   UNL A   1      39.803  33.498  35.561  1.00  0.00     0.148 A 
ATOM     71  C   UNL A   1      38.041  32.327  37.406  1.00  0.00     0.002 A 
ATOM     72  C   UNL A   1      39.426  34.188  36.708  1.00  0.00     0.091 A 
ATOM     73  F   UNL A   1      40.622  34.039  34.647  1.00  0.00    -0.205 F 
ATOM     74  C   UNL A   1      38.533  33.611  37.624  1.00  0.00     0.022 A 
BRANCH  72  75
ATOM     75  S   UNL A   1      40.113  35.793  37.134  1.00  0.00     0.127 S 
ATOM     76  O   UNL A   1      39.676  36.614  36.007  1.00  0.00    -0.237 OA
ATOM     77  O   UNL A   1      39.445  36.083  38.403  1.00  0.00    -0.237 OA
ATOM     78  O   UNL A   1      41.550  35.584  37.249  1.00  0.00    -0.744 OA
ENDBRANCH  72  75
ENDBRANCH  44  68
BRANCH  56  79
ATOM     79  C   UNL A   1      44.911  28.227  33.929  1.00  0.00     0.023 A 
ATOM     80  C   UNL A   1      46.028  29.081  33.863  1.00  0.00     0.012 A 
ATOM     81  C   UNL A   1      44.932  27.123  34.805  1.00  0.00     0.148 A 
ATOM     82  C   UNL A   1      47.157  28.828  34.641  1.00  0.00     0.002 A 
ATOM     83  C   UNL A   1      46.042  26.904  35.611  1.00  0.00     0.091 A 
ATOM     84  F   UNL A   1      43.864  26.312  34.837  1.00  0.00    -0.205 F 
ATOM     85  C   UNL A   1      47.160  27.751  35.523  1.00  0.00     0.022 A 
BRANCH  83  86
ATOM     86  S   UNL A   1      46.093  25.599  36.845  1.00  0.00     0.127 S 
ATOM     87  O   UNL A   1      47.440  25.758  37.390  1.00  0.00    -0.237 OA
ATOM     88  O   UNL A   1      45.016  25.989  37.755  1.00  0.00    -0.237 OA
ATOM     89  O   UNL A   1      45.854  24.356  36.124  1.00  0.00    -0.744 OA
ENDBRANCH  83  86
ENDBRANCH  56  79
ENDBRANCH  30  31
ENDBRANCH  22  25
ENDBRANCH  20  21
ENDBRANCH   1  20
TORSDOF 16
ENDMDL
MODEL 3
REMARK VINA RESULT:     -11.5      5.284      7.809
REMARK SMILES COCc1c(C(=O)NCCCCNC(=O)c2ccc(-c3c4nc(c(-c5cccc(S(=O)(=O)[O-])c5F)c5ccc([nH]5)c(-c5cccc(S(=O)(=O)[O-])c5F)c5nc(c(-c6cccc(S(=O)(=O)[O-])c6F)c6ccc3[nH]6)C=C5)C=C4)cc2)sc2ccccc12
REMARK SMILES IDX 11 1 10 2 9 3 8 4 6 5 7 6 5 8 4 9 85 10 79 11 80 12 84 13
REMARK SMILES IDX 81 14 83 15 82 16 3 17 2 18 1 19 12 20 13 21 14 22 15 24
REMARK SMILES IDX 16 25 17 26 78 27 18 28 77 29 19 30 20 31 21 32 71 33 22 34
REMARK SMILES IDX 76 35 70 36 72 37 23 38 75 39 69 40 68 41 24 43 56 44 36 45
REMARK SMILES IDX 55 46 37 47 40 48 54 49 73 50 38 51 39 52 53 54 74 55 41 56
REMARK SMILES IDX 25 57 26 58 34 59 27 60 29 61 35 62 28 63 30 64 31 65 32 66
REMARK SMILES IDX 33 67 57 68 58 69 66 70 59 71 61 72 67 73 60 74 62 75 63 76
REMARK SMILES IDX 64 77 65 78 42 79 43 80 51 81 44 82 46 83 52 84 45 85 47 86
REMARK SMILES IDX 48 87 49 88 50 89
REMARK H PARENT 8 7 13 23 72 42 40 53
REMARK Flexibility Score: inf
ROOT
ATOM      1  C   UNL A   1      31.746  28.777  26.213  1.00  0.00     0.023 C 
ENDROOT
BRANCH   1   2
ATOM      2  C   UNL A   1      31.563  27.634  25.208  1.00  0.00     0.023 C 
BRANCH   2   3
ATOM      3  C   UNL A   1      32.773  26.707  25.088  1.00  0.00     0.116 C 
BRANCH   3   4
ATOM      4  N   UNL A   1      33.198  26.589  23.707  1.00  0.00    -0.351 N 
ATOM      5  C   UNL A   1      33.527  25.522  22.906  1.00  0.00     0.261 C 
ATOM      6  O   UNL A   1      33.837  25.835  21.751  1.00  0.00    -0.268 OA
ATOM      7  H   UNL A   1      33.267  27.456  23.246  1.00  0.00     0.163 HD
BRANCH   5   8
ATOM      8  C   UNL A   1      33.471  24.117  23.325  1.00  0.00     0.099 A 
ATOM      9  C   UNL A   1      34.487  23.424  24.001  1.00  0.00     0.009 A 
ATOM     10  C   UNL A   1      34.148  22.017  24.188  1.00  0.00    -0.001 A 
ATOM     11  S   UNL A   1      32.079  23.151  23.171  1.00  0.00    -0.130 S 
ATOM     12  C   UNL A   1      32.855  21.741  23.738  1.00  0.00     0.035 A 
ATOM     13  C   UNL A   1      34.878  20.923  24.724  1.00  0.00     0.010 A 
ATOM     14  C   UNL A   1      32.300  20.445  23.786  1.00  0.00     0.019 A 
ATOM     15  C   UNL A   1      34.332  19.636  24.788  1.00  0.00     0.001 A 
ATOM     16  C   UNL A   1      33.054  19.399  24.315  1.00  0.00     0.001 A 
BRANCH   9  17
ATOM     17  C   UNL A   1      35.775  24.108  24.423  1.00  0.00     0.197 C 
BRANCH  17  18
ATOM     18  O   UNL A   1      36.083  24.014  25.818  1.00  0.00    -0.380 OA
ATOM     19  C   UNL A   1      37.418  23.580  26.046  1.00  0.00     0.195 C 
ENDBRANCH  17  18
ENDBRANCH   9  17
ENDBRANCH   5   8
ENDBRANCH   3   4
ENDBRANCH   2   3
ENDBRANCH   1   2
BRANCH   1  20
ATOM     20  C   UNL A   1      32.867  29.761  25.884  1.00  0.00     0.116 C 
BRANCH  20  21
ATOM     21  N   UNL A   1      32.603  31.115  26.354  1.00  0.00    -0.352 N 
ATOM     22  C   UNL A   1      33.338  31.861  27.244  1.00  0.00     0.251 C 
ATOM     23  H   UNL A   1      31.799  31.548  25.988  1.00  0.00     0.163 HD
ATOM     24  O   UNL A   1      32.933  32.956  27.623  1.00  0.00    -0.269 OA
BRANCH  22  25
ATOM     25  C   UNL A   1      34.603  31.309  27.766  1.00  0.00     0.039 A 
ATOM     26  C   UNL A   1      35.692  32.166  27.955  1.00  0.00     0.014 A 
ATOM     27  C   UNL A   1      34.690  29.961  28.119  1.00  0.00     0.014 A 
ATOM     28  C   UNL A   1      36.850  31.683  28.568  1.00  0.00     0.010 A 
ATOM     29  C   UNL A   1      35.820  29.498  28.785  1.00  0.00     0.010 A 
ATOM     30  C   UNL A   1      36.907  30.355  29.020  1.00  0.00    -0.014 A 
BRANCH  30  31
ATOM     31  C   UNL A   1      38.083  29.827  29.756  1.00  0.00     0.031 A 
ATOM     32  C   UNL A   1      38.400  30.353  31.128  1.00  0.00     0.074 A 
ATOM     33  C   UNL A   1      38.932  28.981  29.141  1.00  0.00     0.049 A 
ATOM     34  N   UNL A   1      39.454  30.141  31.871  1.00  0.00    -0.248 NA
ATOM     35  C   UNL A   1      37.414  31.267  31.731  1.00  0.00     0.031 C 
ATOM     36  C   UNL A   1      38.770  28.454  27.784  1.00  0.00     0.029 A 
ATOM     37  N   UNL A   1      40.123  28.445  29.562  1.00  0.00    -0.354 N 
ATOM     38  C   UNL A   1      39.285  30.929  33.002  1.00  0.00     0.074 A 
ATOM     39  C   UNL A   1      38.037  31.643  32.839  1.00  0.00     0.031 C 
ATOM     40  C   UNL A   1      39.825  27.683  27.481  1.00  0.00     0.029 A 
ATOM     41  C   UNL A   1      40.755  27.682  28.606  1.00  0.00     0.049 A 
ATOM     42  H   UNL A   1      40.492  28.592  30.463  1.00  0.00     0.167 HD
ATOM     43  C   UNL A   1      40.083  31.030  34.091  1.00  0.00     0.034 A 
ATOM     44  C   UNL A   1      41.954  27.066  28.629  1.00  0.00     0.034 A 
ATOM     45  C   UNL A   1      41.292  30.275  34.273  1.00  0.00     0.049 A 
ATOM     46  C   UNL A   1      42.795  27.151  29.874  1.00  0.00     0.074 A 
ATOM     47  C   UNL A   1      42.125  30.239  35.376  1.00  0.00     0.029 A 
ATOM     48  N   UNL A   1      41.838  29.420  33.329  1.00  0.00    -0.354 N 
ATOM     49  N   UNL A   1      42.547  27.787  30.993  1.00  0.00    -0.248 NA
ATOM     50  C   UNL A   1      44.062  26.405  29.875  1.00  0.00     0.031 C 
ATOM     51  C   UNL A   1      43.182  29.367  35.096  1.00  0.00     0.029 A 
ATOM     52  C   UNL A   1      42.996  28.847  33.825  1.00  0.00     0.049 A 
ATOM     53  H   UNL A   1      41.458  29.244  32.438  1.00  0.00     0.167 HD
ATOM     54  C   UNL A   1      43.603  27.483  31.845  1.00  0.00     0.074 A 
ATOM     55  C   UNL A   1      44.488  26.597  31.117  1.00  0.00     0.031 C 
ATOM     56  C   UNL A   1      43.825  27.910  33.113  1.00  0.00     0.034 A 
BRANCH  43  57
ATOM     57  C   UNL A   1      39.642  31.951  35.198  1.00  0.00     0.023 A 
ATOM     58  C   UNL A   1      39.975  33.320  35.134  1.00  0.00     0.012 A 
ATOM     59  C   UNL A   1      38.856  31.479  36.267  1.00  0.00     0.148 A 
ATOM     60  C   UNL A   1      39.562  34.198  36.135  1.00  0.00     0.002 A 
ATOM     61  C   UNL A   1      38.412  32.369  37.238  1.00  0.00     0.091 A 
ATOM     62  F   UNL A   1      38.570  30.171  36.323  1.00  0.00    -0.205 F 
ATOM     63  C   UNL A   1      38.772  33.725  37.179  1.00  0.00     0.022 A 
BRANCH  61  64
ATOM     64  S   UNL A   1      37.325  31.873  38.580  1.00  0.00     0.127 S 
ATOM     65  O   UNL A   1      36.209  32.803  38.415  1.00  0.00    -0.237 OA
ATOM     66  O   UNL A   1      37.019  30.485  38.232  1.00  0.00    -0.237 OA
ATOM     67  O   UNL A   1      38.101  32.033  39.801  1.00  0.00    -0.744 OA
ENDBRANCH  61  64
ENDBRANCH  43  57
BRANCH  44  68
ATOM     68  C   UNL A   1      42.394  26.254  27.459  1.00  0.00     0.023 A 
ATOM     69  C   UNL A   1      43.179  26.861  26.459  1.00  0.00     0.012 A 
ATOM     70  C   UNL A   1      42.072  24.888  27.344  1.00  0.00     0.148 A 
ATOM     71  C   UNL A   1      43.610  26.130  25.351  1.00  0.00     0.002 A 
ATOM     72  C   UNL A   1      42.548  24.153  26.264  1.00  0.00     0.091 A 
ATOM     73  F   UNL A   1      41.313  24.332  28.299  1.00  0.00    -0.205 F 
ATOM     74  C   UNL A   1      43.304  24.775  25.258  1.00  0.00     0.022 A 
BRANCH  72  75
ATOM     75  S   UNL A   1      42.313  22.376  26.132  1.00  0.00     0.127 S 
ATOM     76  O   UNL A   1      40.858  22.271  26.072  1.00  0.00    -0.237 OA
ATOM     77  O   UNL A   1      43.006  22.070  24.879  1.00  0.00    -0.237 OA
ATOM     78  O   UNL A   1      42.944  21.811  27.317  1.00  0.00    -0.744 OA
ENDBRANCH  72  75
ENDBRANCH  44  68
BRANCH  56  79
ATOM     79  C   UNL A   1      45.043  27.388  33.828  1.00  0.00     0.023 A 
ATOM     80  C   UNL A   1      46.243  28.123  33.798  1.00  0.00     0.012 A 
ATOM     81  C   UNL A   1      44.962  26.222  34.616  1.00  0.00     0.148 A 
ATOM     82  C   UNL A   1      47.352  27.694  34.526  1.00  0.00     0.002 A 
ATOM     83  C   UNL A   1      46.056  25.826  35.375  1.00  0.00     0.091 A 
ATOM     84  F   UNL A   1      43.814  25.527  34.614  1.00  0.00    -0.205 F 
ATOM     85  C   UNL A   1      47.255  26.556  35.324  1.00  0.00     0.022 A 
BRANCH  83  86
ATOM     86  S   UNL A   1      45.990  24.431  36.505  1.00  0.00     0.127 S 
ATOM     87  O   UNL A   1      45.867  23.305  35.581  1.00  0.00    -0.237 OA
ATOM     88  O   UNL A   1      47.281  24.523  37.188  1.00  0.00    -0.237 OA
ATOM     89  O   UNL A   1      44.836  24.665  37.362  1.00  0.00    -0.744 OA
ENDBRANCH  83  86
ENDBRANCH  56  79
ENDBRANCH  30  31
ENDBRANCH  22  25
ENDBRANCH  20  21
ENDBRANCH   1  20
TORSDOF 16
ENDMDL
