MODEL 1
REMARK VINA RESULT:     -12.8      0.000      0.000
REMARK SMILES CC1(C)S[C@H](c2ccc(-c3cccc([N+](=O)[O-])c3)o2)[NH2+][C@@H]1C(=O)NCCCCNC(=O)c1ccc(-c2c3nc(c(-c4cccc(S(=O)(=O)[O-])c4F)c4ccc([nH]4)c(-c4cccc(S(=O)(=O)[O-])c4F)c4nc(c(-c5cccc(S(=O)(=O)[O-])c5F)c5ccc2[nH]5)C=C4)C=C3)cc1
REMARK SMILES IDX 26 1 25 2 24 3 22 4 23 5 21 7 1 8 2 9 3 10 4 11 5 12 20 13
REMARK SMILES IDX 6 16 7 17 19 18 8 19 9 20 10 21 11 22 18 23 12 24 14 25
REMARK SMILES IDX 13 26 15 27 16 28 17 29 27 30 28 31 29 32 30 33 31 35 32 36
REMARK SMILES IDX 33 37 94 38 34 39 93 40 35 41 36 42 37 43 87 44 38 45 92 46
REMARK SMILES IDX 86 47 88 48 39 49 91 50 85 51 84 52 40 54 72 55 52 56 71 57
REMARK SMILES IDX 53 58 56 59 70 60 89 61 54 62 55 63 69 65 90 66 57 67 41 68
REMARK SMILES IDX 42 69 50 70 43 71 45 72 51 73 44 74 46 75 47 76 48 77 49 78
REMARK SMILES IDX 73 79 74 80 82 81 75 82 77 83 83 84 76 85 78 86 79 87 80 88
REMARK SMILES IDX 81 89 58 90 59 91 67 92 60 93 62 94 68 95 61 96 63 97 64 98
REMARK SMILES IDX 65 99 66 100
REMARK H PARENT 24 6 20 14 20 15 29 34 88 53 56 64
REMARK Flexibility Score: inf
ROOT
ATOM      1  C   UNL A   1      31.316  28.491  27.012  1.00  0.00     0.023 C 
ENDROOT
BRANCH   1   2
ATOM      2  C   UNL A   1      32.184  27.255  27.265  1.00  0.00     0.116 C 
BRANCH   2   3
ATOM      3  N   UNL A   1      31.607  26.019  26.766  1.00  0.00    -0.351 N 
ATOM      4  C   UNL A   1      32.032  25.228  25.725  1.00  0.00     0.279 C 
ATOM      5  O   UNL A   1      31.498  24.121  25.624  1.00  0.00    -0.268 OA
ATOM      6  H   UNL A   1      30.802  25.704  27.238  1.00  0.00     0.163 HD
BRANCH   4   7
ATOM      7  C   UNL A   1      33.008  25.804  24.661  1.00  0.00     0.289 C 
ATOM      8  C   UNL A   1      33.269  26.837  22.349  1.00  0.00     0.030 C 
ATOM      9  C   UNL A   1      32.654  25.669  23.151  1.00  0.00     0.078 C 
ATOM     10  C   UNL A   1      31.178  25.553  22.770  1.00  0.00     0.030 C 
ATOM     11  S   UNL A   1      33.519  24.161  22.603  1.00  0.00    -0.078 SA
ATOM     12  C   UNL A   1      34.569  24.072  24.064  1.00  0.00     0.311 C 
ATOM     13  N   UNL A   1      34.402  25.294  24.857  1.00  0.00    -0.317 N 
ATOM     14  H   UNL A   1      35.071  25.998  24.547  1.00  0.00     0.348 HD
ATOM     15  H   UNL A   1      34.564  25.094  25.844  1.00  0.00     0.348 HD
BRANCH  12  16
ATOM     16  C   UNL A   1      34.377  22.782  24.787  1.00  0.00     0.172 A 
ATOM     17  C   UNL A   1      34.418  22.502  26.141  1.00  0.00     0.054 A 
ATOM     18  O   UNL A   1      34.118  21.634  24.086  1.00  0.00    -0.454 OA
ATOM     19  C   UNL A   1      34.167  21.124  26.276  1.00  0.00     0.051 A 
ATOM     20  C   UNL A   1      33.986  20.632  25.001  1.00  0.00     0.134 A 
BRANCH  20  21
ATOM     21  C   UNL A   1      33.663  19.303  24.517  1.00  0.00     0.024 A 
ATOM     22  C   UNL A   1      32.800  19.087  23.434  1.00  0.00     0.012 A 
ATOM     23  C   UNL A   1      34.316  18.212  25.101  1.00  0.00     0.097 A 
ATOM     24  C   UNL A   1      32.639  17.801  22.903  1.00  0.00     0.008 A 
ATOM     25  C   UNL A   1      34.157  16.934  24.562  1.00  0.00     0.270 A 
ATOM     26  C   UNL A   1      33.338  16.722  23.449  1.00  0.00     0.085 A 
BRANCH  25  27
ATOM     27  N   UNL A   1      34.833  15.812  25.211  1.00  0.00     0.062 N 
ATOM     28  O   UNL A   1      35.999  15.979  25.579  1.00  0.00    -0.258 OA
ATOM     29  O   UNL A   1      34.200  14.749  25.314  1.00  0.00    -0.258 OA
ENDBRANCH  25  27
ENDBRANCH  20  21
ENDBRANCH  12  16
ENDBRANCH   4   7
ENDBRANCH   2   3
ENDBRANCH   1   2
BRANCH   1  30
ATOM     30  C   UNL A   1      31.776  29.446  25.906  1.00  0.00     0.023 C 
BRANCH  30  31
ATOM     31  C   UNL A   1      33.148  30.094  26.086  1.00  0.00     0.116 C 
BRANCH  31  32
ATOM     32  N   UNL A   1      33.088  31.420  26.686  1.00  0.00    -0.352 N 
ATOM     33  C   UNL A   1      33.868  32.038  27.641  1.00  0.00     0.251 C 
ATOM     34  H   UNL A   1      32.353  31.981  26.345  1.00  0.00     0.163 HD
ATOM     35  O   UNL A   1      33.511  33.142  28.053  1.00  0.00    -0.269 OA
BRANCH  33  36
ATOM     36  C   UNL A   1      35.108  31.425  28.199  1.00  0.00     0.039 A 
ATOM     37  C   UNL A   1      36.306  32.158  28.192  1.00  0.00     0.014 A 
ATOM     38  C   UNL A   1      35.137  30.120  28.681  1.00  0.00     0.014 A 
ATOM     39  C   UNL A   1      37.486  31.614  28.727  1.00  0.00     0.010 A 
ATOM     40  C   UNL A   1      36.291  29.602  29.273  1.00  0.00     0.010 A 
ATOM     41  C   UNL A   1      37.480  30.336  29.303  1.00  0.00    -0.014 A 
BRANCH  41  42
ATOM     42  C   UNL A   1      38.644  29.762  30.031  1.00  0.00     0.031 A 
ATOM     43  C   UNL A   1      39.080  30.302  31.371  1.00  0.00     0.074 A 
ATOM     44  C   UNL A   1      39.445  28.896  29.377  1.00  0.00     0.049 A 
ATOM     45  N   UNL A   1      40.128  29.983  32.090  1.00  0.00    -0.248 NA
ATOM     46  C   UNL A   1      38.262  31.375  31.954  1.00  0.00     0.031 C 
ATOM     47  C   UNL A   1      39.234  28.425  28.007  1.00  0.00     0.029 A 
ATOM     48  N   UNL A   1      40.627  28.306  29.753  1.00  0.00    -0.354 N 
ATOM     49  C   UNL A   1      40.121  30.845  33.184  1.00  0.00     0.074 A 
ATOM     50  C   UNL A   1      38.983  31.721  33.013  1.00  0.00     0.031 C 
ATOM     51  C   UNL A   1      40.260  27.637  27.651  1.00  0.00     0.029 A 
ATOM     52  C   UNL A   1      41.198  27.540  28.766  1.00  0.00     0.049 A 
ATOM     53  H   UNL A   1      41.026  28.422  30.646  1.00  0.00     0.167 HD
ATOM     54  C   UNL A   1      40.966  30.882  34.246  1.00  0.00     0.034 A 
ATOM     55  C   UNL A   1      42.338  26.823  28.760  1.00  0.00     0.034 A 
ATOM     56  C   UNL A   1      42.056  29.960  34.438  1.00  0.00     0.049 A 
ATOM     57  C   UNL A   1      43.159  26.743  30.017  1.00  0.00     0.074 A 
ATOM     58  C   UNL A   1      42.870  29.800  35.546  1.00  0.00     0.029 A 
ATOM     59  N   UNL A   1      42.484  29.035  33.497  1.00  0.00    -0.354 N 
ATOM     60  N   UNL A   1      42.999  27.390  31.145  1.00  0.00    -0.248 NA
ATOM     61  C   UNL A   1      44.273  25.786  30.025  1.00  0.00     0.031 C 
ATOM     62  C   UNL A   1      43.791  28.781  35.275  1.00  0.00     0.029 A 
ATOM     63  C   UNL A   1      43.541  28.296  34.002  1.00  0.00     0.049 A 
ATOM     64  H   UNL A   1      42.094  28.922  32.601  1.00  0.00     0.167 HD
ATOM     65  C   UNL A   1      43.960  26.885  32.013  1.00  0.00     0.074 A 
ATOM     66  C   UNL A   1      44.689  25.868  31.283  1.00  0.00     0.031 C 
ATOM     67  C   UNL A   1      44.219  27.241  33.296  1.00  0.00     0.034 A 
BRANCH  54  68
ATOM     68  C   UNL A   1      40.691  31.884  35.345  1.00  0.00     0.023 A 
ATOM     69  C   UNL A   1      41.497  33.038  35.440  1.00  0.00     0.012 A 
ATOM     70  C   UNL A   1      39.586  31.749  36.213  1.00  0.00     0.148 A 
ATOM     71  C   UNL A   1      41.238  34.018  36.397  1.00  0.00     0.002 A 
ATOM     72  C   UNL A   1      39.305  32.755  37.135  1.00  0.00     0.091 A 
ATOM     73  F   UNL A   1      38.830  30.646  36.123  1.00  0.00    -0.205 F 
ATOM     74  C   UNL A   1      40.136  33.883  37.235  1.00  0.00     0.022 A 
BRANCH  72  75
ATOM     75  S   UNL A   1      37.849  32.727  38.190  1.00  0.00     0.127 S 
ATOM     76  O   UNL A   1      36.781  33.015  37.231  1.00  0.00    -0.237 OA
ATOM     77  O   UNL A   1      37.855  31.350  38.692  1.00  0.00    -0.237 OA
ATOM     78  O   UNL A   1      38.069  33.741  39.208  1.00  0.00    -0.744 OA
ENDBRANCH  72  75
ENDBRANCH  54  68
BRANCH  55  79
ATOM     79  C   UNL A   1      42.672  25.999  27.566  1.00  0.00     0.023 A 
ATOM     80  C   UNL A   1      43.525  26.543  26.586  1.00  0.00     0.012 A 
ATOM     81  C   UNL A   1      42.225  24.672  27.431  1.00  0.00     0.148 A 
ATOM     82  C   UNL A   1      43.907  25.790  25.476  1.00  0.00     0.002 A 
ATOM     83  C   UNL A   1      42.649  23.910  26.346  1.00  0.00     0.091 A 
ATOM     84  F   UNL A   1      41.412  24.174  28.373  1.00  0.00    -0.205 F 
ATOM     85  C   UNL A   1      43.477  24.471  25.362  1.00  0.00     0.022 A 
BRANCH  83  86
ATOM     86  S   UNL A   1      42.258  22.162  26.188  1.00  0.00     0.127 S 
ATOM     87  O   UNL A   1      42.733  21.634  27.464  1.00  0.00    -0.237 OA
ATOM     88  O   UNL A   1      40.803  22.187  26.034  1.00  0.00    -0.237 OA
ATOM     89  O   UNL A   1      42.976  21.709  25.005  1.00  0.00    -0.744 OA
ENDBRANCH  83  86
ENDBRANCH  55  79
BRANCH  67  90
ATOM     90  C   UNL A   1      45.311  26.497  34.019  1.00  0.00     0.023 A 
ATOM     91  C   UNL A   1      46.648  26.921  33.895  1.00  0.00     0.012 A 
ATOM     92  C   UNL A   1      45.004  25.416  34.870  1.00  0.00     0.148 A 
ATOM     93  C   UNL A   1      47.669  26.258  34.577  1.00  0.00     0.002 A 
ATOM     94  C   UNL A   1      46.021  24.788  35.581  1.00  0.00     0.091 A 
ATOM     95  F   UNL A   1      43.728  25.012  34.960  1.00  0.00    -0.205 F 
ATOM     96  C   UNL A   1      47.355  25.200  35.427  1.00  0.00     0.022 A 
BRANCH  94  97
ATOM     97  S   UNL A   1      45.690  23.473  36.760  1.00  0.00     0.127 S 
ATOM     98  O   UNL A   1      44.796  24.139  37.706  1.00  0.00    -0.237 OA
ATOM     99  O   UNL A   1      45.044  22.457  35.926  1.00  0.00    -0.237 OA
ATOM    100  O   UNL A   1      46.988  23.078  37.288  1.00  0.00    -0.744 OA
ENDBRANCH  94  97
ENDBRANCH  67  90
ENDBRANCH  41  42
ENDBRANCH  33  36
ENDBRANCH  31  32
ENDBRANCH  30  31
ENDBRANCH   1  30
TORSDOF 17
ENDMDL
MODEL 2
REMARK VINA RESULT:     -12.7      2.087      2.422
REMARK SMILES CC1(C)S[C@H](c2ccc(-c3cccc([N+](=O)[O-])c3)o2)[NH2+][C@@H]1C(=O)NCCCCNC(=O)c1ccc(-c2c3nc(c(-c4cccc(S(=O)(=O)[O-])c4F)c4ccc([nH]4)c(-c4cccc(S(=O)(=O)[O-])c4F)c4nc(c(-c5cccc(S(=O)(=O)[O-])c5F)c5ccc2[nH]5)C=C4)C=C3)cc1
REMARK SMILES IDX 26 1 25 2 24 3 22 4 23 5 21 7 1 8 2 9 3 10 4 11 5 12 20 13
REMARK SMILES IDX 6 16 7 17 19 18 8 19 9 20 10 21 11 22 18 23 12 24 14 25
REMARK SMILES IDX 13 26 15 27 16 28 17 29 27 30 28 31 29 32 30 33 31 35 32 36
REMARK SMILES IDX 33 37 94 38 34 39 93 40 35 41 36 42 37 43 87 44 38 45 92 46
REMARK SMILES IDX 86 47 88 48 39 49 91 50 85 51 84 52 40 54 72 55 52 56 71 57
REMARK SMILES IDX 53 58 56 59 70 60 89 61 54 62 55 63 69 65 90 66 57 67 41 68
REMARK SMILES IDX 42 69 50 70 43 71 45 72 51 73 44 74 46 75 47 76 48 77 49 78
REMARK SMILES IDX 73 79 74 80 82 81 75 82 77 83 83 84 76 85 78 86 79 87 80 88
REMARK SMILES IDX 81 89 58 90 59 91 67 92 60 93 62 94 68 95 61 96 63 97 64 98
REMARK SMILES IDX 65 99 66 100
REMARK H PARENT 24 6 20 14 20 15 29 34 88 53 56 64
REMARK Flexibility Score: inf
ROOT
ATOM      1  C   UNL A   1      31.303  28.257  25.895  1.00  0.00     0.023 C 
ENDROOT
BRANCH   1   2
ATOM      2  C   UNL A   1      31.793  27.257  26.945  1.00  0.00     0.116 C 
BRANCH   2   3
ATOM      3  N   UNL A   1      31.521  25.871  26.611  1.00  0.00    -0.351 N 
ATOM      4  C   UNL A   1      32.138  25.072  25.677  1.00  0.00     0.279 C 
ATOM      5  O   UNL A   1      31.869  23.870  25.720  1.00  0.00    -0.268 OA
ATOM      6  H   UNL A   1      30.796  25.444  27.122  1.00  0.00     0.163 HD
BRANCH   4   7
ATOM      7  C   UNL A   1      32.986  25.716  24.544  1.00  0.00     0.289 C 
ATOM      8  C   UNL A   1      32.997  26.746  22.216  1.00  0.00     0.030 C 
ATOM      9  C   UNL A   1      32.538  25.538  23.063  1.00  0.00     0.078 C 
ATOM     10  C   UNL A   1      31.053  25.299  22.790  1.00  0.00     0.030 C 
ATOM     11  S   UNL A   1      33.482  24.101  22.460  1.00  0.00    -0.078 SA
ATOM     12  C   UNL A   1      34.637  24.111  23.843  1.00  0.00     0.311 C 
ATOM     13  N   UNL A   1      34.427  25.323  24.641  1.00  0.00    -0.317 N 
ATOM     14  H   UNL A   1      35.013  26.076  24.282  1.00  0.00     0.348 HD
ATOM     15  H   UNL A   1      34.674  25.146  25.615  1.00  0.00     0.348 HD
BRANCH  12  16
ATOM     16  C   UNL A   1      34.602  22.816  24.582  1.00  0.00     0.172 A 
ATOM     17  C   UNL A   1      34.936  22.527  25.893  1.00  0.00     0.054 A 
ATOM     18  O   UNL A   1      34.195  21.674  23.946  1.00  0.00    -0.454 OA
ATOM     19  C   UNL A   1      34.717  21.149  26.070  1.00  0.00     0.051 A 
ATOM     20  C   UNL A   1      34.262  20.666  24.862  1.00  0.00     0.134 A 
BRANCH  20  21
ATOM     21  C   UNL A   1      33.838  19.341  24.451  1.00  0.00     0.024 A 
ATOM     22  C   UNL A   1      32.899  19.135  23.431  1.00  0.00     0.012 A 
ATOM     23  C   UNL A   1      34.465  18.236  25.038  1.00  0.00     0.097 A 
ATOM     24  C   UNL A   1      32.635  17.842  22.963  1.00  0.00     0.008 A 
ATOM     25  C   UNL A   1      34.204  16.950  24.561  1.00  0.00     0.270 A 
ATOM     26  C   UNL A   1      33.307  16.745  23.507  1.00  0.00     0.085 A 
BRANCH  25  27
ATOM     27  N   UNL A   1      34.857  15.816  25.212  1.00  0.00     0.062 N 
ATOM     28  O   UNL A   1      34.221  14.761  25.300  1.00  0.00    -0.258 OA
ATOM     29  O   UNL A   1      35.996  16.001  25.668  1.00  0.00    -0.258 OA
ENDBRANCH  25  27
ENDBRANCH  20  21
ENDBRANCH  12  16
ENDBRANCH   4   7
ENDBRANCH   2   3
ENDBRANCH   1   2
BRANCH   1  30
ATOM     30  C   UNL A   1      32.326  29.266  25.366  1.00  0.00     0.023 C 
BRANCH  30  31
ATOM     31  C   UNL A   1      33.603  29.442  26.186  1.00  0.00     0.116 C 
BRANCH  31  32
ATOM     32  N   UNL A   1      33.767  30.787  26.723  1.00  0.00    -0.352 N 
ATOM     33  C   UNL A   1      34.690  31.328  27.593  1.00  0.00     0.251 C 
ATOM     34  H   UNL A   1      33.092  31.429  26.405  1.00  0.00     0.163 HD
ATOM     35  O   UNL A   1      34.517  32.486  27.973  1.00  0.00    -0.269 OA
BRANCH  33  36
ATOM     36  C   UNL A   1      35.874  30.572  28.096  1.00  0.00     0.039 A 
ATOM     37  C   UNL A   1      37.125  30.760  27.487  1.00  0.00     0.014 A 
ATOM     38  C   UNL A   1      35.773  29.637  29.122  1.00  0.00     0.014 A 
ATOM     39  C   UNL A   1      38.262  30.075  27.952  1.00  0.00     0.010 A 
ATOM     40  C   UNL A   1      36.912  29.007  29.628  1.00  0.00     0.010 A 
ATOM     41  C   UNL A   1      38.169  29.212  29.052  1.00  0.00    -0.014 A 
BRANCH  41  42
ATOM     42  C   UNL A   1      39.352  28.583  29.699  1.00  0.00     0.031 A 
ATOM     43  C   UNL A   1      40.018  29.206  30.901  1.00  0.00     0.074 A 
ATOM     44  C   UNL A   1      39.963  27.561  29.064  1.00  0.00     0.049 A 
ATOM     45  N   UNL A   1      41.112  28.841  31.523  1.00  0.00    -0.248 NA
ATOM     46  C   UNL A   1      39.403  30.426  31.444  1.00  0.00     0.031 C 
ATOM     47  C   UNL A   1      39.522  26.976  27.796  1.00  0.00     0.029 A 
ATOM     48  N   UNL A   1      41.114  26.877  29.363  1.00  0.00    -0.354 N 
ATOM     49  C   UNL A   1      41.343  29.809  32.498  1.00  0.00     0.074 A 
ATOM     50  C   UNL A   1      40.291  30.793  32.359  1.00  0.00     0.031 C 
ATOM     51  C   UNL A   1      40.402  26.037  27.417  1.00  0.00     0.029 A 
ATOM     52  C   UNL A   1      41.464  25.947  28.414  1.00  0.00     0.049 A 
ATOM     53  H   UNL A   1      41.638  27.038  30.180  1.00  0.00     0.167 HD
ATOM     54  C   UNL A   1      42.321  29.857  33.437  1.00  0.00     0.034 A 
ATOM     55  C   UNL A   1      42.510  25.100  28.358  1.00  0.00     0.034 A 
ATOM     56  C   UNL A   1      43.322  28.835  33.607  1.00  0.00     0.049 A 
ATOM     57  C   UNL A   1      43.479  25.057  29.507  1.00  0.00     0.074 A 
ATOM     58  C   UNL A   1      44.255  28.698  34.621  1.00  0.00     0.029 A 
ATOM     59  N   UNL A   1      43.521  27.771  32.741  1.00  0.00    -0.354 N 
ATOM     60  N   UNL A   1      43.540  25.835  30.560  1.00  0.00    -0.248 NA
ATOM     61  C   UNL A   1      44.476  23.978  29.498  1.00  0.00     0.031 C 
ATOM     62  C   UNL A   1      45.019  27.552  34.366  1.00  0.00     0.029 A 
ATOM     63  C   UNL A   1      44.551  26.967  33.201  1.00  0.00     0.049 A 
ATOM     64  H   UNL A   1      43.005  27.610  31.918  1.00  0.00     0.167 HD
ATOM     65  C   UNL A   1      44.549  25.313  31.361  1.00  0.00     0.074 A 
ATOM     66  C   UNL A   1      45.062  24.143  30.677  1.00  0.00     0.031 C 
ATOM     67  C   UNL A   1      45.013  25.769  32.551  1.00  0.00     0.034 A 
BRANCH  54  68
ATOM     68  C   UNL A   1      42.303  30.996  34.433  1.00  0.00     0.023 A 
ATOM     69  C   UNL A   1      41.590  30.841  35.640  1.00  0.00     0.012 A 
ATOM     70  C   UNL A   1      43.065  32.167  34.235  1.00  0.00     0.148 A 
ATOM     71  C   UNL A   1      41.601  31.839  36.613  1.00  0.00     0.002 A 
ATOM     72  C   UNL A   1      43.110  33.139  35.231  1.00  0.00     0.091 A 
ATOM     73  F   UNL A   1      43.733  32.310  33.081  1.00  0.00    -0.205 F 
ATOM     74  C   UNL A   1      42.370  32.981  36.415  1.00  0.00     0.022 A 
BRANCH  72  75
ATOM     75  S   UNL A   1      44.153  34.600  35.119  1.00  0.00     0.127 S 
ATOM     76  O   UNL A   1      44.294  34.973  36.528  1.00  0.00    -0.237 OA
ATOM     77  O   UNL A   1      45.373  34.065  34.510  1.00  0.00    -0.237 OA
ATOM     78  O   UNL A   1      43.430  35.548  34.288  1.00  0.00    -0.744 OA
ENDBRANCH  72  75
ENDBRANCH  54  68
BRANCH  55  79
ATOM     79  C   UNL A   1      42.593  24.120  27.241  1.00  0.00     0.023 A 
ATOM     80  C   UNL A   1      43.370  24.445  26.111  1.00  0.00     0.012 A 
ATOM     81  C   UNL A   1      41.985  22.854  27.318  1.00  0.00     0.148 A 
ATOM     82  C   UNL A   1      43.517  23.538  25.064  1.00  0.00     0.002 A 
ATOM     83  C   UNL A   1      42.177  21.934  26.291  1.00  0.00     0.091 A 
ATOM     84  F   UNL A   1      41.249  22.564  28.400  1.00  0.00    -0.205 F 
ATOM     85  C   UNL A   1      42.930  22.279  25.159  1.00  0.00     0.022 A 
BRANCH  83  86
ATOM     86  S   UNL A   1      41.574  20.243  26.390  1.00  0.00     0.127 S 
ATOM     87  O   UNL A   1      40.142  20.424  26.170  1.00  0.00    -0.237 OA
ATOM     88  O   UNL A   1      42.292  19.599  25.290  1.00  0.00    -0.237 OA
ATOM     89  O   UNL A   1      41.961  19.770  27.713  1.00  0.00    -0.744 OA
ENDBRANCH  83  86
ENDBRANCH  55  79
BRANCH  67  90
ATOM     90  C   UNL A   1      46.107  24.980  33.223  1.00  0.00     0.023 A 
ATOM     91  C   UNL A   1      47.448  25.389  33.090  1.00  0.00     0.012 A 
ATOM     92  C   UNL A   1      45.799  23.870  34.034  1.00  0.00     0.148 A 
ATOM     93  C   UNL A   1      48.470  24.683  33.724  1.00  0.00     0.002 A 
ATOM     94  C   UNL A   1      46.819  23.198  34.699  1.00  0.00     0.091 A 
ATOM     95  F   UNL A   1      44.519  23.482  34.133  1.00  0.00    -0.205 F 
ATOM     96  C   UNL A   1      48.156  23.597  34.537  1.00  0.00     0.022 A 
BRANCH  94  97
ATOM     97  S   UNL A   1      46.489  21.841  35.830  1.00  0.00     0.127 S 
ATOM     98  O   UNL A   1      45.565  22.461  36.778  1.00  0.00    -0.237 OA
ATOM     99  O   UNL A   1      45.880  20.840  34.952  1.00  0.00    -0.237 OA
ATOM    100  O   UNL A   1      47.784  21.454  36.373  1.00  0.00    -0.744 OA
ENDBRANCH  94  97
ENDBRANCH  67  90
ENDBRANCH  41  42
ENDBRANCH  33  36
ENDBRANCH  31  32
ENDBRANCH  30  31
ENDBRANCH   1  30
TORSDOF 17
ENDMDL
MODEL 3
REMARK VINA RESULT:     -12.6      1.996      2.284
REMARK SMILES CC1(C)S[C@H](c2ccc(-c3cccc([N+](=O)[O-])c3)o2)[NH2+][C@@H]1C(=O)NCCCCNC(=O)c1ccc(-c2c3nc(c(-c4cccc(S(=O)(=O)[O-])c4F)c4ccc([nH]4)c(-c4cccc(S(=O)(=O)[O-])c4F)c4nc(c(-c5cccc(S(=O)(=O)[O-])c5F)c5ccc2[nH]5)C=C4)C=C3)cc1
REMARK SMILES IDX 26 1 25 2 24 3 22 4 23 5 21 7 1 8 2 9 3 10 4 11 5 12 20 13
REMARK SMILES IDX 6 16 7 17 19 18 8 19 9 20 10 21 11 22 18 23 12 24 14 25
REMARK SMILES IDX 13 26 15 27 16 28 17 29 27 30 28 31 29 32 30 33 31 35 32 36
REMARK SMILES IDX 33 37 94 38 34 39 93 40 35 41 36 42 37 43 87 44 38 45 92 46
REMARK SMILES IDX 86 47 88 48 39 49 91 50 85 51 84 52 40 54 72 55 52 56 71 57
REMARK SMILES IDX 53 58 56 59 70 60 89 61 54 62 55 63 69 65 90 66 57 67 41 68
REMARK SMILES IDX 42 69 50 70 43 71 45 72 51 73 44 74 46 75 47 76 48 77 49 78
REMARK SMILES IDX 73 79 74 80 82 81 75 82 77 83 83 84 76 85 78 86 79 87 80 88
REMARK SMILES IDX 81 89 58 90 59 91 67 92 60 93 62 94 68 95 61 96 63 97 64 98
REMARK SMILES IDX 65 99 66 100
REMARK H PARENT 24 6 20 14 20 15 29 34 88 53 56 64
REMARK Flexibility Score: inf
ROOT
ATOM      1  C   UNL A   1      31.488  28.599  27.192  1.00  0.00     0.023 C 
ENDROOT
BRANCH   1   2
ATOM      2  C   UNL A   1      32.401  27.371  27.180  1.00  0.00     0.116 C 
BRANCH   2   3
ATOM      3  N   UNL A   1      31.755  26.162  26.700  1.00  0.00    -0.351 N 
ATOM      4  C   UNL A   1      32.107  25.358  25.642  1.00  0.00     0.279 C 
ATOM      5  O   UNL A   1      31.524  24.274  25.559  1.00  0.00    -0.268 OA
ATOM      6  H   UNL A   1      30.956  25.879  27.202  1.00  0.00     0.163 HD
BRANCH   4   7
ATOM      7  C   UNL A   1      33.065  25.897  24.543  1.00  0.00     0.289 C 
ATOM      8  C   UNL A   1      33.283  26.893  22.210  1.00  0.00     0.030 C 
ATOM      9  C   UNL A   1      32.665  25.750  23.045  1.00  0.00     0.078 C 
ATOM     10  C   UNL A   1      31.177  25.662  22.708  1.00  0.00     0.030 C 
ATOM     11  S   UNL A   1      33.481  24.215  22.495  1.00  0.00    -0.078 SA
ATOM     12  C   UNL A   1      34.570  24.122  23.927  1.00  0.00     0.311 C 
ATOM     13  N   UNL A   1      34.452  25.359  24.706  1.00  0.00    -0.317 N 
ATOM     14  H   UNL A   1      35.128  26.043  24.368  1.00  0.00     0.348 HD
ATOM     15  H   UNL A   1      34.638  25.168  25.691  1.00  0.00     0.348 HD
BRANCH  12  16
ATOM     16  C   UNL A   1      34.369  22.847  24.673  1.00  0.00     0.172 A 
ATOM     17  C   UNL A   1      34.428  22.588  26.030  1.00  0.00     0.054 A 
ATOM     18  O   UNL A   1      34.083  21.692  23.994  1.00  0.00    -0.454 OA
ATOM     19  C   UNL A   1      34.159  21.216  26.191  1.00  0.00     0.051 A 
ATOM     20  C   UNL A   1      33.950  20.707  24.927  1.00  0.00     0.134 A 
BRANCH  20  21
ATOM     21  C   UNL A   1      33.599  19.376  24.470  1.00  0.00     0.024 A 
ATOM     22  C   UNL A   1      32.718  19.156  23.402  1.00  0.00     0.012 A 
ATOM     23  C   UNL A   1      34.243  18.283  25.063  1.00  0.00     0.097 A 
ATOM     24  C   UNL A   1      32.529  17.864  22.895  1.00  0.00     0.008 A 
ATOM     25  C   UNL A   1      34.056  17.000  24.547  1.00  0.00     0.270 A 
ATOM     26  C   UNL A   1      33.218  16.783  23.448  1.00  0.00     0.085 A 
BRANCH  25  27
ATOM     27  N   UNL A   1      34.724  15.878  25.205  1.00  0.00     0.062 N 
ATOM     28  O   UNL A   1      35.881  16.050  25.600  1.00  0.00    -0.258 OA
ATOM     29  O   UNL A   1      34.094  14.811  25.288  1.00  0.00    -0.258 OA
ENDBRANCH  25  27
ENDBRANCH  20  21
ENDBRANCH  12  16
ENDBRANCH   4   7
ENDBRANCH   2   3
ENDBRANCH   1   2
BRANCH   1  30
ATOM     30  C   UNL A   1      32.084  29.912  26.676  1.00  0.00     0.023 C 
BRANCH  30  31
ATOM     31  C   UNL A   1      33.515  30.232  27.106  1.00  0.00     0.116 C 
BRANCH  31  32
ATOM     32  N   UNL A   1      33.649  31.532  27.750  1.00  0.00    -0.352 N 
ATOM     33  C   UNL A   1      34.599  32.044  28.609  1.00  0.00     0.251 C 
ATOM     34  H   UNL A   1      32.926  32.165  27.530  1.00  0.00     0.163 HD
ATOM     35  O   UNL A   1      34.396  33.155  29.099  1.00  0.00    -0.269 OA
BRANCH  33  36
ATOM     36  C   UNL A   1      35.846  31.311  28.973  1.00  0.00     0.039 A 
ATOM     37  C   UNL A   1      37.088  31.797  28.535  1.00  0.00     0.014 A 
ATOM     38  C   UNL A   1      35.821  30.119  29.691  1.00  0.00     0.014 A 
ATOM     39  C   UNL A   1      38.281  31.137  28.878  1.00  0.00     0.010 A 
ATOM     40  C   UNL A   1      37.007  29.499  30.089  1.00  0.00     0.010 A 
ATOM     41  C   UNL A   1      38.251  29.994  29.689  1.00  0.00    -0.014 A 
BRANCH  41  42
ATOM     42  C   UNL A   1      39.476  29.339  30.225  1.00  0.00     0.031 A 
ATOM     43  C   UNL A   1      40.255  29.943  31.367  1.00  0.00     0.074 A 
ATOM     44  C   UNL A   1      40.010  28.313  29.532  1.00  0.00     0.049 A 
ATOM     45  N   UNL A   1      41.394  29.555  31.888  1.00  0.00    -0.248 NA
ATOM     46  C   UNL A   1      39.712  31.169  31.969  1.00  0.00     0.031 C 
ATOM     47  C   UNL A   1      39.449  27.745  28.305  1.00  0.00     0.029 A 
ATOM     48  N   UNL A   1      41.171  27.607  29.725  1.00  0.00    -0.354 N 
ATOM     49  C   UNL A   1      41.727  30.512  32.844  1.00  0.00     0.074 A 
ATOM     50  C   UNL A   1      40.684  31.514  32.804  1.00  0.00     0.031 C 
ATOM     51  C   UNL A   1      40.275  26.793  27.844  1.00  0.00     0.029 A 
ATOM     52  C   UNL A   1      41.419  26.678  28.743  1.00  0.00     0.049 A 
ATOM     53  H   UNL A   1      41.768  27.753  30.493  1.00  0.00     0.167 HD
ATOM     54  C   UNL A   1      42.784  30.536  33.693  1.00  0.00     0.034 A 
ATOM     55  C   UNL A   1      42.442  25.814  28.590  1.00  0.00     0.034 A 
ATOM     56  C   UNL A   1      43.779  29.496  33.768  1.00  0.00     0.049 A 
ATOM     57  C   UNL A   1      43.507  25.746  29.649  1.00  0.00     0.074 A 
ATOM     58  C   UNL A   1      44.795  29.336  34.695  1.00  0.00     0.029 A 
ATOM     59  N   UNL A   1      43.881  28.435  32.882  1.00  0.00    -0.354 N 
ATOM     60  N   UNL A   1      43.674  26.515  30.696  1.00  0.00    -0.248 NA
ATOM     61  C   UNL A   1      44.480  24.650  29.545  1.00  0.00     0.031 C 
ATOM     62  C   UNL A   1      45.513  28.179  34.367  1.00  0.00     0.029 A 
ATOM     63  C   UNL A   1      44.934  27.611  33.244  1.00  0.00     0.049 A 
ATOM     64  H   UNL A   1      43.292  28.290  32.107  1.00  0.00     0.167 HD
ATOM     65  C   UNL A   1      44.741  25.970  31.402  1.00  0.00     0.074 A 
ATOM     66  C   UNL A   1      45.171  24.797  30.669  1.00  0.00     0.031 C 
ATOM     67  C   UNL A   1      45.315  26.410  32.549  1.00  0.00     0.034 A 
BRANCH  54  68
ATOM     68  C   UNL A   1      42.874  31.668  34.693  1.00  0.00     0.023 A 
ATOM     69  C   UNL A   1      43.519  32.866  34.318  1.00  0.00     0.012 A 
ATOM     70  C   UNL A   1      42.240  31.599  35.952  1.00  0.00     0.148 A 
ATOM     71  C   UNL A   1      43.567  33.956  35.185  1.00  0.00     0.002 A 
ATOM     72  C   UNL A   1      42.250  32.709  36.793  1.00  0.00     0.091 A 
ATOM     73  F   UNL A   1      41.636  30.454  36.304  1.00  0.00    -0.205 F 
ATOM     74  C   UNL A   1      42.923  33.882  36.416  1.00  0.00     0.022 A 
BRANCH  72  75
ATOM     75  S   UNL A   1      41.362  32.753  38.357  1.00  0.00     0.127 S 
ATOM     76  O   UNL A   1      41.483  34.164  38.727  1.00  0.00    -0.237 OA
ATOM     77  O   UNL A   1      40.012  32.345  37.959  1.00  0.00    -0.237 OA
ATOM     78  O   UNL A   1      42.043  31.814  39.233  1.00  0.00    -0.744 OA
ENDBRANCH  72  75
ENDBRANCH  54  68
BRANCH  55  79
ATOM     79  C   UNL A   1      42.409  24.840  27.464  1.00  0.00     0.023 A 
ATOM     80  C   UNL A   1      43.251  25.058  26.356  1.00  0.00     0.012 A 
ATOM     81  C   UNL A   1      41.622  23.675  27.514  1.00  0.00     0.148 A 
ATOM     82  C   UNL A   1      43.291  24.147  25.303  1.00  0.00     0.002 A 
ATOM     83  C   UNL A   1      41.703  22.745  26.481  1.00  0.00     0.091 A 
ATOM     84  F   UNL A   1      40.826  23.488  28.575  1.00  0.00    -0.205 F 
ATOM     85  C   UNL A   1      42.525  22.987  25.370  1.00  0.00     0.022 A 
BRANCH  83  86
ATOM     86  S   UNL A   1      40.860  21.159  26.548  1.00  0.00     0.127 S 
ATOM     87  O   UNL A   1      40.853  20.885  27.982  1.00  0.00    -0.237 OA
ATOM     88  O   UNL A   1      39.552  21.485  25.976  1.00  0.00    -0.237 OA
ATOM     89  O   UNL A   1      41.661  20.259  25.731  1.00  0.00    -0.744 OA
ENDBRANCH  83  86
ENDBRANCH  55  79
BRANCH  67  90
ATOM     90  C   UNL A   1      46.450  25.598  33.117  1.00  0.00     0.023 A 
ATOM     91  C   UNL A   1      46.189  24.610  34.087  1.00  0.00     0.012 A 
ATOM     92  C   UNL A   1      47.767  25.773  32.646  1.00  0.00     0.148 A 
ATOM     93  C   UNL A   1      47.225  23.834  34.606  1.00  0.00     0.002 A 
ATOM     94  C   UNL A   1      48.788  24.966  33.136  1.00  0.00     0.091 A 
ATOM     95  F   UNL A   1      48.002  26.733  31.739  1.00  0.00    -0.205 F 
ATOM     96  C   UNL A   1      48.521  24.004  34.123  1.00  0.00     0.022 A 
BRANCH  94  97
ATOM     97  S   UNL A   1      50.468  25.064  32.506  1.00  0.00     0.127 S 
ATOM     98  O   UNL A   1      50.846  26.427  32.875  1.00  0.00    -0.237 OA
ATOM     99  O   UNL A   1      51.152  24.016  33.267  1.00  0.00    -0.237 OA
ATOM    100  O   UNL A   1      50.371  24.800  31.077  1.00  0.00    -0.744 OA
ENDBRANCH  94  97
ENDBRANCH  67  90
ENDBRANCH  41  42
ENDBRANCH  33  36
ENDBRANCH  31  32
ENDBRANCH  30  31
ENDBRANCH   1  30
TORSDOF 17
ENDMDL
