MODEL 1
REMARK VINA RESULT:     -11.2      0.000      0.000
REMARK SMILES O=C(CCC(=O)Nc1ncc([N+](=O)[O-])s1)NCCCCNC(=O)c1ccc(-c2c3nc(c(-c4cccc(S(=O)(=O)[O-])c4F)c4ccc([nH]4)c(-c4cccc(S(=O)(=O)[O-])c4F)c4nc(c(-c5cccc(S(=O)(=O)[O-])c5F)c5ccc2[nH]5)C=C4)C=C3)cc1
REMARK SMILES IDX 18 1 17 2 16 3 1 4 2 5 3 7 4 8 5 9 6 10 7 11 8 13 9 14 15 15
REMARK SMILES IDX 10 16 11 17 12 18 13 19 14 20 19 21 20 22 21 23 22 24 23 26
REMARK SMILES IDX 24 27 25 28 86 29 26 30 85 31 27 32 28 33 29 34 79 35 30 36
REMARK SMILES IDX 84 37 78 38 80 39 31 40 83 41 77 42 76 43 32 45 64 46 44 47
REMARK SMILES IDX 63 48 45 49 48 50 62 51 81 52 46 53 47 54 61 56 82 57 49 58
REMARK SMILES IDX 33 59 34 60 42 61 35 62 37 63 43 64 36 65 38 66 39 67 40 68
REMARK SMILES IDX 41 69 65 70 66 71 74 72 67 73 69 74 75 75 68 76 70 77 71 78
REMARK SMILES IDX 72 79 73 80 50 81 51 82 59 83 52 84 54 85 60 86 53 87 55 88
REMARK SMILES IDX 56 89 57 90 58 91
REMARK H PARENT 16 6 7 12 21 25 80 44 48 55
REMARK Flexibility Score: inf
ROOT
ATOM      1  C   UNL A   1      36.264  20.981  24.772  1.00  0.00     0.023 C 
ENDROOT
BRANCH   1   2
ATOM      2  C   UNL A   1      34.924  20.498  25.316  1.00  0.00     0.116 C 
BRANCH   2   3
ATOM      3  N   UNL A   1      33.834  21.432  25.121  1.00  0.00    -0.356 N 
ATOM      4  O   UNL A   1      32.158  19.861  25.193  1.00  0.00    -0.275 OA
ATOM      5  C   UNL A   1      32.513  21.035  25.159  1.00  0.00     0.220 C 
ATOM      6  H   UNL A   1      34.042  22.380  24.956  1.00  0.00     0.163 HD
BRANCH   5   7
ATOM      7  C   UNL A   1      31.522  22.183  25.183  1.00  0.00     0.110 C 
BRANCH   7   8
ATOM      8  C   UNL A   1      31.618  23.058  26.431  1.00  0.00     0.110 C 
BRANCH   8   9
ATOM      9  C   UNL A   1      30.278  23.597  26.894  1.00  0.00     0.226 C 
ATOM     10  O   UNL A   1      29.560  22.904  27.624  1.00  0.00    -0.275 OA
ATOM     11  N   UNL A   1      29.786  24.801  26.492  1.00  0.00    -0.302 N 
ATOM     12  H   UNL A   1      29.022  25.162  26.996  1.00  0.00     0.172 HD
BRANCH  11  13
ATOM     13  C   UNL A   1      30.256  25.550  25.456  1.00  0.00     0.195 A 
ATOM     14  N   UNL A   1      30.041  25.397  24.178  1.00  0.00    -0.221 NA
ATOM     15  S   UNL A   1      31.088  26.972  25.919  1.00  0.00    -0.024 S 
ATOM     16  C   UNL A   1      30.359  26.568  23.517  1.00  0.00     0.212 A 
ATOM     17  C   UNL A   1      30.909  27.536  24.321  1.00  0.00     0.345 A 
BRANCH  17  18
ATOM     18  N   UNL A   1      31.244  28.871  23.947  1.00  0.00     0.076 N 
ATOM     19  O   UNL A   1      31.282  29.146  22.742  1.00  0.00    -0.257 OA
ATOM     20  O   UNL A   1      31.479  29.658  24.873  1.00  0.00    -0.257 OA
ENDBRANCH  17  18
ENDBRANCH  11  13
ENDBRANCH   8   9
ENDBRANCH   7   8
ENDBRANCH   5   7
ENDBRANCH   2   3
ENDBRANCH   1   2
BRANCH   1  21
ATOM     21  C   UNL A   1      37.419  19.982  24.877  1.00  0.00     0.023 C 
BRANCH  21  22
ATOM     22  C   UNL A   1      38.662  20.480  25.608  1.00  0.00     0.116 C 
BRANCH  22  23
ATOM     23  N   UNL A   1      39.646  19.432  25.836  1.00  0.00    -0.352 N 
ATOM     24  C   UNL A   1      40.986  19.529  26.140  1.00  0.00     0.251 C 
ATOM     25  H   UNL A   1      39.301  18.512  25.759  1.00  0.00     0.163 HD
ATOM     26  O   UNL A   1      41.685  18.522  26.124  1.00  0.00    -0.269 OA
BRANCH  24  27
ATOM     27  C   UNL A   1      41.594  20.843  26.460  1.00  0.00     0.039 A 
ATOM     28  C   UNL A   1      42.004  21.672  25.411  1.00  0.00     0.014 A 
ATOM     29  C   UNL A   1      41.771  21.258  27.781  1.00  0.00     0.014 A 
ATOM     30  C   UNL A   1      42.513  22.944  25.686  1.00  0.00     0.010 A 
ATOM     31  C   UNL A   1      42.202  22.558  28.051  1.00  0.00     0.010 A 
ATOM     32  C   UNL A   1      42.577  23.417  27.007  1.00  0.00    -0.014 A 
BRANCH  32  33
ATOM     33  C   UNL A   1      43.001  24.812  27.312  1.00  0.00     0.031 A 
ATOM     34  C   UNL A   1      42.046  25.782  27.956  1.00  0.00     0.074 A 
ATOM     35  C   UNL A   1      44.223  25.237  26.926  1.00  0.00     0.049 A 
ATOM     36  N   UNL A   1      42.224  27.047  28.243  1.00  0.00    -0.248 NA
ATOM     37  C   UNL A   1      40.708  25.275  28.301  1.00  0.00     0.031 C 
ATOM     38  C   UNL A   1      45.219  24.422  26.227  1.00  0.00     0.029 A 
ATOM     39  N   UNL A   1      44.826  26.465  27.044  1.00  0.00    -0.354 N 
ATOM     40  C   UNL A   1      41.015  27.495  28.763  1.00  0.00     0.074 A 
ATOM     41  C   UNL A   1      40.102  26.373  28.726  1.00  0.00     0.031 C 
ATOM     42  C   UNL A   1      46.308  25.168  25.986  1.00  0.00     0.029 A 
ATOM     43  C   UNL A   1      46.079  26.522  26.477  1.00  0.00     0.049 A 
ATOM     44  H   UNL A   1      44.402  27.232  27.492  1.00  0.00     0.167 HD
ATOM     45  C   UNL A   1      40.699  28.719  29.251  1.00  0.00     0.034 A 
ATOM     46  C   UNL A   1      46.942  27.550  26.354  1.00  0.00     0.034 A 
ATOM     47  C   UNL A   1      41.618  29.823  29.322  1.00  0.00     0.049 A 
ATOM     48  C   UNL A   1      46.574  28.893  26.926  1.00  0.00     0.074 A 
ATOM     49  C   UNL A   1      41.419  31.071  29.885  1.00  0.00     0.029 A 
ATOM     50  N   UNL A   1      42.903  29.821  28.802  1.00  0.00    -0.354 N 
ATOM     51  N   UNL A   1      45.484  29.249  27.560  1.00  0.00    -0.248 NA
ATOM     52  C   UNL A   1      47.571  29.966  26.796  1.00  0.00     0.031 C 
ATOM     53  C   UNL A   1      42.569  31.837  29.671  1.00  0.00     0.029 A 
ATOM     54  C   UNL A   1      43.501  31.052  29.014  1.00  0.00     0.049 A 
ATOM     55  H   UNL A   1      43.328  29.057  28.349  1.00  0.00     0.167 HD
ATOM     56  C   UNL A   1      45.679  30.573  27.939  1.00  0.00     0.074 A 
ATOM     57  C   UNL A   1      47.000  30.948  27.481  1.00  0.00     0.031 C 
ATOM     58  C   UNL A   1      44.836  31.404  28.599  1.00  0.00     0.034 A 
BRANCH  45  59
ATOM     59  C   UNL A   1      39.303  28.924  29.784  1.00  0.00     0.023 A 
ATOM     60  C   UNL A   1      38.977  28.482  31.083  1.00  0.00     0.012 A 
ATOM     61  C   UNL A   1      38.335  29.613  29.026  1.00  0.00     0.148 A 
ATOM     62  C   UNL A   1      37.700  28.688  31.604  1.00  0.00     0.002 A 
ATOM     63  C   UNL A   1      37.080  29.857  29.573  1.00  0.00     0.091 A 
ATOM     64  F   UNL A   1      38.656  30.011  27.787  1.00  0.00    -0.205 F 
ATOM     65  C   UNL A   1      36.757  29.384  30.855  1.00  0.00     0.022 A 
BRANCH  63  66
ATOM     66  S   UNL A   1      35.822  30.815  28.720  1.00  0.00     0.127 S 
ATOM     67  O   UNL A   1      35.025  29.762  28.091  1.00  0.00    -0.237 OA
ATOM     68  O   UNL A   1      35.157  31.502  29.829  1.00  0.00    -0.237 OA
ATOM     69  O   UNL A   1      36.535  31.691  27.802  1.00  0.00    -0.744 OA
ENDBRANCH  63  66
ENDBRANCH  45  59
BRANCH  46  70
ATOM     70  C   UNL A   1      48.270  27.338  25.709  1.00  0.00     0.023 A 
ATOM     71  C   UNL A   1      49.371  26.956  26.500  1.00  0.00     0.012 A 
ATOM     72  C   UNL A   1      48.445  27.499  24.321  1.00  0.00     0.148 A 
ATOM     73  C   UNL A   1      50.631  26.774  25.928  1.00  0.00     0.002 A 
ATOM     74  C   UNL A   1      49.689  27.259  23.749  1.00  0.00     0.091 A 
ATOM     75  F   UNL A   1      47.388  27.872  23.586  1.00  0.00    -0.205 F 
ATOM     76  C   UNL A   1      50.788  26.915  24.552  1.00  0.00     0.022 A 
BRANCH  74  77
ATOM     77  S   UNL A   1      49.957  27.292  21.972  1.00  0.00     0.127 S 
ATOM     78  O   UNL A   1      48.978  26.314  21.504  1.00  0.00    -0.237 OA
ATOM     79  O   UNL A   1      49.644  28.683  21.648  1.00  0.00    -0.237 OA
ATOM     80  O   UNL A   1      51.355  26.930  21.778  1.00  0.00    -0.744 OA
ENDBRANCH  74  77
ENDBRANCH  46  70
BRANCH  58  81
ATOM     81  C   UNL A   1      45.323  32.795  28.913  1.00  0.00     0.023 A 
ATOM     82  C   UNL A   1      46.030  33.046  30.105  1.00  0.00     0.012 A 
ATOM     83  C   UNL A   1      45.138  33.842  27.986  1.00  0.00     0.148 A 
ATOM     84  C   UNL A   1      46.515  34.323  30.387  1.00  0.00     0.002 A 
ATOM     85  C   UNL A   1      45.670  35.098  28.249  1.00  0.00     0.091 A 
ATOM     86  F   UNL A   1      44.447  33.589  26.865  1.00  0.00    -0.205 F 
ATOM     87  C   UNL A   1      46.346  35.345  29.455  1.00  0.00     0.022 A 
BRANCH  85  88
ATOM     88  S   UNL A   1      45.589  36.447  27.065  1.00  0.00     0.127 S 
ATOM     89  O   UNL A   1      46.395  37.473  27.725  1.00  0.00    -0.237 OA
ATOM     90  O   UNL A   1      46.209  35.854  25.879  1.00  0.00    -0.237 OA
ATOM     91  O   UNL A   1      44.176  36.765  26.914  1.00  0.00    -0.744 OA
ENDBRANCH  85  88
ENDBRANCH  58  81
ENDBRANCH  32  33
ENDBRANCH  24  27
ENDBRANCH  22  23
ENDBRANCH  21  22
ENDBRANCH   1  21
TORSDOF 18
ENDMDL
MODEL 2
REMARK VINA RESULT:     -10.9      2.630      8.558
REMARK SMILES O=C(CCC(=O)Nc1ncc([N+](=O)[O-])s1)NCCCCNC(=O)c1ccc(-c2c3nc(c(-c4cccc(S(=O)(=O)[O-])c4F)c4ccc([nH]4)c(-c4cccc(S(=O)(=O)[O-])c4F)c4nc(c(-c5cccc(S(=O)(=O)[O-])c5F)c5ccc2[nH]5)C=C4)C=C3)cc1
REMARK SMILES IDX 18 1 17 2 16 3 1 4 2 5 3 7 4 8 5 9 6 10 7 11 8 13 9 14 15 15
REMARK SMILES IDX 10 16 11 17 12 18 13 19 14 20 19 21 20 22 21 23 22 24 23 26
REMARK SMILES IDX 24 27 25 28 86 29 26 30 85 31 27 32 28 33 29 34 79 35 30 36
REMARK SMILES IDX 84 37 78 38 80 39 31 40 83 41 77 42 76 43 32 45 64 46 44 47
REMARK SMILES IDX 63 48 45 49 48 50 62 51 81 52 46 53 47 54 61 56 82 57 49 58
REMARK SMILES IDX 33 59 34 60 42 61 35 62 37 63 43 64 36 65 38 66 39 67 40 68
REMARK SMILES IDX 41 69 65 70 66 71 74 72 67 73 69 74 75 75 68 76 70 77 71 78
REMARK SMILES IDX 72 79 73 80 50 81 51 82 59 83 52 84 54 85 60 86 53 87 55 88
REMARK SMILES IDX 56 89 57 90 58 91
REMARK H PARENT 16 6 7 12 21 25 80 44 48 55
REMARK Flexibility Score: inf
ROOT
ATOM      1  C   UNL A   1      35.471  22.577  23.174  1.00  0.00     0.023 C 
ENDROOT
BRANCH   1   2
ATOM      2  C   UNL A   1      34.713  23.899  23.138  1.00  0.00     0.116 C 
BRANCH   2   3
ATOM      3  N   UNL A   1      33.481  23.897  23.901  1.00  0.00    -0.356 N 
ATOM      4  O   UNL A   1      32.491  22.172  22.748  1.00  0.00    -0.275 OA
ATOM      5  C   UNL A   1      32.490  22.961  23.688  1.00  0.00     0.220 C 
ATOM      6  H   UNL A   1      33.347  24.585  24.592  1.00  0.00     0.163 HD
BRANCH   5   7
ATOM      7  C   UNL A   1      31.398  22.966  24.740  1.00  0.00     0.110 C 
BRANCH   7   8
ATOM      8  C   UNL A   1      31.516  21.837  25.762  1.00  0.00     0.110 C 
BRANCH   8   9
ATOM      9  C   UNL A   1      32.877  21.767  26.428  1.00  0.00     0.226 C 
ATOM     10  O   UNL A   1      33.410  22.803  26.839  1.00  0.00    -0.275 OA
ATOM     11  N   UNL A   1      33.582  20.609  26.547  1.00  0.00    -0.302 N 
ATOM     12  H   UNL A   1      34.346  20.612  27.169  1.00  0.00     0.172 HD
BRANCH  11  13
ATOM     13  C   UNL A   1      33.329  19.447  25.884  1.00  0.00     0.195 A 
ATOM     14  N   UNL A   1      32.380  18.577  26.098  1.00  0.00    -0.221 NA
ATOM     15  S   UNL A   1      34.280  19.199  24.482  1.00  0.00    -0.024 S 
ATOM     16  C   UNL A   1      32.237  17.771  24.985  1.00  0.00     0.212 A 
ATOM     17  C   UNL A   1      33.168  17.999  24.002  1.00  0.00     0.345 A 
BRANCH  17  18
ATOM     18  N   UNL A   1      33.214  17.397  22.710  1.00  0.00     0.076 N 
ATOM     19  O   UNL A   1      32.354  17.725  21.884  1.00  0.00    -0.257 OA
ATOM     20  O   UNL A   1      34.122  16.578  22.518  1.00  0.00    -0.257 OA
ENDBRANCH  17  18
ENDBRANCH  11  13
ENDBRANCH   8   9
ENDBRANCH   7   8
ENDBRANCH   5   7
ENDBRANCH   2   3
ENDBRANCH   1   2
BRANCH   1  21
ATOM     21  C   UNL A   1      36.770  22.581  23.984  1.00  0.00     0.023 C 
BRANCH  21  22
ATOM     22  C   UNL A   1      36.686  21.959  25.375  1.00  0.00     0.116 C 
BRANCH  22  23
ATOM     23  N   UNL A   1      37.712  20.954  25.612  1.00  0.00    -0.352 N 
ATOM     24  C   UNL A   1      39.011  21.104  26.042  1.00  0.00     0.251 C 
ATOM     25  H   UNL A   1      37.434  20.026  25.436  1.00  0.00     0.163 HD
ATOM     26  O   UNL A   1      39.773  20.143  26.015  1.00  0.00    -0.269 OA
BRANCH  24  27
ATOM     27  C   UNL A   1      39.505  22.421  26.513  1.00  0.00     0.039 A 
ATOM     28  C   UNL A   1      40.513  22.458  27.481  1.00  0.00     0.014 A 
ATOM     29  C   UNL A   1      38.976  23.614  26.016  1.00  0.00     0.014 A 
ATOM     30  C   UNL A   1      41.045  23.686  27.887  1.00  0.00     0.010 A 
ATOM     31  C   UNL A   1      39.562  24.832  26.361  1.00  0.00     0.010 A 
ATOM     32  C   UNL A   1      40.605  24.883  27.299  1.00  0.00    -0.014 A 
BRANCH  32  33
ATOM     33  C   UNL A   1      41.242  26.188  27.628  1.00  0.00     0.031 A 
ATOM     34  C   UNL A   1      42.662  26.476  27.218  1.00  0.00     0.074 A 
ATOM     35  C   UNL A   1      40.571  27.087  28.380  1.00  0.00     0.049 A 
ATOM     36  N   UNL A   1      43.395  27.531  27.466  1.00  0.00    -0.248 NA
ATOM     37  C   UNL A   1      43.360  25.432  26.449  1.00  0.00     0.031 C 
ATOM     38  C   UNL A   1      39.216  26.905  28.907  1.00  0.00     0.029 A 
ATOM     39  N   UNL A   1      40.945  28.321  28.851  1.00  0.00    -0.354 N 
ATOM     40  C   UNL A   1      44.646  27.266  26.921  1.00  0.00     0.074 A 
ATOM     41  C   UNL A   1      44.582  25.936  26.354  1.00  0.00     0.031 C 
ATOM     42  C   UNL A   1      38.872  27.988  29.620  1.00  0.00     0.029 A 
ATOM     43  C   UNL A   1      39.989  28.926  29.635  1.00  0.00     0.049 A 
ATOM     44  H   UNL A   1      41.815  28.735  28.648  1.00  0.00     0.167 HD
ATOM     45  C   UNL A   1      45.741  28.061  26.874  1.00  0.00     0.034 A 
ATOM     46  C   UNL A   1      40.011  30.097  30.302  1.00  0.00     0.034 A 
ATOM     47  C   UNL A   1      45.793  29.398  27.405  1.00  0.00     0.049 A 
ATOM     48  C   UNL A   1      41.232  30.973  30.213  1.00  0.00     0.074 A 
ATOM     49  C   UNL A   1      46.826  30.315  27.322  1.00  0.00     0.029 A 
ATOM     50  N   UNL A   1      44.780  30.003  28.131  1.00  0.00    -0.354 N 
ATOM     51  N   UNL A   1      42.347  30.769  29.555  1.00  0.00    -0.248 NA
ATOM     52  C   UNL A   1      41.184  32.256  30.930  1.00  0.00     0.031 C 
ATOM     53  C   UNL A   1      46.452  31.461  28.030  1.00  0.00     0.029 A 
ATOM     54  C   UNL A   1      45.170  31.275  28.518  1.00  0.00     0.049 A 
ATOM     55  H   UNL A   1      43.910  29.590  28.340  1.00  0.00     0.167 HD
ATOM     56  C   UNL A   1      43.116  31.912  29.745  1.00  0.00     0.074 A 
ATOM     57  C   UNL A   1      42.331  32.812  30.563  1.00  0.00     0.031 C 
ATOM     58  C   UNL A   1      44.363  32.186  29.290  1.00  0.00     0.034 A 
BRANCH  45  59
ATOM     59  C   UNL A   1      46.973  27.523  26.190  1.00  0.00     0.023 A 
ATOM     60  C   UNL A   1      47.187  27.788  24.822  1.00  0.00     0.012 A 
ATOM     61  C   UNL A   1      47.950  26.813  26.917  1.00  0.00     0.148 A 
ATOM     62  C   UNL A   1      48.333  27.323  24.179  1.00  0.00     0.002 A 
ATOM     63  C   UNL A   1      49.113  26.395  26.280  1.00  0.00     0.091 A 
ATOM     64  F   UNL A   1      47.722  26.555  28.213  1.00  0.00    -0.205 F 
ATOM     65  C   UNL A   1      49.299  26.637  24.909  1.00  0.00     0.022 A 
BRANCH  63  66
ATOM     66  S   UNL A   1      50.454  25.576  27.150  1.00  0.00     0.127 S 
ATOM     67  O   UNL A   1      51.413  25.351  26.068  1.00  0.00    -0.237 OA
ATOM     68  O   UNL A   1      50.857  26.595  28.120  1.00  0.00    -0.237 OA
ATOM     69  O   UNL A   1      49.880  24.372  27.734  1.00  0.00    -0.744 OA
ENDBRANCH  63  66
ENDBRANCH  45  59
BRANCH  46  70
ATOM     70  C   UNL A   1      38.813  30.543  31.072  1.00  0.00     0.023 A 
ATOM     71  C   UNL A   1      38.758  30.314  32.460  1.00  0.00     0.012 A 
ATOM     72  C   UNL A   1      37.740  31.202  30.441  1.00  0.00     0.148 A 
ATOM     73  C   UNL A   1      37.639  30.699  33.202  1.00  0.00     0.002 A 
ATOM     74  C   UNL A   1      36.655  31.634  31.195  1.00  0.00     0.091 A 
ATOM     75  F   UNL A   1      37.807  31.402  29.117  1.00  0.00    -0.205 F 
ATOM     76  C   UNL A   1      36.593  31.367  32.572  1.00  0.00     0.022 A 
BRANCH  74  77
ATOM     77  S   UNL A   1      35.322  32.615  30.494  1.00  0.00     0.127 S 
ATOM     78  O   UNL A   1      34.859  31.757  29.408  1.00  0.00    -0.237 OA
ATOM     79  O   UNL A   1      34.404  32.726  31.628  1.00  0.00    -0.237 OA
ATOM     80  O   UNL A   1      35.932  33.875  30.089  1.00  0.00    -0.744 OA
ENDBRANCH  74  77
ENDBRANCH  46  70
BRANCH  58  81
ATOM     81  C   UNL A   1      44.952  33.533  29.622  1.00  0.00     0.023 A 
ATOM     82  C   UNL A   1      45.694  33.710  30.806  1.00  0.00     0.012 A 
ATOM     83  C   UNL A   1      44.827  34.609  28.719  1.00  0.00     0.148 A 
ATOM     84  C   UNL A   1      46.272  34.943  31.105  1.00  0.00     0.002 A 
ATOM     85  C   UNL A   1      45.451  35.819  28.996  1.00  0.00     0.091 A 
ATOM     86  F   UNL A   1      44.102  34.428  27.605  1.00  0.00    -0.205 F 
ATOM     87  C   UNL A   1      46.161  35.993  30.196  1.00  0.00     0.022 A 
BRANCH  85  88
ATOM     88  S   UNL A   1      45.447  37.194  27.840  1.00  0.00     0.127 S 
ATOM     89  O   UNL A   1      46.099  36.604  26.672  1.00  0.00    -0.237 OA
ATOM     90  O   UNL A   1      44.016  37.453  27.674  1.00  0.00    -0.237 OA
ATOM     91  O   UNL A   1      46.184  38.268  28.490  1.00  0.00    -0.744 OA
ENDBRANCH  85  88
ENDBRANCH  58  81
ENDBRANCH  32  33
ENDBRANCH  24  27
ENDBRANCH  22  23
ENDBRANCH  21  22
ENDBRANCH   1  21
TORSDOF 18
ENDMDL
MODEL 3
REMARK VINA RESULT:     -10.9      6.251     11.303
REMARK SMILES O=C(CCC(=O)Nc1ncc([N+](=O)[O-])s1)NCCCCNC(=O)c1ccc(-c2c3nc(c(-c4cccc(S(=O)(=O)[O-])c4F)c4ccc([nH]4)c(-c4cccc(S(=O)(=O)[O-])c4F)c4nc(c(-c5cccc(S(=O)(=O)[O-])c5F)c5ccc2[nH]5)C=C4)C=C3)cc1
REMARK SMILES IDX 18 1 17 2 16 3 1 4 2 5 3 7 4 8 5 9 6 10 7 11 8 13 9 14 15 15
REMARK SMILES IDX 10 16 11 17 12 18 13 19 14 20 19 21 20 22 21 23 22 24 23 26
REMARK SMILES IDX 24 27 25 28 86 29 26 30 85 31 27 32 28 33 29 34 79 35 30 36
REMARK SMILES IDX 84 37 78 38 80 39 31 40 83 41 77 42 76 43 32 45 64 46 44 47
REMARK SMILES IDX 63 48 45 49 48 50 62 51 81 52 46 53 47 54 61 56 82 57 49 58
REMARK SMILES IDX 33 59 34 60 42 61 35 62 37 63 43 64 36 65 38 66 39 67 40 68
REMARK SMILES IDX 41 69 65 70 66 71 74 72 67 73 69 74 75 75 68 76 70 77 71 78
REMARK SMILES IDX 72 79 73 80 50 81 51 82 59 83 52 84 54 85 60 86 53 87 55 88
REMARK SMILES IDX 56 89 57 90 58 91
REMARK H PARENT 16 6 7 12 21 25 80 44 48 55
REMARK Flexibility Score: inf
ROOT
ATOM      1  C   UNL A   1      32.401  29.708  27.334  1.00  0.00     0.023 C 
ENDROOT
BRANCH   1   2
ATOM      2  C   UNL A   1      31.419  28.561  27.127  1.00  0.00     0.116 C 
BRANCH   2   3
ATOM      3  N   UNL A   1      31.796  27.641  26.073  1.00  0.00    -0.356 N 
ATOM      4  O   UNL A   1      30.286  26.002  26.635  1.00  0.00    -0.275 OA
ATOM      5  C   UNL A   1      31.128  26.453  25.864  1.00  0.00     0.220 C 
ATOM      6  H   UNL A   1      32.554  27.872  25.487  1.00  0.00     0.163 HD
BRANCH   5   7
ATOM      7  C   UNL A   1      31.502  25.751  24.573  1.00  0.00     0.110 C 
BRANCH   7   8
ATOM      8  C   UNL A   1      30.614  26.119  23.387  1.00  0.00     0.110 C 
BRANCH   8   9
ATOM      9  C   UNL A   1      31.344  26.891  22.304  1.00  0.00     0.226 C 
ATOM     10  O   UNL A   1      32.280  26.357  21.699  1.00  0.00    -0.275 OA
ATOM     11  N   UNL A   1      31.057  28.185  21.997  1.00  0.00    -0.302 N 
ATOM     12  H   UNL A   1      31.425  28.538  21.154  1.00  0.00     0.172 HD
BRANCH  11  13
ATOM     13  C   UNL A   1      30.307  29.037  22.750  1.00  0.00     0.195 A 
ATOM     14  N   UNL A   1      30.625  29.631  23.868  1.00  0.00    -0.221 NA
ATOM     15  S   UNL A   1      28.829  29.517  22.033  1.00  0.00    -0.024 S 
ATOM     16  C   UNL A   1      29.764  30.689  24.086  1.00  0.00     0.212 A 
ATOM     17  C   UNL A   1      28.751  30.789  23.165  1.00  0.00     0.345 A 
BRANCH  17  18
ATOM     18  N   UNL A   1      27.777  31.826  23.072  1.00  0.00     0.076 N 
ATOM     19  O   UNL A   1      26.830  31.809  23.868  1.00  0.00    -0.257 OA
ATOM     20  O   UNL A   1      27.957  32.671  22.185  1.00  0.00    -0.257 OA
ENDBRANCH  17  18
ENDBRANCH  11  13
ENDBRANCH   8   9
ENDBRANCH   7   8
ENDBRANCH   5   7
ENDBRANCH   2   3
ENDBRANCH   1   2
BRANCH   1  21
ATOM     21  C   UNL A   1      31.878  31.100  26.972  1.00  0.00     0.023 C 
BRANCH  21  22
ATOM     22  C   UNL A   1      32.942  32.152  26.671  1.00  0.00     0.116 C 
BRANCH  22  23
ATOM     23  N   UNL A   1      32.593  33.474  27.168  1.00  0.00    -0.352 N 
ATOM     24  C   UNL A   1      33.092  34.173  28.245  1.00  0.00     0.251 C 
ATOM     25  H   UNL A   1      31.891  33.939  26.658  1.00  0.00     0.163 HD
ATOM     26  O   UNL A   1      32.542  35.209  28.602  1.00  0.00    -0.269 OA
BRANCH  24  27
ATOM     27  C   UNL A   1      34.272  33.671  28.990  1.00  0.00     0.039 A 
ATOM     28  C   UNL A   1      34.084  32.699  29.978  1.00  0.00     0.014 A 
ATOM     29  C   UNL A   1      35.555  34.156  28.730  1.00  0.00     0.014 A 
ATOM     30  C   UNL A   1      35.189  32.159  30.642  1.00  0.00     0.010 A 
ATOM     31  C   UNL A   1      36.661  33.559  29.335  1.00  0.00     0.010 A 
ATOM     32  C   UNL A   1      36.492  32.552  30.297  1.00  0.00    -0.014 A 
BRANCH  32  33
ATOM     33  C   UNL A   1      37.685  31.901  30.907  1.00  0.00     0.031 A 
ATOM     34  C   UNL A   1      38.452  30.845  30.156  1.00  0.00     0.074 A 
ATOM     35  C   UNL A   1      38.029  32.196  32.178  1.00  0.00     0.049 A 
ATOM     36  N   UNL A   1      39.478  30.134  30.549  1.00  0.00    -0.248 NA
ATOM     37  C   UNL A   1      37.993  30.526  28.794  1.00  0.00     0.031 C 
ATOM     38  C   UNL A   1      37.327  33.146  33.045  1.00  0.00     0.029 A 
ATOM     39  N   UNL A   1      39.039  31.710  32.972  1.00  0.00    -0.354 N 
ATOM     40  C   UNL A   1      39.763  29.261  29.505  1.00  0.00     0.074 A 
ATOM     41  C   UNL A   1      38.782  29.511  28.471  1.00  0.00     0.031 C 
ATOM     42  C   UNL A   1      37.931  33.179  34.243  1.00  0.00     0.029 A 
ATOM     43  C   UNL A   1      39.038  32.229  34.247  1.00  0.00     0.049 A 
ATOM     44  H   UNL A   1      39.701  31.053  32.658  1.00  0.00     0.167 HD
ATOM     45  C   UNL A   1      40.761  28.352  29.403  1.00  0.00     0.034 A 
ATOM     46  C   UNL A   1      39.828  31.962  35.305  1.00  0.00     0.034 A 
ATOM     47  C   UNL A   1      41.759  28.129  30.416  1.00  0.00     0.049 A 
ATOM     48  C   UNL A   1      40.945  30.964  35.156  1.00  0.00     0.074 A 
ATOM     49  C   UNL A   1      42.864  27.298  30.365  1.00  0.00     0.029 A 
ATOM     50  N   UNL A   1      41.766  28.725  31.667  1.00  0.00    -0.354 N 
ATOM     51  N   UNL A   1      41.294  30.267  34.103  1.00  0.00    -0.248 NA
ATOM     52  C   UNL A   1      41.799  30.741  36.333  1.00  0.00     0.031 C 
ATOM     53  C   UNL A   1      43.518  27.362  31.599  1.00  0.00     0.029 A 
ATOM     54  C   UNL A   1      42.846  28.266  32.403  1.00  0.00     0.049 A 
ATOM     55  H   UNL A   1      41.102  29.379  31.986  1.00  0.00     0.167 HD
ATOM     56  C   UNL A   1      42.429  29.555  34.476  1.00  0.00     0.074 A 
ATOM     57  C   UNL A   1      42.721  29.921  35.846  1.00  0.00     0.031 C 
ATOM     58  C   UNL A   1      43.159  28.672  33.751  1.00  0.00     0.034 A 
BRANCH  45  59
ATOM     59  C   UNL A   1      40.852  27.547  28.132  1.00  0.00     0.023 A 
ATOM     60  C   UNL A   1      41.482  28.097  26.996  1.00  0.00     0.012 A 
ATOM     61  C   UNL A   1      40.374  26.221  28.080  1.00  0.00     0.148 A 
ATOM     62  C   UNL A   1      41.600  27.358  25.820  1.00  0.00     0.002 A 
ATOM     63  C   UNL A   1      40.540  25.474  26.920  1.00  0.00     0.091 A 
ATOM     64  F   UNL A   1      39.762  25.719  29.163  1.00  0.00    -0.205 F 
ATOM     65  C   UNL A   1      41.140  26.045  25.785  1.00  0.00     0.022 A 
BRANCH  63  66
ATOM     66  S   UNL A   1      40.055  23.749  26.800  1.00  0.00     0.127 S 
ATOM     67  O   UNL A   1      40.222  23.299  28.182  1.00  0.00    -0.237 OA
ATOM     68  O   UNL A   1      38.664  23.852  26.357  1.00  0.00    -0.237 OA
ATOM     69  O   UNL A   1      40.959  23.142  25.833  1.00  0.00    -0.744 OA
ENDBRANCH  63  66
ENDBRANCH  45  59
BRANCH  46  70
ATOM     70  C   UNL A   1      39.631  32.693  36.590  1.00  0.00     0.023 A 
ATOM     71  C   UNL A   1      40.399  33.843  36.857  1.00  0.00     0.012 A 
ATOM     72  C   UNL A   1      38.681  32.266  37.539  1.00  0.00     0.148 A 
ATOM     73  C   UNL A   1      40.253  34.534  38.061  1.00  0.00     0.002 A 
ATOM     74  C   UNL A   1      38.500  32.992  38.710  1.00  0.00     0.091 A 
ATOM     75  F   UNL A   1      37.967  31.164  37.271  1.00  0.00    -0.205 F 
ATOM     76  C   UNL A   1      39.297  34.115  38.982  1.00  0.00     0.022 A 
BRANCH  74  77
ATOM     77  S   UNL A   1      37.206  32.604  39.895  1.00  0.00     0.127 S 
ATOM     78  O   UNL A   1      36.022  32.559  39.042  1.00  0.00    -0.237 OA
ATOM     79  O   UNL A   1      37.649  31.307  40.407  1.00  0.00    -0.237 OA
ATOM     80  O   UNL A   1      37.237  33.679  40.878  1.00  0.00    -0.744 OA
ENDBRANCH  74  77
ENDBRANCH  46  70
BRANCH  58  81
ATOM     81  C   UNL A   1      44.376  28.065  34.400  1.00  0.00     0.023 A 
ATOM     82  C   UNL A   1      45.616  28.730  34.341  1.00  0.00     0.012 A 
ATOM     83  C   UNL A   1      44.270  26.864  35.132  1.00  0.00     0.148 A 
ATOM     84  C   UNL A   1      46.740  28.193  34.969  1.00  0.00     0.002 A 
ATOM     85  C   UNL A   1      45.380  26.363  35.800  1.00  0.00     0.091 A 
ATOM     86  F   UNL A   1      43.086  26.236  35.161  1.00  0.00    -0.205 F 
ATOM     87  C   UNL A   1      46.620  27.017  35.708  1.00  0.00     0.022 A 
BRANCH  85  88
ATOM     88  S   UNL A   1      45.297  24.911  36.855  1.00  0.00     0.127 S 
ATOM     89  O   UNL A   1      46.713  24.623  37.079  1.00  0.00    -0.237 OA
ATOM     90  O   UNL A   1      44.586  25.423  38.027  1.00  0.00    -0.237 OA
ATOM     91  O   UNL A   1      44.568  23.904  36.097  1.00  0.00    -0.744 OA
ENDBRANCH  85  88
ENDBRANCH  58  81
ENDBRANCH  32  33
ENDBRANCH  24  27
ENDBRANCH  22  23
ENDBRANCH  21  22
ENDBRANCH   1  21
TORSDOF 18
ENDMDL
