MODEL 1
REMARK VINA RESULT:     -13.1      0.000      0.000
REMARK SMILES O=C(CNC(=O)N1CC(NCCCCNC(=O)c2ccc(-c3c4nc(c(-c5cccc(S(=O)(=O)[O-])c5F)c5ccc([nH]5)c(-c5cccc(S(=O)(=O)[O-])c5F)c5nc(c(-c6cccc(S(=O)(=O)[O-])c6F)c6ccc3[nH]6)C=C5)C=C4)cc2)=[NH+]c2ccccc21)N[C@H](C(=O)[O-])c1ccccc1
REMARK SMILES IDX 12 1 11 2 10 3 7 4 8 5 87 6 9 7 82 8 86 9 81 10 83 11 85 12
REMARK SMILES IDX 84 15 5 16 4 17 6 19 3 20 2 21 1 22 88 23 89 25 93 26 94 27
REMARK SMILES IDX 98 28 95 29 97 30 96 31 90 32 91 33 92 34 13 35 14 36 15 37
REMARK SMILES IDX 16 38 17 40 18 41 19 42 80 43 20 44 79 45 21 46 22 47 23 48
REMARK SMILES IDX 73 49 24 50 78 51 72 52 74 53 25 54 77 55 71 56 70 57 26 59
REMARK SMILES IDX 58 60 38 61 57 62 39 63 42 64 56 65 75 66 40 67 41 68 55 70
REMARK SMILES IDX 76 71 43 72 27 73 28 74 36 75 29 76 31 77 37 78 30 79 32 80
REMARK SMILES IDX 33 81 34 82 35 83 59 84 60 85 68 86 61 87 63 88 69 89 62 90
REMARK SMILES IDX 64 91 65 92 66 93 67 94 44 95 45 96 53 97 46 98 48 99 54 100
REMARK SMILES IDX 47 101 49 102 50 103 51 104 52 105
REMARK H PARENT 10 13 81 14 4 18 88 24 15 39 74 58 42 69
REMARK Flexibility Score: inf
ROOT
ATOM      1  C   UNL A   1      31.857  30.264  26.829  1.00  0.00     0.048 C 
ENDROOT
BRANCH   1   2
ATOM      2  C   UNL A   1      32.485  29.526  25.649  1.00  0.00     0.233 C 
BRANCH   2   3
ATOM      3  N   UNL A   1      33.093  28.285  26.059  1.00  0.00    -0.277 N 
ATOM      4  N   UNL A   1      33.497  26.094  23.096  1.00  0.00    -0.278 N 
ATOM      5  C   UNL A   1      33.600  27.390  23.744  1.00  0.00     0.255 C 
ATOM      6  C   UNL A   1      34.243  25.048  23.709  1.00  0.00     0.093 A 
ATOM      7  C   UNL A   1      33.581  27.272  25.271  1.00  0.00     0.268 C 
ATOM      8  C   UNL A   1      34.523  25.153  25.086  1.00  0.00     0.148 A 
ATOM      9  C   UNL A   1      34.690  23.928  22.993  1.00  0.00     0.031 A 
ATOM     10  N   UNL A   1      34.076  26.228  25.876  1.00  0.00    -0.241 N 
ATOM     11  C   UNL A   1      35.190  24.105  25.727  1.00  0.00     0.054 A 
ATOM     12  C   UNL A   1      35.361  22.893  23.647  1.00  0.00     0.002 A 
ATOM     13  H   UNL A   1      33.168  28.146  27.030  1.00  0.00     0.304 HD
ATOM     14  H   UNL A   1      34.137  26.193  26.858  1.00  0.00     0.312 HD
ATOM     15  C   UNL A   1      35.602  22.977  25.016  1.00  0.00     0.005 A 
BRANCH   4  16
ATOM     16  C   UNL A   1      32.813  26.039  21.908  1.00  0.00     0.323 C 
ATOM     17  N   UNL A   1      31.483  26.319  21.888  1.00  0.00    -0.329 N 
ATOM     18  H   UNL A   1      30.977  25.971  21.118  1.00  0.00     0.165 HD
ATOM     19  O   UNL A   1      33.372  25.826  20.829  1.00  0.00    -0.248 OA
BRANCH  17  20
ATOM     20  C   UNL A   1      30.720  27.072  22.869  1.00  0.00     0.218 C 
BRANCH  20  21
ATOM     21  C   UNL A   1      29.965  26.141  23.809  1.00  0.00     0.240 C 
ATOM     22  O   UNL A   1      28.741  26.178  23.917  1.00  0.00    -0.273 OA
ATOM     23  N   UNL A   1      30.800  25.274  24.455  1.00  0.00    -0.342 N 
ATOM     24  H   UNL A   1      31.753  25.517  24.493  1.00  0.00     0.164 HD
BRANCH  23  25
ATOM     25  C   UNL A   1      30.406  24.010  25.098  1.00  0.00     0.158 C 
BRANCH  25  26
ATOM     26  C   UNL A   1      31.234  22.848  24.546  1.00  0.00    -0.020 A 
ATOM     27  C   UNL A   1      31.828  21.932  25.425  1.00  0.00     0.006 A 
ATOM     28  C   UNL A   1      31.397  22.632  23.163  1.00  0.00     0.006 A 
ATOM     29  C   UNL A   1      32.502  20.807  24.935  1.00  0.00     0.000 A 
ATOM     30  C   UNL A   1      32.044  21.498  22.675  1.00  0.00     0.000 A 
ATOM     31  C   UNL A   1      32.589  20.578  23.563  1.00  0.00     0.000 A 
ENDBRANCH  25  26
BRANCH  25  32
ATOM     32  C   UNL A   1      30.579  24.154  26.651  1.00  0.00     0.068 C 
ATOM     33  O   UNL A   1      31.525  24.928  26.999  1.00  0.00    -0.548 OA
ATOM     34  O   UNL A   1      29.657  23.640  27.350  1.00  0.00    -0.548 OA
ENDBRANCH  25  32
ENDBRANCH  23  25
ENDBRANCH  20  21
ENDBRANCH  17  20
ENDBRANCH   4  16
ENDBRANCH   2   3
ENDBRANCH   1   2
BRANCH   1  35
ATOM     35  C   UNL A   1      31.772  31.786  26.675  1.00  0.00     0.025 C 
BRANCH  35  36
ATOM     36  C   UNL A   1      32.886  32.586  27.343  1.00  0.00     0.116 C 
BRANCH  36  37
ATOM     37  N   UNL A   1      32.505  33.956  27.670  1.00  0.00    -0.352 N 
ATOM     38  C   UNL A   1      33.040  34.809  28.610  1.00  0.00     0.251 C 
ATOM     39  H   UNL A   1      31.759  34.323  27.143  1.00  0.00     0.163 HD
ATOM     40  O   UNL A   1      32.526  35.901  28.816  1.00  0.00    -0.269 OA
BRANCH  38  41
ATOM     41  C   UNL A   1      34.225  34.392  29.394  1.00  0.00     0.039 A 
ATOM     42  C   UNL A   1      34.028  33.739  30.614  1.00  0.00     0.014 A 
ATOM     43  C   UNL A   1      35.521  34.625  28.924  1.00  0.00     0.014 A 
ATOM     44  C   UNL A   1      35.129  33.252  31.326  1.00  0.00     0.010 A 
ATOM     45  C   UNL A   1      36.610  34.078  29.600  1.00  0.00     0.010 A 
ATOM     46  C   UNL A   1      36.426  33.380  30.804  1.00  0.00    -0.014 A 
BRANCH  46  47
ATOM     47  C   UNL A   1      37.595  32.747  31.473  1.00  0.00     0.031 A 
ATOM     48  C   UNL A   1      38.307  31.584  30.834  1.00  0.00     0.074 A 
ATOM     49  C   UNL A   1      37.954  33.158  32.706  1.00  0.00     0.049 A 
ATOM     50  N   UNL A   1      39.296  30.865  31.300  1.00  0.00    -0.248 NA
ATOM     51  C   UNL A   1      37.831  31.160  29.508  1.00  0.00     0.031 C 
ATOM     52  C   UNL A   1      37.297  34.221  33.469  1.00  0.00     0.029 A 
ATOM     53  N   UNL A   1      38.940  32.708  33.549  1.00  0.00    -0.354 N 
ATOM     54  C   UNL A   1      39.535  29.882  30.348  1.00  0.00     0.074 A 
ATOM     55  C   UNL A   1      38.572  30.084  29.286  1.00  0.00     0.031 C 
ATOM     56  C   UNL A   1      37.894  34.341  34.665  1.00  0.00     0.029 A 
ATOM     57  C   UNL A   1      38.951  33.342  34.771  1.00  0.00     0.049 A 
ATOM     58  H   UNL A   1      39.578  32.000  33.304  1.00  0.00     0.167 HD
ATOM     59  C   UNL A   1      40.484  28.914  30.345  1.00  0.00     0.034 A 
ATOM     60  C   UNL A   1      39.714  33.130  35.862  1.00  0.00     0.034 A 
ATOM     61  C   UNL A   1      41.458  28.735  31.389  1.00  0.00     0.049 A 
ATOM     62  C   UNL A   1      40.768  32.058  35.825  1.00  0.00     0.074 A 
ATOM     63  C   UNL A   1      42.518  27.844  31.433  1.00  0.00     0.029 A 
ATOM     64  N   UNL A   1      41.485  29.444  32.581  1.00  0.00    -0.354 N 
ATOM     65  N   UNL A   1      41.094  31.250  34.844  1.00  0.00    -0.248 NA
ATOM     66  C   UNL A   1      41.582  31.887  37.037  1.00  0.00     0.031 C 
ATOM     67  C   UNL A   1      43.163  27.990  32.665  1.00  0.00     0.029 A 
ATOM     68  C   UNL A   1      42.529  28.997  33.374  1.00  0.00     0.049 A 
ATOM     69  H   UNL A   1      40.855  30.158  32.827  1.00  0.00     0.167 HD
ATOM     70  C   UNL A   1      42.167  30.500  35.310  1.00  0.00     0.074 A 
ATOM     71  C   UNL A   1      42.455  30.967  36.650  1.00  0.00     0.031 C 
ATOM     72  C   UNL A   1      42.842  29.500  34.688  1.00  0.00     0.034 A 
BRANCH  59  73
ATOM     73  C   UNL A   1      40.547  27.996  29.149  1.00  0.00     0.023 A 
ATOM     74  C   UNL A   1      39.628  26.931  29.040  1.00  0.00     0.012 A 
ATOM     75  C   UNL A   1      41.467  28.222  28.105  1.00  0.00     0.148 A 
ATOM     76  C   UNL A   1      39.647  26.085  27.932  1.00  0.00     0.002 A 
ATOM     77  C   UNL A   1      41.448  27.403  26.981  1.00  0.00     0.091 A 
ATOM     78  F   UNL A   1      42.343  29.229  28.229  1.00  0.00    -0.205 F 
ATOM     79  C   UNL A   1      40.549  26.326  26.901  1.00  0.00     0.022 A 
BRANCH  77  80
ATOM     80  S   UNL A   1      42.506  27.679  25.556  1.00  0.00     0.127 S 
ATOM     81  O   UNL A   1      43.832  27.706  26.170  1.00  0.00    -0.237 OA
ATOM     82  O   UNL A   1      42.239  26.494  24.741  1.00  0.00    -0.237 OA
ATOM     83  O   UNL A   1      42.067  28.934  24.963  1.00  0.00    -0.744 OA
ENDBRANCH  77  80
ENDBRANCH  59  73
BRANCH  60  84
ATOM     84  C   UNL A   1      39.543  33.984  37.071  1.00  0.00     0.023 A 
ATOM     85  C   UNL A   1      40.032  35.305  37.057  1.00  0.00     0.012 A 
ATOM     86  C   UNL A   1      38.901  33.501  38.227  1.00  0.00     0.148 A 
ATOM     87  C   UNL A   1      39.912  36.121  38.182  1.00  0.00     0.002 A 
ATOM     88  C   UNL A   1      38.745  34.334  39.328  1.00  0.00     0.091 A 
ATOM     89  F   UNL A   1      38.457  32.236  38.223  1.00  0.00    -0.205 F 
ATOM     90  C   UNL A   1      39.262  35.640  39.312  1.00  0.00     0.022 A 
BRANCH  88  91
ATOM     91  S   UNL A   1      37.851  33.841  40.804  1.00  0.00     0.127 S 
ATOM     92  O   UNL A   1      38.802  32.921  41.428  1.00  0.00    -0.237 OA
ATOM     93  O   UNL A   1      37.694  35.120  41.495  1.00  0.00    -0.237 OA
ATOM     94  O   UNL A   1      36.616  33.239  40.327  1.00  0.00    -0.744 OA
ENDBRANCH  88  91
ENDBRANCH  60  84
BRANCH  72  95
ATOM     95  C   UNL A   1      43.986  28.860  35.434  1.00  0.00     0.023 A 
ATOM     96  C   UNL A   1      45.287  29.387  35.311  1.00  0.00     0.012 A 
ATOM     97  C   UNL A   1      43.760  27.777  36.308  1.00  0.00     0.148 A 
ATOM     98  C   UNL A   1      46.350  28.823  36.015  1.00  0.00     0.002 A 
ATOM     99  C   UNL A   1      44.815  27.255  37.047  1.00  0.00     0.091 A 
ATOM    100  F   UNL A   1      42.518  27.279  36.403  1.00  0.00    -0.205 F 
ATOM    101  C   UNL A   1      46.113  27.767  36.891  1.00  0.00     0.022 A 
BRANCH  99 102
ATOM    102  S   UNL A   1      44.591  25.959  38.271  1.00  0.00     0.127 S 
ATOM    103  O   UNL A   1      45.877  25.978  38.968  1.00  0.00    -0.237 OA
ATOM    104  O   UNL A   1      43.467  26.466  39.058  1.00  0.00    -0.237 OA
ATOM    105  O   UNL A   1      44.307  24.741  37.525  1.00  0.00    -0.744 OA
ENDBRANCH  99 102
ENDBRANCH  72  95
ENDBRANCH  46  47
ENDBRANCH  38  41
ENDBRANCH  36  37
ENDBRANCH  35  36
ENDBRANCH   1  35
TORSDOF 19
ENDMDL
MODEL 2
REMARK VINA RESULT:     -12.4      5.575     10.727
REMARK SMILES O=C(CNC(=O)N1CC(NCCCCNC(=O)c2ccc(-c3c4nc(c(-c5cccc(S(=O)(=O)[O-])c5F)c5ccc([nH]5)c(-c5cccc(S(=O)(=O)[O-])c5F)c5nc(c(-c6cccc(S(=O)(=O)[O-])c6F)c6ccc3[nH]6)C=C5)C=C4)cc2)=[NH+]c2ccccc21)N[C@H](C(=O)[O-])c1ccccc1
REMARK SMILES IDX 12 1 11 2 10 3 7 4 8 5 87 6 9 7 82 8 86 9 81 10 83 11 85 12
REMARK SMILES IDX 84 15 5 16 4 17 6 19 3 20 2 21 1 22 88 23 89 25 93 26 94 27
REMARK SMILES IDX 98 28 95 29 97 30 96 31 90 32 91 33 92 34 13 35 14 36 15 37
REMARK SMILES IDX 16 38 17 40 18 41 19 42 80 43 20 44 79 45 21 46 22 47 23 48
REMARK SMILES IDX 73 49 24 50 78 51 72 52 74 53 25 54 77 55 71 56 70 57 26 59
REMARK SMILES IDX 58 60 38 61 57 62 39 63 42 64 56 65 75 66 40 67 41 68 55 70
REMARK SMILES IDX 76 71 43 72 27 73 28 74 36 75 29 76 31 77 37 78 30 79 32 80
REMARK SMILES IDX 33 81 34 82 35 83 59 84 60 85 68 86 61 87 63 88 69 89 62 90
REMARK SMILES IDX 64 91 65 92 66 93 67 94 44 95 45 96 53 97 46 98 48 99 54 100
REMARK SMILES IDX 47 101 49 102 50 103 51 104 52 105
REMARK H PARENT 10 13 81 14 4 18 88 24 15 39 74 58 42 69
REMARK Flexibility Score: inf
ROOT
ATOM      1  C   UNL A   1      35.293  21.056  25.337  1.00  0.00     0.048 C 
ENDROOT
BRANCH   1   2
ATOM      2  C   UNL A   1      34.337  22.013  24.629  1.00  0.00     0.233 C 
BRANCH   2   3
ATOM      3  N   UNL A   1      34.680  23.391  24.879  1.00  0.00    -0.277 N 
ATOM      4  N   UNL A   1      31.666  25.198  26.060  1.00  0.00    -0.278 N 
ATOM      5  C   UNL A   1      32.549  24.045  26.083  1.00  0.00     0.255 C 
ATOM      6  C   UNL A   1      32.282  26.439  26.387  1.00  0.00     0.093 A 
ATOM      7  C   UNL A   1      33.925  24.361  25.489  1.00  0.00     0.268 C 
ATOM      8  C   UNL A   1      33.665  26.576  26.152  1.00  0.00     0.148 A 
ATOM      9  C   UNL A   1      31.558  27.516  26.919  1.00  0.00     0.031 A 
ATOM     10  N   UNL A   1      34.448  25.553  25.588  1.00  0.00    -0.241 N 
ATOM     11  C   UNL A   1      34.279  27.808  26.396  1.00  0.00     0.054 A 
ATOM     12  C   UNL A   1      32.188  28.739  27.163  1.00  0.00     0.002 A 
ATOM     13  H   UNL A   1      35.573  23.671  24.573  1.00  0.00     0.304 HD
ATOM     14  H   UNL A   1      35.365  25.730  25.278  1.00  0.00     0.312 HD
ATOM     15  C   UNL A   1      33.546  28.887  26.892  1.00  0.00     0.005 A 
BRANCH   4  16
ATOM     16  C   UNL A   1      30.331  24.962  25.859  1.00  0.00     0.323 C 
ATOM     17  N   UNL A   1      29.861  24.799  24.594  1.00  0.00    -0.329 N 
ATOM     18  H   UNL A   1      28.897  24.948  24.465  1.00  0.00     0.165 HD
ATOM     19  O   UNL A   1      29.537  24.805  26.791  1.00  0.00    -0.248 OA
BRANCH  17  20
ATOM     20  C   UNL A   1      30.617  24.429  23.410  1.00  0.00     0.218 C 
BRANCH  20  21
ATOM     21  C   UNL A   1      31.424  25.608  22.883  1.00  0.00     0.240 C 
ATOM     22  O   UNL A   1      32.503  25.456  22.313  1.00  0.00    -0.273 OA
ATOM     23  N   UNL A   1      30.789  26.800  23.088  1.00  0.00    -0.342 N 
ATOM     24  H   UNL A   1      30.084  26.817  23.776  1.00  0.00     0.164 HD
BRANCH  23  25
ATOM     25  C   UNL A   1      31.058  28.059  22.376  1.00  0.00     0.158 C 
BRANCH  25  26
ATOM     26  C   UNL A   1      29.799  28.926  22.327  1.00  0.00    -0.020 A 
ATOM     27  C   UNL A   1      28.648  28.531  23.022  1.00  0.00     0.006 A 
ATOM     28  C   UNL A   1      29.757  30.150  21.629  1.00  0.00     0.006 A 
ATOM     29  C   UNL A   1      27.523  29.362  23.072  1.00  0.00     0.000 A 
ATOM     30  C   UNL A   1      28.647  30.991  21.700  1.00  0.00     0.000 A 
ATOM     31  C   UNL A   1      27.531  30.601  22.432  1.00  0.00     0.000 A 
ENDBRANCH  25  26
BRANCH  25  32
ATOM     32  C   UNL A   1      32.242  28.803  23.088  1.00  0.00     0.068 C 
ATOM     33  O   UNL A   1      33.358  28.698  22.488  1.00  0.00    -0.548 OA
ATOM     34  O   UNL A   1      31.910  29.556  24.049  1.00  0.00    -0.548 OA
ENDBRANCH  25  32
ENDBRANCH  23  25
ENDBRANCH  20  21
ENDBRANCH  17  20
ENDBRANCH   4  16
ENDBRANCH   2   3
ENDBRANCH   1   2
BRANCH   1  35
ATOM     35  C   UNL A   1      36.635  20.835  24.632  1.00  0.00     0.025 C 
BRANCH  35  36
ATOM     36  C   UNL A   1      37.855  21.449  25.315  1.00  0.00     0.116 C 
BRANCH  36  37
ATOM     37  N   UNL A   1      38.829  20.461  25.766  1.00  0.00    -0.352 N 
ATOM     38  C   UNL A   1      40.004  20.648  26.459  1.00  0.00     0.251 C 
ATOM     39  H   UNL A   1      38.615  19.526  25.544  1.00  0.00     0.163 HD
ATOM     40  O   UNL A   1      40.753  19.704  26.672  1.00  0.00    -0.269 OA
BRANCH  38  41
ATOM     41  C   UNL A   1      40.377  22.004  26.925  1.00  0.00     0.039 A 
ATOM     42  C   UNL A   1      41.251  22.125  28.009  1.00  0.00     0.014 A 
ATOM     43  C   UNL A   1      39.885  23.147  26.289  1.00  0.00     0.014 A 
ATOM     44  C   UNL A   1      41.691  23.391  28.406  1.00  0.00     0.010 A 
ATOM     45  C   UNL A   1      40.380  24.402  26.642  1.00  0.00     0.010 A 
ATOM     46  C   UNL A   1      41.293  24.537  27.699  1.00  0.00    -0.014 A 
BRANCH  46  47
ATOM     47  C   UNL A   1      41.859  25.876  28.015  1.00  0.00     0.031 A 
ATOM     48  C   UNL A   1      41.019  26.921  28.701  1.00  0.00     0.074 A 
ATOM     49  C   UNL A   1      43.102  26.186  27.594  1.00  0.00     0.049 A 
ATOM     50  N   UNL A   1      41.319  28.161  28.992  1.00  0.00    -0.248 NA
ATOM     51  C   UNL A   1      39.656  26.528  29.091  1.00  0.00     0.031 C 
ATOM     52  C   UNL A   1      43.991  25.292  26.849  1.00  0.00     0.029 A 
ATOM     53  N   UNL A   1      43.822  27.351  27.702  1.00  0.00    -0.354 N 
ATOM     54  C   UNL A   1      40.176  28.708  29.561  1.00  0.00     0.074 A 
ATOM     55  C   UNL A   1      39.167  27.670  29.554  1.00  0.00     0.031 C 
ATOM     56  C   UNL A   1      45.133  25.938  26.567  1.00  0.00     0.029 A 
ATOM     57  C   UNL A   1      45.046  27.302  27.076  1.00  0.00     0.049 A 
ATOM     58  H   UNL A   1      43.493  28.145  28.182  1.00  0.00     0.167 HD
ATOM     59  C   UNL A   1      39.987  29.952  30.064  1.00  0.00     0.034 A 
ATOM     60  C   UNL A   1      45.986  28.253  26.913  1.00  0.00     0.034 A 
ATOM     61  C   UNL A   1      41.001  30.972  30.095  1.00  0.00     0.049 A 
ATOM     62  C   UNL A   1      45.756  29.621  27.494  1.00  0.00     0.074 A 
ATOM     63  C   UNL A   1      40.938  32.232  30.669  1.00  0.00     0.029 A 
ATOM     64  N   UNL A   1      42.257  30.863  29.515  1.00  0.00    -0.354 N 
ATOM     65  N   UNL A   1      44.733  30.067  28.183  1.00  0.00    -0.248 NA
ATOM     66  C   UNL A   1      46.825  30.611  27.301  1.00  0.00     0.031 C 
ATOM     67  C   UNL A   1      42.139  32.895  30.404  1.00  0.00     0.029 A 
ATOM     68  C   UNL A   1      42.968  32.038  29.699  1.00  0.00     0.049 A 
ATOM     69  H   UNL A   1      42.592  30.068  29.043  1.00  0.00     0.167 HD
ATOM     70  C   UNL A   1      45.049  31.376  28.530  1.00  0.00     0.074 A 
ATOM     71  C   UNL A   1      46.370  31.642  28.000  1.00  0.00     0.031 C 
ATOM     72  C   UNL A   1      44.303  32.280  29.212  1.00  0.00     0.034 A 
BRANCH  59  73
ATOM     73  C   UNL A   1      38.642  30.270  30.669  1.00  0.00     0.023 A 
ATOM     74  C   UNL A   1      38.353  29.847  31.983  1.00  0.00     0.012 A 
ATOM     75  C   UNL A   1      37.692  31.041  29.968  1.00  0.00     0.148 A 
ATOM     76  C   UNL A   1      37.128  30.151  32.576  1.00  0.00     0.002 A 
ATOM     77  C   UNL A   1      36.492  31.380  30.584  1.00  0.00     0.091 A 
ATOM     78  F   UNL A   1      37.975  31.424  28.716  1.00  0.00    -0.205 F 
ATOM     79  C   UNL A   1      36.204  30.925  31.881  1.00  0.00     0.022 A 
BRANCH  77  80
ATOM     80  S   UNL A   1      35.269  32.447  29.813  1.00  0.00     0.127 S 
ATOM     81  O   UNL A   1      34.843  31.636  28.674  1.00  0.00    -0.237 OA
ATOM     82  O   UNL A   1      34.267  32.579  30.871  1.00  0.00    -0.237 OA
ATOM     83  O   UNL A   1      35.963  33.682  29.476  1.00  0.00    -0.744 OA
ENDBRANCH  77  80
ENDBRANCH  59  73
BRANCH  60  84
ATOM     84  C   UNL A   1      47.258  27.934  26.205  1.00  0.00     0.023 A 
ATOM     85  C   UNL A   1      48.394  27.574  26.958  1.00  0.00     0.012 A 
ATOM     86  C   UNL A   1      47.351  27.983  24.801  1.00  0.00     0.148 A 
ATOM     87  C   UNL A   1      49.607  27.295  26.328  1.00  0.00     0.002 A 
ATOM     88  C   UNL A   1      48.550  27.660  24.179  1.00  0.00     0.091 A 
ATOM     89  F   UNL A   1      46.263  28.342  24.107  1.00  0.00    -0.205 F 
ATOM     90  C   UNL A   1      49.682  27.330  24.940  1.00  0.00     0.022 A 
BRANCH  88  91
ATOM     91  S   UNL A   1      48.734  27.594  22.394  1.00  0.00     0.127 S 
ATOM     92  O   UNL A   1      47.662  28.487  21.956  1.00  0.00    -0.237 OA
ATOM     93  O   UNL A   1      50.085  28.126  22.217  1.00  0.00    -0.237 OA
ATOM     94  O   UNL A   1      48.568  26.193  22.039  1.00  0.00    -0.744 OA
ENDBRANCH  88  91
ENDBRANCH  60  84
BRANCH  72  95
ATOM     95  C   UNL A   1      44.907  33.640  29.459  1.00  0.00     0.023 A 
ATOM     96  C   UNL A   1      45.629  33.883  30.644  1.00  0.00     0.012 A 
ATOM     97  C   UNL A   1      44.814  34.657  28.487  1.00  0.00     0.148 A 
ATOM     98  C   UNL A   1      46.217  35.126  30.875  1.00  0.00     0.002 A 
ATOM     99  C   UNL A   1      45.447  35.876  28.701  1.00  0.00     0.091 A 
ATOM    100  F   UNL A   1      44.111  34.414  27.371  1.00  0.00    -0.205 F 
ATOM    101  C   UNL A   1      46.137  36.117  29.900  1.00  0.00     0.022 A 
BRANCH  99 102
ATOM    102  S   UNL A   1      45.482  37.179  27.464  1.00  0.00     0.127 S 
ATOM    103  O   UNL A   1      44.059  37.473  27.297  1.00  0.00    -0.237 OA
ATOM    104  O   UNL A   1      46.244  38.228  28.140  1.00  0.00    -0.237 OA
ATOM    105  O   UNL A   1      46.141  36.611  26.295  1.00  0.00    -0.744 OA
ENDBRANCH  99 102
ENDBRANCH  72  95
ENDBRANCH  46  47
ENDBRANCH  38  41
ENDBRANCH  36  37
ENDBRANCH  35  36
ENDBRANCH   1  35
TORSDOF 19
ENDMDL
MODEL 3
REMARK VINA RESULT:     -12.3      5.551     10.376
REMARK SMILES O=C(CNC(=O)N1CC(NCCCCNC(=O)c2ccc(-c3c4nc(c(-c5cccc(S(=O)(=O)[O-])c5F)c5ccc([nH]5)c(-c5cccc(S(=O)(=O)[O-])c5F)c5nc(c(-c6cccc(S(=O)(=O)[O-])c6F)c6ccc3[nH]6)C=C5)C=C4)cc2)=[NH+]c2ccccc21)N[C@H](C(=O)[O-])c1ccccc1
REMARK SMILES IDX 12 1 11 2 10 3 7 4 8 5 87 6 9 7 82 8 86 9 81 10 83 11 85 12
REMARK SMILES IDX 84 15 5 16 4 17 6 19 3 20 2 21 1 22 88 23 89 25 93 26 94 27
REMARK SMILES IDX 98 28 95 29 97 30 96 31 90 32 91 33 92 34 13 35 14 36 15 37
REMARK SMILES IDX 16 38 17 40 18 41 19 42 80 43 20 44 79 45 21 46 22 47 23 48
REMARK SMILES IDX 73 49 24 50 78 51 72 52 74 53 25 54 77 55 71 56 70 57 26 59
REMARK SMILES IDX 58 60 38 61 57 62 39 63 42 64 56 65 75 66 40 67 41 68 55 70
REMARK SMILES IDX 76 71 43 72 27 73 28 74 36 75 29 76 31 77 37 78 30 79 32 80
REMARK SMILES IDX 33 81 34 82 35 83 59 84 60 85 68 86 61 87 63 88 69 89 62 90
REMARK SMILES IDX 64 91 65 92 66 93 67 94 44 95 45 96 53 97 46 98 48 99 54 100
REMARK SMILES IDX 47 101 49 102 50 103 51 104 52 105
REMARK H PARENT 10 13 81 14 4 18 88 24 15 39 74 58 42 69
REMARK Flexibility Score: inf
ROOT
ATOM      1  C   UNL A   1      35.321  23.048  23.159  1.00  0.00     0.048 C 
ENDROOT
BRANCH   1   2
ATOM      2  C   UNL A   1      34.895  24.329  23.872  1.00  0.00     0.233 C 
BRANCH   2   3
ATOM      3  N   UNL A   1      34.039  25.141  23.044  1.00  0.00    -0.277 N 
ATOM      4  N   UNL A   1      32.054  27.408  25.204  1.00  0.00    -0.278 N 
ATOM      5  C   UNL A   1      33.310  26.778  24.835  1.00  0.00     0.255 C 
ATOM      6  C   UNL A   1      31.444  28.189  24.183  1.00  0.00     0.093 A 
ATOM      7  C   UNL A   1      33.278  26.224  23.407  1.00  0.00     0.268 C 
ATOM      8  C   UNL A   1      31.730  27.865  22.841  1.00  0.00     0.148 A 
ATOM      9  C   UNL A   1      30.572  29.249  24.471  1.00  0.00     0.031 A 
ATOM     10  N   UNL A   1      32.565  26.794  22.475  1.00  0.00    -0.241 N 
ATOM     11  C   UNL A   1      31.086  28.569  21.819  1.00  0.00     0.054 A 
ATOM     12  C   UNL A   1      29.943  29.947  23.438  1.00  0.00     0.002 A 
ATOM     13  H   UNL A   1      33.996  24.886  22.095  1.00  0.00     0.304 HD
ATOM     14  H   UNL A   1      32.611  26.485  21.542  1.00  0.00     0.312 HD
ATOM     15  C   UNL A   1      30.192  29.600  22.113  1.00  0.00     0.005 A 
BRANCH   4  16
ATOM     16  C   UNL A   1      31.658  27.297  26.513  1.00  0.00     0.323 C 
ATOM     17  N   UNL A   1      30.622  26.478  26.832  1.00  0.00    -0.329 N 
ATOM     18  H   UNL A   1      30.171  26.660  27.689  1.00  0.00     0.165 HD
ATOM     19  O   UNL A   1      32.260  27.850  27.437  1.00  0.00    -0.248 OA
BRANCH  17  20
ATOM     20  C   UNL A   1      30.099  25.366  26.058  1.00  0.00     0.218 C 
BRANCH  20  21
ATOM     21  C   UNL A   1      30.480  24.031  26.687  1.00  0.00     0.240 C 
ATOM     22  O   UNL A   1      29.712  23.419  27.427  1.00  0.00    -0.273 OA
ATOM     23  N   UNL A   1      31.721  23.614  26.299  1.00  0.00    -0.342 N 
ATOM     24  H   UNL A   1      32.329  24.299  25.936  1.00  0.00     0.164 HD
BRANCH  23  25
ATOM     25  C   UNL A   1      32.233  22.237  26.372  1.00  0.00     0.158 C 
BRANCH  25  26
ATOM     26  C   UNL A   1      32.277  21.608  24.977  1.00  0.00    -0.020 A 
ATOM     27  C   UNL A   1      32.639  20.262  24.826  1.00  0.00     0.006 A 
ATOM     28  C   UNL A   1      31.925  22.328  23.818  1.00  0.00     0.006 A 
ATOM     29  C   UNL A   1      32.585  19.645  23.572  1.00  0.00     0.000 A 
ATOM     30  C   UNL A   1      31.845  21.707  22.572  1.00  0.00     0.000 A 
ATOM     31  C   UNL A   1      32.165  20.360  22.450  1.00  0.00     0.000 A 
ENDBRANCH  25  26
BRANCH  25  32
ATOM     32  C   UNL A   1      33.653  22.256  27.039  1.00  0.00     0.068 C 
ATOM     33  O   UNL A   1      34.202  23.402  27.060  1.00  0.00    -0.548 OA
ATOM     34  O   UNL A   1      33.989  21.189  27.630  1.00  0.00    -0.548 OA
ENDBRANCH  25  32
ENDBRANCH  23  25
ENDBRANCH  20  21
ENDBRANCH  17  20
ENDBRANCH   4  16
ENDBRANCH   2   3
ENDBRANCH   1   2
BRANCH   1  35
ATOM     35  C   UNL A   1      36.664  22.466  23.613  1.00  0.00     0.025 C 
BRANCH  35  36
ATOM     36  C   UNL A   1      36.727  21.989  25.061  1.00  0.00     0.116 C 
BRANCH  36  37
ATOM     37  N   UNL A   1      37.642  20.871  25.268  1.00  0.00    -0.352 N 
ATOM     38  C   UNL A   1      38.895  20.864  25.838  1.00  0.00     0.251 C 
ATOM     39  H   UNL A   1      37.316  19.996  24.955  1.00  0.00     0.163 HD
ATOM     40  O   UNL A   1      39.566  19.840  25.842  1.00  0.00    -0.269 OA
BRANCH  38  41
ATOM     41  C   UNL A   1      39.445  22.108  26.426  1.00  0.00     0.039 A 
ATOM     42  C   UNL A   1      40.552  22.017  27.274  1.00  0.00     0.014 A 
ATOM     43  C   UNL A   1      38.887  23.354  26.131  1.00  0.00     0.014 A 
ATOM     44  C   UNL A   1      41.147  23.184  27.765  1.00  0.00     0.010 A 
ATOM     45  C   UNL A   1      39.523  24.517  26.565  1.00  0.00     0.010 A 
ATOM     46  C   UNL A   1      40.663  24.444  27.381  1.00  0.00    -0.014 A 
BRANCH  46  47
ATOM     47  C   UNL A   1      41.364  25.695  27.776  1.00  0.00     0.031 A 
ATOM     48  C   UNL A   1      40.637  26.775  28.532  1.00  0.00     0.074 A 
ATOM     49  C   UNL A   1      42.633  25.902  27.366  1.00  0.00     0.049 A 
ATOM     50  N   UNL A   1      41.063  27.957  28.899  1.00  0.00    -0.248 NA
ATOM     51  C   UNL A   1      39.241  26.501  28.907  1.00  0.00     0.031 C 
ATOM     52  C   UNL A   1      43.423  24.970  26.560  1.00  0.00     0.029 A 
ATOM     53  N   UNL A   1      43.468  26.977  27.543  1.00  0.00    -0.354 N 
ATOM     54  C   UNL A   1      39.983  28.581  29.510  1.00  0.00     0.074 A 
ATOM     55  C   UNL A   1      38.873  27.655  29.445  1.00  0.00     0.031 C 
ATOM     56  C   UNL A   1      44.626  25.512  26.311  1.00  0.00     0.029 A 
ATOM     57  C   UNL A   1      44.680  26.842  26.906  1.00  0.00     0.049 A 
ATOM     58  H   UNL A   1      43.224  27.768  28.074  1.00  0.00     0.167 HD
ATOM     59  C   UNL A   1      39.924  29.804  30.092  1.00  0.00     0.034 A 
ATOM     60  C   UNL A   1      45.714  27.700  26.795  1.00  0.00     0.034 A 
ATOM     61  C   UNL A   1      41.039  30.710  30.180  1.00  0.00     0.049 A 
ATOM     62  C   UNL A   1      45.627  29.045  27.464  1.00  0.00     0.074 A 
ATOM     63  C   UNL A   1      41.106  31.930  30.832  1.00  0.00     0.029 A 
ATOM     64  N   UNL A   1      42.276  30.509  29.585  1.00  0.00    -0.354 N 
ATOM     65  N   UNL A   1      44.656  29.549  28.187  1.00  0.00    -0.248 NA
ATOM     66  C   UNL A   1      46.792  29.929  27.326  1.00  0.00     0.031 C 
ATOM     67  C   UNL A   1      42.370  32.482  30.602  1.00  0.00     0.029 A 
ATOM     68  C   UNL A   1      43.105  31.590  29.838  1.00  0.00     0.049 A 
ATOM     69  H   UNL A   1      42.527  29.716  29.061  1.00  0.00     0.167 HD
ATOM     70  C   UNL A   1      45.105  30.793  28.614  1.00  0.00     0.074 A 
ATOM     71  C   UNL A   1      46.447  30.955  28.092  1.00  0.00     0.031 C 
ATOM     72  C   UNL A   1      44.457  31.725  29.357  1.00  0.00     0.034 A 
BRANCH  59  73
ATOM     73  C   UNL A   1      38.620  30.219  30.725  1.00  0.00     0.023 A 
ATOM     74  C   UNL A   1      38.381  29.924  32.084  1.00  0.00     0.012 A 
ATOM     75  C   UNL A   1      37.661  30.957  30.002  1.00  0.00     0.148 A 
ATOM     76  C   UNL A   1      37.196  30.321  32.702  1.00  0.00     0.002 A 
ATOM     77  C   UNL A   1      36.503  31.390  30.638  1.00  0.00     0.091 A 
ATOM     78  F   UNL A   1      37.895  31.217  28.708  1.00  0.00    -0.205 F 
ATOM     79  C   UNL A   1      36.263  31.061  31.982  1.00  0.00     0.022 A 
BRANCH  77  80
ATOM     80  S   UNL A   1      35.276  32.425  29.830  1.00  0.00     0.127 S 
ATOM     81  O   UNL A   1      34.367  32.726  30.934  1.00  0.00    -0.237 OA
ATOM     82  O   UNL A   1      36.081  33.561  29.380  1.00  0.00    -0.237 OA
ATOM     83  O   UNL A   1      34.710  31.619  28.756  1.00  0.00    -0.744 OA
ENDBRANCH  77  80
ENDBRANCH  59  73
BRANCH  60  84
ATOM     84  C   UNL A   1      46.946  27.297  26.060  1.00  0.00     0.023 A 
ATOM     85  C   UNL A   1      47.931  26.543  26.727  1.00  0.00     0.012 A 
ATOM     86  C   UNL A   1      47.146  27.652  24.713  1.00  0.00     0.148 A 
ATOM     87  C   UNL A   1      49.108  26.173  26.075  1.00  0.00     0.002 A 
ATOM     88  C   UNL A   1      48.300  27.241  24.057  1.00  0.00     0.091 A 
ATOM     89  F   UNL A   1      46.203  28.382  24.103  1.00  0.00    -0.205 F 
ATOM     90  C   UNL A   1      49.288  26.514  24.739  1.00  0.00     0.022 A 
BRANCH  88  91
ATOM     91  S   UNL A   1      48.595  27.557  22.314  1.00  0.00     0.127 S 
ATOM     92  O   UNL A   1      49.874  28.264  22.356  1.00  0.00    -0.237 OA
ATOM     93  O   UNL A   1      48.663  26.199  21.776  1.00  0.00    -0.237 OA
ATOM     94  O   UNL A   1      47.457  28.344  21.865  1.00  0.00    -0.744 OA
ENDBRANCH  88  91
ENDBRANCH  60  84
BRANCH  72  95
ATOM     95  C   UNL A   1      45.198  32.996  29.685  1.00  0.00     0.023 A 
ATOM     96  C   UNL A   1      46.010  33.059  30.834  1.00  0.00     0.012 A 
ATOM     97  C   UNL A   1      45.142  34.107  28.818  1.00  0.00     0.148 A 
ATOM     98  C   UNL A   1      46.723  34.218  31.137  1.00  0.00     0.002 A 
ATOM     99  C   UNL A   1      45.897  35.240  29.099  1.00  0.00     0.091 A 
ATOM    100  F   UNL A   1      44.353  34.036  27.736  1.00  0.00    -0.205 F 
ATOM    101  C   UNL A   1      46.677  35.303  30.265  1.00  0.00     0.022 A 
BRANCH  99 102
ATOM    102  S   UNL A   1      45.978  36.649  27.987  1.00  0.00     0.127 S 
ATOM    103  O   UNL A   1      45.791  36.014  26.682  1.00  0.00    -0.237 OA
ATOM    104  O   UNL A   1      44.848  37.462  28.434  1.00  0.00    -0.237 OA
ATOM    105  O   UNL A   1      47.284  37.259  28.199  1.00  0.00    -0.744 OA
ENDBRANCH  99 102
ENDBRANCH  72  95
ENDBRANCH  46  47
ENDBRANCH  38  41
ENDBRANCH  36  37
ENDBRANCH  35  36
ENDBRANCH   1  35
TORSDOF 19
ENDMDL
