MODEL 1
REMARK VINA RESULT:      -8.7      0.000      0.000
REMARK SMILES O=C(CCC(=O)/[NH+]=C1\S[C@H]2CS(=O)(=O)C[C@@H]2N1c1ccc2c(c1)OCO2)NCCCCNC(=O)c1ccc(-c2c3nc(c(-c4cccc(S(=O)(=O)[O-])c4F)c4ccc([nH]4)c(-c4cccc(S(=O)(=O)[O-])c4F)c4nc(c(-c5cccc(S(=O)(=O)[O-])c5F)c5ccc2[nH]5)C=C4)C=C3)cc1
REMARK SMILES IDX 29 1 28 2 27 3 2 4 1 5 3 7 4 8 5 9 6 10 7 11 8 12 9 14 17 15
REMARK SMILES IDX 10 16 16 17 11 18 15 19 12 20 13 21 14 22 18 23 19 24 23 25
REMARK SMILES IDX 20 26 22 27 21 28 24 29 26 30 25 31 30 32 31 33 32 34 33 35
REMARK SMILES IDX 34 37 35 38 36 39 97 40 37 41 96 42 38 43 39 44 40 45 90 46
REMARK SMILES IDX 41 47 95 48 89 49 91 50 42 51 94 52 88 53 87 54 43 56 75 57
REMARK SMILES IDX 55 58 74 59 56 60 59 61 73 62 92 63 57 64 58 65 72 67 93 68
REMARK SMILES IDX 60 69 44 70 45 71 53 72 46 73 48 74 54 75 47 76 49 77 50 78
REMARK SMILES IDX 51 79 52 80 76 81 77 82 85 83 78 84 80 85 86 86 79 87 81 88
REMARK SMILES IDX 82 89 83 90 84 91 61 92 62 93 70 94 63 95 65 96 71 97 64 98
REMARK SMILES IDX 66 99 67 100 68 101 69 102
REMARK H PARENT 27 6 7 13 32 36 91 55 59 66
REMARK Flexibility Score: inf
ROOT
ATOM      1  C   UNL A   1      47.450  27.108  38.897  1.00  0.00     0.023 C 
ENDROOT
BRANCH   1   2
ATOM      2  C   UNL A   1      48.210  26.105  38.028  1.00  0.00     0.116 C 
BRANCH   2   3
ATOM      3  N   UNL A   1      49.655  26.182  38.146  1.00  0.00    -0.356 N 
ATOM      4  C   UNL A   1      50.496  25.618  39.051  1.00  0.00     0.220 C 
ATOM      5  O   UNL A   1      51.712  25.752  38.904  1.00  0.00    -0.275 OA
ATOM      6  H   UNL A   1      50.097  26.733  37.459  1.00  0.00     0.163 HD
BRANCH   4   7
ATOM      7  C   UNL A   1      49.945  24.834  40.212  1.00  0.00     0.112 C 
BRANCH   7   8
ATOM      8  C   UNL A   1      49.692  23.343  40.024  1.00  0.00     0.138 C 
BRANCH   8   9
ATOM      9  C   UNL A   1      50.638  22.412  39.270  1.00  0.00     0.308 C 
ATOM     10  O   UNL A   1      51.609  21.956  39.875  1.00  0.00    -0.247 OA
ATOM     11  N   UNL A   1      50.436  22.136  37.950  1.00  0.00    -0.204 N 
ATOM     12  C   UNL A   1      49.433  21.441  37.527  1.00  0.00     0.319 C 
ATOM     13  H   UNL A   1      51.080  22.482  37.291  1.00  0.00     0.316 HD
ATOM     14  S   UNL A   1      48.140  20.788  38.577  1.00  0.00    -0.029 SA
ATOM     15  N   UNL A   1      49.131  21.163  36.194  1.00  0.00    -0.216 N 
ATOM     16  C   UNL A   1      47.325  20.037  37.150  1.00  0.00     0.120 C 
ATOM     17  C   UNL A   1      47.714  20.941  35.975  1.00  0.00     0.212 C 
ATOM     18  C   UNL A   1      45.826  19.954  37.087  1.00  0.00     0.156 C 
ATOM     19  C   UNL A   1      47.199  20.203  34.759  1.00  0.00     0.188 C 
ATOM     20  S   UNL A   1      45.570  19.666  35.330  1.00  0.00     0.155 S 
ATOM     21  O   UNL A   1      45.449  18.234  35.134  1.00  0.00    -0.229 OA
ATOM     22  O   UNL A   1      44.570  20.599  34.869  1.00  0.00    -0.229 OA
BRANCH  15  23
ATOM     23  C   UNL A   1      50.067  21.106  35.165  1.00  0.00     0.132 A 
ATOM     24  C   UNL A   1      50.229  22.162  34.236  1.00  0.00     0.056 A 
ATOM     25  C   UNL A   1      50.901  19.979  35.056  1.00  0.00     0.102 A 
ATOM     26  C   UNL A   1      51.221  22.116  33.248  1.00  0.00     0.055 A 
ATOM     27  C   UNL A   1      51.876  19.964  34.086  1.00  0.00     0.170 A 
ATOM     28  C   UNL A   1      52.045  21.013  33.221  1.00  0.00     0.166 A 
ATOM     29  O   UNL A   1      52.789  18.975  33.898  1.00  0.00    -0.453 OA
ATOM     30  O   UNL A   1      53.115  20.836  32.408  1.00  0.00    -0.454 OA
ATOM     31  C   UNL A   1      53.625  19.577  32.891  1.00  0.00     0.468 C 
ENDBRANCH  15  23
ENDBRANCH   8   9
ENDBRANCH   7   8
ENDBRANCH   4   7
ENDBRANCH   2   3
ENDBRANCH   1   2
BRANCH   1  32
ATOM     32  C   UNL A   1      46.398  26.499  39.822  1.00  0.00     0.023 C 
BRANCH  32  33
ATOM     33  C   UNL A   1      45.889  25.130  39.405  1.00  0.00     0.116 C 
BRANCH  33  34
ATOM     34  N   UNL A   1      44.484  25.167  39.052  1.00  0.00    -0.352 N 
ATOM     35  C   UNL A   1      43.906  25.523  37.858  1.00  0.00     0.251 C 
ATOM     36  H   UNL A   1      43.859  24.901  39.764  1.00  0.00     0.163 HD
ATOM     37  O   UNL A   1      42.702  25.766  37.824  1.00  0.00    -0.269 OA
BRANCH  35  38
ATOM     38  C   UNL A   1      44.716  25.607  36.619  1.00  0.00     0.039 A 
ATOM     39  C   UNL A   1      45.191  24.424  36.044  1.00  0.00     0.014 A 
ATOM     40  C   UNL A   1      45.063  26.838  36.057  1.00  0.00     0.014 A 
ATOM     41  C   UNL A   1      45.996  24.477  34.903  1.00  0.00     0.010 A 
ATOM     42  C   UNL A   1      45.791  26.884  34.869  1.00  0.00     0.010 A 
ATOM     43  C   UNL A   1      46.292  25.708  34.294  1.00  0.00    -0.014 A 
BRANCH  43  44
ATOM     44  C   UNL A   1      47.152  25.786  33.080  1.00  0.00     0.031 A 
ATOM     45  C   UNL A   1      46.550  25.581  31.713  1.00  0.00     0.074 A 
ATOM     46  C   UNL A   1      48.482  25.971  33.202  1.00  0.00     0.049 A 
ATOM     47  N   UNL A   1      47.142  25.560  30.546  1.00  0.00    -0.248 NA
ATOM     48  C   UNL A   1      45.096  25.350  31.647  1.00  0.00     0.031 C 
ATOM     49  C   UNL A   1      49.196  26.133  34.467  1.00  0.00     0.029 A 
ATOM     50  N   UNL A   1      49.477  26.026  32.257  1.00  0.00    -0.354 N 
ATOM     51  C   UNL A   1      46.145  25.285  29.618  1.00  0.00     0.074 A 
ATOM     52  C   UNL A   1      44.918  25.097  30.358  1.00  0.00     0.031 C 
ATOM     53  C   UNL A   1      50.512  26.239  34.230  1.00  0.00     0.029 A 
ATOM     54  C   UNL A   1      50.740  26.152  32.793  1.00  0.00     0.049 A 
ATOM     55  H   UNL A   1      49.304  25.979  31.290  1.00  0.00     0.167 HD
ATOM     56  C   UNL A   1      46.234  25.231  28.267  1.00  0.00     0.034 A 
ATOM     57  C   UNL A   1      51.946  26.192  32.196  1.00  0.00     0.034 A 
ATOM     58  C   UNL A   1      47.447  25.467  27.533  1.00  0.00     0.049 A 
ATOM     59  C   UNL A   1      52.015  26.156  30.695  1.00  0.00     0.074 A 
ATOM     60  C   UNL A   1      47.623  25.526  26.161  1.00  0.00     0.029 A 
ATOM     61  N   UNL A   1      48.691  25.676  28.106  1.00  0.00    -0.354 N 
ATOM     62  N   UNL A   1      51.035  26.055  29.829  1.00  0.00    -0.248 NA
ATOM     63  C   UNL A   1      53.344  26.292  30.086  1.00  0.00     0.031 C 
ATOM     64  C   UNL A   1      48.980  25.741  25.906  1.00  0.00     0.029 A 
ATOM     65  C   UNL A   1      49.644  25.852  27.118  1.00  0.00     0.049 A 
ATOM     66  H   UNL A   1      48.871  25.696  29.074  1.00  0.00     0.167 HD
ATOM     67  C   UNL A   1      51.624  26.158  28.576  1.00  0.00     0.074 A 
ATOM     68  C   UNL A   1      53.043  26.349  28.796  1.00  0.00     0.031 C 
ATOM     69  C   UNL A   1      51.044  26.090  27.352  1.00  0.00     0.034 A 
BRANCH  56  70
ATOM     70  C   UNL A   1      44.970  24.961  27.491  1.00  0.00     0.023 A 
ATOM     71  C   UNL A   1      44.316  26.023  26.833  1.00  0.00     0.012 A 
ATOM     72  C   UNL A   1      44.466  23.652  27.359  1.00  0.00     0.148 A 
ATOM     73  C   UNL A   1      43.161  25.794  26.086  1.00  0.00     0.002 A 
ATOM     74  C   UNL A   1      43.342  23.424  26.574  1.00  0.00     0.091 A 
ATOM     75  F   UNL A   1      45.091  22.659  28.007  1.00  0.00    -0.205 F 
ATOM     76  C   UNL A   1      42.682  24.494  25.948  1.00  0.00     0.022 A 
BRANCH  74  77
ATOM     77  S   UNL A   1      42.691  21.779  26.266  1.00  0.00     0.127 S 
ATOM     78  O   UNL A   1      42.374  21.329  27.620  1.00  0.00    -0.237 OA
ATOM     79  O   UNL A   1      41.524  22.064  25.429  1.00  0.00    -0.237 OA
ATOM     80  O   UNL A   1      43.754  21.042  25.599  1.00  0.00    -0.744 OA
ENDBRANCH  74  77
ENDBRANCH  56  70
BRANCH  57  81
ATOM     81  C   UNL A   1      53.183  26.347  33.016  1.00  0.00     0.023 A 
ATOM     82  C   UNL A   1      53.564  27.627  33.462  1.00  0.00     0.012 A 
ATOM     83  C   UNL A   1      53.970  25.233  33.370  1.00  0.00     0.148 A 
ATOM     84  C   UNL A   1      54.730  27.803  34.208  1.00  0.00     0.002 A 
ATOM     85  C   UNL A   1      55.101  25.409  34.159  1.00  0.00     0.091 A 
ATOM     86  F   UNL A   1      53.593  24.024  32.933  1.00  0.00    -0.205 F 
ATOM     87  C   UNL A   1      55.494  26.695  34.563  1.00  0.00     0.022 A 
BRANCH  85  88
ATOM     88  S   UNL A   1      56.075  24.029  34.770  1.00  0.00     0.127 S 
ATOM     89  O   UNL A   1      57.137  24.715  35.501  1.00  0.00    -0.237 OA
ATOM     90  O   UNL A   1      55.104  23.324  35.609  1.00  0.00    -0.237 OA
ATOM     91  O   UNL A   1      56.495  23.290  33.588  1.00  0.00    -0.744 OA
ENDBRANCH  85  88
ENDBRANCH  57  81
BRANCH  69  92
ATOM     92  C   UNL A   1      51.932  26.266  26.149  1.00  0.00     0.023 A 
ATOM     93  C   UNL A   1      52.610  25.156  25.608  1.00  0.00     0.012 A 
ATOM     94  C   UNL A   1      52.038  27.519  25.515  1.00  0.00     0.148 A 
ATOM     95  C   UNL A   1      53.407  25.299  24.473  1.00  0.00     0.002 A 
ATOM     96  C   UNL A   1      52.790  27.642  24.355  1.00  0.00     0.091 A 
ATOM     97  F   UNL A   1      51.400  28.566  26.059  1.00  0.00    -0.205 F 
ATOM     98  C   UNL A   1      53.487  26.536  23.840  1.00  0.00     0.022 A 
BRANCH  96  99
ATOM     99  S   UNL A   1      52.869  29.171  23.415  1.00  0.00     0.127 S 
ATOM    100  O   UNL A   1      51.457  29.413  23.123  1.00  0.00    -0.237 OA
ATOM    101  O   UNL A   1      53.461  30.097  24.379  1.00  0.00    -0.237 OA
ATOM    102  O   UNL A   1      53.705  28.888  22.255  1.00  0.00    -0.744 OA
ENDBRANCH  96  99
ENDBRANCH  69  92
ENDBRANCH  43  44
ENDBRANCH  35  38
ENDBRANCH  33  34
ENDBRANCH  32  33
ENDBRANCH   1  32
TORSDOF 17
ENDMDL
MODEL 2
REMARK VINA RESULT:      -8.7     11.792     18.142
REMARK SMILES O=C(CCC(=O)/[NH+]=C1\S[C@H]2CS(=O)(=O)C[C@@H]2N1c1ccc2c(c1)OCO2)NCCCCNC(=O)c1ccc(-c2c3nc(c(-c4cccc(S(=O)(=O)[O-])c4F)c4ccc([nH]4)c(-c4cccc(S(=O)(=O)[O-])c4F)c4nc(c(-c5cccc(S(=O)(=O)[O-])c5F)c5ccc2[nH]5)C=C4)C=C3)cc1
REMARK SMILES IDX 29 1 28 2 27 3 2 4 1 5 3 7 4 8 5 9 6 10 7 11 8 12 9 14 17 15
REMARK SMILES IDX 10 16 16 17 11 18 15 19 12 20 13 21 14 22 18 23 19 24 23 25
REMARK SMILES IDX 20 26 22 27 21 28 24 29 26 30 25 31 30 32 31 33 32 34 33 35
REMARK SMILES IDX 34 37 35 38 36 39 97 40 37 41 96 42 38 43 39 44 40 45 90 46
REMARK SMILES IDX 41 47 95 48 89 49 91 50 42 51 94 52 88 53 87 54 43 56 75 57
REMARK SMILES IDX 55 58 74 59 56 60 59 61 73 62 92 63 57 64 58 65 72 67 93 68
REMARK SMILES IDX 60 69 44 70 45 71 53 72 46 73 48 74 54 75 47 76 49 77 50 78
REMARK SMILES IDX 51 79 52 80 76 81 77 82 85 83 78 84 80 85 86 86 79 87 81 88
REMARK SMILES IDX 82 89 83 90 84 91 61 92 62 93 70 94 63 95 65 96 71 97 64 98
REMARK SMILES IDX 66 99 67 100 68 101 69 102
REMARK H PARENT 27 6 7 13 32 36 91 55 59 66
REMARK Flexibility Score: inf
ROOT
ATOM      1  C   UNL A   1      42.656  39.770  28.852  1.00  0.00     0.023 C 
ENDROOT
BRANCH   1   2
ATOM      2  C   UNL A   1      43.177  40.765  27.814  1.00  0.00     0.116 C 
BRANCH   2   3
ATOM      3  N   UNL A   1      42.370  40.853  26.610  1.00  0.00    -0.356 N 
ATOM      4  C   UNL A   1      42.597  41.511  25.444  1.00  0.00     0.220 C 
ATOM      5  O   UNL A   1      41.802  41.371  24.513  1.00  0.00    -0.275 OA
ATOM      6  H   UNL A   1      41.521  40.354  26.644  1.00  0.00     0.163 HD
BRANCH   4   7
ATOM      7  C   UNL A   1      43.808  42.393  25.295  1.00  0.00     0.112 C 
BRANCH   7   8
ATOM      8  C   UNL A   1      44.250  42.784  23.890  1.00  0.00     0.138 C 
BRANCH   8   9
ATOM      9  C   UNL A   1      43.644  43.943  23.103  1.00  0.00     0.308 C 
ATOM     10  O   UNL A   1      42.826  44.666  23.672  1.00  0.00    -0.247 OA
ATOM     11  N   UNL A   1      43.965  44.136  21.792  1.00  0.00    -0.204 N 
ATOM     12  C   UNL A   1      45.141  44.506  21.409  1.00  0.00     0.319 C 
ATOM     13  H   UNL A   1      43.272  43.986  21.109  1.00  0.00     0.316 HD
ATOM     14  S   UNL A   1      46.528  44.765  22.507  1.00  0.00    -0.029 SA
ATOM     15  N   UNL A   1      45.559  44.673  20.088  1.00  0.00    -0.216 N 
ATOM     16  C   UNL A   1      47.578  45.234  21.114  1.00  0.00     0.120 C 
ATOM     17  C   UNL A   1      46.986  44.471  19.923  1.00  0.00     0.212 C 
ATOM     18  C   UNL A   1      49.038  44.878  21.107  1.00  0.00     0.156 C 
ATOM     19  C   UNL A   1      47.738  45.017  18.728  1.00  0.00     0.188 C 
ATOM     20  S   UNL A   1      49.430  45.063  19.361  1.00  0.00     0.155 S 
ATOM     21  O   UNL A   1      49.969  46.397  19.172  1.00  0.00    -0.229 OA
ATOM     22  O   UNL A   1      50.132  43.876  18.936  1.00  0.00    -0.229 OA
BRANCH  15  23
ATOM     23  C   UNL A   1      44.718  44.989  19.025  1.00  0.00     0.132 A 
ATOM     24  C   UNL A   1      44.214  44.001  18.145  1.00  0.00     0.056 A 
ATOM     25  C   UNL A   1      44.330  46.326  18.831  1.00  0.00     0.102 A 
ATOM     26  C   UNL A   1      43.316  44.330  17.121  1.00  0.00     0.055 A 
ATOM     27  C   UNL A   1      43.437  46.621  17.827  1.00  0.00     0.170 A 
ATOM     28  C   UNL A   1      42.928  45.646  17.009  1.00  0.00     0.166 A 
ATOM     29  O   UNL A   1      42.928  47.852  17.557  1.00  0.00    -0.453 OA
ATOM     30  O   UNL A   1      41.999  46.135  16.151  1.00  0.00    -0.454 OA
ATOM     31  C   UNL A   1      41.950  47.518  16.553  1.00  0.00     0.468 C 
ENDBRANCH  15  23
ENDBRANCH   8   9
ENDBRANCH   7   8
ENDBRANCH   4   7
ENDBRANCH   2   3
ENDBRANCH   1   2
BRANCH   1  32
ATOM     32  C   UNL A   1      43.570  39.550  30.056  1.00  0.00     0.023 C 
BRANCH  32  33
ATOM     33  C   UNL A   1      44.244  38.190  30.113  1.00  0.00     0.116 C 
BRANCH  33  34
ATOM     34  N   UNL A   1      45.613  38.252  29.638  1.00  0.00    -0.352 N 
ATOM     35  C   UNL A   1      46.466  37.220  29.334  1.00  0.00     0.251 C 
ATOM     36  H   UNL A   1      45.979  39.157  29.516  1.00  0.00     0.163 HD
ATOM     37  O   UNL A   1      47.668  37.450  29.218  1.00  0.00    -0.269 OA
BRANCH  35  38
ATOM     38  C   UNL A   1      45.951  35.843  29.138  1.00  0.00     0.039 A 
ATOM     39  C   UNL A   1      45.305  35.530  27.939  1.00  0.00     0.014 A 
ATOM     40  C   UNL A   1      46.043  34.881  30.148  1.00  0.00     0.014 A 
ATOM     41  C   UNL A   1      44.769  34.254  27.748  1.00  0.00     0.010 A 
ATOM     42  C   UNL A   1      45.587  33.583  29.919  1.00  0.00     0.010 A 
ATOM     43  C   UNL A   1      44.917  33.261  28.731  1.00  0.00    -0.014 A 
BRANCH  43  44
ATOM     44  C   UNL A   1      44.348  31.897  28.548  1.00  0.00     0.031 A 
ATOM     45  C   UNL A   1      42.994  31.560  29.119  1.00  0.00     0.074 A 
ATOM     46  C   UNL A   1      45.070  30.938  27.933  1.00  0.00     0.049 A 
ATOM     47  N   UNL A   1      42.356  30.418  29.110  1.00  0.00    -0.248 NA
ATOM     48  C   UNL A   1      42.268  32.641  29.810  1.00  0.00     0.031 C 
ATOM     49  C   UNL A   1      46.411  31.119  27.381  1.00  0.00     0.029 A 
ATOM     50  N   UNL A   1      44.795  29.614  27.694  1.00  0.00    -0.354 N 
ATOM     51  C   UNL A   1      41.177  30.634  29.813  1.00  0.00     0.074 A 
ATOM     52  C   UNL A   1      41.207  32.002  30.279  1.00  0.00     0.031 C 
ATOM     53  C   UNL A   1      46.857  29.952  26.894  1.00  0.00     0.029 A 
ATOM     54  C   UNL A   1      45.834  28.934  27.099  1.00  0.00     0.049 A 
ATOM     55  H   UNL A   1      43.936  29.192  27.925  1.00  0.00     0.167 HD
ATOM     56  C   UNL A   1      40.144  29.783  30.019  1.00  0.00     0.034 A 
ATOM     57  C   UNL A   1      45.953  27.637  26.758  1.00  0.00     0.034 A 
ATOM     58  C   UNL A   1      40.097  28.439  29.511  1.00  0.00     0.049 A 
ATOM     59  C   UNL A   1      44.782  26.720  26.975  1.00  0.00     0.074 A 
ATOM     60  C   UNL A   1      39.058  27.527  29.587  1.00  0.00     0.029 A 
ATOM     61  N   UNL A   1      41.133  27.810  28.840  1.00  0.00    -0.354 N 
ATOM     62  N   UNL A   1      43.612  26.990  27.500  1.00  0.00    -0.248 NA
ATOM     63  C   UNL A   1      44.925  25.335  26.506  1.00  0.00     0.031 C 
ATOM     64  C   UNL A   1      39.479  26.337  28.986  1.00  0.00     0.029 A 
ATOM     65  C   UNL A   1      40.766  26.518  28.506  1.00  0.00     0.049 A 
ATOM     66  H   UNL A   1      42.003  28.222  28.632  1.00  0.00     0.167 HD
ATOM     67  C   UNL A   1      42.866  25.824  27.387  1.00  0.00     0.074 A 
ATOM     68  C   UNL A   1      43.710  24.851  26.725  1.00  0.00     0.031 C 
ATOM     69  C   UNL A   1      41.599  25.578  27.803  1.00  0.00     0.034 A 
BRANCH  56  70
ATOM     70  C   UNL A   1      38.951  30.299  30.782  1.00  0.00     0.023 A 
ATOM     71  C   UNL A   1      38.927  30.203  32.188  1.00  0.00     0.012 A 
ATOM     72  C   UNL A   1      37.885  30.936  30.116  1.00  0.00     0.148 A 
ATOM     73  C   UNL A   1      37.847  30.698  32.918  1.00  0.00     0.002 A 
ATOM     74  C   UNL A   1      36.834  31.470  30.853  1.00  0.00     0.091 A 
ATOM     75  F   UNL A   1      37.915  31.001  28.777  1.00  0.00    -0.205 F 
ATOM     76  C   UNL A   1      36.807  31.341  32.251  1.00  0.00     0.022 A 
BRANCH  74  77
ATOM     77  S   UNL A   1      35.486  32.387  30.099  1.00  0.00     0.127 S 
ATOM     78  O   UNL A   1      35.058  31.467  29.046  1.00  0.00    -0.237 OA
ATOM     79  O   UNL A   1      34.545  32.519  31.213  1.00  0.00    -0.237 OA
ATOM     80  O   UNL A   1      36.061  33.641  29.634  1.00  0.00    -0.744 OA
ENDBRANCH  74  77
ENDBRANCH  56  70
BRANCH  57  81
ATOM     81  C   UNL A   1      47.201  27.145  26.106  1.00  0.00     0.023 A 
ATOM     82  C   UNL A   1      47.310  27.177  24.702  1.00  0.00     0.012 A 
ATOM     83  C   UNL A   1      48.284  26.662  26.868  1.00  0.00     0.148 A 
ATOM     84  C   UNL A   1      48.456  26.699  24.066  1.00  0.00     0.002 A 
ATOM     85  C   UNL A   1      49.443  26.238  26.230  1.00  0.00     0.091 A 
ATOM     86  F   UNL A   1      48.160  26.636  28.202  1.00  0.00    -0.205 F 
ATOM     87  C   UNL A   1      49.525  26.237  24.828  1.00  0.00     0.022 A 
BRANCH  85  88
ATOM     88  S   UNL A   1      50.917  25.745  27.133  1.00  0.00     0.127 S 
ATOM     89  O   UNL A   1      51.554  24.834  26.188  1.00  0.00    -0.237 OA
ATOM     90  O   UNL A   1      51.601  27.027  27.313  1.00  0.00    -0.237 OA
ATOM     91  O   UNL A   1      50.436  25.143  28.369  1.00  0.00    -0.744 OA
ENDBRANCH  85  88
ENDBRANCH  57  81
BRANCH  69  92
ATOM     92  C   UNL A   1      41.025  24.214  27.519  1.00  0.00     0.023 A 
ATOM     93  C   UNL A   1      41.575  23.077  28.142  1.00  0.00     0.012 A 
ATOM     94  C   UNL A   1      39.896  24.073  26.689  1.00  0.00     0.148 A 
ATOM     95  C   UNL A   1      41.030  21.814  27.915  1.00  0.00     0.002 A 
ATOM     96  C   UNL A   1      39.325  22.820  26.511  1.00  0.00     0.091 A 
ATOM     97  F   UNL A   1      39.400  25.167  26.092  1.00  0.00    -0.205 F 
ATOM     98  C   UNL A   1      39.900  21.687  27.111  1.00  0.00     0.022 A 
BRANCH  96  99
ATOM     99  S   UNL A   1      37.811  22.574  25.577  1.00  0.00     0.127 S 
ATOM    100  O   UNL A   1      38.088  21.317  24.886  1.00  0.00    -0.237 OA
ATOM    101  O   UNL A   1      36.807  22.481  26.637  1.00  0.00    -0.237 OA
ATOM    102  O   UNL A   1      37.675  23.741  24.716  1.00  0.00    -0.744 OA
ENDBRANCH  96  99
ENDBRANCH  69  92
ENDBRANCH  43  44
ENDBRANCH  35  38
ENDBRANCH  33  34
ENDBRANCH  32  33
ENDBRANCH   1  32
TORSDOF 17
ENDMDL
MODEL 3
REMARK VINA RESULT:      -8.5     12.952     17.931
REMARK SMILES O=C(CCC(=O)/[NH+]=C1\S[C@H]2CS(=O)(=O)C[C@@H]2N1c1ccc2c(c1)OCO2)NCCCCNC(=O)c1ccc(-c2c3nc(c(-c4cccc(S(=O)(=O)[O-])c4F)c4ccc([nH]4)c(-c4cccc(S(=O)(=O)[O-])c4F)c4nc(c(-c5cccc(S(=O)(=O)[O-])c5F)c5ccc2[nH]5)C=C4)C=C3)cc1
REMARK SMILES IDX 29 1 28 2 27 3 2 4 1 5 3 7 4 8 5 9 6 10 7 11 8 12 9 14 17 15
REMARK SMILES IDX 10 16 16 17 11 18 15 19 12 20 13 21 14 22 18 23 19 24 23 25
REMARK SMILES IDX 20 26 22 27 21 28 24 29 26 30 25 31 30 32 31 33 32 34 33 35
REMARK SMILES IDX 34 37 35 38 36 39 97 40 37 41 96 42 38 43 39 44 40 45 90 46
REMARK SMILES IDX 41 47 95 48 89 49 91 50 42 51 94 52 88 53 87 54 43 56 75 57
REMARK SMILES IDX 55 58 74 59 56 60 59 61 73 62 92 63 57 64 58 65 72 67 93 68
REMARK SMILES IDX 60 69 44 70 45 71 53 72 46 73 48 74 54 75 47 76 49 77 50 78
REMARK SMILES IDX 51 79 52 80 76 81 77 82 85 83 78 84 80 85 86 86 79 87 81 88
REMARK SMILES IDX 82 89 83 90 84 91 61 92 62 93 70 94 63 95 65 96 71 97 64 98
REMARK SMILES IDX 66 99 67 100 68 101 69 102
REMARK H PARENT 27 6 7 13 32 36 91 55 59 66
REMARK Flexibility Score: inf
ROOT
ATOM      1  C   UNL A   1      47.429  36.646  27.266  1.00  0.00     0.023 C 
ENDROOT
BRANCH   1   2
ATOM      2  C   UNL A   1      47.860  38.059  27.662  1.00  0.00     0.116 C 
BRANCH   2   3
ATOM      3  N   UNL A   1      49.277  38.325  27.487  1.00  0.00    -0.356 N 
ATOM      4  C   UNL A   1      50.007  39.434  27.773  1.00  0.00     0.220 C 
ATOM      5  O   UNL A   1      51.229  39.403  27.619  1.00  0.00    -0.275 OA
ATOM      6  H   UNL A   1      49.792  37.581  27.097  1.00  0.00     0.163 HD
BRANCH   4   7
ATOM      7  C   UNL A   1      49.327  40.678  28.279  1.00  0.00     0.112 C 
BRANCH   7   8
ATOM      8  C   UNL A   1      48.560  40.601  29.593  1.00  0.00     0.138 C 
BRANCH   8   9
ATOM      9  C   UNL A   1      47.771  41.767  30.183  1.00  0.00     0.308 C 
ATOM     10  O   UNL A   1      48.363  42.829  30.378  1.00  0.00    -0.247 OA
ATOM     11  N   UNL A   1      46.461  41.615  30.530  1.00  0.00    -0.204 N 
ATOM     12  C   UNL A   1      45.524  41.438  29.659  1.00  0.00     0.319 C 
ATOM     13  H   UNL A   1      46.219  41.640  31.484  1.00  0.00     0.316 HD
ATOM     14  S   UNL A   1      45.793  41.307  27.896  1.00  0.00    -0.029 SA
ATOM     15  N   UNL A   1      44.175  41.223  29.939  1.00  0.00    -0.216 N 
ATOM     16  C   UNL A   1      44.019  41.111  27.613  1.00  0.00     0.120 C 
ATOM     17  C   UNL A   1      43.502  40.462  28.902  1.00  0.00     0.212 C 
ATOM     18  C   UNL A   1      43.518  40.223  26.511  1.00  0.00     0.156 C 
ATOM     19  C   UNL A   1      41.997  40.482  28.744  1.00  0.00     0.188 C 
ATOM     20  S   UNL A   1      41.812  39.968  27.021  1.00  0.00     0.155 S 
ATOM     21  O   UNL A   1      40.996  40.943  26.323  1.00  0.00    -0.229 OA
ATOM     22  O   UNL A   1      41.540  38.552  26.971  1.00  0.00    -0.229 OA
BRANCH  15  23
ATOM     23  C   UNL A   1      43.521  41.670  31.084  1.00  0.00     0.132 A 
ATOM     24  C   UNL A   1      43.212  40.805  32.161  1.00  0.00     0.056 A 
ATOM     25  C   UNL A   1      43.181  43.030  31.193  1.00  0.00     0.102 A 
ATOM     26  C   UNL A   1      42.615  41.287  33.333  1.00  0.00     0.055 A 
ATOM     27  C   UNL A   1      42.607  43.481  32.358  1.00  0.00     0.170 A 
ATOM     28  C   UNL A   1      42.351  42.636  33.407  1.00  0.00     0.166 A 
ATOM     29  O   UNL A   1      42.277  44.771  32.630  1.00  0.00    -0.453 OA
ATOM     30  O   UNL A   1      41.870  43.297  34.488  1.00  0.00    -0.454 OA
ATOM     31  C   UNL A   1      41.895  44.659  34.015  1.00  0.00     0.468 C 
ENDBRANCH  15  23
ENDBRANCH   8   9
ENDBRANCH   7   8
ENDBRANCH   4   7
ENDBRANCH   2   3
ENDBRANCH   1   2
BRANCH   1  32
ATOM     32  C   UNL A   1      47.373  36.382  25.763  1.00  0.00     0.023 C 
BRANCH  32  33
ATOM     33  C   UNL A   1      47.168  34.927  25.373  1.00  0.00     0.116 C 
BRANCH  33  34
ATOM     34  N   UNL A   1      45.938  34.743  24.628  1.00  0.00    -0.352 N 
ATOM     35  C   UNL A   1      44.687  34.426  25.096  1.00  0.00     0.251 C 
ATOM     36  H   UNL A   1      46.010  34.861  23.653  1.00  0.00     0.163 HD
ATOM     37  O   UNL A   1      43.832  34.034  24.305  1.00  0.00    -0.269 OA
BRANCH  35  38
ATOM     38  C   UNL A   1      44.361  34.558  26.537  1.00  0.00     0.039 A 
ATOM     39  C   UNL A   1      43.736  35.727  26.981  1.00  0.00     0.014 A 
ATOM     40  C   UNL A   1      44.723  33.572  27.459  1.00  0.00     0.014 A 
ATOM     41  C   UNL A   1      43.461  35.898  28.340  1.00  0.00     0.010 A 
ATOM     42  C   UNL A   1      44.366  33.706  28.801  1.00  0.00     0.010 A 
ATOM     43  C   UNL A   1      43.759  34.882  29.264  1.00  0.00    -0.014 A 
BRANCH  43  44
ATOM     44  C   UNL A   1      43.478  35.047  30.717  1.00  0.00     0.031 A 
ATOM     45  C   UNL A   1      42.181  34.542  31.297  1.00  0.00     0.074 A 
ATOM     46  C   UNL A   1      44.348  35.708  31.505  1.00  0.00     0.049 A 
ATOM     47  N   UNL A   1      41.733  34.638  32.523  1.00  0.00    -0.248 NA
ATOM     48  C   UNL A   1      41.254  33.857  30.378  1.00  0.00     0.031 C 
ATOM     49  C   UNL A   1      45.614  36.289  31.059  1.00  0.00     0.029 A 
ATOM     50  N   UNL A   1      44.294  36.032  32.839  1.00  0.00    -0.354 N 
ATOM     51  C   UNL A   1      40.471  34.058  32.514  1.00  0.00     0.074 A 
ATOM     52  C   UNL A   1      40.199  33.654  31.153  1.00  0.00     0.031 C 
ATOM     53  C   UNL A   1      46.203  36.921  32.084  1.00  0.00     0.029 A 
ATOM     54  C   UNL A   1      45.359  36.794  33.265  1.00  0.00     0.049 A 
ATOM     55  H   UNL A   1      43.563  35.746  33.433  1.00  0.00     0.167 HD
ATOM     56  C   UNL A   1      39.629  33.842  33.553  1.00  0.00     0.034 A 
ATOM     57  C   UNL A   1      45.626  37.332  34.470  1.00  0.00     0.034 A 
ATOM     58  C   UNL A   1      39.924  34.200  34.913  1.00  0.00     0.049 A 
ATOM     59  C   UNL A   1      44.687  37.057  35.612  1.00  0.00     0.074 A 
ATOM     60  C   UNL A   1      39.178  33.944  36.051  1.00  0.00     0.029 A 
ATOM     61  N   UNL A   1      41.051  34.896  35.322  1.00  0.00    -0.354 N 
ATOM     62  N   UNL A   1      43.574  36.365  35.612  1.00  0.00    -0.248 NA
ATOM     63  C   UNL A   1      45.065  37.590  36.928  1.00  0.00     0.031 C 
ATOM     64  C   UNL A   1      39.841  34.512  37.143  1.00  0.00     0.029 A 
ATOM     65  C   UNL A   1      41.016  35.090  36.692  1.00  0.00     0.049 A 
ATOM     66  H   UNL A   1      41.769  35.207  34.725  1.00  0.00     0.167 HD
ATOM     67  C   UNL A   1      43.141  36.343  36.932  1.00  0.00     0.074 A 
ATOM     68  C   UNL A   1      44.123  37.074  37.705  1.00  0.00     0.031 C 
ATOM     69  C   UNL A   1      42.026  35.777  37.455  1.00  0.00     0.034 A 
BRANCH  56  70
ATOM     70  C   UNL A   1      38.328  33.136  33.267  1.00  0.00     0.023 A 
ATOM     71  C   UNL A   1      38.275  31.728  33.310  1.00  0.00     0.012 A 
ATOM     72  C   UNL A   1      37.147  33.864  33.021  1.00  0.00     0.148 A 
ATOM     73  C   UNL A   1      37.077  31.053  33.076  1.00  0.00     0.002 A 
ATOM     74  C   UNL A   1      35.948  33.186  32.836  1.00  0.00     0.091 A 
ATOM     75  F   UNL A   1      37.220  35.202  32.966  1.00  0.00    -0.205 F 
ATOM     76  C   UNL A   1      35.913  31.782  32.851  1.00  0.00     0.022 A 
BRANCH  74  77
ATOM     77  S   UNL A   1      34.378  34.032  32.618  1.00  0.00     0.127 S 
ATOM     78  O   UNL A   1      33.424  32.962  32.907  1.00  0.00    -0.237 OA
ATOM     79  O   UNL A   1      34.450  35.078  33.640  1.00  0.00    -0.237 OA
ATOM     80  O   UNL A   1      34.369  34.519  31.246  1.00  0.00    -0.744 OA
ENDBRANCH  74  77
ENDBRANCH  56  70
BRANCH  57  81
ATOM     81  C   UNL A   1      46.874  38.122  34.678  1.00  0.00     0.023 A 
ATOM     82  C   UNL A   1      48.061  37.460  35.046  1.00  0.00     0.012 A 
ATOM     83  C   UNL A   1      46.895  39.519  34.496  1.00  0.00     0.148 A 
ATOM     84  C   UNL A   1      49.236  38.177  35.272  1.00  0.00     0.002 A 
ATOM     85  C   UNL A   1      48.082  40.221  34.670  1.00  0.00     0.091 A 
ATOM     86  F   UNL A   1      45.755  40.131  34.149  1.00  0.00    -0.205 F 
ATOM     87  C   UNL A   1      49.250  39.555  35.077  1.00  0.00     0.022 A 
BRANCH  85  88
ATOM     88  S   UNL A   1      48.225  41.977  34.319  1.00  0.00     0.127 S 
ATOM     89  O   UNL A   1      48.335  42.541  35.661  1.00  0.00    -0.237 OA
ATOM     90  O   UNL A   1      49.455  42.026  33.526  1.00  0.00    -0.237 OA
ATOM     91  O   UNL A   1      47.021  42.329  33.580  1.00  0.00    -0.744 OA
ENDBRANCH  85  88
ENDBRANCH  57  81
BRANCH  69  92
ATOM     92  C   UNL A   1      41.821  35.885  38.943  1.00  0.00     0.023 A 
ATOM     93  C   UNL A   1      42.448  34.967  39.808  1.00  0.00     0.012 A 
ATOM     94  C   UNL A   1      41.063  36.941  39.485  1.00  0.00     0.148 A 
ATOM     95  C   UNL A   1      42.295  35.078  41.189  1.00  0.00     0.002 A 
ATOM     96  C   UNL A   1      40.959  37.078  40.863  1.00  0.00     0.091 A 
ATOM     97  F   UNL A   1      40.459  37.793  38.643  1.00  0.00    -0.205 F 
ATOM     98  C   UNL A   1      41.563  36.139  41.716  1.00  0.00     0.022 A 
BRANCH  96  99
ATOM     99  S   UNL A   1      40.123  38.468  41.634  1.00  0.00     0.127 S 
ATOM    100  O   UNL A   1      38.926  38.592  40.805  1.00  0.00    -0.237 OA
ATOM    101  O   UNL A   1      39.880  37.970  42.987  1.00  0.00    -0.237 OA
ATOM    102  O   UNL A   1      41.052  39.588  41.559  1.00  0.00    -0.744 OA
ENDBRANCH  96  99
ENDBRANCH  69  92
ENDBRANCH  43  44
ENDBRANCH  35  38
ENDBRANCH  33  34
ENDBRANCH  32  33
ENDBRANCH   1  32
TORSDOF 17
ENDMDL
