MODEL 1
REMARK VINA RESULT:     -11.8      0.000      0.000
REMARK SMILES C[C@@H](Sc1nc2c(cc1C#N)CCC2)C(=O)NCCCCNC(=O)c1ccc(-c2c3nc(c(-c4cccc(S(=O)(=O)[O-])c4F)c4ccc([nH]4)c(-c4cccc(S(=O)(=O)[O-])c4F)c4nc(c(-c5cccc(S(=O)(=O)[O-])c5F)c5ccc2[nH]5)C=C4)C=C3)cc1
REMARK SMILES IDX 19 1 18 2 17 3 15 4 16 5 2 7 1 8 3 9 4 10 5 11 9 12 6 13
REMARK SMILES IDX 8 14 7 15 14 16 12 17 13 18 10 19 11 20 20 21 21 22 22 23
REMARK SMILES IDX 23 24 24 26 25 27 26 28 87 29 27 30 86 31 28 32 29 33 30 34
REMARK SMILES IDX 80 35 31 36 85 37 79 38 81 39 32 40 84 41 78 42 77 43 33 45
REMARK SMILES IDX 65 46 45 47 64 48 46 49 49 50 63 51 82 52 47 53 48 54 62 56
REMARK SMILES IDX 83 57 50 58 34 59 35 60 43 61 36 62 38 63 44 64 37 65 39 66
REMARK SMILES IDX 40 67 41 68 42 69 66 70 67 71 75 72 68 73 70 74 76 75 69 76
REMARK SMILES IDX 71 77 72 78 73 79 74 80 51 81 52 82 60 83 53 84 55 85 61 86
REMARK SMILES IDX 54 87 56 88 57 89 58 90 59 91
REMARK H PARENT 17 6 22 25 81 44 49 55
REMARK Flexibility Score: inf
ROOT
ATOM      1  C   UNL A   1      31.495  27.880  26.962  1.00  0.00     0.023 C 
ENDROOT
BRANCH   1   2
ATOM      2  C   UNL A   1      32.033  26.540  26.484  1.00  0.00     0.116 C 
BRANCH   2   3
ATOM      3  N   UNL A   1      31.216  25.402  26.878  1.00  0.00    -0.355 N 
ATOM      4  C   UNL A   1      31.165  24.134  26.360  1.00  0.00     0.233 C 
ATOM      5  O   UNL A   1      30.477  23.295  26.951  1.00  0.00    -0.274 OA
ATOM      6  H   UNL A   1      30.607  25.568  27.634  1.00  0.00     0.163 HD
BRANCH   4   7
ATOM      7  C   UNL A   1      31.840  23.783  25.022  1.00  0.00     0.139 C 
ATOM      8  C   UNL A   1      32.334  22.350  25.157  1.00  0.00     0.030 C 
BRANCH   7   9
ATOM      9  S   UNL A   1      30.659  24.186  23.655  1.00  0.00    -0.092 SA
BRANCH   9  10
ATOM     10  C   UNL A   1      30.567  25.934  23.395  1.00  0.00     0.115 A 
ATOM     11  N   UNL A   1      29.316  26.377  23.728  1.00  0.00    -0.245 NA
ATOM     12  C   UNL A   1      31.467  26.766  22.710  1.00  0.00     0.085 A 
ATOM     13  C   UNL A   1      28.975  27.619  23.360  1.00  0.00     0.045 A 
ATOM     14  C   UNL A   1      31.105  28.097  22.437  1.00  0.00     0.028 A 
ATOM     15  C   UNL A   1      29.830  28.508  22.741  1.00  0.00    -0.025 A 
ATOM     16  C   UNL A   1      27.598  28.203  23.499  1.00  0.00     0.057 C 
ATOM     17  C   UNL A   1      29.162  29.808  22.463  1.00  0.00     0.038 C 
ATOM     18  C   UNL A   1      27.685  29.393  22.527  1.00  0.00     0.011 C 
BRANCH  12  19
ATOM     19  C   UNL A   1      32.690  26.343  22.114  1.00  0.00     0.102 C 
ATOM     20  N   UNL A   1      33.644  25.880  21.637  1.00  0.00    -0.192 NA
ENDBRANCH  12  19
ENDBRANCH   9  10
ENDBRANCH   7   9
ENDBRANCH   4   7
ENDBRANCH   2   3
ENDBRANCH   1   2
BRANCH   1  21
ATOM     21  C   UNL A   1      31.475  28.970  25.903  1.00  0.00     0.023 C 
BRANCH  21  22
ATOM     22  C   UNL A   1      32.701  29.873  25.893  1.00  0.00     0.116 C 
BRANCH  22  23
ATOM     23  N   UNL A   1      32.418  31.231  26.337  1.00  0.00    -0.352 N 
ATOM     24  C   UNL A   1      33.124  32.005  27.228  1.00  0.00     0.251 C 
ATOM     25  H   UNL A   1      31.616  31.651  25.949  1.00  0.00     0.163 HD
ATOM     26  O   UNL A   1      32.687  33.088  27.601  1.00  0.00    -0.269 OA
BRANCH  24  27
ATOM     27  C   UNL A   1      34.405  31.491  27.754  1.00  0.00     0.039 A 
ATOM     28  C   UNL A   1      35.450  32.386  27.984  1.00  0.00     0.014 A 
ATOM     29  C   UNL A   1      34.539  30.139  28.084  1.00  0.00     0.014 A 
ATOM     30  C   UNL A   1      36.612  31.933  28.609  1.00  0.00     0.010 A 
ATOM     31  C   UNL A   1      35.655  29.714  28.794  1.00  0.00     0.010 A 
ATOM     32  C   UNL A   1      36.708  30.602  29.051  1.00  0.00    -0.014 A 
BRANCH  32  33
ATOM     33  C   UNL A   1      37.913  30.121  29.770  1.00  0.00     0.031 A 
ATOM     34  C   UNL A   1      38.195  30.599  31.166  1.00  0.00     0.074 A 
ATOM     35  C   UNL A   1      38.778  29.293  29.149  1.00  0.00     0.049 A 
ATOM     36  N   UNL A   1      39.196  30.302  31.951  1.00  0.00    -0.248 NA
ATOM     37  C   UNL A   1      37.238  31.553  31.753  1.00  0.00     0.031 C 
ATOM     38  C   UNL A   1      38.643  28.807  27.774  1.00  0.00     0.029 A 
ATOM     39  N   UNL A   1      39.945  28.722  29.589  1.00  0.00    -0.354 N 
ATOM     40  C   UNL A   1      39.002  31.042  33.110  1.00  0.00     0.074 A 
ATOM     41  C   UNL A   1      37.817  31.845  32.908  1.00  0.00     0.031 C 
ATOM     42  C   UNL A   1      39.671  27.992  27.494  1.00  0.00     0.029 A 
ATOM     43  C   UNL A   1      40.560  27.928  28.650  1.00  0.00     0.049 A 
ATOM     44  H   UNL A   1      40.309  28.867  30.493  1.00  0.00     0.167 HD
ATOM     45  C   UNL A   1      39.724  31.029  34.254  1.00  0.00     0.034 A 
ATOM     46  C   UNL A   1      41.712  27.228  28.711  1.00  0.00     0.034 A 
ATOM     47  C   UNL A   1      40.886  30.207  34.457  1.00  0.00     0.049 A 
ATOM     48  C   UNL A   1      42.502  27.235  29.992  1.00  0.00     0.074 A 
ATOM     49  C   UNL A   1      41.650  30.076  35.602  1.00  0.00     0.029 A 
ATOM     50  N   UNL A   1      41.461  29.393  33.494  1.00  0.00    -0.354 N 
ATOM     51  N   UNL A   1      42.228  27.834  31.126  1.00  0.00    -0.248 NA
ATOM     52  C   UNL A   1      43.743  26.448  30.014  1.00  0.00     0.031 C 
ATOM     53  C   UNL A   1      42.714  29.218  35.317  1.00  0.00     0.029 A 
ATOM     54  C   UNL A   1      42.585  28.772  34.012  1.00  0.00     0.049 A 
ATOM     55  H   UNL A   1      41.120  29.273  32.579  1.00  0.00     0.167 HD
ATOM     56  C   UNL A   1      43.244  27.474  32.005  1.00  0.00     0.074 A 
ATOM     57  C   UNL A   1      44.126  26.584  31.277  1.00  0.00     0.031 C 
ATOM     58  C   UNL A   1      43.435  27.856  33.292  1.00  0.00     0.034 A 
BRANCH  45  59
ATOM     59  C   UNL A   1      39.252  31.893  35.396  1.00  0.00     0.023 A 
ATOM     60  C   UNL A   1      38.382  31.353  36.367  1.00  0.00     0.012 A 
ATOM     61  C   UNL A   1      39.728  33.209  35.551  1.00  0.00     0.148 A 
ATOM     62  C   UNL A   1      37.969  32.120  37.455  1.00  0.00     0.002 A 
ATOM     63  C   UNL A   1      39.356  33.947  36.669  1.00  0.00     0.091 A 
ATOM     64  F   UNL A   1      40.537  33.712  34.609  1.00  0.00    -0.205 F 
ATOM     65  C   UNL A   1      38.467  33.409  37.613  1.00  0.00     0.022 A 
BRANCH  63  66
ATOM     66  S   UNL A   1      40.015  35.581  37.017  1.00  0.00     0.127 S 
ATOM     67  O   UNL A   1      39.340  35.909  38.273  1.00  0.00    -0.237 OA
ATOM     68  O   UNL A   1      41.447  35.310  37.147  1.00  0.00    -0.237 OA
ATOM     69  O   UNL A   1      39.651  36.415  35.882  1.00  0.00    -0.744 OA
ENDBRANCH  63  66
ENDBRANCH  45  59
BRANCH  46  70
ATOM     70  C   UNL A   1      42.139  26.409  27.540  1.00  0.00     0.023 A 
ATOM     71  C   UNL A   1      42.968  26.985  26.558  1.00  0.00     0.012 A 
ATOM     72  C   UNL A   1      41.783  25.051  27.426  1.00  0.00     0.148 A 
ATOM     73  C   UNL A   1      43.423  26.229  25.477  1.00  0.00     0.002 A 
ATOM     74  C   UNL A   1      42.288  24.287  26.381  1.00  0.00     0.091 A 
ATOM     75  F   UNL A   1      40.986  24.525  28.367  1.00  0.00    -0.205 F 
ATOM     76  C   UNL A   1      43.094  24.878  25.395  1.00  0.00     0.022 A 
BRANCH  74  77
ATOM     77  S   UNL A   1      42.036  22.513  26.267  1.00  0.00     0.127 S 
ATOM     78  O   UNL A   1      40.579  22.419  26.219  1.00  0.00    -0.237 OA
ATOM     79  O   UNL A   1      42.717  22.196  25.012  1.00  0.00    -0.237 OA
ATOM     80  O   UNL A   1      42.661  21.946  27.454  1.00  0.00    -0.744 OA
ENDBRANCH  74  77
ENDBRANCH  46  70
BRANCH  58  81
ATOM     81  C   UNL A   1      44.634  27.311  34.026  1.00  0.00     0.023 A 
ATOM     82  C   UNL A   1      45.849  28.026  34.012  1.00  0.00     0.012 A 
ATOM     83  C   UNL A   1      44.522  26.157  34.829  1.00  0.00     0.148 A 
ATOM     84  C   UNL A   1      46.938  27.587  34.764  1.00  0.00     0.002 A 
ATOM     85  C   UNL A   1      45.592  25.760  35.621  1.00  0.00     0.091 A 
ATOM     86  F   UNL A   1      43.362  25.485  34.820  1.00  0.00    -0.205 F 
ATOM     87  C   UNL A   1      46.806  26.466  35.579  1.00  0.00     0.022 A 
BRANCH  85  88
ATOM     88  S   UNL A   1      45.482  24.398  36.786  1.00  0.00     0.127 S 
ATOM     89  O   UNL A   1      44.405  24.846  37.668  1.00  0.00    -0.237 OA
ATOM     90  O   UNL A   1      45.131  23.276  35.916  1.00  0.00    -0.237 OA
ATOM     91  O   UNL A   1      46.792  24.294  37.415  1.00  0.00    -0.744 OA
ENDBRANCH  85  88
ENDBRANCH  58  81
ENDBRANCH  32  33
ENDBRANCH  24  27
ENDBRANCH  22  23
ENDBRANCH  21  22
ENDBRANCH   1  21
TORSDOF 17
ENDMDL
MODEL 2
REMARK VINA RESULT:     -11.4      5.172     10.055
REMARK SMILES C[C@@H](Sc1nc2c(cc1C#N)CCC2)C(=O)NCCCCNC(=O)c1ccc(-c2c3nc(c(-c4cccc(S(=O)(=O)[O-])c4F)c4ccc([nH]4)c(-c4cccc(S(=O)(=O)[O-])c4F)c4nc(c(-c5cccc(S(=O)(=O)[O-])c5F)c5ccc2[nH]5)C=C4)C=C3)cc1
REMARK SMILES IDX 19 1 18 2 17 3 15 4 16 5 2 7 1 8 3 9 4 10 5 11 9 12 6 13
REMARK SMILES IDX 8 14 7 15 14 16 12 17 13 18 10 19 11 20 20 21 21 22 22 23
REMARK SMILES IDX 23 24 24 26 25 27 26 28 87 29 27 30 86 31 28 32 29 33 30 34
REMARK SMILES IDX 80 35 31 36 85 37 79 38 81 39 32 40 84 41 78 42 77 43 33 45
REMARK SMILES IDX 65 46 45 47 64 48 46 49 49 50 63 51 82 52 47 53 48 54 62 56
REMARK SMILES IDX 83 57 50 58 34 59 35 60 43 61 36 62 38 63 44 64 37 65 39 66
REMARK SMILES IDX 40 67 41 68 42 69 66 70 67 71 75 72 68 73 70 74 76 75 69 76
REMARK SMILES IDX 71 77 72 78 73 79 74 80 51 81 52 82 60 83 53 84 55 85 61 86
REMARK SMILES IDX 54 87 56 88 57 89 58 90 59 91
REMARK H PARENT 17 6 22 25 81 44 49 55
REMARK Flexibility Score: inf
ROOT
ATOM      1  C   UNL A   1      35.504  21.906  26.352  1.00  0.00     0.023 C 
ENDROOT
BRANCH   1   2
ATOM      2  C   UNL A   1      34.247  22.703  26.660  1.00  0.00     0.116 C 
BRANCH   2   3
ATOM      3  N   UNL A   1      33.012  21.960  26.459  1.00  0.00    -0.355 N 
ATOM      4  C   UNL A   1      32.207  21.874  25.353  1.00  0.00     0.233 C 
ATOM      5  O   UNL A   1      31.270  21.070  25.381  1.00  0.00    -0.274 OA
ATOM      6  H   UNL A   1      32.709  21.439  27.237  1.00  0.00     0.163 HD
BRANCH   4   7
ATOM      7  C   UNL A   1      32.381  22.825  24.155  1.00  0.00     0.139 C 
ATOM      8  C   UNL A   1      32.163  21.982  22.907  1.00  0.00     0.030 C 
BRANCH   7   9
ATOM      9  S   UNL A   1      31.296  24.300  24.425  1.00  0.00    -0.092 SA
BRANCH   9  10
ATOM     10  C   UNL A   1      32.259  25.723  24.849  1.00  0.00     0.115 A 
ATOM     11  N   UNL A   1      31.827  26.223  26.046  1.00  0.00    -0.245 NA
ATOM     12  C   UNL A   1      33.143  26.454  24.040  1.00  0.00     0.085 A 
ATOM     13  C   UNL A   1      32.259  27.440  26.407  1.00  0.00     0.045 A 
ATOM     14  C   UNL A   1      33.654  27.679  24.506  1.00  0.00     0.028 A 
ATOM     15  C   UNL A   1      33.173  28.183  25.691  1.00  0.00    -0.025 A 
ATOM     16  C   UNL A   1      31.760  28.203  27.601  1.00  0.00     0.057 C 
ATOM     17  C   UNL A   1      33.456  29.488  26.348  1.00  0.00     0.038 C 
ATOM     18  C   UNL A   1      32.221  29.629  27.250  1.00  0.00     0.011 C 
BRANCH  12  19
ATOM     19  C   UNL A   1      33.473  26.143  22.689  1.00  0.00     0.102 C 
ATOM     20  N   UNL A   1      33.653  25.799  21.593  1.00  0.00    -0.192 NA
ENDBRANCH  12  19
ENDBRANCH   9  10
ENDBRANCH   7   9
ENDBRANCH   4   7
ENDBRANCH   2   3
ENDBRANCH   1   2
BRANCH   1  21
ATOM     21  C   UNL A   1      35.921  21.916  24.890  1.00  0.00     0.023 C 
BRANCH  21  22
ATOM     22  C   UNL A   1      37.424  21.966  24.656  1.00  0.00     0.116 C 
BRANCH  22  23
ATOM     23  N   UNL A   1      38.138  20.851  25.264  1.00  0.00    -0.352 N 
ATOM     24  C   UNL A   1      39.210  20.888  26.125  1.00  0.00     0.251 C 
ATOM     25  H   UNL A   1      37.811  19.953  25.027  1.00  0.00     0.163 HD
ATOM     26  O   UNL A   1      39.787  19.856  26.451  1.00  0.00    -0.269 OA
BRANCH  24  27
ATOM     27  C   UNL A   1      39.674  22.198  26.624  1.00  0.00     0.039 A 
ATOM     28  C   UNL A   1      40.794  22.248  27.453  1.00  0.00     0.014 A 
ATOM     29  C   UNL A   1      39.041  23.374  26.208  1.00  0.00     0.014 A 
ATOM     30  C   UNL A   1      41.322  23.488  27.814  1.00  0.00     0.010 A 
ATOM     31  C   UNL A   1      39.626  24.602  26.488  1.00  0.00     0.010 A 
ATOM     32  C   UNL A   1      40.763  24.673  27.305  1.00  0.00    -0.014 A 
BRANCH  32  33
ATOM     33  C   UNL A   1      41.348  25.996  27.633  1.00  0.00     0.031 A 
ATOM     34  C   UNL A   1      42.751  26.322  27.207  1.00  0.00     0.074 A 
ATOM     35  C   UNL A   1      40.635  26.885  28.355  1.00  0.00     0.049 A 
ATOM     36  N   UNL A   1      43.439  27.416  27.406  1.00  0.00    -0.248 NA
ATOM     37  C   UNL A   1      43.490  25.277  26.477  1.00  0.00     0.031 C 
ATOM     38  C   UNL A   1      39.285  26.660  28.876  1.00  0.00     0.029 A 
ATOM     39  N   UNL A   1      40.948  28.150  28.783  1.00  0.00    -0.354 N 
ATOM     40  C   UNL A   1      44.689  27.184  26.849  1.00  0.00     0.074 A 
ATOM     41  C   UNL A   1      44.687  25.828  26.350  1.00  0.00     0.031 C 
ATOM     42  C   UNL A   1      38.877  27.758  29.530  1.00  0.00     0.029 A 
ATOM     43  C   UNL A   1      39.948  28.750  29.512  1.00  0.00     0.049 A 
ATOM     44  H   UNL A   1      41.809  28.587  28.587  1.00  0.00     0.167 HD
ATOM     45  C   UNL A   1      45.734  28.036  26.730  1.00  0.00     0.034 A 
ATOM     46  C   UNL A   1      39.899  29.962  30.102  1.00  0.00     0.034 A 
ATOM     47  C   UNL A   1      45.718  29.391  27.206  1.00  0.00     0.049 A 
ATOM     48  C   UNL A   1      41.078  30.889  29.963  1.00  0.00     0.074 A 
ATOM     49  C   UNL A   1      46.704  30.354  27.078  1.00  0.00     0.029 A 
ATOM     50  N   UNL A   1      44.678  29.974  27.911  1.00  0.00    -0.354 N 
ATOM     51  N   UNL A   1      42.201  30.702  29.313  1.00  0.00    -0.248 NA
ATOM     52  C   UNL A   1      40.972  32.203  30.613  1.00  0.00     0.031 C 
ATOM     53  C   UNL A   1      46.278  31.503  27.747  1.00  0.00     0.029 A 
ATOM     54  C   UNL A   1      45.005  31.277  28.246  1.00  0.00     0.049 A 
ATOM     55  H   UNL A   1      43.830  29.529  28.139  1.00  0.00     0.167 HD
ATOM     56  C   UNL A   1      42.923  31.883  29.448  1.00  0.00     0.074 A 
ATOM     57  C   UNL A   1      42.098  32.787  30.223  1.00  0.00     0.031 C 
ATOM     58  C   UNL A   1      44.161  32.184  28.984  1.00  0.00     0.034 A 
BRANCH  45  59
ATOM     59  C   UNL A   1      46.968  27.543  26.016  1.00  0.00     0.023 A 
ATOM     60  C   UNL A   1      47.892  26.728  26.704  1.00  0.00     0.012 A 
ATOM     61  C   UNL A   1      47.172  27.818  24.651  1.00  0.00     0.148 A 
ATOM     62  C   UNL A   1      49.016  26.223  26.052  1.00  0.00     0.002 A 
ATOM     63  C   UNL A   1      48.265  27.265  23.994  1.00  0.00     0.091 A 
ATOM     64  F   UNL A   1      46.294  28.611  24.020  1.00  0.00    -0.205 F 
ATOM     65  C   UNL A   1      49.194  26.480  24.695  1.00  0.00     0.022 A 
BRANCH  63  66
ATOM     66  S   UNL A   1      48.535  27.455  22.229  1.00  0.00     0.127 S 
ATOM     67  O   UNL A   1      49.787  28.211  22.203  1.00  0.00    -0.237 OA
ATOM     68  O   UNL A   1      48.653  26.065  21.788  1.00  0.00    -0.237 OA
ATOM     69  O   UNL A   1      47.372  28.163  21.715  1.00  0.00    -0.744 OA
ENDBRANCH  63  66
ENDBRANCH  45  59
BRANCH  46  70
ATOM     70  C   UNL A   1      38.659  30.385  30.814  1.00  0.00     0.023 A 
ATOM     71  C   UNL A   1      38.531  30.129  32.193  1.00  0.00     0.012 A 
ATOM     72  C   UNL A   1      37.638  31.093  30.151  1.00  0.00     0.148 A 
ATOM     73  C   UNL A   1      37.404  30.556  32.895  1.00  0.00     0.002 A 
ATOM     74  C   UNL A   1      36.546  31.568  30.867  1.00  0.00     0.091 A 
ATOM     75  F   UNL A   1      37.776  31.319  28.837  1.00  0.00    -0.205 F 
ATOM     76  C   UNL A   1      36.419  31.286  32.236  1.00  0.00     0.022 A 
BRANCH  74  77
ATOM     77  S   UNL A   1      35.299  32.635  30.138  1.00  0.00     0.127 S 
ATOM     78  O   UNL A   1      34.771  31.791  29.069  1.00  0.00    -0.237 OA
ATOM     79  O   UNL A   1      34.391  32.843  31.265  1.00  0.00    -0.237 OA
ATOM     80  O   UNL A   1      36.005  33.831  29.701  1.00  0.00    -0.744 OA
ENDBRANCH  74  77
ENDBRANCH  46  70
BRANCH  58  81
ATOM     81  C   UNL A   1      44.717  33.555  29.277  1.00  0.00     0.023 A 
ATOM     82  C   UNL A   1      45.496  33.763  30.433  1.00  0.00     0.012 A 
ATOM     83  C   UNL A   1      44.570  34.604  28.346  1.00  0.00     0.148 A 
ATOM     84  C   UNL A   1      46.099  34.998  30.669  1.00  0.00     0.002 A 
ATOM     85  C   UNL A   1      45.222  35.812  28.559  1.00  0.00     0.091 A 
ATOM     86  F   UNL A   1      43.816  34.390  27.258  1.00  0.00    -0.205 F 
ATOM     87  C   UNL A   1      45.975  36.016  29.727  1.00  0.00     0.022 A 
BRANCH  85  88
ATOM     88  S   UNL A   1      45.216  37.143  27.352  1.00  0.00     0.127 S 
ATOM     89  O   UNL A   1      45.833  38.232  28.107  1.00  0.00    -0.237 OA
ATOM     90  O   UNL A   1      46.049  36.592  26.283  1.00  0.00    -0.237 OA
ATOM     91  O   UNL A   1      43.821  37.355  26.989  1.00  0.00    -0.744 OA
ENDBRANCH  85  88
ENDBRANCH  58  81
ENDBRANCH  32  33
ENDBRANCH  24  27
ENDBRANCH  22  23
ENDBRANCH  21  22
ENDBRANCH   1  21
TORSDOF 17
ENDMDL
MODEL 3
REMARK VINA RESULT:     -11.4      2.170      3.888
REMARK SMILES C[C@@H](Sc1nc2c(cc1C#N)CCC2)C(=O)NCCCCNC(=O)c1ccc(-c2c3nc(c(-c4cccc(S(=O)(=O)[O-])c4F)c4ccc([nH]4)c(-c4cccc(S(=O)(=O)[O-])c4F)c4nc(c(-c5cccc(S(=O)(=O)[O-])c5F)c5ccc2[nH]5)C=C4)C=C3)cc1
REMARK SMILES IDX 19 1 18 2 17 3 15 4 16 5 2 7 1 8 3 9 4 10 5 11 9 12 6 13
REMARK SMILES IDX 8 14 7 15 14 16 12 17 13 18 10 19 11 20 20 21 21 22 22 23
REMARK SMILES IDX 23 24 24 26 25 27 26 28 87 29 27 30 86 31 28 32 29 33 30 34
REMARK SMILES IDX 80 35 31 36 85 37 79 38 81 39 32 40 84 41 78 42 77 43 33 45
REMARK SMILES IDX 65 46 45 47 64 48 46 49 49 50 63 51 82 52 47 53 48 54 62 56
REMARK SMILES IDX 83 57 50 58 34 59 35 60 43 61 36 62 38 63 44 64 37 65 39 66
REMARK SMILES IDX 40 67 41 68 42 69 66 70 67 71 75 72 68 73 70 74 76 75 69 76
REMARK SMILES IDX 71 77 72 78 73 79 74 80 51 81 52 82 60 83 53 84 55 85 61 86
REMARK SMILES IDX 54 87 56 88 57 89 58 90 59 91
REMARK H PARENT 17 6 22 25 81 44 49 55
REMARK Flexibility Score: inf
ROOT
ATOM      1  C   UNL A   1      31.939  27.564  26.982  1.00  0.00     0.023 C 
ENDROOT
BRANCH   1   2
ATOM      2  C   UNL A   1      32.356  26.291  26.261  1.00  0.00     0.116 C 
BRANCH   2   3
ATOM      3  N   UNL A   1      31.570  25.122  26.624  1.00  0.00    -0.355 N 
ATOM      4  C   UNL A   1      31.974  23.845  26.913  1.00  0.00     0.233 C 
ATOM      5  O   UNL A   1      31.123  23.048  27.322  1.00  0.00    -0.274 OA
ATOM      6  H   UNL A   1      30.598  25.272  26.669  1.00  0.00     0.163 HD
BRANCH   4   7
ATOM      7  C   UNL A   1      33.411  23.372  26.629  1.00  0.00     0.139 C 
ATOM      8  C   UNL A   1      33.706  22.274  27.640  1.00  0.00     0.030 C 
BRANCH   7   9
ATOM      9  S   UNL A   1      33.542  22.971  24.826  1.00  0.00    -0.092 SA
BRANCH   9  10
ATOM     10  C   UNL A   1      34.128  21.319  24.587  1.00  0.00     0.115 A 
ATOM     11  N   UNL A   1      33.064  20.487  24.374  1.00  0.00    -0.245 NA
ATOM     12  C   UNL A   1      35.410  20.801  24.832  1.00  0.00     0.085 A 
ATOM     13  C   UNL A   1      33.284  19.166  24.426  1.00  0.00     0.045 A 
ATOM     14  C   UNL A   1      35.616  19.411  24.774  1.00  0.00     0.028 A 
ATOM     15  C   UNL A   1      34.526  18.591  24.600  1.00  0.00    -0.025 A 
ATOM     16  C   UNL A   1      32.208  18.118  24.377  1.00  0.00     0.057 C 
ATOM     17  C   UNL A   1      34.448  17.106  24.611  1.00  0.00     0.038 C 
ATOM     18  C   UNL A   1      32.961  16.898  24.936  1.00  0.00     0.011 C 
BRANCH  12  19
ATOM     19  C   UNL A   1      36.529  21.553  25.292  1.00  0.00     0.102 C 
ATOM     20  N   UNL A   1      37.460  22.076  25.753  1.00  0.00    -0.192 NA
ENDBRANCH  12  19
ENDBRANCH   9  10
ENDBRANCH   7   9
ENDBRANCH   4   7
ENDBRANCH   2   3
ENDBRANCH   1   2
BRANCH   1  21
ATOM     21  C   UNL A   1      31.630  28.739  26.069  1.00  0.00     0.023 C 
BRANCH  21  22
ATOM     22  C   UNL A   1      32.777  29.723  25.885  1.00  0.00     0.116 C 
BRANCH  22  23
ATOM     23  N   UNL A   1      32.459  31.069  26.343  1.00  0.00    -0.352 N 
ATOM     24  C   UNL A   1      33.140  31.847  27.249  1.00  0.00     0.251 C 
ATOM     25  H   UNL A   1      31.650  31.474  25.954  1.00  0.00     0.163 HD
ATOM     26  O   UNL A   1      32.675  32.915  27.632  1.00  0.00    -0.269 OA
BRANCH  24  27
ATOM     27  C   UNL A   1      34.429  31.357  27.778  1.00  0.00     0.039 A 
ATOM     28  C   UNL A   1      35.491  32.252  27.908  1.00  0.00     0.014 A 
ATOM     29  C   UNL A   1      34.555  30.033  28.210  1.00  0.00     0.014 A 
ATOM     30  C   UNL A   1      36.665  31.832  28.535  1.00  0.00     0.010 A 
ATOM     31  C   UNL A   1      35.685  29.649  28.920  1.00  0.00     0.010 A 
ATOM     32  C   UNL A   1      36.757  30.539  29.078  1.00  0.00    -0.014 A 
BRANCH  32  33
ATOM     33  C   UNL A   1      37.975  30.097  29.798  1.00  0.00     0.031 A 
ATOM     34  C   UNL A   1      38.247  30.597  31.189  1.00  0.00     0.074 A 
ATOM     35  C   UNL A   1      38.861  29.286  29.185  1.00  0.00     0.049 A 
ATOM     36  N   UNL A   1      39.257  30.335  31.975  1.00  0.00    -0.248 NA
ATOM     37  C   UNL A   1      37.266  31.531  31.769  1.00  0.00     0.031 C 
ATOM     38  C   UNL A   1      38.736  28.782  27.815  1.00  0.00     0.029 A 
ATOM     39  N   UNL A   1      40.044  28.750  29.628  1.00  0.00    -0.354 N 
ATOM     40  C   UNL A   1      39.046  31.082  33.126  1.00  0.00     0.074 A 
ATOM     41  C   UNL A   1      37.840  31.851  32.918  1.00  0.00     0.031 C 
ATOM     42  C   UNL A   1      39.785  27.991  27.541  1.00  0.00     0.029 A 
ATOM     43  C   UNL A   1      40.677  27.963  28.696  1.00  0.00     0.049 A 
ATOM     44  H   UNL A   1      40.405  28.915  30.530  1.00  0.00     0.167 HD
ATOM     45  C   UNL A   1      39.770  31.099  34.269  1.00  0.00     0.034 A 
ATOM     46  C   UNL A   1      41.847  27.295  28.761  1.00  0.00     0.034 A 
ATOM     47  C   UNL A   1      40.954  30.312  34.478  1.00  0.00     0.049 A 
ATOM     48  C   UNL A   1      42.640  27.336  30.041  1.00  0.00     0.074 A 
ATOM     49  C   UNL A   1      41.724  30.212  35.623  1.00  0.00     0.029 A 
ATOM     50  N   UNL A   1      41.549  29.503  33.523  1.00  0.00    -0.354 N 
ATOM     51  N   UNL A   1      42.352  27.940  31.169  1.00  0.00    -0.248 NA
ATOM     52  C   UNL A   1      43.901  26.582  30.068  1.00  0.00     0.031 C 
ATOM     53  C   UNL A   1      42.810  29.380  35.344  1.00  0.00     0.029 A 
ATOM     54  C   UNL A   1      42.690  28.917  34.044  1.00  0.00     0.049 A 
ATOM     55  H   UNL A   1      41.210  29.364  32.609  1.00  0.00     0.167 HD
ATOM     56  C   UNL A   1      43.379  27.616  32.050  1.00  0.00     0.074 A 
ATOM     57  C   UNL A   1      44.283  26.741  31.329  1.00  0.00     0.031 C 
ATOM     58  C   UNL A   1      43.563  28.017  33.332  1.00  0.00     0.034 A 
BRANCH  45  59
ATOM     59  C   UNL A   1      39.278  31.963  35.403  1.00  0.00     0.023 A 
ATOM     60  C   UNL A   1      39.449  33.363  35.339  1.00  0.00     0.012 A 
ATOM     61  C   UNL A   1      38.579  31.402  36.489  1.00  0.00     0.148 A 
ATOM     62  C   UNL A   1      38.961  34.185  36.353  1.00  0.00     0.002 A 
ATOM     63  C   UNL A   1      38.047  32.234  37.468  1.00  0.00     0.091 A 
ATOM     64  F   UNL A   1      38.445  30.070  36.543  1.00  0.00    -0.205 F 
ATOM     65  C   UNL A   1      38.249  33.622  37.408  1.00  0.00     0.022 A 
BRANCH  63  66
ATOM     66  S   UNL A   1      37.034  31.621  38.817  1.00  0.00     0.127 S 
ATOM     67  O   UNL A   1      37.951  31.739  39.951  1.00  0.00    -0.237 OA
ATOM     68  O   UNL A   1      35.927  32.578  38.825  1.00  0.00    -0.237 OA
ATOM     69  O   UNL A   1      36.663  30.260  38.459  1.00  0.00    -0.744 OA
ENDBRANCH  63  66
ENDBRANCH  45  59
BRANCH  46  70
ATOM     70  C   UNL A   1      42.294  26.475  27.598  1.00  0.00     0.023 A 
ATOM     71  C   UNL A   1      43.124  27.055  26.620  1.00  0.00     0.012 A 
ATOM     72  C   UNL A   1      41.954  25.112  27.489  1.00  0.00     0.148 A 
ATOM     73  C   UNL A   1      43.597  26.300  25.547  1.00  0.00     0.002 A 
ATOM     74  C   UNL A   1      42.477  24.349  26.451  1.00  0.00     0.091 A 
ATOM     75  F   UNL A   1      41.156  24.581  28.425  1.00  0.00    -0.205 F 
ATOM     76  C   UNL A   1      43.285  24.945  25.470  1.00  0.00     0.022 A 
BRANCH  74  77
ATOM     77  S   UNL A   1      42.247  22.572  26.344  1.00  0.00     0.127 S 
ATOM     78  O   UNL A   1      42.867  22.265  25.057  1.00  0.00    -0.237 OA
ATOM     79  O   UNL A   1      42.991  22.105  27.514  1.00  0.00    -0.237 OA
ATOM     80  O   UNL A   1      40.809  22.352  26.415  1.00  0.00    -0.744 OA
ENDBRANCH  74  77
ENDBRANCH  46  70
BRANCH  58  81
ATOM     81  C   UNL A   1      44.777  27.511  34.069  1.00  0.00     0.023 A 
ATOM     82  C   UNL A   1      45.955  28.284  34.092  1.00  0.00     0.012 A 
ATOM     83  C   UNL A   1      44.711  26.332  34.839  1.00  0.00     0.148 A 
ATOM     84  C   UNL A   1      47.055  27.880  34.848  1.00  0.00     0.002 A 
ATOM     85  C   UNL A   1      45.789  25.966  35.636  1.00  0.00     0.091 A 
ATOM     86  F   UNL A   1      43.586  25.604  34.796  1.00  0.00    -0.205 F 
ATOM     87  C   UNL A   1      46.967  26.731  35.631  1.00  0.00     0.022 A 
BRANCH  85  88
ATOM     88  S   UNL A   1      45.731  24.569  36.763  1.00  0.00     0.127 S 
ATOM     89  O   UNL A   1      47.145  24.213  36.869  1.00  0.00    -0.237 OA
ATOM     90  O   UNL A   1      45.162  25.171  37.970  1.00  0.00    -0.237 OA
ATOM     91  O   UNL A   1      44.887  23.568  36.126  1.00  0.00    -0.744 OA
ENDBRANCH  85  88
ENDBRANCH  58  81
ENDBRANCH  32  33
ENDBRANCH  24  27
ENDBRANCH  22  23
ENDBRANCH  21  22
ENDBRANCH   1  21
TORSDOF 17
ENDMDL
