MODEL 1
REMARK VINA RESULT:     -12.0      0.000      0.000
REMARK SMILES C[C@H]([C@@H](C)C(=O)NCCCCNC(=O)c1ccc(-c2c3nc(c(-c4cccc(S(=O)(=O)[O-])c4F)c4ccc([nH]4)c(-c4cccc(S(=O)(=O)[O-])c4F)c4nc(c(-c5cccc(S(=O)(=O)[O-])c5F)c5ccc2[nH]5)C=C4)C=C3)cc1)[NH+]1CCN(c2nccs2)CC1
REMARK SMILES IDX 9 1 8 2 7 3 5 4 6 5 3 7 4 8 2 9 1 10 78 11 79 12 88 13 80 15
REMARK SMILES IDX 87 16 81 17 82 18 83 19 86 20 84 21 85 22 10 23 11 24 12 25
REMARK SMILES IDX 13 26 14 28 15 29 16 30 77 31 17 32 76 33 18 34 19 35 20 36
REMARK SMILES IDX 70 37 21 38 75 39 69 40 71 41 22 42 74 43 68 44 67 45 23 47
REMARK SMILES IDX 55 48 35 49 54 50 36 51 39 52 53 53 72 54 37 55 38 56 52 58
REMARK SMILES IDX 73 59 40 60 24 61 25 62 33 63 26 64 28 65 34 66 27 67 29 68
REMARK SMILES IDX 30 69 31 70 32 71 56 72 57 73 65 74 58 75 60 76 66 77 59 78
REMARK SMILES IDX 61 79 62 80 63 81 64 82 41 83 42 84 50 85 43 86 45 87 51 88
REMARK SMILES IDX 44 89 46 90 47 91 48 92 49 93
REMARK H PARENT 7 6 78 14 12 27 71 46 39 57
REMARK Flexibility Score: inf
ROOT
ATOM      1  C   UNL A   1      31.659  28.226  27.162  1.00  0.00     0.023 C 
ENDROOT
BRANCH   1   2
ATOM      2  C   UNL A   1      32.168  26.940  26.519  1.00  0.00     0.116 C 
BRANCH   2   3
ATOM      3  N   UNL A   1      31.426  25.777  26.966  1.00  0.00    -0.356 N 
ATOM      4  C   UNL A   1      31.546  24.464  26.620  1.00  0.00     0.228 C 
ATOM      5  O   UNL A   1      30.729  23.667  27.089  1.00  0.00    -0.275 OA
ATOM      6  H   UNL A   1      30.720  25.965  27.626  1.00  0.00     0.163 HD
BRANCH   4   7
ATOM      7  C   UNL A   1      32.639  23.968  25.665  1.00  0.00     0.133 C 
ATOM      8  C   UNL A   1      33.894  23.542  26.429  1.00  0.00     0.024 C 
BRANCH   7   9
ATOM      9  C   UNL A   1      32.737  24.858  24.377  1.00  0.00     0.193 C 
ATOM     10  C   UNL A   1      34.103  24.834  23.679  1.00  0.00     0.076 C 
BRANCH   9  11
ATOM     11  N   UNL A   1      31.779  24.749  23.252  1.00  0.00    -0.329 N 
ATOM     12  C   UNL A   1      30.340  24.868  23.492  1.00  0.00     0.284 C 
ATOM     13  C   UNL A   1      32.131  25.665  22.135  1.00  0.00     0.284 C 
ATOM     14  H   UNL A   1      31.905  23.762  23.030  1.00  0.00     0.348 HD
ATOM     15  C   UNL A   1      29.846  26.292  23.805  1.00  0.00     0.180 C 
ATOM     16  C   UNL A   1      31.697  27.134  22.353  1.00  0.00     0.180 C 
ATOM     17  N   UNL A   1      30.295  27.225  22.776  1.00  0.00    -0.337 N 
BRANCH  17  18
ATOM     18  C   UNL A   1      29.611  28.368  22.521  1.00  0.00     0.185 A 
ATOM     19  N   UNL A   1      30.130  29.389  21.873  1.00  0.00    -0.229 NA
ATOM     20  S   UNL A   1      27.968  28.612  23.023  1.00  0.00    -0.106 S 
ATOM     21  C   UNL A   1      29.182  30.373  21.683  1.00  0.00     0.125 A 
ATOM     22  C   UNL A   1      27.960  30.143  22.268  1.00  0.00     0.088 A 
ENDBRANCH  17  18
ENDBRANCH   9  11
ENDBRANCH   7   9
ENDBRANCH   4   7
ENDBRANCH   2   3
ENDBRANCH   1   2
BRANCH   1  23
ATOM     23  C   UNL A   1      31.798  29.460  26.284  1.00  0.00     0.023 C 
BRANCH  23  24
ATOM     24  C   UNL A   1      33.126  30.183  26.432  1.00  0.00     0.116 C 
BRANCH  24  25
ATOM     25  N   UNL A   1      32.980  31.559  26.894  1.00  0.00    -0.352 N 
ATOM     26  C   UNL A   1      33.825  32.272  27.718  1.00  0.00     0.251 C 
ATOM     27  H   UNL A   1      32.179  32.039  26.580  1.00  0.00     0.163 HD
ATOM     28  O   UNL A   1      33.527  33.378  28.129  1.00  0.00    -0.269 OA
BRANCH  26  29
ATOM     29  C   UNL A   1      35.095  31.629  28.105  1.00  0.00     0.039 A 
ATOM     30  C   UNL A   1      36.255  32.402  28.178  1.00  0.00     0.014 A 
ATOM     31  C   UNL A   1      35.084  30.298  28.528  1.00  0.00     0.014 A 
ATOM     32  C   UNL A   1      37.400  31.850  28.751  1.00  0.00     0.010 A 
ATOM     33  C   UNL A   1      36.193  29.788  29.182  1.00  0.00     0.010 A 
ATOM     34  C   UNL A   1      37.364  30.555  29.294  1.00  0.00    -0.014 A 
BRANCH  34  35
ATOM     35  C   UNL A   1      38.536  29.963  29.982  1.00  0.00     0.031 A 
ATOM     36  C   UNL A   1      38.896  30.436  31.363  1.00  0.00     0.074 A 
ATOM     37  C   UNL A   1      39.337  29.101  29.324  1.00  0.00     0.049 A 
ATOM     38  N   UNL A   1      39.938  30.137  32.092  1.00  0.00    -0.248 NA
ATOM     39  C   UNL A   1      37.985  31.410  31.991  1.00  0.00     0.031 C 
ATOM     40  C   UNL A   1      39.145  28.645  27.945  1.00  0.00     0.029 A 
ATOM     41  N   UNL A   1      40.494  28.478  29.719  1.00  0.00    -0.354 N 
ATOM     42  C   UNL A   1      39.837  30.921  33.234  1.00  0.00     0.074 A 
ATOM     43  C   UNL A   1      38.655  31.740  33.085  1.00  0.00     0.031 C 
ATOM     44  C   UNL A   1      40.145  27.811  27.613  1.00  0.00     0.029 A 
ATOM     45  C   UNL A   1      41.061  27.692  28.743  1.00  0.00     0.049 A 
ATOM     46  H   UNL A   1      40.883  28.584  30.618  1.00  0.00     0.167 HD
ATOM     47  C   UNL A   1      40.631  30.930  34.328  1.00  0.00     0.034 A 
ATOM     48  C   UNL A   1      42.191  26.958  28.761  1.00  0.00     0.034 A 
ATOM     49  C   UNL A   1      41.755  30.054  34.504  1.00  0.00     0.049 A 
ATOM     50  C   UNL A   1      43.011  26.919  30.024  1.00  0.00     0.074 A 
ATOM     51  C   UNL A   1      42.558  29.897  35.618  1.00  0.00     0.029 A 
ATOM     52  N   UNL A   1      42.229  29.178  33.539  1.00  0.00    -0.354 N 
ATOM     53  N   UNL A   1      42.803  27.541  31.159  1.00  0.00    -0.248 NA
ATOM     54  C   UNL A   1      44.198  26.053  30.021  1.00  0.00     0.031 C 
ATOM     55  C   UNL A   1      43.522  28.927  35.325  1.00  0.00     0.029 A 
ATOM     56  C   UNL A   1      43.313  28.477  34.031  1.00  0.00     0.049 A 
ATOM     57  H   UNL A   1      41.849  29.072  32.637  1.00  0.00     0.167 HD
ATOM     58  C   UNL A   1      43.812  27.116  32.016  1.00  0.00     0.074 A 
ATOM     59  C   UNL A   1      44.618  26.168  31.274  1.00  0.00     0.031 C 
ATOM     60  C   UNL A   1      44.061  27.490  33.295  1.00  0.00     0.034 A 
BRANCH  47  61
ATOM     61  C   UNL A   1      40.261  31.863  35.449  1.00  0.00     0.023 A 
ATOM     62  C   UNL A   1      40.999  33.050  35.633  1.00  0.00     0.012 A 
ATOM     63  C   UNL A   1      39.167  31.591  36.293  1.00  0.00     0.148 A 
ATOM     64  C   UNL A   1      40.680  33.934  36.662  1.00  0.00     0.002 A 
ATOM     65  C   UNL A   1      38.828  32.499  37.291  1.00  0.00     0.091 A 
ATOM     66  F   UNL A   1      38.493  30.445  36.121  1.00  0.00    -0.205 F 
ATOM     67  C   UNL A   1      39.590  33.664  37.483  1.00  0.00     0.022 A 
BRANCH  65  68
ATOM     68  S   UNL A   1      37.396  32.277  38.353  1.00  0.00     0.127 S 
ATOM     69  O   UNL A   1      37.272  30.822  38.380  1.00  0.00    -0.237 OA
ATOM     70  O   UNL A   1      37.848  32.875  39.610  1.00  0.00    -0.237 OA
ATOM     71  O   UNL A   1      36.305  32.989  37.703  1.00  0.00    -0.744 OA
ENDBRANCH  65  68
ENDBRANCH  47  61
BRANCH  48  72
ATOM     72  C   UNL A   1      42.561  26.131  27.578  1.00  0.00     0.023 A 
ATOM     73  C   UNL A   1      43.390  26.688  26.585  1.00  0.00     0.012 A 
ATOM     74  C   UNL A   1      42.133  24.796  27.444  1.00  0.00     0.148 A 
ATOM     75  C   UNL A   1      43.763  25.942  25.466  1.00  0.00     0.002 A 
ATOM     76  C   UNL A   1      42.550  24.042  26.352  1.00  0.00     0.091 A 
ATOM     77  F   UNL A   1      41.333  24.287  28.390  1.00  0.00    -0.205 F 
ATOM     78  C   UNL A   1      43.353  24.617  25.354  1.00  0.00     0.022 A 
BRANCH  76  79
ATOM     79  S   UNL A   1      42.176  22.291  26.197  1.00  0.00     0.127 S 
ATOM     80  O   UNL A   1      42.756  21.751  27.423  1.00  0.00    -0.237 OA
ATOM     81  O   UNL A   1      40.713  22.294  26.156  1.00  0.00    -0.237 OA
ATOM     82  O   UNL A   1      42.806  21.870  24.952  1.00  0.00    -0.744 OA
ENDBRANCH  76  79
ENDBRANCH  48  72
BRANCH  60  83
ATOM     83  C   UNL A   1      45.236  26.858  33.992  1.00  0.00     0.023 A 
ATOM     84  C   UNL A   1      46.505  27.462  33.898  1.00  0.00     0.012 A 
ATOM     85  C   UNL A   1      45.062  25.730  34.816  1.00  0.00     0.148 A 
ATOM     86  C   UNL A   1      47.590  26.938  34.596  1.00  0.00     0.002 A 
ATOM     87  C   UNL A   1      46.139  25.239  35.544  1.00  0.00     0.091 A 
ATOM     88  F   UNL A   1      43.849  25.160  34.874  1.00  0.00    -0.205 F 
ATOM     89  C   UNL A   1      47.405  25.836  35.428  1.00  0.00     0.022 A 
BRANCH  87  90
ATOM     90  S   UNL A   1      45.969  23.885  36.711  1.00  0.00     0.127 S 
ATOM     91  O   UNL A   1      45.525  22.797  35.843  1.00  0.00    -0.237 OA
ATOM     92  O   UNL A   1      47.333  23.740  37.223  1.00  0.00    -0.237 OA
ATOM     93  O   UNL A   1      45.000  24.332  37.703  1.00  0.00    -0.744 OA
ENDBRANCH  87  90
ENDBRANCH  60  83
ENDBRANCH  34  35
ENDBRANCH  26  29
ENDBRANCH  24  25
ENDBRANCH  23  24
ENDBRANCH   1  23
TORSDOF 17
ENDMDL
MODEL 2
REMARK VINA RESULT:     -12.0      2.062      3.559
REMARK SMILES C[C@H]([C@@H](C)C(=O)NCCCCNC(=O)c1ccc(-c2c3nc(c(-c4cccc(S(=O)(=O)[O-])c4F)c4ccc([nH]4)c(-c4cccc(S(=O)(=O)[O-])c4F)c4nc(c(-c5cccc(S(=O)(=O)[O-])c5F)c5ccc2[nH]5)C=C4)C=C3)cc1)[NH+]1CCN(c2nccs2)CC1
REMARK SMILES IDX 9 1 8 2 7 3 5 4 6 5 3 7 4 8 2 9 1 10 78 11 79 12 88 13 80 15
REMARK SMILES IDX 87 16 81 17 82 18 83 19 86 20 84 21 85 22 10 23 11 24 12 25
REMARK SMILES IDX 13 26 14 28 15 29 16 30 77 31 17 32 76 33 18 34 19 35 20 36
REMARK SMILES IDX 70 37 21 38 75 39 69 40 71 41 22 42 74 43 68 44 67 45 23 47
REMARK SMILES IDX 55 48 35 49 54 50 36 51 39 52 53 53 72 54 37 55 38 56 52 58
REMARK SMILES IDX 73 59 40 60 24 61 25 62 33 63 26 64 28 65 34 66 27 67 29 68
REMARK SMILES IDX 30 69 31 70 32 71 56 72 57 73 65 74 58 75 60 76 66 77 59 78
REMARK SMILES IDX 61 79 62 80 63 81 64 82 41 83 42 84 50 85 43 86 45 87 51 88
REMARK SMILES IDX 44 89 46 90 47 91 48 92 49 93
REMARK H PARENT 7 6 78 14 12 27 71 46 39 57
REMARK Flexibility Score: inf
ROOT
ATOM      1  C   UNL A   1      31.941  28.721  27.213  1.00  0.00     0.023 C 
ENDROOT
BRANCH   1   2
ATOM      2  C   UNL A   1      31.596  27.775  26.067  1.00  0.00     0.116 C 
BRANCH   2   3
ATOM      3  N   UNL A   1      30.840  26.623  26.519  1.00  0.00    -0.356 N 
ATOM      4  C   UNL A   1      30.758  25.363  26.008  1.00  0.00     0.228 C 
ATOM      5  O   UNL A   1      29.971  24.575  26.539  1.00  0.00    -0.275 OA
ATOM      6  H   UNL A   1      30.298  26.776  27.327  1.00  0.00     0.163 HD
BRANCH   4   7
ATOM      7  C   UNL A   1      31.591  24.915  24.800  1.00  0.00     0.133 C 
ATOM      8  C   UNL A   1      30.695  24.488  23.634  1.00  0.00     0.024 C 
BRANCH   7   9
ATOM      9  C   UNL A   1      32.827  24.053  25.231  1.00  0.00     0.193 C 
ATOM     10  C   UNL A   1      34.030  24.859  25.739  1.00  0.00     0.076 C 
BRANCH   9  11
ATOM     11  N   UNL A   1      32.729  22.939  26.204  1.00  0.00    -0.329 N 
ATOM     12  C   UNL A   1      31.719  21.895  26.033  1.00  0.00     0.284 C 
ATOM     13  C   UNL A   1      34.042  22.273  26.416  1.00  0.00     0.284 C 
ATOM     14  H   UNL A   1      32.399  23.464  27.013  1.00  0.00     0.348 HD
ATOM     15  C   UNL A   1      31.994  20.901  24.890  1.00  0.00     0.180 C 
ATOM     16  C   UNL A   1      34.430  21.262  25.311  1.00  0.00     0.180 C 
ATOM     17  N   UNL A   1      33.332  20.334  25.019  1.00  0.00    -0.337 N 
BRANCH  17  18
ATOM     18  C   UNL A   1      33.629  19.118  24.498  1.00  0.00     0.185 A 
ATOM     19  N   UNL A   1      34.811  18.551  24.618  1.00  0.00    -0.229 NA
ATOM     20  S   UNL A   1      32.478  18.167  23.612  1.00  0.00    -0.106 S 
ATOM     21  C   UNL A   1      34.798  17.286  24.071  1.00  0.00     0.125 A 
ATOM     22  C   UNL A   1      33.630  16.918  23.448  1.00  0.00     0.088 A 
ENDBRANCH  17  18
ENDBRANCH   9  11
ENDBRANCH   7   9
ENDBRANCH   4   7
ENDBRANCH   2   3
ENDBRANCH   1   2
BRANCH   1  23
ATOM     23  C   UNL A   1      31.702  30.190  26.902  1.00  0.00     0.023 C 
BRANCH  23  24
ATOM     24  C   UNL A   1      32.969  30.978  26.612  1.00  0.00     0.116 C 
BRANCH  24  25
ATOM     25  N   UNL A   1      32.905  32.358  27.080  1.00  0.00    -0.352 N 
ATOM     26  C   UNL A   1      33.798  33.020  27.895  1.00  0.00     0.251 C 
ATOM     27  H   UNL A   1      32.128  32.882  26.778  1.00  0.00     0.163 HD
ATOM     28  O   UNL A   1      33.567  34.139  28.313  1.00  0.00    -0.269 OA
BRANCH  26  29
ATOM     29  C   UNL A   1      35.036  32.307  28.262  1.00  0.00     0.039 A 
ATOM     30  C   UNL A   1      36.235  33.018  28.338  1.00  0.00     0.014 A 
ATOM     31  C   UNL A   1      34.959  30.972  28.665  1.00  0.00     0.014 A 
ATOM     32  C   UNL A   1      37.354  32.399  28.895  1.00  0.00     0.010 A 
ATOM     33  C   UNL A   1      36.046  30.395  29.303  1.00  0.00     0.010 A 
ATOM     34  C   UNL A   1      37.255  31.099  29.418  1.00  0.00    -0.014 A 
BRANCH  34  35
ATOM     35  C   UNL A   1      38.400  30.438  30.088  1.00  0.00     0.031 A 
ATOM     36  C   UNL A   1      38.773  30.848  31.486  1.00  0.00     0.074 A 
ATOM     37  C   UNL A   1      39.168  29.567  29.403  1.00  0.00     0.049 A 
ATOM     38  N   UNL A   1      39.798  30.482  32.207  1.00  0.00    -0.248 NA
ATOM     39  C   UNL A   1      37.899  31.836  32.145  1.00  0.00     0.031 C 
ATOM     40  C   UNL A   1      38.963  29.167  28.009  1.00  0.00     0.029 A 
ATOM     41  N   UNL A   1      40.297  28.885  29.779  1.00  0.00    -0.354 N 
ATOM     42  C   UNL A   1      39.724  31.230  33.375  1.00  0.00     0.074 A 
ATOM     43  C   UNL A   1      38.577  32.100  33.251  1.00  0.00     0.031 C 
ATOM     44  C   UNL A   1      39.930  28.305  27.651  1.00  0.00     0.029 A 
ATOM     45  C   UNL A   1      40.836  28.110  28.778  1.00  0.00     0.049 A 
ATOM     46  H   UNL A   1      40.686  28.944  30.682  1.00  0.00     0.167 HD
ATOM     47  C   UNL A   1      40.514  31.169  34.471  1.00  0.00     0.034 A 
ATOM     48  C   UNL A   1      41.936  27.331  28.774  1.00  0.00     0.034 A 
ATOM     49  C   UNL A   1      41.600  30.243  34.619  1.00  0.00     0.049 A 
ATOM     50  C   UNL A   1      42.748  27.216  30.037  1.00  0.00     0.074 A 
ATOM     51  C   UNL A   1      42.393  30.016  35.730  1.00  0.00     0.029 A 
ATOM     52  N   UNL A   1      42.043  29.382  33.626  1.00  0.00    -0.354 N 
ATOM     53  N   UNL A   1      42.561  27.806  31.192  1.00  0.00    -0.248 NA
ATOM     54  C   UNL A   1      43.899  26.303  30.007  1.00  0.00     0.031 C 
ATOM     55  C   UNL A   1      43.317  29.018  35.406  1.00  0.00     0.029 A 
ATOM     56  C   UNL A   1      43.096  28.621  34.096  1.00  0.00     0.049 A 
ATOM     57  H   UNL A   1      41.663  29.323  32.720  1.00  0.00     0.167 HD
ATOM     58  C   UNL A   1      43.548  27.312  32.037  1.00  0.00     0.074 A 
ATOM     59  C   UNL A   1      44.318  26.358  31.265  1.00  0.00     0.031 C 
ATOM     60  C   UNL A   1      43.807  27.631  33.328  1.00  0.00     0.034 A 
BRANCH  47  61
ATOM     61  C   UNL A   1      40.177  32.077  35.623  1.00  0.00     0.023 A 
ATOM     62  C   UNL A   1      40.910  33.268  35.801  1.00  0.00     0.012 A 
ATOM     63  C   UNL A   1      39.118  31.779  36.501  1.00  0.00     0.148 A 
ATOM     64  C   UNL A   1      40.622  34.129  36.858  1.00  0.00     0.002 A 
ATOM     65  C   UNL A   1      38.808  32.663  37.528  1.00  0.00     0.091 A 
ATOM     66  F   UNL A   1      38.448  30.629  36.333  1.00  0.00    -0.205 F 
ATOM     67  C   UNL A   1      39.565  33.832  37.714  1.00  0.00     0.022 A 
BRANCH  65  68
ATOM     68  S   UNL A   1      37.419  32.408  38.638  1.00  0.00     0.127 S 
ATOM     69  O   UNL A   1      37.782  33.262  39.766  1.00  0.00    -0.237 OA
ATOM     70  O   UNL A   1      36.292  32.895  37.841  1.00  0.00    -0.237 OA
ATOM     71  O   UNL A   1      37.388  30.978  38.915  1.00  0.00    -0.744 OA
ENDBRANCH  65  68
ENDBRANCH  47  61
BRANCH  48  72
ATOM     72  C   UNL A   1      42.276  26.531  27.564  1.00  0.00     0.023 A 
ATOM     73  C   UNL A   1      42.960  27.154  26.501  1.00  0.00     0.012 A 
ATOM     74  C   UNL A   1      41.967  25.161  27.470  1.00  0.00     0.148 A 
ATOM     75  C   UNL A   1      43.302  26.436  25.354  1.00  0.00     0.002 A 
ATOM     76  C   UNL A   1      42.356  24.439  26.346  1.00  0.00     0.091 A 
ATOM     77  F   UNL A   1      41.304  24.588  28.484  1.00  0.00    -0.205 F 
ATOM     78  C   UNL A   1      43.010  25.078  25.281  1.00  0.00     0.022 A 
BRANCH  76  79
ATOM     79  S   UNL A   1      42.136  22.660  26.227  1.00  0.00     0.127 S 
ATOM     80  O   UNL A   1      40.682  22.534  26.271  1.00  0.00    -0.237 OA
ATOM     81  O   UNL A   1      42.742  22.363  24.928  1.00  0.00    -0.237 OA
ATOM     82  O   UNL A   1      42.860  22.103  27.362  1.00  0.00    -0.744 OA
ENDBRANCH  76  79
ENDBRANCH  48  72
BRANCH  60  83
ATOM     83  C   UNL A   1      44.953  26.929  34.006  1.00  0.00     0.023 A 
ATOM     84  C   UNL A   1      46.245  27.484  33.937  1.00  0.00     0.012 A 
ATOM     85  C   UNL A   1      44.730  25.780  34.790  1.00  0.00     0.148 A 
ATOM     86  C   UNL A   1      47.306  26.893  34.620  1.00  0.00     0.002 A 
ATOM     87  C   UNL A   1      45.783  25.222  35.504  1.00  0.00     0.091 A 
ATOM     88  F   UNL A   1      43.495  25.259  34.825  1.00  0.00    -0.205 F 
ATOM     89  C   UNL A   1      47.073  25.772  35.413  1.00  0.00     0.022 A 
BRANCH  87  90
ATOM     90  S   UNL A   1      45.555  23.837  36.623  1.00  0.00     0.127 S 
ATOM     91  O   UNL A   1      44.638  24.400  37.611  1.00  0.00    -0.237 OA
ATOM     92  O   UNL A   1      44.962  22.823  35.749  1.00  0.00    -0.237 OA
ATOM     93  O   UNL A   1      46.882  23.500  37.118  1.00  0.00    -0.744 OA
ENDBRANCH  87  90
ENDBRANCH  60  83
ENDBRANCH  34  35
ENDBRANCH  26  29
ENDBRANCH  24  25
ENDBRANCH  23  24
ENDBRANCH   1  23
TORSDOF 17
ENDMDL
MODEL 3
REMARK VINA RESULT:     -11.8      2.251      3.671
REMARK SMILES C[C@H]([C@@H](C)C(=O)NCCCCNC(=O)c1ccc(-c2c3nc(c(-c4cccc(S(=O)(=O)[O-])c4F)c4ccc([nH]4)c(-c4cccc(S(=O)(=O)[O-])c4F)c4nc(c(-c5cccc(S(=O)(=O)[O-])c5F)c5ccc2[nH]5)C=C4)C=C3)cc1)[NH+]1CCN(c2nccs2)CC1
REMARK SMILES IDX 9 1 8 2 7 3 5 4 6 5 3 7 4 8 2 9 1 10 78 11 79 12 88 13 80 15
REMARK SMILES IDX 87 16 81 17 82 18 83 19 86 20 84 21 85 22 10 23 11 24 12 25
REMARK SMILES IDX 13 26 14 28 15 29 16 30 77 31 17 32 76 33 18 34 19 35 20 36
REMARK SMILES IDX 70 37 21 38 75 39 69 40 71 41 22 42 74 43 68 44 67 45 23 47
REMARK SMILES IDX 55 48 35 49 54 50 36 51 39 52 53 53 72 54 37 55 38 56 52 58
REMARK SMILES IDX 73 59 40 60 24 61 25 62 33 63 26 64 28 65 34 66 27 67 29 68
REMARK SMILES IDX 30 69 31 70 32 71 56 72 57 73 65 74 58 75 60 76 66 77 59 78
REMARK SMILES IDX 61 79 62 80 63 81 64 82 41 83 42 84 50 85 43 86 45 87 51 88
REMARK SMILES IDX 44 89 46 90 47 91 48 92 49 93
REMARK H PARENT 7 6 78 14 12 27 71 46 39 57
REMARK Flexibility Score: inf
ROOT
ATOM      1  C   UNL A   1      32.416  28.967  23.767  1.00  0.00     0.023 C 
ENDROOT
BRANCH   1   2
ATOM      2  C   UNL A   1      31.565  28.049  22.896  1.00  0.00     0.116 C 
BRANCH   2   3
ATOM      3  N   UNL A   1      32.376  27.201  22.043  1.00  0.00    -0.356 N 
ATOM      4  C   UNL A   1      32.836  25.933  22.237  1.00  0.00     0.228 C 
ATOM      5  O   UNL A   1      33.585  25.454  21.381  1.00  0.00    -0.275 OA
ATOM      6  H   UNL A   1      32.636  27.607  21.184  1.00  0.00     0.163 HD
BRANCH   4   7
ATOM      7  C   UNL A   1      32.469  25.112  23.479  1.00  0.00     0.133 C 
ATOM      8  C   UNL A   1      30.959  24.879  23.566  1.00  0.00     0.024 C 
BRANCH   7   9
ATOM      9  C   UNL A   1      33.295  25.555  24.736  1.00  0.00     0.193 C 
ATOM     10  C   UNL A   1      32.451  26.001  25.938  1.00  0.00     0.076 C 
BRANCH   9  11
ATOM     11  N   UNL A   1      34.338  24.701  25.353  1.00  0.00    -0.329 N 
ATOM     12  C   UNL A   1      33.980  23.726  26.385  1.00  0.00     0.284 C 
ATOM     13  C   UNL A   1      35.156  24.000  24.329  1.00  0.00     0.284 C 
ATOM     14  H   UNL A   1      34.848  25.419  25.867  1.00  0.00     0.348 HD
ATOM     15  C   UNL A   1      33.231  22.482  25.875  1.00  0.00     0.180 C 
ATOM     16  C   UNL A   1      34.488  22.739  23.732  1.00  0.00     0.180 C 
ATOM     17  N   UNL A   1      33.967  21.857  24.781  1.00  0.00    -0.337 N 
BRANCH  17  18
ATOM     18  C   UNL A   1      33.829  20.535  24.511  1.00  0.00     0.185 A 
ATOM     19  N   UNL A   1      34.762  19.645  24.774  1.00  0.00    -0.229 NA
ATOM     20  S   UNL A   1      32.401  19.867  23.785  1.00  0.00    -0.106 S 
ATOM     21  C   UNL A   1      34.315  18.374  24.477  1.00  0.00     0.125 A 
ATOM     22  C   UNL A   1      33.071  18.301  23.898  1.00  0.00     0.088 A 
ENDBRANCH  17  18
ENDBRANCH   9  11
ENDBRANCH   7   9
ENDBRANCH   4   7
ENDBRANCH   2   3
ENDBRANCH   1   2
BRANCH   1  23
ATOM     23  C   UNL A   1      31.722  29.447  25.032  1.00  0.00     0.023 C 
BRANCH  23  24
ATOM     24  C   UNL A   1      32.670  29.929  26.118  1.00  0.00     0.116 C 
BRANCH  24  25
ATOM     25  N   UNL A   1      32.445  31.319  26.499  1.00  0.00    -0.352 N 
ATOM     26  C   UNL A   1      33.234  32.118  27.299  1.00  0.00     0.251 C 
ATOM     27  H   UNL A   1      31.628  31.739  26.143  1.00  0.00     0.163 HD
ATOM     28  O   UNL A   1      32.871  33.228  27.641  1.00  0.00    -0.269 OA
BRANCH  26  29
ATOM     29  C   UNL A   1      34.525  31.564  27.746  1.00  0.00     0.039 A 
ATOM     30  C   UNL A   1      35.594  32.430  27.980  1.00  0.00     0.014 A 
ATOM     31  C   UNL A   1      34.611  30.206  28.063  1.00  0.00     0.014 A 
ATOM     32  C   UNL A   1      36.738  31.939  28.609  1.00  0.00     0.010 A 
ATOM     33  C   UNL A   1      35.709  29.746  28.772  1.00  0.00     0.010 A 
ATOM     34  C   UNL A   1      36.786  30.604  29.046  1.00  0.00    -0.014 A 
BRANCH  34  35
ATOM     35  C   UNL A   1      37.951  30.066  29.787  1.00  0.00     0.031 A 
ATOM     36  C   UNL A   1      38.210  30.534  31.192  1.00  0.00     0.074 A 
ATOM     37  C   UNL A   1      38.832  29.261  29.160  1.00  0.00     0.049 A 
ATOM     38  N   UNL A   1      39.226  30.280  31.972  1.00  0.00    -0.248 NA
ATOM     39  C   UNL A   1      37.213  31.445  31.784  1.00  0.00     0.031 C 
ATOM     40  C   UNL A   1      38.740  28.819  27.767  1.00  0.00     0.029 A 
ATOM     41  N   UNL A   1      40.000  28.696  29.608  1.00  0.00    -0.354 N 
ATOM     42  C   UNL A   1      39.021  31.037  33.118  1.00  0.00     0.074 A 
ATOM     43  C   UNL A   1      37.805  31.792  32.918  1.00  0.00     0.031 C 
ATOM     44  C   UNL A   1      39.801  28.047  27.477  1.00  0.00     0.029 A 
ATOM     45  C   UNL A   1      40.660  27.959  28.653  1.00  0.00     0.049 A 
ATOM     46  H   UNL A   1      40.333  28.807  30.528  1.00  0.00     0.167 HD
ATOM     47  C   UNL A   1      39.755  31.070  34.254  1.00  0.00     0.034 A 
ATOM     48  C   UNL A   1      41.828  27.288  28.721  1.00  0.00     0.034 A 
ATOM     49  C   UNL A   1      40.914  30.254  34.477  1.00  0.00     0.049 A 
ATOM     50  C   UNL A   1      42.580  27.273  30.026  1.00  0.00     0.074 A 
ATOM     51  C   UNL A   1      41.665  30.123  35.630  1.00  0.00     0.029 A 
ATOM     52  N   UNL A   1      41.487  29.423  33.526  1.00  0.00    -0.354 N 
ATOM     53  N   UNL A   1      42.278  27.862  31.157  1.00  0.00    -0.248 NA
ATOM     54  C   UNL A   1      43.812  26.473  30.074  1.00  0.00     0.031 C 
ATOM     55  C   UNL A   1      42.695  29.212  35.376  1.00  0.00     0.029 A 
ATOM     56  C   UNL A   1      42.581  28.774  34.066  1.00  0.00     0.049 A 
ATOM     57  H   UNL A   1      41.162  29.312  32.603  1.00  0.00     0.167 HD
ATOM     58  C   UNL A   1      43.262  27.478  32.061  1.00  0.00     0.074 A 
ATOM     59  C   UNL A   1      44.157  26.589  31.350  1.00  0.00     0.031 C 
ATOM     60  C   UNL A   1      43.422  27.843  33.357  1.00  0.00     0.034 A 
BRANCH  47  61
ATOM     61  C   UNL A   1      39.273  31.962  35.366  1.00  0.00     0.023 A 
ATOM     62  C   UNL A   1      38.323  31.469  36.284  1.00  0.00     0.012 A 
ATOM     63  C   UNL A   1      39.783  33.264  35.530  1.00  0.00     0.148 A 
ATOM     64  C   UNL A   1      37.858  32.270  37.325  1.00  0.00     0.002 A 
ATOM     65  C   UNL A   1      39.346  34.043  36.596  1.00  0.00     0.091 A 
ATOM     66  F   UNL A   1      40.666  33.726  34.633  1.00  0.00    -0.205 F 
ATOM     67  C   UNL A   1      38.377  33.552  37.487  1.00  0.00     0.022 A 
BRANCH  65  68
ATOM     68  S   UNL A   1      40.009  35.678  36.934  1.00  0.00     0.127 S 
ATOM     69  O   UNL A   1      41.437  35.397  37.059  1.00  0.00    -0.237 OA
ATOM     70  O   UNL A   1      39.635  36.418  35.727  1.00  0.00    -0.237 OA
ATOM     71  O   UNL A   1      39.348  36.133  38.149  1.00  0.00    -0.744 OA
ENDBRANCH  65  68
ENDBRANCH  47  61
BRANCH  48  72
ATOM     72  C   UNL A   1      42.305  26.503  27.548  1.00  0.00     0.023 A 
ATOM     73  C   UNL A   1      43.086  27.146  26.567  1.00  0.00     0.012 A 
ATOM     74  C   UNL A   1      42.027  25.130  27.412  1.00  0.00     0.148 A 
ATOM     75  C   UNL A   1      43.557  26.442  25.457  1.00  0.00     0.002 A 
ATOM     76  C   UNL A   1      42.543  24.423  26.331  1.00  0.00     0.091 A 
ATOM     77  F   UNL A   1      41.271  24.538  28.347  1.00  0.00    -0.205 F 
ATOM     78  C   UNL A   1      43.295  25.080  25.344  1.00  0.00     0.022 A 
BRANCH  76  79
ATOM     79  S   UNL A   1      42.364  22.642  26.176  1.00  0.00     0.127 S 
ATOM     80  O   UNL A   1      40.912  22.490  26.129  1.00  0.00    -0.237 OA
ATOM     81  O   UNL A   1      43.053  22.373  24.914  1.00  0.00    -0.237 OA
ATOM     82  O   UNL A   1      43.026  22.083  27.347  1.00  0.00    -0.744 OA
ENDBRANCH  76  79
ENDBRANCH  48  72
BRANCH  60  83
ATOM     83  C   UNL A   1      44.591  27.265  34.107  1.00  0.00     0.023 A 
ATOM     84  C   UNL A   1      45.821  27.950  34.108  1.00  0.00     0.012 A 
ATOM     85  C   UNL A   1      44.442  26.102  34.887  1.00  0.00     0.148 A 
ATOM     86  C   UNL A   1      46.895  27.473  34.857  1.00  0.00     0.002 A 
ATOM     87  C   UNL A   1      45.503  25.657  35.666  1.00  0.00     0.091 A 
ATOM     88  F   UNL A   1      43.267  25.455  34.854  1.00  0.00    -0.205 F 
ATOM     89  C   UNL A   1      46.732  26.336  35.645  1.00  0.00     0.022 A 
BRANCH  87  90
ATOM     90  S   UNL A   1      45.352  24.259  36.782  1.00  0.00     0.127 S 
ATOM     91  O   UNL A   1      44.334  24.732  37.718  1.00  0.00    -0.237 OA
ATOM     92  O   UNL A   1      44.907  23.189  35.886  1.00  0.00    -0.237 OA
ATOM     93  O   UNL A   1      46.678  24.054  37.348  1.00  0.00    -0.744 OA
ENDBRANCH  87  90
ENDBRANCH  60  83
ENDBRANCH  34  35
ENDBRANCH  26  29
ENDBRANCH  24  25
ENDBRANCH  23  24
ENDBRANCH   1  23
TORSDOF 17
ENDMDL
