MODEL 1
REMARK VINA RESULT:     -12.7      0.000      0.000
REMARK SMILES CCOc1ccc(-n2nnc(-c3nc(C)c(C(=O)NCCCCNC(=O)c4ccc(-c5c6nc(c(-c7cccc(S(=O)(=O)[O-])c7F)c7ccc([nH]7)c(-c7cccc(S(=O)(=O)[O-])c7F)c7nc(c(-c8cccc(S(=O)(=O)[O-])c8F)c8ccc5[nH]8)C=C7)C=C6)cc4)s3)c2C)cc1
REMARK SMILES IDX 21 1 20 2 19 3 17 4 18 5 16 7 12 8 13 9 90 10 14 11 15 12
REMARK SMILES IDX 11 13 8 14 9 15 91 16 10 17 92 18 7 19 4 20 5 21 94 22 6 23
REMARK SMILES IDX 93 24 3 25 2 26 1 27 22 28 23 29 24 30 25 31 26 33 27 34
REMARK SMILES IDX 28 35 89 36 29 37 88 38 30 39 31 40 32 41 82 42 33 43 87 44
REMARK SMILES IDX 81 45 83 46 34 47 86 48 80 49 79 50 35 52 67 53 47 54 66 55
REMARK SMILES IDX 48 56 51 57 65 58 84 59 49 60 50 61 64 63 85 64 52 65 36 66
REMARK SMILES IDX 37 67 45 68 38 69 40 70 46 71 39 72 41 73 42 74 43 75 44 76
REMARK SMILES IDX 68 77 69 78 77 79 70 80 72 81 78 82 71 83 73 84 74 85 75 86
REMARK SMILES IDX 76 87 53 88 54 89 62 90 55 91 57 92 63 93 56 94 58 95 59 96
REMARK SMILES IDX 60 97 61 98
REMARK H PARENT 19 6 24 32 83 51 51 62
REMARK Flexibility Score: inf
ROOT
ATOM      1  C   UNL A   1      38.876  22.197  26.170  1.00  0.00     0.023 C 
ENDROOT
BRANCH   1   2
ATOM      2  C   UNL A   1      37.579  21.642  25.566  1.00  0.00     0.116 C 
BRANCH   2   3
ATOM      3  N   UNL A   1      37.322  22.224  24.257  1.00  0.00    -0.351 N 
ATOM      4  C   UNL A   1      36.160  22.701  23.682  1.00  0.00     0.263 C 
ATOM      5  O   UNL A   1      36.239  23.102  22.521  1.00  0.00    -0.268 OA
ATOM      6  H   UNL A   1      38.117  22.289  23.679  1.00  0.00     0.163 HD
BRANCH   4   7
ATOM      7  C   UNL A   1      34.940  22.792  24.454  1.00  0.00     0.115 A 
ATOM      8  C   UNL A   1      32.880  23.592  25.369  1.00  0.00     0.146 A 
ATOM      9  N   UNL A   1      32.775  22.297  25.160  1.00  0.00    -0.239 NA
ATOM     10  S   UNL A   1      34.484  24.188  25.348  1.00  0.00    -0.107 S 
ATOM     11  C   UNL A   1      34.019  21.797  24.764  1.00  0.00     0.062 A 
ATOM     12  C   UNL A   1      34.183  20.324  24.621  1.00  0.00     0.068 C 
BRANCH   8  13
ATOM     13  C   UNL A   1      31.737  24.548  25.387  1.00  0.00     0.145 A 
ATOM     14  N   UNL A   1      30.479  26.231  24.815  1.00  0.00    -0.217 N 
ATOM     15  N   UNL A   1      30.459  26.129  26.168  1.00  0.00    -0.061 NA
ATOM     16  C   UNL A   1      31.373  25.313  24.289  1.00  0.00     0.072 A 
ATOM     17  N   UNL A   1      31.215  25.099  26.522  1.00  0.00    -0.127 NA
ATOM     18  C   UNL A   1      31.993  25.380  22.935  1.00  0.00     0.069 C 
BRANCH  14  19
ATOM     19  C   UNL A   1      29.723  27.225  24.148  1.00  0.00     0.067 A 
ATOM     20  C   UNL A   1      28.186  29.248  22.990  1.00  0.00     0.119 A 
ATOM     21  C   UNL A   1      27.611  28.004  23.254  1.00  0.00     0.048 A 
ATOM     22  C   UNL A   1      29.523  29.480  23.305  1.00  0.00     0.048 A 
ATOM     23  C   UNL A   1      28.385  26.977  23.809  1.00  0.00     0.032 A 
ATOM     24  C   UNL A   1      30.297  28.467  23.868  1.00  0.00     0.032 A 
BRANCH  20  25
ATOM     25  O   UNL A   1      27.373  30.263  22.568  1.00  0.00    -0.494 OA
BRANCH  25  26
ATOM     26  C   UNL A   1      28.070  31.465  22.220  1.00  0.00     0.226 C 
ATOM     27  C   UNL A   1      28.129  31.708  20.719  1.00  0.00     0.049 C 
ENDBRANCH  25  26
ENDBRANCH  20  25
ENDBRANCH  14  19
ENDBRANCH   8  13
ENDBRANCH   4   7
ENDBRANCH   2   3
ENDBRANCH   1   2
BRANCH   1  28
ATOM     28  C   UNL A   1      40.046  21.204  26.210  1.00  0.00     0.023 C 
BRANCH  28  29
ATOM     29  C   UNL A   1      39.668  19.782  25.815  1.00  0.00     0.116 C 
BRANCH  29  30
ATOM     30  N   UNL A   1      40.794  18.854  25.928  1.00  0.00    -0.352 N 
ATOM     31  C   UNL A   1      42.143  19.153  26.000  1.00  0.00     0.251 C 
ATOM     32  H   UNL A   1      40.564  17.896  25.957  1.00  0.00     0.163 HD
ATOM     33  O   UNL A   1      42.992  18.328  25.715  1.00  0.00    -0.269 OA
BRANCH  31  34
ATOM     34  C   UNL A   1      42.527  20.501  26.452  1.00  0.00     0.039 A 
ATOM     35  C   UNL A   1      42.940  21.484  25.545  1.00  0.00     0.014 A 
ATOM     36  C   UNL A   1      42.421  20.773  27.813  1.00  0.00     0.014 A 
ATOM     37  C   UNL A   1      43.167  22.777  26.011  1.00  0.00     0.010 A 
ATOM     38  C   UNL A   1      42.510  22.068  28.245  1.00  0.00     0.010 A 
ATOM     39  C   UNL A   1      42.933  23.062  27.361  1.00  0.00    -0.014 A 
BRANCH  39  40
ATOM     40  C   UNL A   1      42.966  24.432  27.870  1.00  0.00     0.031 A 
ATOM     41  C   UNL A   1      41.667  25.160  27.770  1.00  0.00     0.074 A 
ATOM     42  C   UNL A   1      43.999  24.838  28.645  1.00  0.00     0.049 A 
ATOM     43  N   UNL A   1      41.431  26.293  27.192  1.00  0.00    -0.248 NA
ATOM     44  C   UNL A   1      40.447  24.484  28.251  1.00  0.00     0.031 C 
ATOM     45  C   UNL A   1      45.177  24.046  29.030  1.00  0.00     0.029 A 
ATOM     46  N   UNL A   1      44.124  25.949  29.424  1.00  0.00    -0.354 N 
ATOM     47  C   UNL A   1      40.093  26.583  27.464  1.00  0.00     0.074 A 
ATOM     48  C   UNL A   1      39.497  25.351  27.897  1.00  0.00     0.031 C 
ATOM     49  C   UNL A   1      45.714  24.557  30.156  1.00  0.00     0.029 A 
ATOM     50  C   UNL A   1      45.024  25.789  30.480  1.00  0.00     0.049 A 
ATOM     51  H   UNL A   1      43.628  26.783  29.257  1.00  0.00     0.167 HD
ATOM     52  C   UNL A   1      39.663  27.871  27.599  1.00  0.00     0.034 A 
ATOM     53  C   UNL A   1      45.146  26.570  31.583  1.00  0.00     0.034 A 
ATOM     54  C   UNL A   1      40.626  28.795  27.055  1.00  0.00     0.049 A 
ATOM     55  C   UNL A   1      44.496  27.862  31.277  1.00  0.00     0.074 A 
ATOM     56  C   UNL A   1      41.228  28.970  25.825  1.00  0.00     0.029 A 
ATOM     57  N   UNL A   1      41.402  29.481  27.958  1.00  0.00    -0.354 N 
ATOM     58  N   UNL A   1      44.947  28.694  30.381  1.00  0.00    -0.248 NA
ATOM     59  C   UNL A   1      43.096  28.023  31.634  1.00  0.00     0.031 C 
ATOM     60  C   UNL A   1      42.573  29.331  26.126  1.00  0.00     0.029 A 
ATOM     61  C   UNL A   1      42.694  29.442  27.514  1.00  0.00     0.049 A 
ATOM     62  H   UNL A   1      41.084  29.923  28.779  1.00  0.00     0.167 HD
ATOM     63  C   UNL A   1      43.807  29.131  29.722  1.00  0.00     0.074 A 
ATOM     64  C   UNL A   1      42.698  28.789  30.614  1.00  0.00     0.031 C 
ATOM     65  C   UNL A   1      43.843  29.436  28.391  1.00  0.00     0.034 A 
BRANCH  52  66
ATOM     66  C   UNL A   1      38.600  28.344  28.576  1.00  0.00     0.023 A 
ATOM     67  C   UNL A   1      37.596  29.200  28.062  1.00  0.00     0.012 A 
ATOM     68  C   UNL A   1      38.693  28.255  29.985  1.00  0.00     0.148 A 
ATOM     69  C   UNL A   1      36.799  29.992  28.898  1.00  0.00     0.002 A 
ATOM     70  C   UNL A   1      37.849  28.989  30.814  1.00  0.00     0.091 A 
ATOM     71  F   UNL A   1      39.679  27.564  30.556  1.00  0.00    -0.205 F 
ATOM     72  C   UNL A   1      36.927  29.888  30.276  1.00  0.00     0.022 A 
BRANCH  70  73
ATOM     73  S   UNL A   1      37.949  28.862  32.605  1.00  0.00     0.127 S 
ATOM     74  O   UNL A   1      37.877  27.418  32.798  1.00  0.00    -0.237 OA
ATOM     75  O   UNL A   1      39.255  29.463  32.875  1.00  0.00    -0.237 OA
ATOM     76  O   UNL A   1      36.821  29.634  33.116  1.00  0.00    -0.744 OA
ENDBRANCH  70  73
ENDBRANCH  52  66
BRANCH  53  77
ATOM     77  C   UNL A   1      45.581  26.217  32.955  1.00  0.00     0.023 A 
ATOM     78  C   UNL A   1      46.601  26.960  33.583  1.00  0.00     0.012 A 
ATOM     79  C   UNL A   1      44.826  25.326  33.751  1.00  0.00     0.148 A 
ATOM     80  C   UNL A   1      46.840  26.843  34.960  1.00  0.00     0.002 A 
ATOM     81  C   UNL A   1      45.074  25.202  35.114  1.00  0.00     0.091 A 
ATOM     82  F   UNL A   1      43.802  24.670  33.189  1.00  0.00    -0.205 F 
ATOM     83  C   UNL A   1      46.073  25.969  35.726  1.00  0.00     0.022 A 
BRANCH  81  84
ATOM     84  S   UNL A   1      44.107  24.106  36.163  1.00  0.00     0.127 S 
ATOM     85  O   UNL A   1      44.314  22.809  35.520  1.00  0.00    -0.237 OA
ATOM     86  O   UNL A   1      44.769  24.263  37.455  1.00  0.00    -0.237 OA
ATOM     87  O   UNL A   1      42.735  24.596  36.091  1.00  0.00    -0.744 OA
ENDBRANCH  81  84
ENDBRANCH  53  77
BRANCH  65  88
ATOM     88  C   UNL A   1      45.190  29.523  27.717  1.00  0.00     0.023 A 
ATOM     89  C   UNL A   1      46.014  30.666  27.810  1.00  0.00     0.012 A 
ATOM     90  C   UNL A   1      45.715  28.358  27.139  1.00  0.00     0.148 A 
ATOM     91  C   UNL A   1      47.321  30.652  27.318  1.00  0.00     0.002 A 
ATOM     92  C   UNL A   1      47.031  28.330  26.697  1.00  0.00     0.091 A 
ATOM     93  F   UNL A   1      44.921  27.278  27.062  1.00  0.00    -0.205 F 
ATOM     94  C   UNL A   1      47.836  29.477  26.775  1.00  0.00     0.022 A 
BRANCH  92  95
ATOM     95  S   UNL A   1      47.785  26.811  26.116  1.00  0.00     0.127 S 
ATOM     96  O   UNL A   1      49.150  27.241  25.823  1.00  0.00    -0.237 OA
ATOM     97  O   UNL A   1      47.656  25.930  27.279  1.00  0.00    -0.237 OA
ATOM     98  O   UNL A   1      46.998  26.389  24.964  1.00  0.00    -0.744 OA
ENDBRANCH  92  95
ENDBRANCH  65  88
ENDBRANCH  39  40
ENDBRANCH  31  34
ENDBRANCH  29  30
ENDBRANCH  28  29
ENDBRANCH   1  28
TORSDOF 18
ENDMDL
MODEL 2
REMARK VINA RESULT:     -12.6      4.761      9.017
REMARK SMILES CCOc1ccc(-n2nnc(-c3nc(C)c(C(=O)NCCCCNC(=O)c4ccc(-c5c6nc(c(-c7cccc(S(=O)(=O)[O-])c7F)c7ccc([nH]7)c(-c7cccc(S(=O)(=O)[O-])c7F)c7nc(c(-c8cccc(S(=O)(=O)[O-])c8F)c8ccc5[nH]8)C=C7)C=C6)cc4)s3)c2C)cc1
REMARK SMILES IDX 21 1 20 2 19 3 17 4 18 5 16 7 12 8 13 9 90 10 14 11 15 12
REMARK SMILES IDX 11 13 8 14 9 15 91 16 10 17 92 18 7 19 4 20 5 21 94 22 6 23
REMARK SMILES IDX 93 24 3 25 2 26 1 27 22 28 23 29 24 30 25 31 26 33 27 34
REMARK SMILES IDX 28 35 89 36 29 37 88 38 30 39 31 40 32 41 82 42 33 43 87 44
REMARK SMILES IDX 81 45 83 46 34 47 86 48 80 49 79 50 35 52 67 53 47 54 66 55
REMARK SMILES IDX 48 56 51 57 65 58 84 59 49 60 50 61 64 63 85 64 52 65 36 66
REMARK SMILES IDX 37 67 45 68 38 69 40 70 46 71 39 72 41 73 42 74 43 75 44 76
REMARK SMILES IDX 68 77 69 78 77 79 70 80 72 81 78 82 71 83 73 84 74 85 75 86
REMARK SMILES IDX 76 87 53 88 54 89 62 90 55 91 57 92 63 93 56 94 58 95 59 96
REMARK SMILES IDX 60 97 61 98
REMARK H PARENT 19 6 24 32 83 51 51 62
REMARK Flexibility Score: inf
ROOT
ATOM      1  C   UNL A   1      37.871  22.451  25.380  1.00  0.00     0.023 C 
ENDROOT
BRANCH   1   2
ATOM      2  C   UNL A   1      36.409  22.078  25.101  1.00  0.00     0.116 C 
BRANCH   2   3
ATOM      3  N   UNL A   1      36.277  20.656  24.826  1.00  0.00    -0.351 N 
ATOM      4  C   UNL A   1      35.200  19.799  24.943  1.00  0.00     0.263 C 
ATOM      5  O   UNL A   1      35.401  18.614  24.675  1.00  0.00    -0.268 OA
ATOM      6  H   UNL A   1      37.101  20.228  24.498  1.00  0.00     0.163 HD
BRANCH   4   7
ATOM      7  C   UNL A   1      33.889  20.306  25.286  1.00  0.00     0.115 A 
ATOM      8  C   UNL A   1      32.097  21.787  25.846  1.00  0.00     0.146 A 
ATOM      9  N   UNL A   1      31.640  20.858  25.034  1.00  0.00    -0.239 NA
ATOM     10  S   UNL A   1      33.609  21.426  26.561  1.00  0.00    -0.107 S 
ATOM     11  C   UNL A   1      32.641  19.908  24.819  1.00  0.00     0.062 A 
ATOM     12  C   UNL A   1      32.303  18.675  24.054  1.00  0.00     0.068 C 
BRANCH   8  13
ATOM     13  C   UNL A   1      31.522  23.155  25.987  1.00  0.00     0.145 A 
ATOM     14  N   UNL A   1      30.973  25.198  25.471  1.00  0.00    -0.217 N 
ATOM     15  N   UNL A   1      31.323  25.173  26.783  1.00  0.00    -0.061 NA
ATOM     16  C   UNL A   1      31.197  23.955  24.903  1.00  0.00     0.072 A 
ATOM     17  N   UNL A   1      31.649  23.929  27.105  1.00  0.00    -0.127 NA
ATOM     18  C   UNL A   1      31.345  23.680  23.445  1.00  0.00     0.069 C 
BRANCH  14  19
ATOM     19  C   UNL A   1      30.537  26.397  24.857  1.00  0.00     0.067 A 
ATOM     20  C   UNL A   1      29.757  28.708  23.499  1.00  0.00     0.119 A 
ATOM     21  C   UNL A   1      30.948  28.698  24.225  1.00  0.00     0.048 A 
ATOM     22  C   UNL A   1      28.959  27.567  23.450  1.00  0.00     0.048 A 
ATOM     23  C   UNL A   1      31.330  27.550  24.930  1.00  0.00     0.032 A 
ATOM     24  C   UNL A   1      29.337  26.417  24.141  1.00  0.00     0.032 A 
BRANCH  20  25
ATOM     25  O   UNL A   1      29.478  29.797  22.721  1.00  0.00    -0.494 OA
BRANCH  25  26
ATOM     26  C   UNL A   1      28.081  30.089  22.600  1.00  0.00     0.226 C 
ATOM     27  C   UNL A   1      27.664  31.340  23.357  1.00  0.00     0.049 C 
ENDBRANCH  25  26
ENDBRANCH  20  25
ENDBRANCH  14  19
ENDBRANCH   8  13
ENDBRANCH   4   7
ENDBRANCH   2   3
ENDBRANCH   1   2
BRANCH   1  28
ATOM     28  C   UNL A   1      38.066  23.758  26.163  1.00  0.00     0.023 C 
BRANCH  28  29
ATOM     29  C   UNL A   1      39.205  23.712  27.173  1.00  0.00     0.116 C 
BRANCH  29  30
ATOM     30  N   UNL A   1      40.519  23.796  26.536  1.00  0.00    -0.352 N 
ATOM     31  C   UNL A   1      41.321  24.912  26.376  1.00  0.00     0.251 C 
ATOM     32  H   UNL A   1      40.879  22.952  26.176  1.00  0.00     0.163 HD
ATOM     33  O   UNL A   1      42.191  24.952  25.525  1.00  0.00    -0.269 OA
BRANCH  31  34
ATOM     34  C   UNL A   1      41.104  26.052  27.283  1.00  0.00     0.039 A 
ATOM     35  C   UNL A   1      41.685  26.093  28.555  1.00  0.00     0.014 A 
ATOM     36  C   UNL A   1      40.334  27.109  26.806  1.00  0.00     0.014 A 
ATOM     37  C   UNL A   1      41.553  27.250  29.318  1.00  0.00     0.010 A 
ATOM     38  C   UNL A   1      40.321  28.291  27.495  1.00  0.00     0.010 A 
ATOM     39  C   UNL A   1      40.883  28.351  28.772  1.00  0.00    -0.014 A 
BRANCH  39  40
ATOM     40  C   UNL A   1      40.877  29.651  29.439  1.00  0.00     0.031 A 
ATOM     41  C   UNL A   1      42.127  30.446  29.256  1.00  0.00     0.074 A 
ATOM     42  C   UNL A   1      39.711  30.174  29.885  1.00  0.00     0.049 A 
ATOM     43  N   UNL A   1      42.897  30.941  30.170  1.00  0.00    -0.248 NA
ATOM     44  C   UNL A   1      42.669  30.593  27.892  1.00  0.00     0.031 C 
ATOM     45  C   UNL A   1      38.380  29.551  29.814  1.00  0.00     0.029 A 
ATOM     46  N   UNL A   1      39.421  31.441  30.294  1.00  0.00    -0.354 N 
ATOM     47  C   UNL A   1      43.869  31.675  29.486  1.00  0.00     0.074 A 
ATOM     48  C   UNL A   1      43.817  31.231  28.122  1.00  0.00     0.031 C 
ATOM     49  C   UNL A   1      37.432  30.507  29.877  1.00  0.00     0.029 A 
ATOM     50  C   UNL A   1      38.073  31.778  30.149  1.00  0.00     0.049 A 
ATOM     51  H   UNL A   1      40.096  32.059  30.658  1.00  0.00     0.167 HD
ATOM     52  C   UNL A   1      44.423  32.794  30.034  1.00  0.00     0.034 A 
ATOM     53  C   UNL A   1      37.527  33.019  30.175  1.00  0.00     0.034 A 
ATOM     54  C   UNL A   1      44.177  32.850  31.453  1.00  0.00     0.049 A 
ATOM     55  C   UNL A   1      38.507  33.914  30.827  1.00  0.00     0.074 A 
ATOM     56  C   UNL A   1      44.436  32.020  32.524  1.00  0.00     0.029 A 
ATOM     57  N   UNL A   1      43.204  33.724  31.877  1.00  0.00    -0.354 N 
ATOM     58  N   UNL A   1      38.844  33.809  32.081  1.00  0.00    -0.248 NA
ATOM     59  C   UNL A   1      39.450  34.626  29.981  1.00  0.00     0.031 C 
ATOM     60  C   UNL A   1      43.281  32.122  33.353  1.00  0.00     0.029 A 
ATOM     61  C   UNL A   1      42.423  33.070  32.788  1.00  0.00     0.049 A 
ATOM     62  H   UNL A   1      43.091  34.655  31.578  1.00  0.00     0.167 HD
ATOM     63  C   UNL A   1      40.220  33.991  32.076  1.00  0.00     0.074 A 
ATOM     64  C   UNL A   1      40.516  34.615  30.786  1.00  0.00     0.031 C 
ATOM     65  C   UNL A   1      41.015  33.336  32.973  1.00  0.00     0.034 A 
BRANCH  52  66
ATOM     66  C   UNL A   1      44.819  34.045  29.266  1.00  0.00     0.023 A 
ATOM     67  C   UNL A   1      46.123  34.546  29.491  1.00  0.00     0.012 A 
ATOM     68  C   UNL A   1      43.918  34.905  28.595  1.00  0.00     0.148 A 
ATOM     69  C   UNL A   1      46.480  35.858  29.155  1.00  0.00     0.002 A 
ATOM     70  C   UNL A   1      44.299  36.184  28.197  1.00  0.00     0.091 A 
ATOM     71  F   UNL A   1      42.640  34.561  28.442  1.00  0.00    -0.205 F 
ATOM     72  C   UNL A   1      45.566  36.679  28.509  1.00  0.00     0.022 A 
BRANCH  70  73
ATOM     73  S   UNL A   1      43.166  37.273  27.324  1.00  0.00     0.127 S 
ATOM     74  O   UNL A   1      44.056  38.357  26.923  1.00  0.00    -0.237 OA
ATOM     75  O   UNL A   1      42.703  36.411  26.236  1.00  0.00    -0.237 OA
ATOM     76  O   UNL A   1      42.130  37.618  28.292  1.00  0.00    -0.744 OA
ENDBRANCH  70  73
ENDBRANCH  52  66
BRANCH  53  77
ATOM     77  C   UNL A   1      36.325  33.545  29.484  1.00  0.00     0.023 A 
ATOM     78  C   UNL A   1      35.895  32.959  28.276  1.00  0.00     0.012 A 
ATOM     79  C   UNL A   1      35.448  34.443  30.132  1.00  0.00     0.148 A 
ATOM     80  C   UNL A   1      34.625  33.234  27.750  1.00  0.00     0.002 A 
ATOM     81  C   UNL A   1      34.193  34.724  29.600  1.00  0.00     0.091 A 
ATOM     82  F   UNL A   1      35.806  34.949  31.320  1.00  0.00    -0.205 F 
ATOM     83  C   UNL A   1      33.772  34.111  28.414  1.00  0.00     0.022 A 
BRANCH  81  84
ATOM     84  S   UNL A   1      33.037  35.833  30.419  1.00  0.00     0.127 S 
ATOM     85  O   UNL A   1      32.141  36.202  29.323  1.00  0.00    -0.237 OA
ATOM     86  O   UNL A   1      32.446  34.960  31.429  1.00  0.00    -0.237 OA
ATOM     87  O   UNL A   1      33.841  36.938  30.930  1.00  0.00    -0.744 OA
ENDBRANCH  81  84
ENDBRANCH  53  77
BRANCH  65  88
ATOM     88  C   UNL A   1      40.349  32.608  34.115  1.00  0.00     0.023 A 
ATOM     89  C   UNL A   1      40.109  31.216  34.093  1.00  0.00     0.012 A 
ATOM     90  C   UNL A   1      40.136  33.311  35.310  1.00  0.00     0.148 A 
ATOM     91  C   UNL A   1      39.647  30.549  35.230  1.00  0.00     0.002 A 
ATOM     92  C   UNL A   1      39.726  32.636  36.453  1.00  0.00     0.091 A 
ATOM     93  F   UNL A   1      40.372  34.632  35.317  1.00  0.00    -0.205 F 
ATOM     94  C   UNL A   1      39.471  31.257  36.415  1.00  0.00     0.022 A 
BRANCH  92  95
ATOM     95  S   UNL A   1      39.613  33.471  38.036  1.00  0.00     0.127 S 
ATOM     96  O   UNL A   1      39.530  32.348  38.967  1.00  0.00    -0.237 OA
ATOM     97  O   UNL A   1      40.871  34.219  38.088  1.00  0.00    -0.237 OA
ATOM     98  O   UNL A   1      38.426  34.313  37.959  1.00  0.00    -0.744 OA
ENDBRANCH  92  95
ENDBRANCH  65  88
ENDBRANCH  39  40
ENDBRANCH  31  34
ENDBRANCH  29  30
ENDBRANCH  28  29
ENDBRANCH   1  28
TORSDOF 18
ENDMDL
MODEL 3
REMARK VINA RESULT:     -12.2      4.077      7.822
REMARK SMILES CCOc1ccc(-n2nnc(-c3nc(C)c(C(=O)NCCCCNC(=O)c4ccc(-c5c6nc(c(-c7cccc(S(=O)(=O)[O-])c7F)c7ccc([nH]7)c(-c7cccc(S(=O)(=O)[O-])c7F)c7nc(c(-c8cccc(S(=O)(=O)[O-])c8F)c8ccc5[nH]8)C=C7)C=C6)cc4)s3)c2C)cc1
REMARK SMILES IDX 21 1 20 2 19 3 17 4 18 5 16 7 12 8 13 9 90 10 14 11 15 12
REMARK SMILES IDX 11 13 8 14 9 15 91 16 10 17 92 18 7 19 4 20 5 21 94 22 6 23
REMARK SMILES IDX 93 24 3 25 2 26 1 27 22 28 23 29 24 30 25 31 26 33 27 34
REMARK SMILES IDX 28 35 89 36 29 37 88 38 30 39 31 40 32 41 82 42 33 43 87 44
REMARK SMILES IDX 81 45 83 46 34 47 86 48 80 49 79 50 35 52 67 53 47 54 66 55
REMARK SMILES IDX 48 56 51 57 65 58 84 59 49 60 50 61 64 63 85 64 52 65 36 66
REMARK SMILES IDX 37 67 45 68 38 69 40 70 46 71 39 72 41 73 42 74 43 75 44 76
REMARK SMILES IDX 68 77 69 78 77 79 70 80 72 81 78 82 71 83 73 84 74 85 75 86
REMARK SMILES IDX 76 87 53 88 54 89 62 90 55 91 57 92 63 93 56 94 58 95 59 96
REMARK SMILES IDX 60 97 61 98
REMARK H PARENT 19 6 24 32 83 51 51 62
REMARK Flexibility Score: inf
ROOT
ATOM      1  C   UNL A   1      37.319  23.614  24.913  1.00  0.00     0.023 C 
ENDROOT
BRANCH   1   2
ATOM      2  C   UNL A   1      36.141  22.834  24.314  1.00  0.00     0.116 C 
BRANCH   2   3
ATOM      3  N   UNL A   1      36.337  21.400  24.458  1.00  0.00    -0.351 N 
ATOM      4  C   UNL A   1      35.505  20.408  24.939  1.00  0.00     0.263 C 
ATOM      5  O   UNL A   1      35.967  19.268  24.984  1.00  0.00    -0.268 OA
ATOM      6  H   UNL A   1      37.220  21.079  24.161  1.00  0.00     0.163 HD
BRANCH   4   7
ATOM      7  C   UNL A   1      34.133  20.704  25.290  1.00  0.00     0.115 A 
ATOM      8  C   UNL A   1      32.117  21.889  25.793  1.00  0.00     0.146 A 
ATOM      9  N   UNL A   1      31.815  20.825  25.080  1.00  0.00    -0.239 NA
ATOM     10  S   UNL A   1      33.686  21.866  26.477  1.00  0.00    -0.107 S 
ATOM     11  C   UNL A   1      32.966  20.052  24.906  1.00  0.00     0.062 A 
ATOM     12  C   UNL A   1      32.837  18.716  24.261  1.00  0.00     0.068 C 
BRANCH   8  13
ATOM     13  C   UNL A   1      31.310  23.141  25.842  1.00  0.00     0.145 A 
ATOM     14  N   UNL A   1      30.660  25.167  25.376  1.00  0.00    -0.217 N 
ATOM     15  N   UNL A   1      30.487  24.963  26.707  1.00  0.00    -0.061 NA
ATOM     16  C   UNL A   1      31.290  24.069  24.812  1.00  0.00     0.072 A 
ATOM     17  N   UNL A   1      30.870  23.727  26.994  1.00  0.00    -0.127 NA
ATOM     18  C   UNL A   1      32.023  24.060  23.515  1.00  0.00     0.069 C 
BRANCH  14  19
ATOM     19  C   UNL A   1      30.295  26.395  24.774  1.00  0.00     0.067 A 
ATOM     20  C   UNL A   1      29.653  28.762  23.441  1.00  0.00     0.119 A 
ATOM     21  C   UNL A   1      30.826  28.685  24.193  1.00  0.00     0.048 A 
ATOM     22  C   UNL A   1      28.804  27.661  23.356  1.00  0.00     0.048 A 
ATOM     23  C   UNL A   1      31.139  27.508  24.885  1.00  0.00     0.032 A 
ATOM     24  C   UNL A   1      29.113  26.483  24.034  1.00  0.00     0.032 A 
BRANCH  20  25
ATOM     25  O   UNL A   1      29.443  29.877  22.677  1.00  0.00    -0.494 OA
BRANCH  25  26
ATOM     26  C   UNL A   1      28.061  30.189  22.465  1.00  0.00     0.226 C 
ATOM     27  C   UNL A   1      27.560  31.317  23.354  1.00  0.00     0.049 C 
ENDBRANCH  25  26
ENDBRANCH  20  25
ENDBRANCH  14  19
ENDBRANCH   8  13
ENDBRANCH   4   7
ENDBRANCH   2   3
ENDBRANCH   1   2
BRANCH   1  28
ATOM     28  C   UNL A   1      37.871  23.041  26.226  1.00  0.00     0.023 C 
BRANCH  28  29
ATOM     29  C   UNL A   1      38.948  23.901  26.875  1.00  0.00     0.116 C 
BRANCH  29  30
ATOM     30  N   UNL A   1      40.294  23.538  26.430  1.00  0.00    -0.352 N 
ATOM     31  C   UNL A   1      41.443  24.308  26.473  1.00  0.00     0.251 C 
ATOM     32  H   UNL A   1      40.396  22.633  26.054  1.00  0.00     0.163 HD
ATOM     33  O   UNL A   1      42.396  24.067  25.754  1.00  0.00    -0.269 OA
BRANCH  31  34
ATOM     34  C   UNL A   1      41.490  25.424  27.433  1.00  0.00     0.039 A 
ATOM     35  C   UNL A   1      42.433  25.458  28.466  1.00  0.00     0.014 A 
ATOM     36  C   UNL A   1      40.588  26.467  27.243  1.00  0.00     0.014 A 
ATOM     37  C   UNL A   1      42.516  26.596  29.264  1.00  0.00     0.010 A 
ATOM     38  C   UNL A   1      40.762  27.635  27.934  1.00  0.00     0.010 A 
ATOM     39  C   UNL A   1      41.687  27.687  28.979  1.00  0.00    -0.014 A 
BRANCH  39  40
ATOM     40  C   UNL A   1      41.858  28.973  29.651  1.00  0.00     0.031 A 
ATOM     41  C   UNL A   1      42.911  29.847  29.055  1.00  0.00     0.074 A 
ATOM     42  C   UNL A   1      40.910  29.416  30.511  1.00  0.00     0.049 A 
ATOM     43  N   UNL A   1      43.935  30.376  29.642  1.00  0.00    -0.248 NA
ATOM     44  C   UNL A   1      42.906  30.050  27.593  1.00  0.00     0.031 C 
ATOM     45  C   UNL A   1      39.681  28.711  30.907  1.00  0.00     0.029 A 
ATOM     46  N   UNL A   1      40.725  30.655  31.045  1.00  0.00    -0.354 N 
ATOM     47  C   UNL A   1      44.549  31.179  28.679  1.00  0.00     0.074 A 
ATOM     48  C   UNL A   1      44.024  30.755  27.412  1.00  0.00     0.031 C 
ATOM     49  C   UNL A   1      38.773  29.606  31.348  1.00  0.00     0.029 A 
ATOM     50  C   UNL A   1      39.402  30.910  31.414  1.00  0.00     0.049 A 
ATOM     51  H   UNL A   1      41.454  31.308  31.160  1.00  0.00     0.167 HD
ATOM     52  C   UNL A   1      45.205  32.322  29.028  1.00  0.00     0.034 A 
ATOM     53  C   UNL A   1      38.839  32.114  31.684  1.00  0.00     0.034 A 
ATOM     54  C   UNL A   1      45.494  32.340  30.441  1.00  0.00     0.049 A 
ATOM     55  C   UNL A   1      39.942  33.057  31.967  1.00  0.00     0.074 A 
ATOM     56  C   UNL A   1      46.171  31.511  31.311  1.00  0.00     0.029 A 
ATOM     57  N   UNL A   1      44.700  33.145  31.223  1.00  0.00    -0.354 N 
ATOM     58  N   UNL A   1      40.720  32.954  33.007  1.00  0.00    -0.248 NA
ATOM     59  C   UNL A   1      40.470  33.840  30.862  1.00  0.00     0.031 C 
ATOM     60  C   UNL A   1      45.396  31.528  32.507  1.00  0.00     0.029 A 
ATOM     61  C   UNL A   1      44.343  32.429  32.331  1.00  0.00     0.049 A 
ATOM     62  H   UNL A   1      44.436  34.072  31.020  1.00  0.00     0.167 HD
ATOM     63  C   UNL A   1      41.986  33.222  32.507  1.00  0.00     0.074 A 
ATOM     64  C   UNL A   1      41.756  33.883  31.222  1.00  0.00     0.031 C 
ATOM     65  C   UNL A   1      43.088  32.603  33.026  1.00  0.00     0.034 A 
BRANCH  52  66
ATOM     66  C   UNL A   1      45.226  33.607  28.216  1.00  0.00     0.023 A 
ATOM     67  C   UNL A   1      46.497  34.121  27.867  1.00  0.00     0.012 A 
ATOM     68  C   UNL A   1      44.124  34.477  28.044  1.00  0.00     0.148 A 
ATOM     69  C   UNL A   1      46.673  35.450  27.463  1.00  0.00     0.002 A 
ATOM     70  C   UNL A   1      44.294  35.775  27.572  1.00  0.00     0.091 A 
ATOM     71  F   UNL A   1      42.907  34.118  28.453  1.00  0.00    -0.205 F 
ATOM     72  C   UNL A   1      45.570  36.280  27.316  1.00  0.00     0.022 A 
BRANCH  70  73
ATOM     73  S   UNL A   1      42.894  36.878  27.330  1.00  0.00     0.127 S 
ATOM     74  O   UNL A   1      42.007  36.047  26.521  1.00  0.00    -0.237 OA
ATOM     75  O   UNL A   1      42.452  37.106  28.705  1.00  0.00    -0.237 OA
ATOM     76  O   UNL A   1      43.437  38.062  26.674  1.00  0.00    -0.744 OA
ENDBRANCH  70  73
ENDBRANCH  52  66
BRANCH  53  77
ATOM     77  C   UNL A   1      37.442  32.574  31.500  1.00  0.00     0.023 A 
ATOM     78  C   UNL A   1      36.718  33.082  32.598  1.00  0.00     0.012 A 
ATOM     79  C   UNL A   1      36.902  32.761  30.208  1.00  0.00     0.148 A 
ATOM     80  C   UNL A   1      35.516  33.778  32.412  1.00  0.00     0.002 A 
ATOM     81  C   UNL A   1      35.702  33.442  30.028  1.00  0.00     0.091 A 
ATOM     82  F   UNL A   1      37.613  32.355  29.147  1.00  0.00    -0.205 F 
ATOM     83  C   UNL A   1      35.010  33.964  31.128  1.00  0.00     0.022 A 
BRANCH  81  84
ATOM     84  S   UNL A   1      35.005  33.732  28.395  1.00  0.00     0.127 S 
ATOM     85  O   UNL A   1      33.690  33.102  28.508  1.00  0.00    -0.237 OA
ATOM     86  O   UNL A   1      34.985  35.189  28.330  1.00  0.00    -0.237 OA
ATOM     87  O   UNL A   1      35.905  33.069  27.457  1.00  0.00    -0.744 OA
ENDBRANCH  81  84
ENDBRANCH  53  77
BRANCH  65  88
ATOM     88  C   UNL A   1      42.926  31.818  34.305  1.00  0.00     0.023 A 
ATOM     89  C   UNL A   1      42.877  32.434  35.575  1.00  0.00     0.012 A 
ATOM     90  C   UNL A   1      42.628  30.451  34.206  1.00  0.00     0.148 A 
ATOM     91  C   UNL A   1      42.558  31.698  36.719  1.00  0.00     0.002 A 
ATOM     92  C   UNL A   1      42.261  29.733  35.337  1.00  0.00     0.091 A 
ATOM     93  F   UNL A   1      42.674  29.880  32.992  1.00  0.00    -0.205 F 
ATOM     94  C   UNL A   1      42.234  30.350  36.597  1.00  0.00     0.022 A 
BRANCH  92  95
ATOM     95  S   UNL A   1      41.705  28.032  35.220  1.00  0.00     0.127 S 
ATOM     96  O   UNL A   1      41.278  27.757  36.589  1.00  0.00    -0.237 OA
ATOM     97  O   UNL A   1      40.616  28.123  34.244  1.00  0.00    -0.237 OA
ATOM     98  O   UNL A   1      42.855  27.267  34.754  1.00  0.00    -0.744 OA
ENDBRANCH  92  95
ENDBRANCH  65  88
ENDBRANCH  39  40
ENDBRANCH  31  34
ENDBRANCH  29  30
ENDBRANCH  28  29
ENDBRANCH   1  28
TORSDOF 18
ENDMDL
