MODEL 1
REMARK VINA RESULT:     -12.0      0.000      0.000
REMARK SMILES COCC[C@@H](C)NC(=O)N1Cc2nc[nH]c2C[C@@H]1C(=O)NCCCCNC(=O)c1ccc(-c2c3nc(c(-c4cccc(S(=O)(=O)[O-])c4F)c4ccc([nH]4)c(-c4cccc(S(=O)(=O)[O-])c4F)c4nc(c(-c5cccc(S(=O)(=O)[O-])c5F)c5ccc2[nH]5)C=C4)C=C3)cc1
REMARK SMILES IDX 22 1 21 2 19 3 20 4 18 6 10 7 11 8 12 9 17 10 13 11 16 12
REMARK SMILES IDX 14 13 15 14 8 16 7 17 9 19 5 20 6 21 4 22 3 23 2 24 1 25
REMARK SMILES IDX 23 26 24 27 25 28 26 29 27 30 28 32 29 33 30 34 91 35 31 36
REMARK SMILES IDX 90 37 32 38 33 39 34 40 84 41 35 42 89 43 83 44 85 45 36 46
REMARK SMILES IDX 88 47 82 48 81 49 37 51 69 52 49 53 68 54 50 55 53 56 67 57
REMARK SMILES IDX 86 58 51 59 52 60 66 62 87 63 54 64 38 65 39 66 47 67 40 68
REMARK SMILES IDX 42 69 48 70 41 71 43 72 44 73 45 74 46 75 70 76 71 77 79 78
REMARK SMILES IDX 72 79 74 80 80 81 73 82 75 83 76 84 77 85 78 86 55 87 56 88
REMARK SMILES IDX 64 89 57 90 59 91 65 92 58 93 60 94 61 95 62 96 63 97
REMARK H PARENT 21 5 15 15 7 18 26 31 85 50 53 61
REMARK Flexibility Score: inf
ROOT
ATOM      1  C   UNL A   1      36.922  21.968  24.745  1.00  0.00     0.116 C 
ENDROOT
BRANCH   1   2
ATOM      2  N   UNL A   1      36.163  22.423  23.604  1.00  0.00    -0.354 N 
ATOM      3  C   UNL A   1      35.201  23.390  23.567  1.00  0.00     0.243 C 
ATOM      4  O   UNL A   1      34.737  23.665  22.452  1.00  0.00    -0.273 OA
ATOM      5  H   UNL A   1      36.362  21.980  22.748  1.00  0.00     0.163 HD
BRANCH   3   6
ATOM      6  C   UNL A   1      34.490  23.912  24.837  1.00  0.00     0.182 C 
ATOM      7  N   UNL A   1      33.454  23.113  25.588  1.00  0.00    -0.306 N 
ATOM      8  C   UNL A   1      32.669  23.840  26.627  1.00  0.00     0.180 C 
ATOM      9  C   UNL A   1      32.353  25.231  26.219  1.00  0.00     0.081 A 
ATOM     10  C   UNL A   1      33.935  25.273  24.266  1.00  0.00     0.091 C 
ATOM     11  N   UNL A   1      31.442  26.062  26.824  1.00  0.00    -0.240 NA
ATOM     12  C   UNL A   1      32.948  25.873  25.169  1.00  0.00     0.042 A 
ATOM     13  C   UNL A   1      31.483  27.180  26.130  1.00  0.00     0.197 A 
ATOM     14  N   UNL A   1      32.389  27.112  25.107  1.00  0.00    -0.348 N 
ATOM     15  H   UNL A   1      32.596  27.819  24.453  1.00  0.00     0.167 HD
BRANCH   7  16
ATOM     16  C   UNL A   1      33.367  21.752  25.739  1.00  0.00     0.318 C 
ATOM     17  N   UNL A   1      32.711  20.949  24.882  1.00  0.00    -0.335 N 
ATOM     18  H   UNL A   1      32.179  20.241  25.311  1.00  0.00     0.165 HD
ATOM     19  O   UNL A   1      33.821  21.188  26.742  1.00  0.00    -0.249 OA
BRANCH  17  20
ATOM     20  C   UNL A   1      32.657  20.950  23.422  1.00  0.00     0.083 C 
ATOM     21  C   UNL A   1      31.716  22.050  22.929  1.00  0.00     0.031 C 
BRANCH  20  22
ATOM     22  C   UNL A   1      32.184  19.571  22.935  1.00  0.00     0.053 C 
BRANCH  22  23
ATOM     23  C   UNL A   1      32.882  18.451  23.691  1.00  0.00     0.162 C 
BRANCH  23  24
ATOM     24  O   UNL A   1      32.040  18.054  24.780  1.00  0.00    -0.385 OA
ATOM     25  C   UNL A   1      32.617  17.038  25.592  1.00  0.00     0.194 C 
ENDBRANCH  23  24
ENDBRANCH  22  23
ENDBRANCH  20  22
ENDBRANCH  17  20
ENDBRANCH   7  16
ENDBRANCH   3   6
ENDBRANCH   1   2
BRANCH   1  26
ATOM     26  C   UNL A   1      36.736  20.488  25.062  1.00  0.00     0.023 C 
BRANCH  26  27
ATOM     27  C   UNL A   1      37.977  19.606  24.893  1.00  0.00     0.023 C 
BRANCH  27  28
ATOM     28  C   UNL A   1      39.168  20.032  25.735  1.00  0.00     0.116 C 
BRANCH  28  29
ATOM     29  N   UNL A   1      40.227  19.022  25.804  1.00  0.00    -0.352 N 
ATOM     30  C   UNL A   1      41.580  19.242  26.024  1.00  0.00     0.251 C 
ATOM     31  H   UNL A   1      39.949  18.087  25.681  1.00  0.00     0.163 HD
ATOM     32  O   UNL A   1      42.415  18.386  25.789  1.00  0.00    -0.269 OA
BRANCH  30  33
ATOM     33  C   UNL A   1      41.970  20.547  26.590  1.00  0.00     0.039 A 
ATOM     34  C   UNL A   1      42.761  21.466  25.893  1.00  0.00     0.014 A 
ATOM     35  C   UNL A   1      41.461  20.846  27.849  1.00  0.00     0.014 A 
ATOM     36  C   UNL A   1      42.987  22.719  26.463  1.00  0.00     0.010 A 
ATOM     37  C   UNL A   1      41.509  22.129  28.303  1.00  0.00     0.010 A 
ATOM     38  C   UNL A   1      42.352  23.034  27.671  1.00  0.00    -0.014 A 
BRANCH  38  39
ATOM     39  C   UNL A   1      42.469  24.335  28.312  1.00  0.00     0.031 A 
ATOM     40  C   UNL A   1      41.313  25.246  28.083  1.00  0.00     0.074 A 
ATOM     41  C   UNL A   1      43.399  24.529  29.276  1.00  0.00     0.049 A 
ATOM     42  N   UNL A   1      41.311  26.397  27.494  1.00  0.00    -0.248 NA
ATOM     43  C   UNL A   1      39.967  24.755  28.426  1.00  0.00     0.031 C 
ATOM     44  C   UNL A   1      44.363  23.556  29.824  1.00  0.00     0.029 A 
ATOM     45  N   UNL A   1      43.571  25.594  30.098  1.00  0.00    -0.354 N 
ATOM     46  C   UNL A   1      40.004  26.875  27.604  1.00  0.00     0.074 A 
ATOM     47  C   UNL A   1      39.195  25.746  27.977  1.00  0.00     0.031 C 
ATOM     48  C   UNL A   1      44.810  23.984  31.026  1.00  0.00     0.029 A 
ATOM     49  C   UNL A   1      44.316  25.328  31.245  1.00  0.00     0.049 A 
ATOM     50  H   UNL A   1      43.198  26.484  29.900  1.00  0.00     0.167 HD
ATOM     51  C   UNL A   1      39.734  28.210  27.632  1.00  0.00     0.034 A 
ATOM     52  C   UNL A   1      44.474  26.148  32.313  1.00  0.00     0.034 A 
ATOM     53  C   UNL A   1      40.878  28.976  27.201  1.00  0.00     0.049 A 
ATOM     54  C   UNL A   1      44.100  27.508  31.861  1.00  0.00     0.074 A 
ATOM     55  C   UNL A   1      41.616  29.066  26.038  1.00  0.00     0.029 A 
ATOM     56  N   UNL A   1      41.664  29.516  28.191  1.00  0.00    -0.354 N 
ATOM     57  N   UNL A   1      44.771  28.171  30.962  1.00  0.00    -0.248 NA
ATOM     58  C   UNL A   1      42.726  27.934  32.066  1.00  0.00     0.031 C 
ATOM     59  C   UNL A   1      42.968  29.200  26.475  1.00  0.00     0.029 A 
ATOM     60  C   UNL A   1      42.970  29.257  27.871  1.00  0.00     0.049 A 
ATOM     61  H   UNL A   1      41.346  30.002  28.985  1.00  0.00     0.167 HD
ATOM     62  C   UNL A   1      43.795  28.771  30.179  1.00  0.00     0.074 A 
ATOM     63  C   UNL A   1      42.565  28.679  30.967  1.00  0.00     0.031 C 
ATOM     64  C   UNL A   1      44.008  29.015  28.851  1.00  0.00     0.034 A 
BRANCH  51  65
ATOM     65  C   UNL A   1      38.595  28.868  28.384  1.00  0.00     0.023 A 
ATOM     66  C   UNL A   1      37.695  29.656  27.626  1.00  0.00     0.012 A 
ATOM     67  C   UNL A   1      38.509  28.988  29.791  1.00  0.00     0.148 A 
ATOM     68  C   UNL A   1      36.813  30.559  28.229  1.00  0.00     0.002 A 
ATOM     69  C   UNL A   1      37.580  29.834  30.389  1.00  0.00     0.091 A 
ATOM     70  F   UNL A   1      39.408  28.388  30.573  1.00  0.00    -0.205 F 
ATOM     71  C   UNL A   1      36.753  30.647  29.613  1.00  0.00     0.022 A 
BRANCH  69  72
ATOM     72  S   UNL A   1      37.426  29.956  32.177  1.00  0.00     0.127 S 
ATOM     73  O   UNL A   1      36.323  30.904  32.310  1.00  0.00    -0.237 OA
ATOM     74  O   UNL A   1      37.106  28.576  32.544  1.00  0.00    -0.237 OA
ATOM     75  O   UNL A   1      38.727  30.411  32.651  1.00  0.00    -0.744 OA
ENDBRANCH  69  72
ENDBRANCH  51  65
BRANCH  52  76
ATOM     76  C   UNL A   1      44.621  25.831  33.752  1.00  0.00     0.023 A 
ATOM     77  C   UNL A   1      45.886  25.931  34.365  1.00  0.00     0.012 A 
ATOM     78  C   UNL A   1      43.482  25.766  34.583  1.00  0.00     0.148 A 
ATOM     79  C   UNL A   1      46.011  26.001  35.760  1.00  0.00     0.002 A 
ATOM     80  C   UNL A   1      43.611  25.891  35.965  1.00  0.00     0.091 A 
ATOM     81  F   UNL A   1      42.274  25.637  34.017  1.00  0.00    -0.205 F 
ATOM     82  C   UNL A   1      44.872  26.005  36.558  1.00  0.00     0.022 A 
BRANCH  80  83
ATOM     83  S   UNL A   1      42.175  26.085  37.027  1.00  0.00     0.127 S 
ATOM     84  O   UNL A   1      42.802  26.341  38.320  1.00  0.00    -0.237 OA
ATOM     85  O   UNL A   1      41.491  27.236  36.442  1.00  0.00    -0.237 OA
ATOM     86  O   UNL A   1      41.448  24.827  36.911  1.00  0.00    -0.744 OA
ENDBRANCH  80  83
ENDBRANCH  52  76
BRANCH  64  87
ATOM     87  C   UNL A   1      45.396  28.765  28.305  1.00  0.00     0.023 A 
ATOM     88  C   UNL A   1      46.469  29.655  28.536  1.00  0.00     0.012 A 
ATOM     89  C   UNL A   1      45.668  27.524  27.709  1.00  0.00     0.148 A 
ATOM     90  C   UNL A   1      47.776  29.324  28.166  1.00  0.00     0.002 A 
ATOM     91  C   UNL A   1      46.975  27.180  27.384  1.00  0.00     0.091 A 
ATOM     92  F   UNL A   1      44.643  26.684  27.508  1.00  0.00    -0.205 F 
ATOM     93  C   UNL A   1      48.031  28.079  27.602  1.00  0.00     0.022 A 
BRANCH  91  94
ATOM     94  S   UNL A   1      47.393  25.546  26.773  1.00  0.00     0.127 S 
ATOM     95  O   UNL A   1      46.710  25.521  25.481  1.00  0.00    -0.237 OA
ATOM     96  O   UNL A   1      48.853  25.608  26.694  1.00  0.00    -0.237 OA
ATOM     97  O   UNL A   1      46.888  24.604  27.764  1.00  0.00    -0.744 OA
ENDBRANCH  91  94
ENDBRANCH  64  87
ENDBRANCH  38  39
ENDBRANCH  30  33
ENDBRANCH  28  29
ENDBRANCH  27  28
ENDBRANCH  26  27
ENDBRANCH   1  26
TORSDOF 19
ENDMDL
MODEL 2
REMARK VINA RESULT:     -11.4      1.297      2.577
REMARK SMILES COCC[C@@H](C)NC(=O)N1Cc2nc[nH]c2C[C@@H]1C(=O)NCCCCNC(=O)c1ccc(-c2c3nc(c(-c4cccc(S(=O)(=O)[O-])c4F)c4ccc([nH]4)c(-c4cccc(S(=O)(=O)[O-])c4F)c4nc(c(-c5cccc(S(=O)(=O)[O-])c5F)c5ccc2[nH]5)C=C4)C=C3)cc1
REMARK SMILES IDX 22 1 21 2 19 3 20 4 18 6 10 7 11 8 12 9 17 10 13 11 16 12
REMARK SMILES IDX 14 13 15 14 8 16 7 17 9 19 5 20 6 21 4 22 3 23 2 24 1 25
REMARK SMILES IDX 23 26 24 27 25 28 26 29 27 30 28 32 29 33 30 34 91 35 31 36
REMARK SMILES IDX 90 37 32 38 33 39 34 40 84 41 35 42 89 43 83 44 85 45 36 46
REMARK SMILES IDX 88 47 82 48 81 49 37 51 69 52 49 53 68 54 50 55 53 56 67 57
REMARK SMILES IDX 86 58 51 59 52 60 66 62 87 63 54 64 38 65 39 66 47 67 40 68
REMARK SMILES IDX 42 69 48 70 41 71 43 72 44 73 45 74 46 75 70 76 71 77 79 78
REMARK SMILES IDX 72 79 74 80 80 81 73 82 75 83 76 84 77 85 78 86 55 87 56 88
REMARK SMILES IDX 64 89 57 90 59 91 65 92 58 93 60 94 61 95 62 96 63 97
REMARK H PARENT 21 5 15 15 7 18 26 31 85 50 53 61
REMARK Flexibility Score: inf
ROOT
ATOM      1  C   UNL A   1      35.737  20.750  25.351  1.00  0.00     0.116 C 
ENDROOT
BRANCH   1   2
ATOM      2  N   UNL A   1      34.331  20.554  25.080  1.00  0.00    -0.354 N 
ATOM      3  C   UNL A   1      33.518  21.302  24.280  1.00  0.00     0.243 C 
ATOM      4  O   UNL A   1      32.357  20.896  24.139  1.00  0.00    -0.273 OA
ATOM      5  H   UNL A   1      33.908  19.787  25.528  1.00  0.00     0.163 HD
BRANCH   3   6
ATOM      6  C   UNL A   1      33.887  22.730  23.813  1.00  0.00     0.182 C 
ATOM      7  N   UNL A   1      33.575  23.966  24.619  1.00  0.00    -0.306 N 
ATOM      8  C   UNL A   1      33.748  25.278  23.931  1.00  0.00     0.180 C 
ATOM      9  C   UNL A   1      33.338  25.221  22.505  1.00  0.00     0.081 A 
ATOM     10  C   UNL A   1      33.190  22.713  22.400  1.00  0.00     0.091 C 
ATOM     11  N   UNL A   1      33.133  26.300  21.682  1.00  0.00    -0.240 NA
ATOM     12  C   UNL A   1      33.114  24.059  21.822  1.00  0.00     0.042 A 
ATOM     13  C   UNL A   1      32.775  25.786  20.524  1.00  0.00     0.197 A 
ATOM     14  N   UNL A   1      32.748  24.418  20.561  1.00  0.00    -0.348 N 
ATOM     15  H   UNL A   1      32.509  23.812  19.822  1.00  0.00     0.167 HD
BRANCH   7  16
ATOM     16  C   UNL A   1      33.517  24.107  25.983  1.00  0.00     0.318 C 
ATOM     17  N   UNL A   1      32.435  24.564  26.639  1.00  0.00    -0.335 N 
ATOM     18  H   UNL A   1      32.634  25.191  27.370  1.00  0.00     0.165 HD
ATOM     19  O   UNL A   1      34.510  23.903  26.690  1.00  0.00    -0.249 OA
BRANCH  17  20
ATOM     20  C   UNL A   1      31.013  24.285  26.448  1.00  0.00     0.083 C 
ATOM     21  C   UNL A   1      30.760  22.777  26.493  1.00  0.00     0.031 C 
BRANCH  20  22
ATOM     22  C   UNL A   1      30.560  24.873  25.103  1.00  0.00     0.053 C 
BRANCH  22  23
ATOM     23  C   UNL A   1      30.087  26.310  25.262  1.00  0.00     0.162 C 
BRANCH  23  24
ATOM     24  O   UNL A   1      31.226  27.170  25.141  1.00  0.00    -0.385 OA
ATOM     25  C   UNL A   1      31.035  28.222  24.201  1.00  0.00     0.194 C 
ENDBRANCH  23  24
ENDBRANCH  22  23
ENDBRANCH  20  22
ENDBRANCH  17  20
ENDBRANCH   7  16
ENDBRANCH   3   6
ENDBRANCH   1   2
BRANCH   1  26
ATOM     26  C   UNL A   1      36.613  19.565  24.961  1.00  0.00     0.023 C 
BRANCH  26  27
ATOM     27  C   UNL A   1      38.055  19.898  24.569  1.00  0.00     0.023 C 
BRANCH  27  28
ATOM     28  C   UNL A   1      38.995  20.096  25.747  1.00  0.00     0.116 C 
BRANCH  28  29
ATOM     29  N   UNL A   1      40.037  19.070  25.844  1.00  0.00    -0.352 N 
ATOM     30  C   UNL A   1      41.393  19.272  26.060  1.00  0.00     0.251 C 
ATOM     31  H   UNL A   1      39.742  18.137  25.746  1.00  0.00     0.163 HD
ATOM     32  O   UNL A   1      42.213  18.395  25.849  1.00  0.00    -0.269 OA
BRANCH  30  33
ATOM     33  C   UNL A   1      41.805  20.584  26.591  1.00  0.00     0.039 A 
ATOM     34  C   UNL A   1      42.471  21.539  25.814  1.00  0.00     0.014 A 
ATOM     35  C   UNL A   1      41.448  20.853  27.907  1.00  0.00     0.014 A 
ATOM     36  C   UNL A   1      42.722  22.793  26.369  1.00  0.00     0.010 A 
ATOM     37  C   UNL A   1      41.507  22.132  28.370  1.00  0.00     0.010 A 
ATOM     38  C   UNL A   1      42.233  23.073  27.651  1.00  0.00    -0.014 A 
BRANCH  38  39
ATOM     39  C   UNL A   1      42.384  24.372  28.290  1.00  0.00     0.031 A 
ATOM     40  C   UNL A   1      41.242  25.305  28.079  1.00  0.00     0.074 A 
ATOM     41  C   UNL A   1      43.332  24.548  29.241  1.00  0.00     0.049 A 
ATOM     42  N   UNL A   1      41.254  26.456  27.490  1.00  0.00    -0.248 NA
ATOM     43  C   UNL A   1      39.893  24.839  28.441  1.00  0.00     0.031 C 
ATOM     44  C   UNL A   1      44.284  23.556  29.774  1.00  0.00     0.029 A 
ATOM     45  N   UNL A   1      43.535  25.608  30.060  1.00  0.00    -0.354 N 
ATOM     46  C   UNL A   1      39.957  26.958  27.619  1.00  0.00     0.074 A 
ATOM     47  C   UNL A   1      39.133  25.845  28.004  1.00  0.00     0.031 C 
ATOM     48  C   UNL A   1      44.757  23.974  30.970  1.00  0.00     0.029 A 
ATOM     49  C   UNL A   1      44.293  25.327  31.196  1.00  0.00     0.049 A 
ATOM     50  H   UNL A   1      43.177  26.505  29.868  1.00  0.00     0.167 HD
ATOM     51  C   UNL A   1      39.714  28.299  27.651  1.00  0.00     0.034 A 
ATOM     52  C   UNL A   1      44.481  26.144  32.263  1.00  0.00     0.034 A 
ATOM     53  C   UNL A   1      40.866  29.042  27.205  1.00  0.00     0.049 A 
ATOM     54  C   UNL A   1      44.127  27.511  31.817  1.00  0.00     0.074 A 
ATOM     55  C   UNL A   1      41.588  29.120  26.031  1.00  0.00     0.029 A 
ATOM     56  N   UNL A   1      41.676  29.567  28.183  1.00  0.00    -0.354 N 
ATOM     57  N   UNL A   1      44.797  28.161  30.908  1.00  0.00    -0.248 NA
ATOM     58  C   UNL A   1      42.764  27.962  32.041  1.00  0.00     0.031 C 
ATOM     59  C   UNL A   1      42.948  29.228  26.448  1.00  0.00     0.029 A 
ATOM     60  C   UNL A   1      42.972  29.283  27.844  1.00  0.00     0.049 A 
ATOM     61  H   UNL A   1      41.379  30.059  28.982  1.00  0.00     0.167 HD
ATOM     62  C   UNL A   1      43.821  28.781  30.139  1.00  0.00     0.074 A 
ATOM     63  C   UNL A   1      42.601  28.711  30.946  1.00  0.00     0.031 C 
ATOM     64  C   UNL A   1      44.019  29.021  28.809  1.00  0.00     0.034 A 
BRANCH  51  65
ATOM     65  C   UNL A   1      38.598  28.978  28.421  1.00  0.00     0.023 A 
ATOM     66  C   UNL A   1      37.767  29.865  27.696  1.00  0.00     0.012 A 
ATOM     67  C   UNL A   1      38.485  29.015  29.830  1.00  0.00     0.148 A 
ATOM     68  C   UNL A   1      36.926  30.782  28.337  1.00  0.00     0.002 A 
ATOM     69  C   UNL A   1      37.594  29.877  30.462  1.00  0.00     0.091 A 
ATOM     70  F   UNL A   1      39.326  28.312  30.591  1.00  0.00    -0.205 F 
ATOM     71  C   UNL A   1      36.837  30.787  29.722  1.00  0.00     0.022 A 
BRANCH  69  72
ATOM     72  S   UNL A   1      37.404  29.896  32.251  1.00  0.00     0.127 S 
ATOM     73  O   UNL A   1      38.680  30.469  32.672  1.00  0.00    -0.237 OA
ATOM     74  O   UNL A   1      36.245  30.773  32.418  1.00  0.00    -0.237 OA
ATOM     75  O   UNL A   1      37.163  28.511  32.633  1.00  0.00    -0.744 OA
ENDBRANCH  69  72
ENDBRANCH  51  65
BRANCH  52  76
ATOM     76  C   UNL A   1      44.643  25.823  33.699  1.00  0.00     0.023 A 
ATOM     77  C   UNL A   1      45.919  25.899  34.294  1.00  0.00     0.012 A 
ATOM     78  C   UNL A   1      43.516  25.780  34.547  1.00  0.00     0.148 A 
ATOM     79  C   UNL A   1      46.066  25.966  35.686  1.00  0.00     0.002 A 
ATOM     80  C   UNL A   1      43.667  25.901  35.927  1.00  0.00     0.091 A 
ATOM     81  F   UNL A   1      42.297  25.674  33.998  1.00  0.00    -0.205 F 
ATOM     82  C   UNL A   1      44.939  25.990  36.501  1.00  0.00     0.022 A 
BRANCH  80  83
ATOM     83  S   UNL A   1      42.251  26.122  37.009  1.00  0.00     0.127 S 
ATOM     84  O   UNL A   1      42.902  26.416  38.283  1.00  0.00    -0.237 OA
ATOM     85  O   UNL A   1      41.552  27.254  36.405  1.00  0.00    -0.237 OA
ATOM     86  O   UNL A   1      41.526  24.860  36.942  1.00  0.00    -0.744 OA
ENDBRANCH  80  83
ENDBRANCH  52  76
BRANCH  64  87
ATOM     87  C   UNL A   1      45.394  28.745  28.242  1.00  0.00     0.023 A 
ATOM     88  C   UNL A   1      46.484  29.619  28.450  1.00  0.00     0.012 A 
ATOM     89  C   UNL A   1      45.636  27.497  27.650  1.00  0.00     0.148 A 
ATOM     90  C   UNL A   1      47.780  29.265  28.062  1.00  0.00     0.002 A 
ATOM     91  C   UNL A   1      46.932  27.129  27.307  1.00  0.00     0.091 A 
ATOM     92  F   UNL A   1      44.595  26.671  27.472  1.00  0.00    -0.205 F 
ATOM     93  C   UNL A   1      48.006  28.012  27.501  1.00  0.00     0.022 A 
BRANCH  91  94
ATOM     94  S   UNL A   1      47.314  25.484  26.700  1.00  0.00     0.127 S 
ATOM     95  O   UNL A   1      48.630  25.682  26.096  1.00  0.00    -0.237 OA
ATOM     96  O   UNL A   1      47.317  24.692  27.931  1.00  0.00    -0.237 OA
ATOM     97  O   UNL A   1      46.246  25.140  25.771  1.00  0.00    -0.744 OA
ENDBRANCH  91  94
ENDBRANCH  64  87
ENDBRANCH  38  39
ENDBRANCH  30  33
ENDBRANCH  28  29
ENDBRANCH  27  28
ENDBRANCH  26  27
ENDBRANCH   1  26
TORSDOF 19
ENDMDL
MODEL 3
REMARK VINA RESULT:     -11.1      1.897      3.425
REMARK SMILES COCC[C@@H](C)NC(=O)N1Cc2nc[nH]c2C[C@@H]1C(=O)NCCCCNC(=O)c1ccc(-c2c3nc(c(-c4cccc(S(=O)(=O)[O-])c4F)c4ccc([nH]4)c(-c4cccc(S(=O)(=O)[O-])c4F)c4nc(c(-c5cccc(S(=O)(=O)[O-])c5F)c5ccc2[nH]5)C=C4)C=C3)cc1
REMARK SMILES IDX 22 1 21 2 19 3 20 4 18 6 10 7 11 8 12 9 17 10 13 11 16 12
REMARK SMILES IDX 14 13 15 14 8 16 7 17 9 19 5 20 6 21 4 22 3 23 2 24 1 25
REMARK SMILES IDX 23 26 24 27 25 28 26 29 27 30 28 32 29 33 30 34 91 35 31 36
REMARK SMILES IDX 90 37 32 38 33 39 34 40 84 41 35 42 89 43 83 44 85 45 36 46
REMARK SMILES IDX 88 47 82 48 81 49 37 51 69 52 49 53 68 54 50 55 53 56 67 57
REMARK SMILES IDX 86 58 51 59 52 60 66 62 87 63 54 64 38 65 39 66 47 67 40 68
REMARK SMILES IDX 42 69 48 70 41 71 43 72 44 73 45 74 46 75 70 76 71 77 79 78
REMARK SMILES IDX 72 79 74 80 80 81 73 82 75 83 76 84 77 85 78 86 55 87 56 88
REMARK SMILES IDX 64 89 57 90 59 91 65 92 58 93 60 94 61 95 62 96 63 97
REMARK H PARENT 21 5 15 15 7 18 26 31 85 50 53 61
REMARK Flexibility Score: inf
ROOT
ATOM      1  C   UNL A   1      37.178  23.410  25.200  1.00  0.00     0.116 C 
ENDROOT
BRANCH   1   2
ATOM      2  N   UNL A   1      36.035  23.716  26.028  1.00  0.00    -0.354 N 
ATOM      3  C   UNL A   1      34.911  22.966  26.217  1.00  0.00     0.243 C 
ATOM      4  O   UNL A   1      34.091  23.398  27.038  1.00  0.00    -0.273 OA
ATOM      5  H   UNL A   1      36.070  24.570  26.516  1.00  0.00     0.163 HD
BRANCH   3   6
ATOM      6  C   UNL A   1      34.503  21.815  25.267  1.00  0.00     0.182 C 
ATOM      7  N   UNL A   1      33.532  21.992  24.128  1.00  0.00    -0.306 N 
ATOM      8  C   UNL A   1      33.035  20.750  23.469  1.00  0.00     0.180 C 
ATOM      9  C   UNL A   1      32.818  19.649  24.441  1.00  0.00     0.081 A 
ATOM     10  C   UNL A   1      34.020  20.769  26.344  1.00  0.00     0.091 C 
ATOM     11  N   UNL A   1      32.132  18.484  24.199  1.00  0.00    -0.240 NA
ATOM     12  C   UNL A   1      33.287  19.660  25.724  1.00  0.00     0.042 A 
ATOM     13  C   UNL A   1      32.181  17.816  25.332  1.00  0.00     0.197 A 
ATOM     14  N   UNL A   1      32.876  18.496  26.296  1.00  0.00    -0.348 N 
ATOM     15  H   UNL A   1      33.044  18.202  27.220  1.00  0.00     0.167 HD
BRANCH   7  16
ATOM     16  C   UNL A   1      33.314  23.104  23.354  1.00  0.00     0.318 C 
ATOM     17  N   UNL A   1      32.201  23.857  23.429  1.00  0.00    -0.335 N 
ATOM     18  H   UNL A   1      31.844  24.148  22.560  1.00  0.00     0.165 HD
ATOM     19  O   UNL A   1      34.106  23.430  22.462  1.00  0.00    -0.249 OA
BRANCH  17  20
ATOM     20  C   UNL A   1      31.434  24.315  24.585  1.00  0.00     0.083 C 
ATOM     21  C   UNL A   1      30.920  23.119  25.387  1.00  0.00     0.031 C 
BRANCH  20  22
ATOM     22  C   UNL A   1      30.264  25.186  24.099  1.00  0.00     0.053 C 
BRANCH  22  23
ATOM     23  C   UNL A   1      30.517  26.658  24.390  1.00  0.00     0.162 C 
BRANCH  23  24
ATOM     24  O   UNL A   1      31.728  27.042  23.728  1.00  0.00    -0.385 OA
ATOM     25  C   UNL A   1      31.516  27.507  22.399  1.00  0.00     0.194 C 
ENDBRANCH  23  24
ENDBRANCH  22  23
ENDBRANCH  20  22
ENDBRANCH  17  20
ENDBRANCH   7  16
ENDBRANCH   3   6
ENDBRANCH   1   2
BRANCH   1  26
ATOM     26  C   UNL A   1      38.339  22.774  25.958  1.00  0.00     0.023 C 
BRANCH  26  27
ATOM     27  C   UNL A   1      38.270  21.255  26.136  1.00  0.00     0.023 C 
BRANCH  27  28
ATOM     28  C   UNL A   1      38.840  20.461  24.972  1.00  0.00     0.116 C 
BRANCH  28  29
ATOM     29  N   UNL A   1      39.642  19.307  25.387  1.00  0.00    -0.352 N 
ATOM     30  C   UNL A   1      40.921  19.325  25.925  1.00  0.00     0.251 C 
ATOM     31  H   UNL A   1      39.227  18.422  25.273  1.00  0.00     0.163 HD
ATOM     32  O   UNL A   1      41.608  18.320  25.979  1.00  0.00    -0.269 OA
BRANCH  30  33
ATOM     33  C   UNL A   1      41.409  20.607  26.466  1.00  0.00     0.039 A 
ATOM     34  C   UNL A   1      42.008  21.586  25.666  1.00  0.00     0.014 A 
ATOM     35  C   UNL A   1      41.193  20.822  27.823  1.00  0.00     0.014 A 
ATOM     36  C   UNL A   1      42.337  22.812  26.245  1.00  0.00     0.010 A 
ATOM     37  C   UNL A   1      41.322  22.079  28.330  1.00  0.00     0.010 A 
ATOM     38  C   UNL A   1      41.986  23.042  27.581  1.00  0.00    -0.014 A 
BRANCH  38  39
ATOM     39  C   UNL A   1      42.225  24.308  28.256  1.00  0.00     0.031 A 
ATOM     40  C   UNL A   1      41.130  25.307  28.108  1.00  0.00     0.074 A 
ATOM     41  C   UNL A   1      43.207  24.403  29.183  1.00  0.00     0.049 A 
ATOM     42  N   UNL A   1      41.187  26.474  27.555  1.00  0.00    -0.248 NA
ATOM     43  C   UNL A   1      39.768  24.902  28.495  1.00  0.00     0.031 C 
ATOM     44  C   UNL A   1      44.120  23.345  29.657  1.00  0.00     0.029 A 
ATOM     45  N   UNL A   1      43.491  25.424  30.028  1.00  0.00    -0.354 N 
ATOM     46  C   UNL A   1      39.924  27.040  27.738  1.00  0.00     0.074 A 
ATOM     47  C   UNL A   1      39.052  25.961  28.112  1.00  0.00     0.031 C 
ATOM     48  C   UNL A   1      44.647  23.698  30.850  1.00  0.00     0.029 A 
ATOM     49  C   UNL A   1      44.263  25.066  31.132  1.00  0.00     0.049 A 
ATOM     50  H   UNL A   1      43.176  26.344  29.875  1.00  0.00     0.167 HD
ATOM     51  C   UNL A   1      39.754  28.390  27.819  1.00  0.00     0.034 A 
ATOM     52  C   UNL A   1      44.525  25.835  32.217  1.00  0.00     0.034 A 
ATOM     53  C   UNL A   1      40.932  29.086  27.362  1.00  0.00     0.049 A 
ATOM     54  C   UNL A   1      44.233  27.233  31.825  1.00  0.00     0.074 A 
ATOM     55  C   UNL A   1      41.624  29.163  26.170  1.00  0.00     0.029 A 
ATOM     56  N   UNL A   1      41.796  29.535  28.331  1.00  0.00    -0.354 N 
ATOM     57  N   UNL A   1      44.911  27.877  30.917  1.00  0.00    -0.248 NA
ATOM     58  C   UNL A   1      42.904  27.749  32.104  1.00  0.00     0.031 C 
ATOM     59  C   UNL A   1      42.999  29.185  26.550  1.00  0.00     0.029 A 
ATOM     60  C   UNL A   1      43.065  29.194  27.946  1.00  0.00     0.049 A 
ATOM     61  H   UNL A   1      41.548  30.015  29.154  1.00  0.00     0.167 HD
ATOM     62  C   UNL A   1      43.949  28.572  30.198  1.00  0.00     0.074 A 
ATOM     63  C   UNL A   1      42.751  28.541  31.038  1.00  0.00     0.031 C 
ATOM     64  C   UNL A   1      44.123  28.845  28.870  1.00  0.00     0.034 A 
BRANCH  51  65
ATOM     65  C   UNL A   1      38.699  29.102  28.642  1.00  0.00     0.023 A 
ATOM     66  C   UNL A   1      37.929  30.090  27.983  1.00  0.00     0.012 A 
ATOM     67  C   UNL A   1      38.602  29.063  30.052  1.00  0.00     0.148 A 
ATOM     68  C   UNL A   1      37.165  31.026  28.688  1.00  0.00     0.002 A 
ATOM     69  C   UNL A   1      37.782  29.948  30.746  1.00  0.00     0.091 A 
ATOM     70  F   UNL A   1      39.395  28.255  30.759  1.00  0.00    -0.205 F 
ATOM     71  C   UNL A   1      37.088  30.955  30.072  1.00  0.00     0.022 A 
BRANCH  69  72
ATOM     72  S   UNL A   1      37.610  29.874  32.535  1.00  0.00     0.127 S 
ATOM     73  O   UNL A   1      38.878  30.451  32.974  1.00  0.00    -0.237 OA
ATOM     74  O   UNL A   1      36.435  30.717  32.757  1.00  0.00    -0.237 OA
ATOM     75  O   UNL A   1      37.401  28.467  32.850  1.00  0.00    -0.744 OA
ENDBRANCH  69  72
ENDBRANCH  51  65
BRANCH  52  76
ATOM     76  C   UNL A   1      44.710  25.460  33.638  1.00  0.00     0.023 A 
ATOM     77  C   UNL A   1      43.602  25.454  34.510  1.00  0.00     0.012 A 
ATOM     78  C   UNL A   1      45.882  24.791  34.047  1.00  0.00     0.148 A 
ATOM     79  C   UNL A   1      43.648  24.772  35.734  1.00  0.00     0.002 A 
ATOM     80  C   UNL A   1      45.902  24.070  35.240  1.00  0.00     0.091 A 
ATOM     81  F   UNL A   1      46.956  24.816  33.245  1.00  0.00    -0.205 F 
ATOM     82  C   UNL A   1      44.790  24.061  36.087  1.00  0.00     0.022 A 
BRANCH  80  83
ATOM     83  S   UNL A   1      47.274  22.990  35.660  1.00  0.00     0.127 S 
ATOM     84  O   UNL A   1      48.374  23.944  35.766  1.00  0.00    -0.237 OA
ATOM     85  O   UNL A   1      46.850  22.403  36.929  1.00  0.00    -0.237 OA
ATOM     86  O   UNL A   1      47.358  22.043  34.555  1.00  0.00    -0.744 OA
ENDBRANCH  80  83
ENDBRANCH  52  76
BRANCH  64  87
ATOM     87  C   UNL A   1      45.465  28.515  28.254  1.00  0.00     0.023 A 
ATOM     88  C   UNL A   1      46.604  29.327  28.451  1.00  0.00     0.012 A 
ATOM     89  C   UNL A   1      45.625  27.272  27.625  1.00  0.00     0.148 A 
ATOM     90  C   UNL A   1      47.868  28.918  28.014  1.00  0.00     0.002 A 
ATOM     91  C   UNL A   1      46.890  26.849  27.232  1.00  0.00     0.091 A 
ATOM     92  F   UNL A   1      44.538  26.506  27.457  1.00  0.00    -0.205 F 
ATOM     93  C   UNL A   1      48.013  27.671  27.416  1.00  0.00     0.022 A 
BRANCH  91  94
ATOM     94  S   UNL A   1      47.168  25.204  26.572  1.00  0.00     0.127 S 
ATOM     95  O   UNL A   1      46.702  24.355  27.667  1.00  0.00    -0.237 OA
ATOM     96  O   UNL A   1      46.314  25.197  25.384  1.00  0.00    -0.237 OA
ATOM     97  O   UNL A   1      48.595  25.122  26.283  1.00  0.00    -0.744 OA
ENDBRANCH  91  94
ENDBRANCH  64  87
ENDBRANCH  38  39
ENDBRANCH  30  33
ENDBRANCH  28  29
ENDBRANCH  27  28
ENDBRANCH  26  27
ENDBRANCH   1  26
TORSDOF 19
ENDMDL
