MODEL 1
REMARK VINA RESULT:     -11.4      0.000      0.000
REMARK SMILES O=C(NCCCCNC(=O)c1ccccc1C(=O)OC[C@@H]1C[C@H]2CC[C@@H]1C2)c1ccc(-c2c3nc(c(-c4cccc(S(=O)(=O)[O-])c4F)c4ccc([nH]4)c(-c4cccc(S(=O)(=O)[O-])c4F)c4nc(c(-c5cccc(S(=O)(=O)[O-])c5F)c5ccc2[nH]5)C=C4)C=C3)cc1
REMARK SMILES IDX 6 1 5 2 4 3 3 4 1 5 2 6 28 8 29 9 90 10 30 11 89 12 31 13
REMARK SMILES IDX 32 14 33 15 83 16 34 17 88 18 82 19 84 20 35 21 87 22 81 23
REMARK SMILES IDX 80 24 36 26 68 27 48 28 67 29 49 30 52 31 66 32 85 33 50 34
REMARK SMILES IDX 51 35 65 37 86 38 53 39 37 40 38 41 46 42 39 43 41 44 47 45
REMARK SMILES IDX 40 46 42 47 43 48 44 49 45 50 69 51 70 52 78 53 71 54 73 55
REMARK SMILES IDX 79 56 72 57 74 58 75 59 76 60 77 61 54 62 55 63 63 64 56 65
REMARK SMILES IDX 58 66 64 67 57 68 59 69 60 70 61 71 62 72 7 73 8 74 9 75
REMARK SMILES IDX 10 77 11 78 12 79 16 80 13 81 15 82 14 83 17 84 18 85 19 86
REMARK SMILES IDX 20 87 21 88 22 89 26 90 23 91 25 92 27 93 24 94
REMARK H PARENT 3 7 84 25 52 36 8 76
REMARK Flexibility Score: inf
ROOT
ATOM      1  C   UNL A   1      31.488  30.179  26.093  1.00  0.00     0.023 C 
ENDROOT
BRANCH   1   2
ATOM      2  C   UNL A   1      31.423  31.682  26.378  1.00  0.00     0.023 C 
BRANCH   2   3
ATOM      3  C   UNL A   1      32.706  32.320  26.902  1.00  0.00     0.116 C 
BRANCH   3   4
ATOM      4  N   UNL A   1      32.518  33.687  27.358  1.00  0.00    -0.352 N 
ATOM      5  O   UNL A   1      32.747  35.476  28.706  1.00  0.00    -0.269 OA
ATOM      6  C   UNL A   1      33.161  34.373  28.363  1.00  0.00     0.251 C 
ATOM      7  H   UNL A   1      31.828  34.198  26.876  1.00  0.00     0.163 HD
BRANCH   6   8
ATOM      8  C   UNL A   1      34.326  33.768  29.046  1.00  0.00     0.039 A 
ATOM      9  C   UNL A   1      35.627  34.184  28.753  1.00  0.00     0.014 A 
ATOM     10  C   UNL A   1      34.111  32.773  30.004  1.00  0.00     0.014 A 
ATOM     11  C   UNL A   1      36.712  33.505  29.299  1.00  0.00     0.010 A 
ATOM     12  C   UNL A   1      35.203  32.144  30.610  1.00  0.00     0.010 A 
ATOM     13  C   UNL A   1      36.513  32.476  30.234  1.00  0.00    -0.014 A 
BRANCH  13  14
ATOM     14  C   UNL A   1      37.683  31.798  30.849  1.00  0.00     0.031 A 
ATOM     15  C   UNL A   1      38.456  30.742  30.106  1.00  0.00     0.074 A 
ATOM     16  C   UNL A   1      38.036  32.125  32.109  1.00  0.00     0.049 A 
ATOM     17  N   UNL A   1      39.498  30.056  30.501  1.00  0.00    -0.248 NA
ATOM     18  C   UNL A   1      37.996  30.403  28.750  1.00  0.00     0.031 C 
ATOM     19  C   UNL A   1      37.329  33.091  32.953  1.00  0.00     0.029 A 
ATOM     20  N   UNL A   1      39.057  31.671  32.903  1.00  0.00    -0.354 N 
ATOM     21  C   UNL A   1      39.795  29.178  29.466  1.00  0.00     0.074 A 
ATOM     22  C   UNL A   1      38.816  29.414  28.424  1.00  0.00     0.031 C 
ATOM     23  C   UNL A   1      37.936  33.156  34.146  1.00  0.00     0.029 A 
ATOM     24  C   UNL A   1      39.047  32.209  34.168  1.00  0.00     0.049 A 
ATOM     25  H   UNL A   1      39.732  31.022  32.598  1.00  0.00     0.167 HD
ATOM     26  C   UNL A   1      40.800  28.272  29.381  1.00  0.00     0.034 A 
ATOM     27  C   UNL A   1      39.826  31.958  35.237  1.00  0.00     0.034 A 
ATOM     28  C   UNL A   1      41.794  28.069  30.402  1.00  0.00     0.049 A 
ATOM     29  C   UNL A   1      40.953  30.975  35.107  1.00  0.00     0.074 A 
ATOM     30  C   UNL A   1      42.904  27.243  30.369  1.00  0.00     0.029 A 
ATOM     31  N   UNL A   1      41.794  28.686  31.644  1.00  0.00    -0.354 N 
ATOM     32  N   UNL A   1      41.315  30.274  34.060  1.00  0.00    -0.248 NA
ATOM     33  C   UNL A   1      41.801  30.774  36.289  1.00  0.00     0.031 C 
ATOM     34  C   UNL A   1      43.562  27.344  31.600  1.00  0.00     0.029 A 
ATOM     35  C   UNL A   1      42.873  28.247  32.393  1.00  0.00     0.049 A 
ATOM     36  H   UNL A   1      41.124  29.339  31.949  1.00  0.00     0.167 HD
ATOM     37  C   UNL A   1      42.441  29.560  34.450  1.00  0.00     0.074 A 
ATOM     38  C   UNL A   1      42.719  29.938  35.822  1.00  0.00     0.031 C 
ATOM     39  C   UNL A   1      43.167  28.661  33.742  1.00  0.00     0.034 A 
BRANCH  26  40
ATOM     40  C   UNL A   1      40.906  27.456  28.119  1.00  0.00     0.023 A 
ATOM     41  C   UNL A   1      41.512  28.017  26.977  1.00  0.00     0.012 A 
ATOM     42  C   UNL A   1      40.468  26.117  28.079  1.00  0.00     0.148 A 
ATOM     43  C   UNL A   1      41.653  27.272  25.807  1.00  0.00     0.002 A 
ATOM     44  C   UNL A   1      40.646  25.368  26.921  1.00  0.00     0.091 A 
ATOM     45  F   UNL A   1      39.873  25.605  29.166  1.00  0.00    -0.205 F 
ATOM     46  C   UNL A   1      41.230  25.945  25.782  1.00  0.00     0.022 A 
BRANCH  44  47
ATOM     47  S   UNL A   1      40.200  23.630  26.823  1.00  0.00     0.127 S 
ATOM     48  O   UNL A   1      38.807  23.707  26.385  1.00  0.00    -0.237 OA
ATOM     49  O   UNL A   1      41.128  23.124  25.811  1.00  0.00    -0.237 OA
ATOM     50  O   UNL A   1      40.414  23.091  28.159  1.00  0.00    -0.744 OA
ENDBRANCH  44  47
ENDBRANCH  26  40
BRANCH  27  51
ATOM     51  C   UNL A   1      39.573  32.692  36.508  1.00  0.00     0.023 A 
ATOM     52  C   UNL A   1      40.208  33.925  36.738  1.00  0.00     0.012 A 
ATOM     53  C   UNL A   1      38.641  32.209  37.449  1.00  0.00     0.148 A 
ATOM     54  C   UNL A   1      39.930  34.661  37.889  1.00  0.00     0.002 A 
ATOM     55  C   UNL A   1      38.325  32.975  38.563  1.00  0.00     0.091 A 
ATOM     56  F   UNL A   1      38.059  31.024  37.217  1.00  0.00    -0.205 F 
ATOM     57  C   UNL A   1      38.979  34.195  38.793  1.00  0.00     0.022 A 
BRANCH  55  58
ATOM     58  S   UNL A   1      37.003  32.522  39.693  1.00  0.00     0.127 S 
ATOM     59  O   UNL A   1      37.431  31.198  40.136  1.00  0.00    -0.237 OA
ATOM     60  O   UNL A   1      37.098  33.573  40.708  1.00  0.00    -0.237 OA
ATOM     61  O   UNL A   1      35.781  32.564  38.902  1.00  0.00    -0.744 OA
ENDBRANCH  55  58
ENDBRANCH  27  51
BRANCH  39  62
ATOM     62  C   UNL A   1      44.345  28.022  34.428  1.00  0.00     0.023 A 
ATOM     63  C   UNL A   1      45.597  28.669  34.407  1.00  0.00     0.012 A 
ATOM     64  C   UNL A   1      44.198  26.823  35.152  1.00  0.00     0.148 A 
ATOM     65  C   UNL A   1      46.690  28.120  35.074  1.00  0.00     0.002 A 
ATOM     66  C   UNL A   1      45.283  26.304  35.852  1.00  0.00     0.091 A 
ATOM     67  F   UNL A   1      43.005  26.211  35.144  1.00  0.00    -0.205 F 
ATOM     68  C   UNL A   1      46.531  26.946  35.806  1.00  0.00     0.022 A 
BRANCH  66  69
ATOM     69  S   UNL A   1      45.147  24.845  36.890  1.00  0.00     0.127 S 
ATOM     70  O   UNL A   1      44.713  23.833  35.930  1.00  0.00    -0.237 OA
ATOM     71  O   UNL A   1      46.518  24.678  37.375  1.00  0.00    -0.237 OA
ATOM     72  O   UNL A   1      44.179  25.180  37.927  1.00  0.00    -0.744 OA
ENDBRANCH  66  69
ENDBRANCH  39  62
ENDBRANCH  13  14
ENDBRANCH   6   8
ENDBRANCH   3   4
ENDBRANCH   2   3
ENDBRANCH   1   2
BRANCH   1  73
ATOM     73  C   UNL A   1      32.571  29.736  25.113  1.00  0.00     0.116 C 
BRANCH  73  74
ATOM     74  N   UNL A   1      33.426  28.683  25.632  1.00  0.00    -0.352 N 
ATOM     75  C   UNL A   1      33.311  27.323  25.508  1.00  0.00     0.252 C 
ATOM     76  H   UNL A   1      34.204  28.992  26.150  1.00  0.00     0.163 HD
ATOM     77  O   UNL A   1      34.132  26.585  26.044  1.00  0.00    -0.269 OA
BRANCH  75  78
ATOM     78  C   UNL A   1      32.160  26.714  24.812  1.00  0.00     0.054 A 
ATOM     79  C   UNL A   1      31.007  26.515  25.591  1.00  0.00     0.015 A 
ATOM     80  C   UNL A   1      32.163  26.313  23.472  1.00  0.00     0.072 A 
ATOM     81  C   UNL A   1      29.854  25.969  25.025  1.00  0.00     0.001 A 
ATOM     82  C   UNL A   1      30.991  25.781  22.906  1.00  0.00     0.016 A 
ATOM     83  C   UNL A   1      29.843  25.611  23.679  1.00  0.00     0.001 A 
BRANCH  80  84
ATOM     84  C   UNL A   1      33.323  26.446  22.572  1.00  0.00     0.338 C 
ATOM     85  O   UNL A   1      33.739  27.536  22.213  1.00  0.00    -0.246 OA
BRANCH  84  86
ATOM     86  O   UNL A   1      33.804  25.235  22.210  1.00  0.00    -0.462 OA
BRANCH  86  87
ATOM     87  C   UNL A   1      34.467  24.497  23.250  1.00  0.00     0.237 C 
BRANCH  87  88
ATOM     88  C   UNL A   1      34.108  23.014  23.179  1.00  0.00     0.030 C 
ATOM     89  C   UNL A   1      32.917  22.768  22.224  1.00  0.00     0.011 C 
ATOM     90  C   UNL A   1      33.600  22.406  24.510  1.00  0.00    -0.004 C 
ATOM     91  C   UNL A   1      31.913  22.010  23.113  1.00  0.00    -0.010 C 
ATOM     92  C   UNL A   1      33.614  20.872  24.374  1.00  0.00     0.004 C 
ATOM     93  C   UNL A   1      32.102  22.703  24.462  1.00  0.00     0.007 C 
ATOM     94  C   UNL A   1      32.462  20.603  23.397  1.00  0.00     0.004 C 
ENDBRANCH  87  88
ENDBRANCH  86  87
ENDBRANCH  84  86
ENDBRANCH  80  84
ENDBRANCH  75  78
ENDBRANCH  73  74
ENDBRANCH   1  73
TORSDOF 18
ENDMDL
MODEL 2
REMARK VINA RESULT:     -11.3      1.649      8.110
REMARK SMILES O=C(NCCCCNC(=O)c1ccccc1C(=O)OC[C@@H]1C[C@H]2CC[C@@H]1C2)c1ccc(-c2c3nc(c(-c4cccc(S(=O)(=O)[O-])c4F)c4ccc([nH]4)c(-c4cccc(S(=O)(=O)[O-])c4F)c4nc(c(-c5cccc(S(=O)(=O)[O-])c5F)c5ccc2[nH]5)C=C4)C=C3)cc1
REMARK SMILES IDX 6 1 5 2 4 3 3 4 1 5 2 6 28 8 29 9 90 10 30 11 89 12 31 13
REMARK SMILES IDX 32 14 33 15 83 16 34 17 88 18 82 19 84 20 35 21 87 22 81 23
REMARK SMILES IDX 80 24 36 26 68 27 48 28 67 29 49 30 52 31 66 32 85 33 50 34
REMARK SMILES IDX 51 35 65 37 86 38 53 39 37 40 38 41 46 42 39 43 41 44 47 45
REMARK SMILES IDX 40 46 42 47 43 48 44 49 45 50 69 51 70 52 78 53 71 54 73 55
REMARK SMILES IDX 79 56 72 57 74 58 75 59 76 60 77 61 54 62 55 63 63 64 56 65
REMARK SMILES IDX 58 66 64 67 57 68 59 69 60 70 61 71 62 72 7 73 8 74 9 75
REMARK SMILES IDX 10 77 11 78 12 79 16 80 13 81 15 82 14 83 17 84 18 85 19 86
REMARK SMILES IDX 20 87 21 88 22 89 26 90 23 91 25 92 27 93 24 94
REMARK H PARENT 3 7 84 25 52 36 8 76
REMARK Flexibility Score: inf
ROOT
ATOM      1  C   UNL A   1      31.499  30.223  26.311  1.00  0.00     0.023 C 
ENDROOT
BRANCH   1   2
ATOM      2  C   UNL A   1      31.405  31.730  26.565  1.00  0.00     0.023 C 
BRANCH   2   3
ATOM      3  C   UNL A   1      32.718  32.440  26.879  1.00  0.00     0.116 C 
BRANCH   3   4
ATOM      4  N   UNL A   1      32.531  33.797  27.364  1.00  0.00    -0.352 N 
ATOM      5  O   UNL A   1      32.745  35.551  28.759  1.00  0.00    -0.269 OA
ATOM      6  C   UNL A   1      33.158  34.453  28.398  1.00  0.00     0.251 C 
ATOM      7  H   UNL A   1      31.854  34.325  26.880  1.00  0.00     0.163 HD
BRANCH   6   8
ATOM      8  C   UNL A   1      34.304  33.823  29.090  1.00  0.00     0.039 A 
ATOM      9  C   UNL A   1      35.613  34.244  28.842  1.00  0.00     0.014 A 
ATOM     10  C   UNL A   1      34.062  32.799  30.010  1.00  0.00     0.014 A 
ATOM     11  C   UNL A   1      36.682  33.543  29.393  1.00  0.00     0.010 A 
ATOM     12  C   UNL A   1      35.137  32.147  30.623  1.00  0.00     0.010 A 
ATOM     13  C   UNL A   1      36.457  32.486  30.290  1.00  0.00    -0.014 A 
BRANCH  13  14
ATOM     14  C   UNL A   1      37.610  31.785  30.912  1.00  0.00     0.031 A 
ATOM     15  C   UNL A   1      37.991  32.026  32.347  1.00  0.00     0.074 A 
ATOM     16  C   UNL A   1      38.338  30.936  30.158  1.00  0.00     0.049 A 
ATOM     17  N   UNL A   1      38.968  31.496  33.038  1.00  0.00    -0.248 NA
ATOM     18  C   UNL A   1      37.180  32.994  33.103  1.00  0.00     0.031 C 
ATOM     19  C   UNL A   1      38.103  30.664  28.739  1.00  0.00     0.029 A 
ATOM     20  N   UNL A   1      39.428  30.166  30.471  1.00  0.00    -0.354 N 
ATOM     21  C   UNL A   1      38.918  32.091  34.293  1.00  0.00     0.074 A 
ATOM     22  C   UNL A   1      37.816  33.030  34.267  1.00  0.00     0.031 C 
ATOM     23  C   UNL A   1      39.021  29.790  28.303  1.00  0.00     0.029 A 
ATOM     24  C   UNL A   1      39.934  29.472  29.397  1.00  0.00     0.049 A 
ATOM     25  H   UNL A   1      39.813  30.114  31.376  1.00  0.00     0.167 HD
ATOM     26  C   UNL A   1      39.706  31.864  35.373  1.00  0.00     0.034 A 
ATOM     27  C   UNL A   1      41.022  28.686  29.291  1.00  0.00     0.034 A 
ATOM     28  C   UNL A   1      40.775  30.901  35.407  1.00  0.00     0.049 A 
ATOM     29  C   UNL A   1      41.857  28.423  30.510  1.00  0.00     0.074 A 
ATOM     30  C   UNL A   1      41.566  30.532  36.481  1.00  0.00     0.029 A 
ATOM     31  N   UNL A   1      41.213  30.163  34.318  1.00  0.00    -0.354 N 
ATOM     32  N   UNL A   1      41.693  28.873  31.731  1.00  0.00    -0.248 NA
ATOM     33  C   UNL A   1      43.004  27.520  30.350  1.00  0.00     0.031 C 
ATOM     34  C   UNL A   1      42.498  29.588  36.035  1.00  0.00     0.029 A 
ATOM     35  C   UNL A   1      42.274  29.354  34.688  1.00  0.00     0.049 A 
ATOM     36  H   UNL A   1      40.827  30.208  33.414  1.00  0.00     0.167 HD
ATOM     37  C   UNL A   1      42.704  28.295  32.489  1.00  0.00     0.074 A 
ATOM     38  C   UNL A   1      43.458  27.439  31.594  1.00  0.00     0.031 C 
ATOM     39  C   UNL A   1      42.992  28.473  33.801  1.00  0.00     0.034 A 
BRANCH  26  40
ATOM     40  C   UNL A   1      39.413  32.641  36.631  1.00  0.00     0.023 A 
ATOM     41  C   UNL A   1      40.061  33.872  36.855  1.00  0.00     0.012 A 
ATOM     42  C   UNL A   1      38.453  32.188  37.559  1.00  0.00     0.148 A 
ATOM     43  C   UNL A   1      39.783  34.626  37.994  1.00  0.00     0.002 A 
ATOM     44  C   UNL A   1      38.154  32.963  38.674  1.00  0.00     0.091 A 
ATOM     45  F   UNL A   1      37.863  31.004  37.344  1.00  0.00    -0.205 F 
ATOM     46  C   UNL A   1      38.823  34.177  38.898  1.00  0.00     0.022 A 
BRANCH  44  47
ATOM     47  S   UNL A   1      36.878  32.500  39.851  1.00  0.00     0.127 S 
ATOM     48  O   UNL A   1      37.040  33.524  40.881  1.00  0.00    -0.237 OA
ATOM     49  O   UNL A   1      35.656  32.626  39.056  1.00  0.00    -0.237 OA
ATOM     50  O   UNL A   1      37.192  31.137  40.259  1.00  0.00    -0.744 OA
ENDBRANCH  44  47
ENDBRANCH  26  40
BRANCH  27  51
ATOM     51  C   UNL A   1      41.343  28.065  27.976  1.00  0.00     0.023 A 
ATOM     52  C   UNL A   1      41.790  28.873  26.915  1.00  0.00     0.012 A 
ATOM     53  C   UNL A   1      41.288  26.667  27.804  1.00  0.00     0.148 A 
ATOM     54  C   UNL A   1      42.164  28.302  25.699  1.00  0.00     0.002 A 
ATOM     55  C   UNL A   1      41.718  26.101  26.611  1.00  0.00     0.091 A 
ATOM     56  F   UNL A   1      40.844  25.919  28.824  1.00  0.00    -0.205 F 
ATOM     57  C   UNL A   1      42.142  26.917  25.551  1.00  0.00     0.022 A 
BRANCH  55  58
ATOM     58  S   UNL A   1      41.867  24.324  26.395  1.00  0.00     0.127 S 
ATOM     59  O   UNL A   1      42.679  23.949  27.549  1.00  0.00    -0.237 OA
ATOM     60  O   UNL A   1      40.470  23.891  26.458  1.00  0.00    -0.237 OA
ATOM     61  O   UNL A   1      42.491  24.139  25.091  1.00  0.00    -0.744 OA
ENDBRANCH  55  58
ENDBRANCH  27  51
BRANCH  39  62
ATOM     62  C   UNL A   1      44.168  27.721  34.364  1.00  0.00     0.023 A 
ATOM     63  C   UNL A   1      45.448  28.312  34.339  1.00  0.00     0.012 A 
ATOM     64  C   UNL A   1      43.998  26.466  34.979  1.00  0.00     0.148 A 
ATOM     65  C   UNL A   1      46.543  27.654  34.894  1.00  0.00     0.002 A 
ATOM     66  C   UNL A   1      45.088  25.835  35.571  1.00  0.00     0.091 A 
ATOM     67  F   UNL A   1      42.778  25.910  34.975  1.00  0.00    -0.205 F 
ATOM     68  C   UNL A   1      46.362  26.423  35.521  1.00  0.00     0.022 A 
BRANCH  66  69
ATOM     69  S   UNL A   1      44.931  24.291  36.474  1.00  0.00     0.127 S 
ATOM     70  O   UNL A   1      46.329  23.915  36.670  1.00  0.00    -0.237 OA
ATOM     71  O   UNL A   1      44.235  24.710  37.691  1.00  0.00    -0.237 OA
ATOM     72  O   UNL A   1      44.157  23.402  35.616  1.00  0.00    -0.744 OA
ENDBRANCH  66  69
ENDBRANCH  39  62
ENDBRANCH  13  14
ENDBRANCH   6   8
ENDBRANCH   3   4
ENDBRANCH   2   3
ENDBRANCH   1   2
BRANCH   1  73
ATOM     73  C   UNL A   1      32.912  29.655  26.210  1.00  0.00     0.116 C 
BRANCH  73  74
ATOM     74  N   UNL A   1      33.421  29.605  24.851  1.00  0.00    -0.352 N 
ATOM     75  C   UNL A   1      33.510  28.541  23.990  1.00  0.00     0.252 C 
ATOM     76  H   UNL A   1      33.749  30.461  24.494  1.00  0.00     0.163 HD
ATOM     77  O   UNL A   1      33.996  28.695  22.873  1.00  0.00    -0.269 OA
BRANCH  75  78
ATOM     78  C   UNL A   1      33.113  27.183  24.410  1.00  0.00     0.054 A 
ATOM     79  C   UNL A   1      34.026  26.503  25.234  1.00  0.00     0.015 A 
ATOM     80  C   UNL A   1      31.929  26.546  24.023  1.00  0.00     0.072 A 
ATOM     81  C   UNL A   1      33.739  25.223  25.708  1.00  0.00     0.001 A 
ATOM     82  C   UNL A   1      31.639  25.264  24.520  1.00  0.00     0.016 A 
ATOM     83  C   UNL A   1      32.540  24.606  25.358  1.00  0.00     0.001 A 
BRANCH  80  84
ATOM     84  C   UNL A   1      30.915  27.151  23.139  1.00  0.00     0.338 C 
ATOM     85  O   UNL A   1      30.959  27.022  21.927  1.00  0.00    -0.246 OA
BRANCH  84  86
ATOM     86  O   UNL A   1      30.000  27.849  23.849  1.00  0.00    -0.462 OA
BRANCH  86  87
ATOM     87  C   UNL A   1      28.827  28.249  23.123  1.00  0.00     0.237 C 
BRANCH  87  88
ATOM     88  C   UNL A   1      29.013  29.634  22.508  1.00  0.00     0.030 C 
ATOM     89  C   UNL A   1      29.721  30.596  23.490  1.00  0.00     0.011 C 
ATOM     90  C   UNL A   1      27.696  30.387  22.195  1.00  0.00    -0.004 C 
ATOM     91  C   UNL A   1      28.748  31.787  23.568  1.00  0.00    -0.010 C 
ATOM     92  C   UNL A   1      28.029  31.582  21.284  1.00  0.00     0.004 C 
ATOM     93  C   UNL A   1      27.390  31.088  23.518  1.00  0.00     0.007 C 
ATOM     94  C   UNL A   1      28.771  32.538  22.227  1.00  0.00     0.004 C 
ENDBRANCH  87  88
ENDBRANCH  86  87
ENDBRANCH  84  86
ENDBRANCH  80  84
ENDBRANCH  75  78
ENDBRANCH  73  74
ENDBRANCH   1  73
TORSDOF 18
ENDMDL
MODEL 3
REMARK VINA RESULT:     -11.3      2.049      3.528
REMARK SMILES O=C(NCCCCNC(=O)c1ccccc1C(=O)OC[C@@H]1C[C@H]2CC[C@@H]1C2)c1ccc(-c2c3nc(c(-c4cccc(S(=O)(=O)[O-])c4F)c4ccc([nH]4)c(-c4cccc(S(=O)(=O)[O-])c4F)c4nc(c(-c5cccc(S(=O)(=O)[O-])c5F)c5ccc2[nH]5)C=C4)C=C3)cc1
REMARK SMILES IDX 6 1 5 2 4 3 3 4 1 5 2 6 28 8 29 9 90 10 30 11 89 12 31 13
REMARK SMILES IDX 32 14 33 15 83 16 34 17 88 18 82 19 84 20 35 21 87 22 81 23
REMARK SMILES IDX 80 24 36 26 68 27 48 28 67 29 49 30 52 31 66 32 85 33 50 34
REMARK SMILES IDX 51 35 65 37 86 38 53 39 37 40 38 41 46 42 39 43 41 44 47 45
REMARK SMILES IDX 40 46 42 47 43 48 44 49 45 50 69 51 70 52 78 53 71 54 73 55
REMARK SMILES IDX 79 56 72 57 74 58 75 59 76 60 77 61 54 62 55 63 63 64 56 65
REMARK SMILES IDX 58 66 64 67 57 68 59 69 60 70 61 71 62 72 7 73 8 74 9 75
REMARK SMILES IDX 10 77 11 78 12 79 16 80 13 81 15 82 14 83 17 84 18 85 19 86
REMARK SMILES IDX 20 87 21 88 22 89 26 90 23 91 25 92 27 93 24 94
REMARK H PARENT 3 7 84 25 52 36 8 76
REMARK Flexibility Score: inf
ROOT
ATOM      1  C   UNL A   1      31.601  30.472  26.104  1.00  0.00     0.023 C 
ENDROOT
BRANCH   1   2
ATOM      2  C   UNL A   1      31.447  31.908  26.612  1.00  0.00     0.023 C 
BRANCH   2   3
ATOM      3  C   UNL A   1      32.679  32.520  27.271  1.00  0.00     0.116 C 
BRANCH   3   4
ATOM      4  N   UNL A   1      32.490  33.910  27.652  1.00  0.00    -0.352 N 
ATOM      5  O   UNL A   1      32.710  35.767  28.907  1.00  0.00    -0.269 OA
ATOM      6  C   UNL A   1      33.125  34.647  28.626  1.00  0.00     0.251 C 
ATOM      7  H   UNL A   1      31.806  34.397  27.137  1.00  0.00     0.163 HD
BRANCH   6   8
ATOM      8  C   UNL A   1      34.281  34.077  29.353  1.00  0.00     0.039 A 
ATOM      9  C   UNL A   1      35.589  34.412  28.997  1.00  0.00     0.014 A 
ATOM     10  C   UNL A   1      34.049  33.197  30.414  1.00  0.00     0.014 A 
ATOM     11  C   UNL A   1      36.661  33.755  29.596  1.00  0.00     0.010 A 
ATOM     12  C   UNL A   1      35.130  32.597  31.068  1.00  0.00     0.010 A 
ATOM     13  C   UNL A   1      36.444  32.840  30.639  1.00  0.00    -0.014 A 
BRANCH  13  14
ATOM     14  C   UNL A   1      37.602  32.189  31.305  1.00  0.00     0.031 A 
ATOM     15  C   UNL A   1      38.336  31.046  30.659  1.00  0.00     0.074 A 
ATOM     16  C   UNL A   1      37.977  32.623  32.525  1.00  0.00     0.049 A 
ATOM     17  N   UNL A   1      39.363  30.370  31.107  1.00  0.00    -0.248 NA
ATOM     18  C   UNL A   1      37.851  30.594  29.345  1.00  0.00     0.031 C 
ATOM     19  C   UNL A   1      37.308  33.684  33.280  1.00  0.00     0.029 A 
ATOM     20  N   UNL A   1      38.995  32.216  33.350  1.00  0.00    -0.354 N 
ATOM     21  C   UNL A   1      39.623  29.390  30.157  1.00  0.00     0.074 A 
ATOM     22  C   UNL A   1      38.640  29.554  29.107  1.00  0.00     0.031 C 
ATOM     23  C   UNL A   1      37.930  33.844  34.456  1.00  0.00     0.029 A 
ATOM     24  C   UNL A   1      39.014  32.872  34.558  1.00  0.00     0.049 A 
ATOM     25  H   UNL A   1      39.648  31.522  33.102  1.00  0.00     0.167 HD
ATOM     26  C   UNL A   1      40.601  28.451  30.151  1.00  0.00     0.034 A 
ATOM     27  C   UNL A   1      39.797  32.700  35.640  1.00  0.00     0.034 A 
ATOM     28  C   UNL A   1      41.601  28.316  31.177  1.00  0.00     0.049 A 
ATOM     29  C   UNL A   1      40.895  31.677  35.593  1.00  0.00     0.074 A 
ATOM     30  C   UNL A   1      42.687  27.459  31.213  1.00  0.00     0.029 A 
ATOM     31  N   UNL A   1      41.632  29.047  32.355  1.00  0.00    -0.354 N 
ATOM     32  N   UNL A   1      41.225  30.869  34.614  1.00  0.00    -0.248 NA
ATOM     33  C   UNL A   1      41.751  31.564  36.782  1.00  0.00     0.031 C 
ATOM     34  C   UNL A   1      43.361  27.656  32.423  1.00  0.00     0.029 A 
ATOM     35  C   UNL A   1      42.707  28.650  33.133  1.00  0.00     0.049 A 
ATOM     36  H   UNL A   1      40.985  29.746  32.603  1.00  0.00     0.167 HD
ATOM     37  C   UNL A   1      42.335  30.164  35.060  1.00  0.00     0.074 A 
ATOM     38  C   UNL A   1      42.640  30.661  36.387  1.00  0.00     0.031 C 
ATOM     39  C   UNL A   1      43.028  29.180  34.434  1.00  0.00     0.034 A 
BRANCH  26  40
ATOM     40  C   UNL A   1      40.670  27.517  28.970  1.00  0.00     0.023 A 
ATOM     41  C   UNL A   1      39.752  26.452  28.871  1.00  0.00     0.012 A 
ATOM     42  C   UNL A   1      41.596  27.728  27.929  1.00  0.00     0.148 A 
ATOM     43  C   UNL A   1      39.772  25.594  27.772  1.00  0.00     0.002 A 
ATOM     44  C   UNL A   1      41.586  26.891  26.818  1.00  0.00     0.091 A 
ATOM     45  F   UNL A   1      42.478  28.730  28.048  1.00  0.00    -0.205 F 
ATOM     46  C   UNL A   1      40.682  25.819  26.742  1.00  0.00     0.022 A 
BRANCH  44  47
ATOM     47  S   UNL A   1      42.672  27.150  25.410  1.00  0.00     0.127 S 
ATOM     48  O   UNL A   1      42.115  28.371  24.829  1.00  0.00    -0.237 OA
ATOM     49  O   UNL A   1      43.978  27.321  26.047  1.00  0.00    -0.237 OA
ATOM     50  O   UNL A   1      42.554  25.950  24.593  1.00  0.00    -0.744 OA
ENDBRANCH  44  47
ENDBRANCH  26  40
BRANCH  27  51
ATOM     51  C   UNL A   1      39.580  33.557  36.837  1.00  0.00     0.023 A 
ATOM     52  C   UNL A   1      39.953  34.913  36.800  1.00  0.00     0.012 A 
ATOM     53  C   UNL A   1      38.928  33.051  37.980  1.00  0.00     0.148 A 
ATOM     54  C   UNL A   1      39.693  35.749  37.886  1.00  0.00     0.002 A 
ATOM     55  C   UNL A   1      38.619  33.903  39.032  1.00  0.00     0.091 A 
ATOM     56  F   UNL A   1      38.595  31.753  37.999  1.00  0.00    -0.205 F 
ATOM     57  C   UNL A   1      39.014  35.249  38.994  1.00  0.00     0.022 A 
BRANCH  55  58
ATOM     58  S   UNL A   1      37.613  33.378  40.425  1.00  0.00     0.127 S 
ATOM     59  O   UNL A   1      38.422  32.301  40.989  1.00  0.00    -0.237 OA
ATOM     60  O   UNL A   1      37.557  34.596  41.236  1.00  0.00    -0.237 OA
ATOM     61  O   UNL A   1      36.333  32.981  39.856  1.00  0.00    -0.744 OA
ENDBRANCH  55  58
ENDBRANCH  27  51
BRANCH  39  62
ATOM     62  C   UNL A   1      44.195  28.576  35.168  1.00  0.00     0.023 A 
ATOM     63  C   UNL A   1      45.494  29.070  34.935  1.00  0.00     0.012 A 
ATOM     64  C   UNL A   1      44.000  27.571  36.135  1.00  0.00     0.148 A 
ATOM     65  C   UNL A   1      46.584  28.557  35.636  1.00  0.00     0.002 A 
ATOM     66  C   UNL A   1      45.086  27.095  36.862  1.00  0.00     0.091 A 
ATOM     67  F   UNL A   1      42.760  27.098  36.328  1.00  0.00    -0.205 F 
ATOM     68  C   UNL A   1      46.379  27.580  36.607  1.00  0.00     0.022 A 
BRANCH  66  69
ATOM     69  S   UNL A   1      44.904  25.900  38.191  1.00  0.00     0.127 S 
ATOM     70  O   UNL A   1      46.288  25.718  38.621  1.00  0.00    -0.237 OA
ATOM     71  O   UNL A   1      44.058  26.620  39.145  1.00  0.00    -0.237 OA
ATOM     72  O   UNL A   1      44.273  24.730  37.594  1.00  0.00    -0.744 OA
ENDBRANCH  66  69
ENDBRANCH  39  62
ENDBRANCH  13  14
ENDBRANCH   6   8
ENDBRANCH   3   4
ENDBRANCH   2   3
ENDBRANCH   1   2
BRANCH   1  73
ATOM     73  C   UNL A   1      33.033  29.953  26.004  1.00  0.00     0.116 C 
BRANCH  73  74
ATOM     74  N   UNL A   1      33.470  29.721  24.639  1.00  0.00    -0.352 N 
ATOM     75  C   UNL A   1      33.362  28.593  23.866  1.00  0.00     0.252 C 
ATOM     76  H   UNL A   1      33.908  30.487  24.202  1.00  0.00     0.163 HD
ATOM     77  O   UNL A   1      33.818  28.584  22.726  1.00  0.00    -0.269 OA
BRANCH  75  78
ATOM     78  C   UNL A   1      32.785  27.348  24.409  1.00  0.00     0.054 A 
ATOM     79  C   UNL A   1      33.602  26.627  25.296  1.00  0.00     0.015 A 
ATOM     80  C   UNL A   1      31.521  26.849  24.078  1.00  0.00     0.072 A 
ATOM     81  C   UNL A   1      33.144  25.449  25.886  1.00  0.00     0.001 A 
ATOM     82  C   UNL A   1      31.060  25.671  24.691  1.00  0.00     0.016 A 
ATOM     83  C   UNL A   1      31.868  24.975  25.590  1.00  0.00     0.001 A 
BRANCH  80  84
ATOM     84  C   UNL A   1      30.592  27.504  23.138  1.00  0.00     0.338 C 
ATOM     85  O   UNL A   1      30.740  27.427  21.929  1.00  0.00    -0.246 OA
BRANCH  84  86
ATOM     86  O   UNL A   1      29.626  28.183  23.797  1.00  0.00    -0.462 OA
BRANCH  86  87
ATOM     87  C   UNL A   1      28.325  28.155  23.188  1.00  0.00     0.237 C 
BRANCH  87  88
ATOM     88  C   UNL A   1      27.842  29.569  22.870  1.00  0.00     0.030 C 
ATOM     89  C   UNL A   1      28.071  29.920  21.382  1.00  0.00     0.011 C 
ATOM     90  C   UNL A   1      28.612  30.696  23.601  1.00  0.00    -0.004 C 
ATOM     91  C   UNL A   1      28.891  31.222  21.457  1.00  0.00    -0.010 C 
ATOM     92  C   UNL A   1      27.808  32.000  23.456  1.00  0.00     0.004 C 
ATOM     93  C   UNL A   1      29.790  30.958  22.664  1.00  0.00     0.007 C 
ATOM     94  C   UNL A   1      27.985  32.352  21.973  1.00  0.00     0.004 C 
ENDBRANCH  87  88
ENDBRANCH  86  87
ENDBRANCH  84  86
ENDBRANCH  80  84
ENDBRANCH  75  78
ENDBRANCH  73  74
ENDBRANCH   1  73
TORSDOF 18
ENDMDL
