MODEL 1
REMARK VINA RESULT:     -13.1      0.000      0.000
REMARK SMILES O=C(NCCCCNC(=O)c1ccc2c(c1)CCN2C(=O)c1ccn[nH]1)c1ccc(-c2c3nc(c(-c4cccc(S(=O)(=O)[O-])c4F)c4ccc([nH]4)c(-c4cccc(S(=O)(=O)[O-])c4F)c4nc(c(-c5cccc(S(=O)(=O)[O-])c5F)c5ccc2[nH]5)C=C4)C=C3)cc1
REMARK SMILES IDX 5 1 4 2 3 3 1 4 2 5 27 7 28 8 89 9 29 10 88 11 30 12 31 13
REMARK SMILES IDX 32 14 82 15 33 16 87 17 81 18 83 19 34 20 86 21 80 22 79 23
REMARK SMILES IDX 35 25 67 26 47 27 66 28 48 29 51 30 65 31 84 32 49 33 50 34
REMARK SMILES IDX 64 36 85 37 52 38 36 39 37 40 45 41 38 42 40 43 46 44 39 45
REMARK SMILES IDX 41 46 42 47 43 48 44 49 68 50 69 51 77 52 70 53 72 54 78 55
REMARK SMILES IDX 71 56 73 57 74 58 75 59 76 60 53 61 54 62 62 63 55 64 57 65
REMARK SMILES IDX 63 66 56 67 58 68 59 69 60 70 61 71 6 72 7 73 8 74 9 75
REMARK SMILES IDX 10 77 11 78 12 79 16 80 13 81 15 82 14 83 17 84 19 85 18 86
REMARK SMILES IDX 20 87 21 88 22 89 23 90 26 91 24 92 25 93
REMARK H PARENT 3 6 83 24 51 35 8 76 26 94
REMARK Flexibility Score: inf
ROOT
ATOM      1  C   UNL A   1      34.973  21.728  25.348  1.00  0.00     0.023 C 
ENDROOT
BRANCH   1   2
ATOM      2  C   UNL A   1      36.412  22.229  25.355  1.00  0.00     0.116 C 
BRANCH   2   3
ATOM      3  N   UNL A   1      37.395  21.157  25.419  1.00  0.00    -0.352 N 
ATOM      4  O   UNL A   1      39.416  20.206  25.731  1.00  0.00    -0.269 OA
ATOM      5  C   UNL A   1      38.695  21.189  25.873  1.00  0.00     0.251 C 
ATOM      6  H   UNL A   1      37.085  20.282  25.092  1.00  0.00     0.163 HD
BRANCH   5   7
ATOM      7  C   UNL A   1      39.227  22.427  26.486  1.00  0.00     0.039 A 
ATOM      8  C   UNL A   1      38.718  23.674  26.122  1.00  0.00     0.014 A 
ATOM      9  C   UNL A   1      40.281  22.339  27.399  1.00  0.00     0.014 A 
ATOM     10  C   UNL A   1      39.390  24.827  26.507  1.00  0.00     0.010 A 
ATOM     11  C   UNL A   1      40.893  23.508  27.865  1.00  0.00     0.010 A 
ATOM     12  C   UNL A   1      40.494  24.760  27.374  1.00  0.00    -0.014 A 
BRANCH  12  13
ATOM     13  C   UNL A   1      41.196  26.016  27.753  1.00  0.00     0.031 A 
ATOM     14  C   UNL A   1      42.585  26.320  27.251  1.00  0.00     0.074 A 
ATOM     15  C   UNL A   1      40.553  26.912  28.527  1.00  0.00     0.049 A 
ATOM     16  N   UNL A   1      43.299  27.404  27.419  1.00  0.00    -0.248 NA
ATOM     17  C   UNL A   1      43.267  25.275  26.470  1.00  0.00     0.031 C 
ATOM     18  C   UNL A   1      39.226  26.715  29.116  1.00  0.00     0.029 A 
ATOM     19  N   UNL A   1      40.915  28.169  28.940  1.00  0.00    -0.354 N 
ATOM     20  C   UNL A   1      44.525  27.156  26.813  1.00  0.00     0.074 A 
ATOM     21  C   UNL A   1      44.463  25.815  26.275  1.00  0.00     0.031 C 
ATOM     22  C   UNL A   1      38.865  27.827  29.771  1.00  0.00     0.029 A 
ATOM     23  C   UNL A   1      39.950  28.800  29.689  1.00  0.00     0.049 A 
ATOM     24  H   UNL A   1      41.782  28.580  28.722  1.00  0.00     0.167 HD
ATOM     25  C   UNL A   1      45.598  27.976  26.696  1.00  0.00     0.034 A 
ATOM     26  C   UNL A   1      39.931  30.027  30.244  1.00  0.00     0.034 A 
ATOM     27  C   UNL A   1      45.636  29.332  27.176  1.00  0.00     0.049 A 
ATOM     28  C   UNL A   1      41.107  30.938  30.037  1.00  0.00     0.074 A 
ATOM     29  C   UNL A   1      46.651  30.265  27.040  1.00  0.00     0.029 A 
ATOM     30  N   UNL A   1      44.616  29.954  27.878  1.00  0.00    -0.354 N 
ATOM     31  N   UNL A   1      42.199  30.730  29.343  1.00  0.00    -0.248 NA
ATOM     32  C   UNL A   1      41.035  32.265  30.665  1.00  0.00     0.031 C 
ATOM     33  C   UNL A   1      46.244  31.449  27.665  1.00  0.00     0.029 A 
ATOM     34  C   UNL A   1      44.975  31.255  28.184  1.00  0.00     0.049 A 
ATOM     35  H   UNL A   1      43.761  29.531  28.124  1.00  0.00     0.167 HD
ATOM     36  C   UNL A   1      42.933  31.907  29.429  1.00  0.00     0.074 A 
ATOM     37  C   UNL A   1      42.148  32.833  30.220  1.00  0.00     0.031 C 
ATOM     38  C   UNL A   1      44.157  32.186  28.919  1.00  0.00     0.034 A 
BRANCH  25  39
ATOM     39  C   UNL A   1      46.811  27.450  25.975  1.00  0.00     0.023 A 
ATOM     40  C   UNL A   1      46.948  27.676  24.590  1.00  0.00     0.012 A 
ATOM     41  C   UNL A   1      47.850  26.803  26.674  1.00  0.00     0.148 A 
ATOM     42  C   UNL A   1      48.084  27.244  23.908  1.00  0.00     0.002 A 
ATOM     43  C   UNL A   1      48.997  26.407  25.993  1.00  0.00     0.091 A 
ATOM     44  F   UNL A   1      47.694  26.574  27.987  1.00  0.00    -0.205 F 
ATOM     45  C   UNL A   1      49.113  26.621  24.611  1.00  0.00     0.022 A 
BRANCH  43  46
ATOM     46  S   UNL A   1      50.402  25.662  26.831  1.00  0.00     0.127 S 
ATOM     47  O   UNL A   1      50.747  26.696  27.805  1.00  0.00    -0.237 OA
ATOM     48  O   UNL A   1      49.817  24.452  27.411  1.00  0.00    -0.237 OA
ATOM     49  O   UNL A   1      51.393  25.414  25.794  1.00  0.00    -0.744 OA
ENDBRANCH  43  46
ENDBRANCH  25  39
BRANCH  26  50
ATOM     50  C   UNL A   1      38.717  30.486  30.973  1.00  0.00     0.023 A 
ATOM     51  C   UNL A   1      38.651  30.324  32.371  1.00  0.00     0.012 A 
ATOM     52  C   UNL A   1      37.659  31.132  30.306  1.00  0.00     0.148 A 
ATOM     53  C   UNL A   1      37.545  30.781  33.087  1.00  0.00     0.002 A 
ATOM     54  C   UNL A   1      36.588  31.638  31.032  1.00  0.00     0.091 A 
ATOM     55  F   UNL A   1      37.730  31.258  28.973  1.00  0.00    -0.205 F 
ATOM     56  C   UNL A   1      36.520  31.450  32.421  1.00  0.00     0.022 A 
BRANCH  54  57
ATOM     57  S   UNL A   1      35.310  32.639  30.263  1.00  0.00     0.127 S 
ATOM     58  O   UNL A   1      36.061  33.821  29.853  1.00  0.00    -0.237 OA
ATOM     59  O   UNL A   1      34.863  31.780  29.165  1.00  0.00    -0.237 OA
ATOM     60  O   UNL A   1      34.308  32.843  31.301  1.00  0.00    -0.744 OA
ENDBRANCH  54  57
ENDBRANCH  26  50
BRANCH  38  61
ATOM     61  C   UNL A   1      44.719  33.558  29.179  1.00  0.00     0.023 A 
ATOM     62  C   UNL A   1      45.553  33.766  30.296  1.00  0.00     0.012 A 
ATOM     63  C   UNL A   1      44.473  34.622  28.291  1.00  0.00     0.148 A 
ATOM     64  C   UNL A   1      46.109  35.021  30.539  1.00  0.00     0.002 A 
ATOM     65  C   UNL A   1      45.064  35.860  28.519  1.00  0.00     0.091 A 
ATOM     66  F   UNL A   1      43.656  34.413  27.247  1.00  0.00    -0.205 F 
ATOM     67  C   UNL A   1      45.874  36.064  29.647  1.00  0.00     0.022 A 
BRANCH  65  68
ATOM     68  S   UNL A   1      44.876  37.223  27.363  1.00  0.00     0.127 S 
ATOM     69  O   UNL A   1      45.925  36.937  26.387  1.00  0.00    -0.237 OA
ATOM     70  O   UNL A   1      43.512  37.033  26.865  1.00  0.00    -0.237 OA
ATOM     71  O   UNL A   1      45.058  38.432  28.155  1.00  0.00    -0.744 OA
ENDBRANCH  65  68
ENDBRANCH  38  61
ENDBRANCH  12  13
ENDBRANCH   5   7
ENDBRANCH   2   3
ENDBRANCH   1   2
BRANCH   1  72
ATOM     72  C   UNL A   1      34.402  21.368  26.715  1.00  0.00     0.023 C 
BRANCH  72  73
ATOM     73  C   UNL A   1      33.800  22.531  27.495  1.00  0.00     0.116 C 
BRANCH  73  74
ATOM     74  N   UNL A   1      32.353  22.446  27.636  1.00  0.00    -0.352 N 
ATOM     75  C   UNL A   1      31.395  23.232  27.041  1.00  0.00     0.251 C 
ATOM     76  H   UNL A   1      32.019  21.738  28.232  1.00  0.00     0.163 HD
ATOM     77  O   UNL A   1      30.206  23.116  27.317  1.00  0.00    -0.269 OA
BRANCH  75  78
ATOM     78  C   UNL A   1      31.828  24.262  26.080  1.00  0.00     0.040 A 
ATOM     79  C   UNL A   1      31.863  25.610  26.465  1.00  0.00     0.016 A 
ATOM     80  C   UNL A   1      32.092  23.888  24.763  1.00  0.00     0.019 A 
ATOM     81  C   UNL A   1      32.042  26.612  25.508  1.00  0.00     0.027 A 
ATOM     82  C   UNL A   1      32.305  24.898  23.835  1.00  0.00    -0.022 A 
ATOM     83  C   UNL A   1      32.254  26.255  24.186  1.00  0.00     0.047 A 
ATOM     84  C   UNL A   1      32.489  24.714  22.364  1.00  0.00     0.059 C 
ATOM     85  N   UNL A   1      32.388  27.045  23.029  1.00  0.00    -0.306 N 
ATOM     86  C   UNL A   1      32.671  26.156  21.891  1.00  0.00     0.131 C 
BRANCH  85  87
ATOM     87  C   UNL A   1      32.233  28.407  22.793  1.00  0.00     0.276 C 
ATOM     88  O   UNL A   1      33.218  29.148  22.774  1.00  0.00    -0.267 OA
BRANCH  87  89
ATOM     89  C   UNL A   1      30.938  28.949  22.496  1.00  0.00     0.123 A 
ATOM     90  C   UNL A   1      29.689  28.706  23.036  1.00  0.00     0.055 A 
ATOM     91  N   UNL A   1      30.757  29.989  21.627  1.00  0.00    -0.273 N 
ATOM     92  C   UNL A   1      28.822  29.570  22.343  1.00  0.00     0.135 A 
ATOM     93  N   UNL A   1      29.469  30.343  21.468  1.00  0.00    -0.183 NA
ATOM     94  H   UNL A   1      31.499  30.437  21.160  1.00  0.00     0.190 HD
ENDBRANCH  87  89
ENDBRANCH  85  87
ENDBRANCH  75  78
ENDBRANCH  73  74
ENDBRANCH  72  73
ENDBRANCH   1  72
TORSDOF 16
ENDMDL
MODEL 2
REMARK VINA RESULT:     -12.7      1.663      2.077
REMARK SMILES O=C(NCCCCNC(=O)c1ccc2c(c1)CCN2C(=O)c1ccn[nH]1)c1ccc(-c2c3nc(c(-c4cccc(S(=O)(=O)[O-])c4F)c4ccc([nH]4)c(-c4cccc(S(=O)(=O)[O-])c4F)c4nc(c(-c5cccc(S(=O)(=O)[O-])c5F)c5ccc2[nH]5)C=C4)C=C3)cc1
REMARK SMILES IDX 5 1 4 2 3 3 1 4 2 5 27 7 28 8 89 9 29 10 88 11 30 12 31 13
REMARK SMILES IDX 32 14 82 15 33 16 87 17 81 18 83 19 34 20 86 21 80 22 79 23
REMARK SMILES IDX 35 25 67 26 47 27 66 28 48 29 51 30 65 31 84 32 49 33 50 34
REMARK SMILES IDX 64 36 85 37 52 38 36 39 37 40 45 41 38 42 40 43 46 44 39 45
REMARK SMILES IDX 41 46 42 47 43 48 44 49 68 50 69 51 77 52 70 53 72 54 78 55
REMARK SMILES IDX 71 56 73 57 74 58 75 59 76 60 53 61 54 62 62 63 55 64 57 65
REMARK SMILES IDX 63 66 56 67 58 68 59 69 60 70 61 71 6 72 7 73 8 74 9 75
REMARK SMILES IDX 10 77 11 78 12 79 16 80 13 81 15 82 14 83 17 84 19 85 18 86
REMARK SMILES IDX 20 87 21 88 22 89 23 90 26 91 24 92 25 93
REMARK H PARENT 3 6 83 24 51 35 8 76 26 94
REMARK Flexibility Score: inf
ROOT
ATOM      1  C   UNL A   1      35.636  21.562  25.750  1.00  0.00     0.023 C 
ENDROOT
BRANCH   1   2
ATOM      2  C   UNL A   1      37.012  21.919  25.201  1.00  0.00     0.116 C 
BRANCH   2   3
ATOM      3  N   UNL A   1      38.006  20.875  25.414  1.00  0.00    -0.352 N 
ATOM      4  O   UNL A   1      40.002  19.989  25.974  1.00  0.00    -0.269 OA
ATOM      5  C   UNL A   1      39.251  20.959  25.995  1.00  0.00     0.251 C 
ATOM      6  H   UNL A   1      37.748  19.978  25.098  1.00  0.00     0.163 HD
BRANCH   5   7
ATOM      7  C   UNL A   1      39.691  22.235  26.602  1.00  0.00     0.039 A 
ATOM      8  C   UNL A   1      39.178  23.451  26.148  1.00  0.00     0.014 A 
ATOM      9  C   UNL A   1      40.667  22.216  27.602  1.00  0.00     0.014 A 
ATOM     10  C   UNL A   1      39.780  24.639  26.542  1.00  0.00     0.010 A 
ATOM     11  C   UNL A   1      41.203  23.421  28.071  1.00  0.00     0.010 A 
ATOM     12  C   UNL A   1      40.809  24.640  27.500  1.00  0.00    -0.014 A 
BRANCH  12  13
ATOM     13  C   UNL A   1      41.438  25.932  27.886  1.00  0.00     0.031 A 
ATOM     14  C   UNL A   1      42.821  26.303  27.414  1.00  0.00     0.074 A 
ATOM     15  C   UNL A   1      40.733  26.799  28.639  1.00  0.00     0.049 A 
ATOM     16  N   UNL A   1      43.476  27.422  27.591  1.00  0.00    -0.248 NA
ATOM     17  C   UNL A   1      43.572  25.289  26.655  1.00  0.00     0.031 C 
ATOM     18  C   UNL A   1      39.405  26.539  29.200  1.00  0.00     0.029 A 
ATOM     19  N   UNL A   1      41.023  28.075  29.053  1.00  0.00    -0.354 N 
ATOM     20  C   UNL A   1      44.726  27.232  27.014  1.00  0.00     0.074 A 
ATOM     21  C   UNL A   1      44.744  25.887  26.483  1.00  0.00     0.031 C 
ATOM     22  C   UNL A   1      38.975  27.635  29.840  1.00  0.00     0.029 A 
ATOM     23  C   UNL A   1      40.010  28.661  29.776  1.00  0.00     0.049 A 
ATOM     24  H   UNL A   1      41.873  28.527  28.851  1.00  0.00     0.167 HD
ATOM     25  C   UNL A   1      45.759  28.104  26.916  1.00  0.00     0.034 A 
ATOM     26  C   UNL A   1      39.918  29.888  30.322  1.00  0.00     0.034 A 
ATOM     27  C   UNL A   1      45.718  29.464  27.387  1.00  0.00     0.049 A 
ATOM     28  C   UNL A   1      41.051  30.856  30.136  1.00  0.00     0.074 A 
ATOM     29  C   UNL A   1      46.688  30.446  27.268  1.00  0.00     0.029 A 
ATOM     30  N   UNL A   1      44.653  30.037  28.062  1.00  0.00    -0.354 N 
ATOM     31  N   UNL A   1      42.168  30.699  29.468  1.00  0.00    -0.248 NA
ATOM     32  C   UNL A   1      40.898  32.181  30.753  1.00  0.00     0.031 C 
ATOM     33  C   UNL A   1      46.209  31.611  27.876  1.00  0.00     0.029 A 
ATOM     34  C   UNL A   1      44.939  31.357  28.367  1.00  0.00     0.049 A 
ATOM     35  H   UNL A   1      43.815  29.574  28.292  1.00  0.00     0.167 HD
ATOM     36  C   UNL A   1      42.840  31.912  29.562  1.00  0.00     0.074 A 
ATOM     37  C   UNL A   1      41.991  32.801  30.329  1.00  0.00     0.031 C 
ATOM     38  C   UNL A   1      44.060  32.249  29.078  1.00  0.00     0.034 A 
BRANCH  25  39
ATOM     39  C   UNL A   1      47.014  27.637  26.226  1.00  0.00     0.023 A 
ATOM     40  C   UNL A   1      47.970  26.895  26.950  1.00  0.00     0.012 A 
ATOM     41  C   UNL A   1      47.214  27.862  24.849  1.00  0.00     0.148 A 
ATOM     42  C   UNL A   1      49.115  26.408  26.323  1.00  0.00     0.002 A 
ATOM     43  C   UNL A   1      48.342  27.342  24.222  1.00  0.00     0.091 A 
ATOM     44  F   UNL A   1      46.308  28.590  24.180  1.00  0.00    -0.205 F 
ATOM     45  C   UNL A   1      49.296  26.621  24.958  1.00  0.00     0.022 A 
BRANCH  43  46
ATOM     46  S   UNL A   1      48.620  27.506  22.454  1.00  0.00     0.127 S 
ATOM     47  O   UNL A   1      48.650  26.107  22.029  1.00  0.00    -0.237 OA
ATOM     48  O   UNL A   1      47.437  28.249  22.018  1.00  0.00    -0.237 OA
ATOM     49  O   UNL A   1      49.873  28.236  22.318  1.00  0.00    -0.744 OA
ENDBRANCH  43  46
ENDBRANCH  25  39
BRANCH  26  50
ATOM     50  C   UNL A   1      38.666  30.289  31.021  1.00  0.00     0.023 A 
ATOM     51  C   UNL A   1      38.533  30.028  32.399  1.00  0.00     0.012 A 
ATOM     52  C   UNL A   1      37.638  30.977  30.349  1.00  0.00     0.148 A 
ATOM     53  C   UNL A   1      37.389  30.430  33.089  1.00  0.00     0.002 A 
ATOM     54  C   UNL A   1      36.529  31.426  31.056  1.00  0.00     0.091 A 
ATOM     55  F   UNL A   1      37.773  31.197  29.034  1.00  0.00    -0.205 F 
ATOM     56  C   UNL A   1      36.394  31.140  32.422  1.00  0.00     0.022 A 
BRANCH  54  57
ATOM     57  S   UNL A   1      35.283  32.474  30.297  1.00  0.00     0.127 S 
ATOM     58  O   UNL A   1      34.328  32.644  31.387  1.00  0.00    -0.237 OA
ATOM     59  O   UNL A   1      36.052  33.671  29.956  1.00  0.00    -0.237 OA
ATOM     60  O   UNL A   1      34.808  31.726  29.140  1.00  0.00    -0.744 OA
ENDBRANCH  54  57
ENDBRANCH  26  50
BRANCH  38  61
ATOM     61  C   UNL A   1      44.546  33.649  29.341  1.00  0.00     0.023 A 
ATOM     62  C   UNL A   1      45.264  33.923  30.522  1.00  0.00     0.012 A 
ATOM     63  C   UNL A   1      44.347  34.675  28.399  1.00  0.00     0.148 A 
ATOM     64  C   UNL A   1      45.751  35.205  30.773  1.00  0.00     0.002 A 
ATOM     65  C   UNL A   1      44.870  35.941  28.638  1.00  0.00     0.091 A 
ATOM     66  F   UNL A   1      43.638  34.403  27.292  1.00  0.00    -0.205 F 
ATOM     67  C   UNL A   1      45.563  36.210  29.828  1.00  0.00     0.022 A 
BRANCH  65  68
ATOM     68  S   UNL A   1      44.742  37.260  27.424  1.00  0.00     0.127 S 
ATOM     69  O   UNL A   1      44.978  38.446  28.244  1.00  0.00    -0.237 OA
ATOM     70  O   UNL A   1      45.823  36.940  26.490  1.00  0.00    -0.237 OA
ATOM     71  O   UNL A   1      43.407  37.138  26.855  1.00  0.00    -0.744 OA
ENDBRANCH  65  68
ENDBRANCH  38  61
ENDBRANCH  12  13
ENDBRANCH   5   7
ENDBRANCH   2   3
ENDBRANCH   1   2
BRANCH   1  72
ATOM     72  C   UNL A   1      34.705  20.862  24.767  1.00  0.00     0.023 C 
BRANCH  72  73
ATOM     73  C   UNL A   1      33.216  21.044  25.039  1.00  0.00     0.116 C 
BRANCH  73  74
ATOM     74  N   UNL A   1      32.915  21.344  26.432  1.00  0.00    -0.352 N 
ATOM     75  C   UNL A   1      32.628  22.566  26.994  1.00  0.00     0.251 C 
ATOM     76  H   UNL A   1      32.917  20.577  27.048  1.00  0.00     0.163 HD
ATOM     77  O   UNL A   1      32.484  22.698  28.204  1.00  0.00    -0.269 OA
BRANCH  75  78
ATOM     78  C   UNL A   1      32.537  23.742  26.111  1.00  0.00     0.040 A 
ATOM     79  C   UNL A   1      33.598  24.658  26.050  1.00  0.00     0.016 A 
ATOM     80  C   UNL A   1      31.344  23.984  25.430  1.00  0.00     0.019 A 
ATOM     81  C   UNL A   1      33.432  25.886  25.406  1.00  0.00     0.027 A 
ATOM     82  C   UNL A   1      31.214  25.195  24.764  1.00  0.00    -0.022 A 
ATOM     83  C   UNL A   1      32.232  26.160  24.770  1.00  0.00     0.047 A 
ATOM     84  C   UNL A   1      29.985  25.692  24.076  1.00  0.00     0.059 C 
ATOM     85  N   UNL A   1      31.779  27.324  24.121  1.00  0.00    -0.306 N 
ATOM     86  C   UNL A   1      30.449  27.050  23.553  1.00  0.00     0.131 C 
BRANCH  85  87
ATOM     87  C   UNL A   1      32.306  28.605  24.003  1.00  0.00     0.276 C 
ATOM     88  O   UNL A   1      32.824  28.969  22.945  1.00  0.00    -0.267 OA
BRANCH  87  89
ATOM     89  C   UNL A   1      32.187  29.540  25.086  1.00  0.00     0.123 A 
ATOM     90  C   UNL A   1      32.932  29.724  26.235  1.00  0.00     0.055 A 
ATOM     91  N   UNL A   1      31.294  30.576  25.069  1.00  0.00    -0.273 N 
ATOM     92  C   UNL A   1      32.334  30.819  26.883  1.00  0.00     0.135 A 
ATOM     93  N   UNL A   1      31.322  31.331  26.182  1.00  0.00    -0.183 NA
ATOM     94  H   UNL A   1      30.689  30.753  24.313  1.00  0.00     0.190 HD
ENDBRANCH  87  89
ENDBRANCH  85  87
ENDBRANCH  75  78
ENDBRANCH  73  74
ENDBRANCH  72  73
ENDBRANCH   1  72
TORSDOF 16
ENDMDL
MODEL 3
REMARK VINA RESULT:     -12.7      5.184     10.449
REMARK SMILES O=C(NCCCCNC(=O)c1ccc2c(c1)CCN2C(=O)c1ccn[nH]1)c1ccc(-c2c3nc(c(-c4cccc(S(=O)(=O)[O-])c4F)c4ccc([nH]4)c(-c4cccc(S(=O)(=O)[O-])c4F)c4nc(c(-c5cccc(S(=O)(=O)[O-])c5F)c5ccc2[nH]5)C=C4)C=C3)cc1
REMARK SMILES IDX 5 1 4 2 3 3 1 4 2 5 27 7 28 8 89 9 29 10 88 11 30 12 31 13
REMARK SMILES IDX 32 14 82 15 33 16 87 17 81 18 83 19 34 20 86 21 80 22 79 23
REMARK SMILES IDX 35 25 67 26 47 27 66 28 48 29 51 30 65 31 84 32 49 33 50 34
REMARK SMILES IDX 64 36 85 37 52 38 36 39 37 40 45 41 38 42 40 43 46 44 39 45
REMARK SMILES IDX 41 46 42 47 43 48 44 49 68 50 69 51 77 52 70 53 72 54 78 55
REMARK SMILES IDX 71 56 73 57 74 58 75 59 76 60 53 61 54 62 62 63 55 64 57 65
REMARK SMILES IDX 63 66 56 67 58 68 59 69 60 70 61 71 6 72 7 73 8 74 9 75
REMARK SMILES IDX 10 77 11 78 12 79 16 80 13 81 15 82 14 83 17 84 19 85 18 86
REMARK SMILES IDX 20 87 21 88 22 89 23 90 26 91 24 92 25 93
REMARK H PARENT 3 6 83 24 51 35 8 76 26 94
REMARK Flexibility Score: inf
ROOT
ATOM      1  C   UNL A   1      31.965  28.381  26.543  1.00  0.00     0.023 C 
ENDROOT
BRANCH   1   2
ATOM      2  C   UNL A   1      32.965  29.406  26.022  1.00  0.00     0.116 C 
BRANCH   2   3
ATOM      3  N   UNL A   1      32.693  30.761  26.480  1.00  0.00    -0.352 N 
ATOM      4  O   UNL A   1      32.991  32.650  27.675  1.00  0.00    -0.269 OA
ATOM      5  C   UNL A   1      33.448  31.576  27.295  1.00  0.00     0.251 C 
ATOM      6  H   UNL A   1      31.848  31.152  26.160  1.00  0.00     0.163 HD
BRANCH   5   7
ATOM      7  C   UNL A   1      34.785  31.128  27.743  1.00  0.00     0.039 A 
ATOM      8  C   UNL A   1      35.010  29.793  28.082  1.00  0.00     0.014 A 
ATOM      9  C   UNL A   1      35.812  32.067  27.874  1.00  0.00     0.014 A 
ATOM     10  C   UNL A   1      36.183  29.441  28.737  1.00  0.00     0.010 A 
ATOM     11  C   UNL A   1      37.032  31.685  28.443  1.00  0.00     0.010 A 
ATOM     12  C   UNL A   1      37.205  30.384  28.938  1.00  0.00    -0.014 A 
BRANCH  12  13
ATOM     13  C   UNL A   1      38.441  29.970  29.656  1.00  0.00     0.031 A 
ATOM     14  C   UNL A   1      38.729  30.445  31.058  1.00  0.00     0.074 A 
ATOM     15  C   UNL A   1      39.294  29.123  29.048  1.00  0.00     0.049 A 
ATOM     16  N   UNL A   1      39.715  30.111  31.850  1.00  0.00    -0.248 NA
ATOM     17  C   UNL A   1      37.801  31.425  31.645  1.00  0.00     0.031 C 
ATOM     18  C   UNL A   1      39.154  28.630  27.675  1.00  0.00     0.029 A 
ATOM     19  N   UNL A   1      40.436  28.514  29.503  1.00  0.00    -0.354 N 
ATOM     20  C   UNL A   1      39.558  30.871  33.003  1.00  0.00     0.074 A 
ATOM     21  C   UNL A   1      38.382  31.691  32.808  1.00  0.00     0.031 C 
ATOM     22  C   UNL A   1      40.139  27.759  27.417  1.00  0.00     0.029 A 
ATOM     23  C   UNL A   1      41.007  27.663  28.586  1.00  0.00     0.049 A 
ATOM     24  H   UNL A   1      40.810  28.671  30.400  1.00  0.00     0.167 HD
ATOM     25  C   UNL A   1      40.310  30.874  34.131  1.00  0.00     0.034 A 
ATOM     26  C   UNL A   1      42.103  26.885  28.674  1.00  0.00     0.034 A 
ATOM     27  C   UNL A   1      41.442  30.012  34.350  1.00  0.00     0.049 A 
ATOM     28  C   UNL A   1      42.876  26.857  29.961  1.00  0.00     0.074 A 
ATOM     29  C   UNL A   1      42.223  29.890  35.488  1.00  0.00     0.029 A 
ATOM     30  N   UNL A   1      41.954  29.123  33.419  1.00  0.00    -0.354 N 
ATOM     31  N   UNL A   1      42.628  27.483  31.085  1.00  0.00    -0.248 NA
ATOM     32  C   UNL A   1      44.063  25.992  30.001  1.00  0.00     0.031 C 
ATOM     33  C   UNL A   1      43.210  28.930  35.240  1.00  0.00     0.029 A 
ATOM     34  C   UNL A   1      43.039  28.449  33.952  1.00  0.00     0.049 A 
ATOM     35  H   UNL A   1      41.598  28.991  32.510  1.00  0.00     0.167 HD
ATOM     36  C   UNL A   1      43.611  27.069  31.975  1.00  0.00     0.074 A 
ATOM     37  C   UNL A   1      44.443  26.117  31.266  1.00  0.00     0.031 C 
ATOM     38  C   UNL A   1      43.820  27.460  33.256  1.00  0.00     0.034 A 
BRANCH  25  39
ATOM     39  C   UNL A   1      39.907  31.803  35.245  1.00  0.00     0.023 A 
ATOM     40  C   UNL A   1      40.393  33.127  35.256  1.00  0.00     0.012 A 
ATOM     41  C   UNL A   1      38.993  31.396  36.237  1.00  0.00     0.148 A 
ATOM     42  C   UNL A   1      39.996  34.022  36.248  1.00  0.00     0.002 A 
ATOM     43  C   UNL A   1      38.573  32.305  37.203  1.00  0.00     0.091 A 
ATOM     44  F   UNL A   1      38.559  30.127  36.228  1.00  0.00    -0.205 F 
ATOM     45  C   UNL A   1      39.078  33.615  37.215  1.00  0.00     0.022 A 
BRANCH  43  46
ATOM     46  S   UNL A   1      37.340  31.889  38.443  1.00  0.00     0.127 S 
ATOM     47  O   UNL A   1      37.109  30.472  38.166  1.00  0.00    -0.237 OA
ATOM     48  O   UNL A   1      38.049  32.157  39.694  1.00  0.00    -0.237 OA
ATOM     49  O   UNL A   1      36.212  32.775  38.189  1.00  0.00    -0.744 OA
ENDBRANCH  43  46
ENDBRANCH  25  39
BRANCH  26  50
ATOM     50  C   UNL A   1      42.475  26.008  27.529  1.00  0.00     0.023 A 
ATOM     51  C   UNL A   1      43.420  26.464  26.590  1.00  0.00     0.012 A 
ATOM     52  C   UNL A   1      41.948  24.709  27.398  1.00  0.00     0.148 A 
ATOM     53  C   UNL A   1      43.820  25.649  25.532  1.00  0.00     0.002 A 
ATOM     54  C   UNL A   1      42.394  23.881  26.376  1.00  0.00     0.091 A 
ATOM     55  F   UNL A   1      41.033  24.301  28.289  1.00  0.00    -0.205 F 
ATOM     56  C   UNL A   1      43.318  24.353  25.432  1.00  0.00     0.022 A 
BRANCH  54  57
ATOM     57  S   UNL A   1      41.906  22.155  26.273  1.00  0.00     0.127 S 
ATOM     58  O   UNL A   1      42.658  21.699  25.109  1.00  0.00    -0.237 OA
ATOM     59  O   UNL A   1      42.372  21.626  27.556  1.00  0.00    -0.237 OA
ATOM     60  O   UNL A   1      40.456  22.176  26.133  1.00  0.00    -0.744 OA
ENDBRANCH  54  57
ENDBRANCH  26  50
BRANCH  38  61
ATOM     61  C   UNL A   1      44.982  26.843  33.987  1.00  0.00     0.023 A 
ATOM     62  C   UNL A   1      46.256  27.438  33.892  1.00  0.00     0.012 A 
ATOM     63  C   UNL A   1      44.804  25.717  34.811  1.00  0.00     0.148 A 
ATOM     64  C   UNL A   1      47.341  26.902  34.585  1.00  0.00     0.002 A 
ATOM     65  C   UNL A   1      45.882  25.212  35.530  1.00  0.00     0.091 A 
ATOM     66  F   UNL A   1      43.590  25.147  34.870  1.00  0.00    -0.205 F 
ATOM     67  C   UNL A   1      47.152  25.797  35.411  1.00  0.00     0.022 A 
BRANCH  65  68
ATOM     68  S   UNL A   1      45.693  23.845  36.682  1.00  0.00     0.127 S 
ATOM     69  O   UNL A   1      47.069  23.633  37.125  1.00  0.00    -0.237 OA
ATOM     70  O   UNL A   1      44.806  24.409  37.702  1.00  0.00    -0.237 OA
ATOM     71  O   UNL A   1      45.101  22.763  35.908  1.00  0.00    -0.744 OA
ENDBRANCH  65  68
ENDBRANCH  38  61
ENDBRANCH  12  13
ENDBRANCH   5   7
ENDBRANCH   2   3
ENDBRANCH   1   2
BRANCH   1  72
ATOM     72  C   UNL A   1      32.015  27.018  25.861  1.00  0.00     0.023 C 
BRANCH  72  73
ATOM     73  C   UNL A   1      33.343  26.669  25.201  1.00  0.00     0.116 C 
BRANCH  73  74
ATOM     74  N   UNL A   1      33.361  26.923  23.767  1.00  0.00    -0.352 N 
ATOM     75  C   UNL A   1      33.586  26.027  22.749  1.00  0.00     0.251 C 
ATOM     76  H   UNL A   1      33.191  27.852  23.492  1.00  0.00     0.163 HD
ATOM     77  O   UNL A   1      33.667  26.389  21.580  1.00  0.00    -0.269 OA
BRANCH  75  78
ATOM     78  C   UNL A   1      33.773  24.605  23.091  1.00  0.00     0.040 A 
ATOM     79  C   UNL A   1      32.683  23.724  23.047  1.00  0.00     0.016 A 
ATOM     80  C   UNL A   1      35.015  24.182  23.562  1.00  0.00     0.019 A 
ATOM     81  C   UNL A   1      32.791  22.441  23.589  1.00  0.00     0.027 A 
ATOM     82  C   UNL A   1      35.111  22.891  24.061  1.00  0.00    -0.022 A 
ATOM     83  C   UNL A   1      34.007  22.027  24.108  1.00  0.00     0.047 A 
ATOM     84  C   UNL A   1      36.313  22.288  24.712  1.00  0.00     0.059 C 
ATOM     85  N   UNL A   1      34.369  20.838  24.768  1.00  0.00    -0.306 N 
ATOM     86  C   UNL A   1      35.814  20.883  25.046  1.00  0.00     0.131 C 
BRANCH  85  87
ATOM     87  C   UNL A   1      33.632  19.752  25.230  1.00  0.00     0.276 C 
ATOM     88  O   UNL A   1      32.874  19.882  26.194  1.00  0.00    -0.267 OA
BRANCH  87  89
ATOM     89  C   UNL A   1      33.690  18.493  24.545  1.00  0.00     0.123 A 
ATOM     90  C   UNL A   1      32.940  17.968  23.510  1.00  0.00     0.055 A 
ATOM     91  N   UNL A   1      34.689  17.583  24.759  1.00  0.00    -0.273 N 
ATOM     92  C   UNL A   1      33.501  16.702  23.261  1.00  0.00     0.135 A 
ATOM     93  N   UNL A   1      34.559  16.457  24.035  1.00  0.00    -0.183 NA
ATOM     94  H   UNL A   1      35.433  17.738  25.385  1.00  0.00     0.190 HD
ENDBRANCH  87  89
ENDBRANCH  85  87
ENDBRANCH  75  78
ENDBRANCH  73  74
ENDBRANCH  72  73
ENDBRANCH   1  72
TORSDOF 16
ENDMDL
