MODEL 1
REMARK VINA RESULT:     -10.6      0.000      0.000
REMARK SMILES Cc1ccc(S(=O)(=O)n2cc(C(=O)C(=O)NCC(=O)N[C@@H](Cc3c[nH]c4ccccc34)C(=O)NCCCCNC(=O)c3ccc(-c4c5nc(c(-c6cccc(S(=O)(=O)[O-])c6F)c6ccc([nH]6)c(-c6cccc(S(=O)(=O)[O-])c6F)c6nc(c(-c7cccc(S(=O)(=O)[O-])c7F)c7ccc4[nH]7)C=C6)C=C5)cc3)c3ccccc32)cc1
REMARK SMILES IDX 32 1 33 2 34 3 21 5 20 6 18 7 19 8 17 10 16 11 14 12 15 13
REMARK SMILES IDX 12 15 13 16 11 17 9 18 10 19 110 20 105 21 109 22 106 23
REMARK SMILES IDX 108 24 107 25 6 26 7 27 8 28 5 29 1 30 2 31 3 32 112 33 4 34
REMARK SMILES IDX 111 35 22 36 23 37 24 38 31 39 25 40 26 41 30 42 27 44 29 45
REMARK SMILES IDX 28 46 35 47 36 48 37 49 38 50 39 51 40 52 41 54 42 55 43 56
REMARK SMILES IDX 104 57 44 58 103 59 45 60 46 61 47 62 97 63 48 64 102 65
REMARK SMILES IDX 96 66 98 67 49 68 101 69 95 70 94 71 50 73 82 74 62 75 81 76
REMARK SMILES IDX 63 77 66 78 80 79 99 80 64 81 65 82 79 84 100 85 67 86 51 87
REMARK SMILES IDX 52 88 60 89 53 90 55 91 61 92 54 93 56 94 57 95 58 96 59 97
REMARK SMILES IDX 83 98 84 99 92 100 85 101 87 102 93 103 86 104 88 105 89 106
REMARK SMILES IDX 90 107 91 108 68 109 69 110 77 111 70 112 72 113 78 114
REMARK SMILES IDX 71 115 73 116 74 117 75 118 76 119
REMARK H PARENT 34 4 20 9 16 14 25 43 39 53 98 72 66 83
REMARK Flexibility Score: inf
ROOT
ATOM      1  C   UNL A   1      37.855  34.035  30.475  1.00  0.00     0.242 C 
ATOM      2  O   UNL A   1      37.691  33.935  31.698  1.00  0.00    -0.273 OA
ATOM      3  N   UNL A   1      38.855  34.858  30.054  1.00  0.00    -0.354 N 
ATOM      4  H   UNL A   1      39.105  35.569  30.687  1.00  0.00     0.163 HD
ENDROOT
BRANCH   1   5
ATOM      5  C   UNL A   1      36.974  33.187  29.529  1.00  0.00     0.175 C 
BRANCH   5   6
ATOM      6  N   UNL A   1      36.195  33.965  28.558  1.00  0.00    -0.342 N 
ATOM      7  C   UNL A   1      34.942  33.686  28.088  1.00  0.00     0.240 C 
ATOM      8  O   UNL A   1      34.268  34.598  27.607  1.00  0.00    -0.273 OA
ATOM      9  H   UNL A   1      36.622  34.779  28.205  1.00  0.00     0.164 HD
BRANCH   7  10
ATOM     10  C   UNL A   1      34.390  32.255  28.220  1.00  0.00     0.216 C 
BRANCH  10  11
ATOM     11  N   UNL A   1      33.051  32.181  27.620  1.00  0.00    -0.340 N 
ATOM     12  C   UNL A   1      32.439  31.124  26.966  1.00  0.00     0.292 C 
ATOM     13  O   UNL A   1      31.364  31.276  26.399  1.00  0.00    -0.265 OA
ATOM     14  H   UNL A   1      32.510  33.000  27.694  1.00  0.00     0.164 HD
BRANCH  12  15
ATOM     15  C   UNL A   1      33.114  29.747  26.967  1.00  0.00     0.252 C 
ATOM     16  O   UNL A   1      34.277  29.726  27.377  1.00  0.00    -0.283 OA
BRANCH  15  17
ATOM     17  C   UNL A   1      32.476  28.556  26.382  1.00  0.00     0.054 A 
ATOM     18  N   UNL A   1      31.262  26.689  25.924  1.00  0.00    -0.240 N 
ATOM     19  C   UNL A   1      31.624  27.588  26.936  1.00  0.00     0.117 A 
ATOM     20  C   UNL A   1      31.695  27.257  24.708  1.00  0.00     0.065 A 
ATOM     21  C   UNL A   1      32.737  28.113  25.051  1.00  0.00     0.012 A 
ATOM     22  C   UNL A   1      31.502  26.823  23.382  1.00  0.00     0.028 A 
ATOM     23  C   UNL A   1      33.731  28.381  24.085  1.00  0.00     0.011 A 
ATOM     24  C   UNL A   1      32.557  26.998  22.488  1.00  0.00     0.002 A 
ATOM     25  C   UNL A   1      33.676  27.736  22.846  1.00  0.00     0.001 A 
BRANCH  18  26
ATOM     26  S   UNL A   1      31.577  24.961  25.902  1.00  0.00     0.268 S 
ATOM     27  O   UNL A   1      30.365  24.422  25.303  1.00  0.00    -0.201 OA
ATOM     28  O   UNL A   1      31.899  24.710  27.301  1.00  0.00    -0.201 OA
BRANCH  26  29
ATOM     29  C   UNL A   1      32.872  24.059  25.134  1.00  0.00     0.088 A 
ATOM     30  C   UNL A   1      36.664  22.871  23.427  1.00  0.00     0.044 C 
ATOM     31  C   UNL A   1      35.339  23.210  24.046  1.00  0.00    -0.051 A 
ATOM     32  C   UNL A   1      35.316  24.284  24.919  1.00  0.00     0.005 A 
ATOM     33  C   UNL A   1      34.125  22.546  23.749  1.00  0.00     0.005 A 
ATOM     34  C   UNL A   1      34.109  24.680  25.459  1.00  0.00     0.022 A 
ATOM     35  C   UNL A   1      32.876  22.969  24.285  1.00  0.00     0.022 A 
ENDBRANCH  26  29
ENDBRANCH  18  26
ENDBRANCH  15  17
ENDBRANCH  12  15
ENDBRANCH  10  11
ENDBRANCH   7  10
ENDBRANCH   5   6
BRANCH   5  36
ATOM     36  C   UNL A   1      37.651  31.931  28.945  1.00  0.00     0.072 C 
BRANCH  36  37
ATOM     37  C   UNL A   1      37.569  30.707  29.792  1.00  0.00    -0.020 A 
ATOM     38  C   UNL A   1      36.892  30.602  30.994  1.00  0.00     0.087 A 
ATOM     39  C   UNL A   1      38.123  29.416  29.523  1.00  0.00     0.003 A 
ATOM     40  N   UNL A   1      37.176  29.381  31.546  1.00  0.00    -0.361 N 
ATOM     41  C   UNL A   1      37.992  28.676  30.695  1.00  0.00     0.046 A 
ATOM     42  C   UNL A   1      38.751  28.807  28.417  1.00  0.00     0.010 A 
ATOM     43  H   UNL A   1      36.847  29.059  32.416  1.00  0.00     0.166 HD
ATOM     44  C   UNL A   1      38.588  27.427  30.869  1.00  0.00     0.026 A 
ATOM     45  C   UNL A   1      39.256  27.505  28.543  1.00  0.00     0.001 A 
ATOM     46  C   UNL A   1      39.212  26.844  29.766  1.00  0.00     0.002 A 
ENDBRANCH  36  37
ENDBRANCH   5  36
ENDBRANCH   1   5
BRANCH   3  47
ATOM     47  C   UNL A   1      39.609  34.849  28.814  1.00  0.00     0.116 C 
BRANCH  47  48
ATOM     48  C   UNL A   1      40.944  35.588  28.893  1.00  0.00     0.023 C 
BRANCH  48  49
ATOM     49  C   UNL A   1      41.699  35.708  27.566  1.00  0.00     0.023 C 
BRANCH  49  50
ATOM     50  C   UNL A   1      42.210  37.105  27.261  1.00  0.00     0.116 C 
BRANCH  50  51
ATOM     51  N   UNL A   1      43.539  37.128  26.697  1.00  0.00    -0.352 N 
ATOM     52  C   UNL A   1      44.755  37.180  27.346  1.00  0.00     0.251 C 
ATOM     53  H   UNL A   1      43.584  37.105  25.714  1.00  0.00     0.163 HD
ATOM     54  O   UNL A   1      45.712  37.627  26.710  1.00  0.00    -0.269 OA
BRANCH  52  55
ATOM     55  C   UNL A   1      44.954  36.539  28.678  1.00  0.00     0.039 A 
ATOM     56  C   UNL A   1      45.558  35.271  28.690  1.00  0.00     0.014 A 
ATOM     57  C   UNL A   1      44.277  36.973  29.811  1.00  0.00     0.014 A 
ATOM     58  C   UNL A   1      45.217  34.348  29.672  1.00  0.00     0.010 A 
ATOM     59  C   UNL A   1      43.847  36.046  30.719  1.00  0.00     0.010 A 
ATOM     60  C   UNL A   1      44.249  34.718  30.587  1.00  0.00    -0.014 A 
BRANCH  60  61
ATOM     61  C   UNL A   1      43.593  33.846  31.533  1.00  0.00     0.031 A 
ATOM     62  C   UNL A   1      43.830  34.105  32.962  1.00  0.00     0.074 A 
ATOM     63  C   UNL A   1      42.516  33.195  31.040  1.00  0.00     0.049 A 
ATOM     64  N   UNL A   1      43.323  33.423  33.922  1.00  0.00    -0.248 NA
ATOM     65  C   UNL A   1      44.693  35.194  33.416  1.00  0.00     0.031 C 
ATOM     66  C   UNL A   1      41.311  32.794  31.748  1.00  0.00     0.029 A 
ATOM     67  N   UNL A   1      42.366  32.633  29.760  1.00  0.00    -0.354 N 
ATOM     68  C   UNL A   1      43.562  34.116  35.094  1.00  0.00     0.074 A 
ATOM     69  C   UNL A   1      44.485  35.161  34.733  1.00  0.00     0.031 C 
ATOM     70  C   UNL A   1      40.685  31.850  31.023  1.00  0.00     0.029 A 
ATOM     71  C   UNL A   1      41.595  31.472  29.950  1.00  0.00     0.049 A 
ATOM     72  H   UNL A   1      42.725  32.978  28.911  1.00  0.00     0.167 HD
ATOM     73  C   UNL A   1      42.827  33.795  36.195  1.00  0.00     0.034 A 
ATOM     74  C   UNL A   1      42.100  30.212  29.778  1.00  0.00     0.034 A 
ATOM     75  C   UNL A   1      41.966  32.643  35.884  1.00  0.00     0.049 A 
ATOM     76  C   UNL A   1      42.100  29.406  31.065  1.00  0.00     0.074 A 
ATOM     77  C   UNL A   1      40.660  32.552  35.433  1.00  0.00     0.029 A 
ATOM     78  N   UNL A   1      42.549  31.403  35.663  1.00  0.00    -0.354 N 
ATOM     79  N   UNL A   1      41.937  29.921  32.253  1.00  0.00    -0.248 NA
ATOM     80  C   UNL A   1      42.283  27.957  31.115  1.00  0.00     0.031 C 
ATOM     81  C   UNL A   1      40.503  31.277  34.821  1.00  0.00     0.029 A 
ATOM     82  C   UNL A   1      41.695  30.581  34.943  1.00  0.00     0.049 A 
ATOM     83  H   UNL A   1      43.447  31.142  35.975  1.00  0.00     0.167 HD
ATOM     84  C   UNL A   1      42.084  28.955  33.209  1.00  0.00     0.074 A 
ATOM     85  C   UNL A   1      42.237  27.730  32.440  1.00  0.00     0.031 C 
ATOM     86  C   UNL A   1      42.125  29.243  34.547  1.00  0.00     0.034 A 
BRANCH  73  87
ATOM     87  C   UNL A   1      42.649  34.632  37.454  1.00  0.00     0.023 A 
ATOM     88  C   UNL A   1      43.784  34.757  38.290  1.00  0.00     0.012 A 
ATOM     89  C   UNL A   1      41.472  35.262  37.926  1.00  0.00     0.148 A 
ATOM     90  C   UNL A   1      43.745  35.391  39.537  1.00  0.00     0.002 A 
ATOM     91  C   UNL A   1      41.420  35.869  39.188  1.00  0.00     0.091 A 
ATOM     92  F   UNL A   1      40.394  35.338  37.144  1.00  0.00    -0.205 F 
ATOM     93  C   UNL A   1      42.556  35.930  39.998  1.00  0.00     0.022 A 
BRANCH  91  94
ATOM     94  S   UNL A   1      39.908  36.575  39.878  1.00  0.00     0.127 S 
ATOM     95  O   UNL A   1      39.062  35.391  40.037  1.00  0.00    -0.237 OA
ATOM     96  O   UNL A   1      40.377  37.156  41.135  1.00  0.00    -0.237 OA
ATOM     97  O   UNL A   1      39.416  37.534  38.897  1.00  0.00    -0.744 OA
ENDBRANCH  91  94
ENDBRANCH  73  87
BRANCH  74  98
ATOM     98  C   UNL A   1      43.123  30.099  28.693  1.00  0.00     0.023 A 
ATOM     99  C   UNL A   1      44.464  30.337  29.060  1.00  0.00     0.012 A 
ATOM    100  C   UNL A   1      42.862  29.370  27.518  1.00  0.00     0.148 A 
ATOM    101  C   UNL A   1      45.516  29.711  28.385  1.00  0.00     0.002 A 
ATOM    102  C   UNL A   1      43.916  28.745  26.851  1.00  0.00     0.091 A 
ATOM    103  F   UNL A   1      41.588  29.206  27.144  1.00  0.00    -0.205 F 
ATOM    104  C   UNL A   1      45.235  28.873  27.314  1.00  0.00     0.022 A 
BRANCH 102 105
ATOM    105  S   UNL A   1      43.659  27.634  25.461  1.00  0.00     0.127 S 
ATOM    106  O   UNL A   1      43.223  26.416  26.137  1.00  0.00    -0.237 OA
ATOM    107  O   UNL A   1      42.615  28.326  24.709  1.00  0.00    -0.237 OA
ATOM    108  O   UNL A   1      44.944  27.563  24.784  1.00  0.00    -0.744 OA
ENDBRANCH 102 105
ENDBRANCH  74  98
BRANCH  86 109
ATOM    109  C   UNL A   1      42.605  28.283  35.616  1.00  0.00     0.023 A 
ATOM    110  C   UNL A   1      41.726  27.407  36.280  1.00  0.00     0.012 A 
ATOM    111  C   UNL A   1      43.993  28.096  35.850  1.00  0.00     0.148 A 
ATOM    112  C   UNL A   1      42.187  26.439  37.179  1.00  0.00     0.002 A 
ATOM    113  C   UNL A   1      44.450  27.047  36.640  1.00  0.00     0.091 A 
ATOM    114  F   UNL A   1      44.882  28.944  35.312  1.00  0.00    -0.205 F 
ATOM    115  C   UNL A   1      43.550  26.239  37.337  1.00  0.00     0.022 A 
BRANCH 113 116
ATOM    116  S   UNL A   1      46.186  26.578  36.636  1.00  0.00     0.127 S 
ATOM    117  O   UNL A   1      46.215  25.515  37.636  1.00  0.00    -0.237 OA
ATOM    118  O   UNL A   1      46.386  26.127  35.258  1.00  0.00    -0.237 OA
ATOM    119  O   UNL A   1      46.906  27.800  36.972  1.00  0.00    -0.744 OA
ENDBRANCH 113 116
ENDBRANCH  86 109
ENDBRANCH  60  61
ENDBRANCH  52  55
ENDBRANCH  50  51
ENDBRANCH  49  50
ENDBRANCH  48  49
ENDBRANCH  47  48
ENDBRANCH   3  47
TORSDOF 23
ENDMDL
MODEL 2
REMARK VINA RESULT:     -10.1      4.662      9.132
REMARK SMILES Cc1ccc(S(=O)(=O)n2cc(C(=O)C(=O)NCC(=O)N[C@@H](Cc3c[nH]c4ccccc34)C(=O)NCCCCNC(=O)c3ccc(-c4c5nc(c(-c6cccc(S(=O)(=O)[O-])c6F)c6ccc([nH]6)c(-c6cccc(S(=O)(=O)[O-])c6F)c6nc(c(-c7cccc(S(=O)(=O)[O-])c7F)c7ccc4[nH]7)C=C6)C=C5)cc3)c3ccccc32)cc1
REMARK SMILES IDX 32 1 33 2 34 3 21 5 20 6 18 7 19 8 17 10 16 11 14 12 15 13
REMARK SMILES IDX 12 15 13 16 11 17 9 18 10 19 110 20 105 21 109 22 106 23
REMARK SMILES IDX 108 24 107 25 6 26 7 27 8 28 5 29 1 30 2 31 3 32 112 33 4 34
REMARK SMILES IDX 111 35 22 36 23 37 24 38 31 39 25 40 26 41 30 42 27 44 29 45
REMARK SMILES IDX 28 46 35 47 36 48 37 49 38 50 39 51 40 52 41 54 42 55 43 56
REMARK SMILES IDX 104 57 44 58 103 59 45 60 46 61 47 62 97 63 48 64 102 65
REMARK SMILES IDX 96 66 98 67 49 68 101 69 95 70 94 71 50 73 82 74 62 75 81 76
REMARK SMILES IDX 63 77 66 78 80 79 99 80 64 81 65 82 79 84 100 85 67 86 51 87
REMARK SMILES IDX 52 88 60 89 53 90 55 91 61 92 54 93 56 94 57 95 58 96 59 97
REMARK SMILES IDX 83 98 84 99 92 100 85 101 87 102 93 103 86 104 88 105 89 106
REMARK SMILES IDX 90 107 91 108 68 109 69 110 77 111 70 112 72 113 78 114
REMARK SMILES IDX 71 115 73 116 74 117 75 118 76 119
REMARK H PARENT 34 4 20 9 16 14 25 43 39 53 98 72 66 83
REMARK Flexibility Score: inf
ROOT
ATOM      1  C   UNL A   1      37.019  23.600  25.741  1.00  0.00     0.242 C 
ATOM      2  O   UNL A   1      37.684  24.518  26.237  1.00  0.00    -0.273 OA
ATOM      3  N   UNL A   1      37.703  22.489  25.349  1.00  0.00    -0.354 N 
ATOM      4  H   UNL A   1      38.652  22.636  25.137  1.00  0.00     0.163 HD
ENDROOT
BRANCH   1   5
ATOM      5  C   UNL A   1      35.482  23.745  25.662  1.00  0.00     0.175 C 
BRANCH   5   6
ATOM      6  N   UNL A   1      34.750  23.112  26.766  1.00  0.00    -0.342 N 
ATOM      7  C   UNL A   1      33.883  22.058  26.687  1.00  0.00     0.240 C 
ATOM      8  O   UNL A   1      33.661  21.392  27.700  1.00  0.00    -0.273 OA
ATOM      9  H   UNL A   1      34.901  23.487  27.663  1.00  0.00     0.164 HD
BRANCH   7  10
ATOM     10  C   UNL A   1      33.249  21.704  25.330  1.00  0.00     0.216 C 
BRANCH  10  11
ATOM     11  N   UNL A   1      34.059  22.267  24.241  1.00  0.00    -0.340 N 
ATOM     12  C   UNL A   1      33.651  22.948  23.105  1.00  0.00     0.292 C 
ATOM     13  O   UNL A   1      34.453  23.228  22.222  1.00  0.00    -0.265 OA
ATOM     14  H   UNL A   1      35.032  22.143  24.331  1.00  0.00     0.164 HD
BRANCH  12  15
ATOM     15  C   UNL A   1      32.182  23.362  22.965  1.00  0.00     0.252 C 
ATOM     16  O   UNL A   1      31.431  22.507  22.491  1.00  0.00    -0.283 OA
BRANCH  15  17
ATOM     17  C   UNL A   1      31.721  24.735  23.236  1.00  0.00     0.054 A 
ATOM     18  N   UNL A   1      30.636  26.621  23.894  1.00  0.00    -0.240 N 
ATOM     19  C   UNL A   1      30.552  25.223  23.840  1.00  0.00     0.117 A 
ATOM     20  C   UNL A   1      31.962  26.958  23.551  1.00  0.00     0.065 A 
ATOM     21  C   UNL A   1      32.429  25.891  22.789  1.00  0.00     0.012 A 
ATOM     22  C   UNL A   1      32.610  28.209  23.544  1.00  0.00     0.028 A 
ATOM     23  C   UNL A   1      33.446  26.137  21.842  1.00  0.00     0.011 A 
ATOM     24  C   UNL A   1      33.521  28.456  22.519  1.00  0.00     0.002 A 
ATOM     25  C   UNL A   1      33.907  27.443  21.653  1.00  0.00     0.001 A 
BRANCH  18  26
ATOM     26  S   UNL A   1      29.534  27.763  23.142  1.00  0.00     0.268 S 
ATOM     27  O   UNL A   1      28.228  27.203  23.455  1.00  0.00    -0.201 OA
ATOM     28  O   UNL A   1      30.033  27.784  21.772  1.00  0.00    -0.201 OA
BRANCH  26  29
ATOM     29  C   UNL A   1      29.336  29.486  23.411  1.00  0.00     0.088 A 
ATOM     30  C   UNL A   1      28.466  33.695  22.924  1.00  0.00     0.044 C 
ATOM     31  C   UNL A   1      28.743  32.239  23.168  1.00  0.00    -0.051 A 
ATOM     32  C   UNL A   1      28.154  31.339  22.297  1.00  0.00     0.005 A 
ATOM     33  C   UNL A   1      29.604  31.748  24.179  1.00  0.00     0.005 A 
ATOM     34  C   UNL A   1      28.435  29.995  22.435  1.00  0.00     0.022 A 
ATOM     35  C   UNL A   1      29.915  30.365  24.306  1.00  0.00     0.022 A 
ENDBRANCH  26  29
ENDBRANCH  18  26
ENDBRANCH  15  17
ENDBRANCH  12  15
ENDBRANCH  10  11
ENDBRANCH   7  10
ENDBRANCH   5   6
BRANCH   5  36
ATOM     36  C   UNL A   1      34.969  25.146  25.276  1.00  0.00     0.072 C 
BRANCH  36  37
ATOM     37  C   UNL A   1      33.803  25.640  26.065  1.00  0.00    -0.020 A 
ATOM     38  C   UNL A   1      32.765  24.861  26.544  1.00  0.00     0.087 A 
ATOM     39  C   UNL A   1      33.549  26.976  26.509  1.00  0.00     0.003 A 
ATOM     40  N   UNL A   1      31.814  25.689  27.079  1.00  0.00    -0.361 N 
ATOM     41  C   UNL A   1      32.243  26.991  26.992  1.00  0.00     0.046 A 
ATOM     42  C   UNL A   1      34.279  28.182  26.523  1.00  0.00     0.010 A 
ATOM     43  H   UNL A   1      30.957  25.397  27.465  1.00  0.00     0.166 HD
ATOM     44  C   UNL A   1      31.581  28.168  27.341  1.00  0.00     0.026 A 
ATOM     45  C   UNL A   1      33.661  29.356  26.978  1.00  0.00     0.001 A 
ATOM     46  C   UNL A   1      32.318  29.353  27.340  1.00  0.00     0.002 A 
ENDBRANCH  36  37
ENDBRANCH   5  36
ENDBRANCH   1   5
BRANCH   3  47
ATOM     47  C   UNL A   1      37.245  21.120  25.193  1.00  0.00     0.116 C 
BRANCH  47  48
ATOM     48  C   UNL A   1      38.338  20.145  24.759  1.00  0.00     0.023 C 
BRANCH  48  49
ATOM     49  C   UNL A   1      39.431  19.890  25.800  1.00  0.00     0.023 C 
BRANCH  49  50
ATOM     50  C   UNL A   1      39.870  21.126  26.564  1.00  0.00     0.116 C 
BRANCH  50  51
ATOM     51  N   UNL A   1      41.303  21.286  26.639  1.00  0.00    -0.352 N 
ATOM     52  C   UNL A   1      42.067  22.398  26.352  1.00  0.00     0.251 C 
ATOM     53  H   UNL A   1      41.804  20.491  26.934  1.00  0.00     0.163 HD
ATOM     54  O   UNL A   1      43.248  22.207  26.058  1.00  0.00    -0.269 OA
BRANCH  52  55
ATOM     55  C   UNL A   1      41.550  23.778  26.586  1.00  0.00     0.039 A 
ATOM     56  C   UNL A   1      42.197  24.823  25.908  1.00  0.00     0.014 A 
ATOM     57  C   UNL A   1      40.728  24.081  27.664  1.00  0.00     0.014 A 
ATOM     58  C   UNL A   1      42.279  26.083  26.489  1.00  0.00     0.010 A 
ATOM     59  C   UNL A   1      40.890  25.280  28.302  1.00  0.00     0.010 A 
ATOM     60  C   UNL A   1      41.740  26.240  27.753  1.00  0.00    -0.014 A 
BRANCH  60  61
ATOM     61  C   UNL A   1      41.914  27.382  28.618  1.00  0.00     0.031 A 
ATOM     62  C   UNL A   1      40.884  28.430  28.564  1.00  0.00     0.074 A 
ATOM     63  C   UNL A   1      42.733  27.165  29.673  1.00  0.00     0.049 A 
ATOM     64  N   UNL A   1      40.895  29.503  29.266  1.00  0.00    -0.248 NA
ATOM     65  C   UNL A   1      39.730  28.331  27.672  1.00  0.00     0.031 C 
ATOM     66  C   UNL A   1      42.659  27.756  30.999  1.00  0.00     0.029 A 
ATOM     67  N   UNL A   1      43.926  26.424  29.692  1.00  0.00    -0.354 N 
ATOM     68  C   UNL A   1      39.654  30.099  29.130  1.00  0.00     0.074 A 
ATOM     69  C   UNL A   1      39.002  29.378  28.068  1.00  0.00     0.031 C 
ATOM     70  C   UNL A   1      43.849  27.595  31.605  1.00  0.00     0.029 A 
ATOM     71  C   UNL A   1      44.771  27.099  30.592  1.00  0.00     0.049 A 
ATOM     72  H   UNL A   1      44.129  25.605  29.184  1.00  0.00     0.167 HD
ATOM     73  C   UNL A   1      39.289  31.043  30.043  1.00  0.00     0.034 A 
ATOM     74  C   UNL A   1      45.902  27.758  30.193  1.00  0.00     0.034 A 
ATOM     75  C   UNL A   1      40.413  31.293  30.958  1.00  0.00     0.049 A 
ATOM     76  C   UNL A   1      45.825  29.252  30.454  1.00  0.00     0.074 A 
ATOM     77  C   UNL A   1      40.748  30.755  32.189  1.00  0.00     0.029 A 
ATOM     78  N   UNL A   1      41.555  31.915  30.472  1.00  0.00    -0.354 N 
ATOM     79  N   UNL A   1      44.723  29.893  30.734  1.00  0.00    -0.248 NA
ATOM     80  C   UNL A   1      46.985  30.141  30.422  1.00  0.00     0.031 C 
ATOM     81  C   UNL A   1      42.144  30.953  32.380  1.00  0.00     0.029 A 
ATOM     82  C   UNL A   1      42.643  31.650  31.292  1.00  0.00     0.049 A 
ATOM     83  H   UNL A   1      41.589  32.469  29.658  1.00  0.00     0.167 HD
ATOM     84  C   UNL A   1      44.968  31.235  30.819  1.00  0.00     0.074 A 
ATOM     85  C   UNL A   1      46.412  31.332  30.678  1.00  0.00     0.031 C 
ATOM     86  C   UNL A   1      43.966  32.160  30.942  1.00  0.00     0.034 A 
BRANCH  73  87
ATOM     87  C   UNL A   1      37.882  31.557  30.316  1.00  0.00     0.023 A 
ATOM     88  C   UNL A   1      37.244  31.053  31.474  1.00  0.00     0.012 A 
ATOM     89  C   UNL A   1      37.105  32.439  29.527  1.00  0.00     0.148 A 
ATOM     90  C   UNL A   1      35.911  31.337  31.793  1.00  0.00     0.002 A 
ATOM     91  C   UNL A   1      35.761  32.700  29.824  1.00  0.00     0.091 A 
ATOM     92  F   UNL A   1      37.663  33.090  28.505  1.00  0.00    -0.205 F 
ATOM     93  C   UNL A   1      35.160  32.144  30.956  1.00  0.00     0.022 A 
BRANCH  91  94
ATOM     94  S   UNL A   1      34.701  33.720  28.777  1.00  0.00     0.127 S 
ATOM     95  O   UNL A   1      33.462  33.773  29.556  1.00  0.00    -0.237 OA
ATOM     96  O   UNL A   1      35.435  34.983  28.722  1.00  0.00    -0.237 OA
ATOM     97  O   UNL A   1      34.579  33.017  27.506  1.00  0.00    -0.744 OA
ENDBRANCH  91  94
ENDBRANCH  73  87
BRANCH  74  98
ATOM     98  C   UNL A   1      46.613  27.122  29.042  1.00  0.00     0.023 A 
ATOM     99  C   UNL A   1      46.978  25.767  29.191  1.00  0.00     0.012 A 
ATOM    100  C   UNL A   1      46.526  27.660  27.744  1.00  0.00     0.148 A 
ATOM    101  C   UNL A   1      47.069  24.921  28.082  1.00  0.00     0.002 A 
ATOM    102  C   UNL A   1      46.615  26.809  26.642  1.00  0.00     0.091 A 
ATOM    103  F   UNL A   1      46.244  28.961  27.614  1.00  0.00    -0.205 F 
ATOM    104  C   UNL A   1      46.834  25.433  26.813  1.00  0.00     0.022 A 
BRANCH 102 105
ATOM    105  S   UNL A   1      46.318  27.370  24.959  1.00  0.00     0.127 S 
ATOM    106  O   UNL A   1      46.599  26.159  24.194  1.00  0.00    -0.237 OA
ATOM    107  O   UNL A   1      44.910  27.751  25.011  1.00  0.00    -0.237 OA
ATOM    108  O   UNL A   1      47.237  28.479  24.758  1.00  0.00    -0.744 OA
ENDBRANCH 102 105
ENDBRANCH  74  98
BRANCH  86 109
ATOM    109  C   UNL A   1      44.140  33.647  30.714  1.00  0.00     0.023 A 
ATOM    110  C   UNL A   1      44.290  34.552  31.782  1.00  0.00     0.012 A 
ATOM    111  C   UNL A   1      44.353  34.159  29.407  1.00  0.00     0.148 A 
ATOM    112  C   UNL A   1      44.570  35.906  31.570  1.00  0.00     0.002 A 
ATOM    113  C   UNL A   1      44.762  35.474  29.212  1.00  0.00     0.091 A 
ATOM    114  F   UNL A   1      44.151  33.373  28.340  1.00  0.00    -0.205 F 
ATOM    115  C   UNL A   1      44.835  36.361  30.287  1.00  0.00     0.022 A 
BRANCH 113 116
ATOM    116  S   UNL A   1      45.392  36.016  27.617  1.00  0.00     0.127 S 
ATOM    117  O   UNL A   1      44.945  34.942  26.735  1.00  0.00    -0.237 OA
ATOM    118  O   UNL A   1      44.701  37.293  27.425  1.00  0.00    -0.237 OA
ATOM    119  O   UNL A   1      46.832  36.141  27.804  1.00  0.00    -0.744 OA
ENDBRANCH 113 116
ENDBRANCH  86 109
ENDBRANCH  60  61
ENDBRANCH  52  55
ENDBRANCH  50  51
ENDBRANCH  49  50
ENDBRANCH  48  49
ENDBRANCH  47  48
ENDBRANCH   3  47
TORSDOF 23
ENDMDL
MODEL 3
REMARK VINA RESULT:     -10.1      4.213      9.550
REMARK SMILES Cc1ccc(S(=O)(=O)n2cc(C(=O)C(=O)NCC(=O)N[C@@H](Cc3c[nH]c4ccccc34)C(=O)NCCCCNC(=O)c3ccc(-c4c5nc(c(-c6cccc(S(=O)(=O)[O-])c6F)c6ccc([nH]6)c(-c6cccc(S(=O)(=O)[O-])c6F)c6nc(c(-c7cccc(S(=O)(=O)[O-])c7F)c7ccc4[nH]7)C=C6)C=C5)cc3)c3ccccc32)cc1
REMARK SMILES IDX 32 1 33 2 34 3 21 5 20 6 18 7 19 8 17 10 16 11 14 12 15 13
REMARK SMILES IDX 12 15 13 16 11 17 9 18 10 19 110 20 105 21 109 22 106 23
REMARK SMILES IDX 108 24 107 25 6 26 7 27 8 28 5 29 1 30 2 31 3 32 112 33 4 34
REMARK SMILES IDX 111 35 22 36 23 37 24 38 31 39 25 40 26 41 30 42 27 44 29 45
REMARK SMILES IDX 28 46 35 47 36 48 37 49 38 50 39 51 40 52 41 54 42 55 43 56
REMARK SMILES IDX 104 57 44 58 103 59 45 60 46 61 47 62 97 63 48 64 102 65
REMARK SMILES IDX 96 66 98 67 49 68 101 69 95 70 94 71 50 73 82 74 62 75 81 76
REMARK SMILES IDX 63 77 66 78 80 79 99 80 64 81 65 82 79 84 100 85 67 86 51 87
REMARK SMILES IDX 52 88 60 89 53 90 55 91 61 92 54 93 56 94 57 95 58 96 59 97
REMARK SMILES IDX 83 98 84 99 92 100 85 101 87 102 93 103 86 104 88 105 89 106
REMARK SMILES IDX 90 107 91 108 68 109 69 110 77 111 70 112 72 113 78 114
REMARK SMILES IDX 71 115 73 116 74 117 75 118 76 119
REMARK H PARENT 34 4 20 9 16 14 25 43 39 53 98 72 66 83
REMARK Flexibility Score: inf
ROOT
ATOM      1  C   UNL A   1      40.249  28.891  28.601  1.00  0.00     0.242 C 
ATOM      2  O   UNL A   1      41.133  29.694  28.925  1.00  0.00    -0.273 OA
ATOM      3  N   UNL A   1      39.000  29.119  29.096  1.00  0.00    -0.354 N 
ATOM      4  H   UNL A   1      38.971  29.639  29.931  1.00  0.00     0.163 HD
ENDROOT
BRANCH   1   5
ATOM      5  C   UNL A   1      40.597  27.745  27.624  1.00  0.00     0.175 C 
BRANCH   5   6
ATOM      6  N   UNL A   1      40.967  28.184  26.273  1.00  0.00    -0.342 N 
ATOM      7  C   UNL A   1      42.228  28.394  25.787  1.00  0.00     0.240 C 
ATOM      8  O   UNL A   1      42.409  28.369  24.569  1.00  0.00    -0.273 OA
ATOM      9  H   UNL A   1      40.225  28.345  25.646  1.00  0.00     0.164 HD
BRANCH   7  10
ATOM     10  C   UNL A   1      43.389  28.606  26.775  1.00  0.00     0.216 C 
BRANCH  10  11
ATOM     11  N   UNL A   1      44.389  29.505  26.181  1.00  0.00    -0.340 N 
ATOM     12  C   UNL A   1      45.771  29.410  26.194  1.00  0.00     0.292 C 
ATOM     13  O   UNL A   1      46.465  30.326  25.769  1.00  0.00    -0.265 OA
ATOM     14  H   UNL A   1      44.024  30.286  25.706  1.00  0.00     0.164 HD
BRANCH  12  15
ATOM     15  C   UNL A   1      46.433  28.139  26.737  1.00  0.00     0.252 C 
ATOM     16  O   UNL A   1      47.300  27.641  26.015  1.00  0.00    -0.283 OA
BRANCH  15  17
ATOM     17  C   UNL A   1      45.967  27.469  27.963  1.00  0.00     0.054 A 
ATOM     18  N   UNL A   1      45.230  26.903  30.038  1.00  0.00    -0.240 N 
ATOM     19  C   UNL A   1      45.702  27.962  29.251  1.00  0.00     0.117 A 
ATOM     20  C   UNL A   1      44.974  25.831  29.159  1.00  0.00     0.065 A 
ATOM     21  C   UNL A   1      45.790  26.056  28.054  1.00  0.00     0.012 A 
ATOM     22  C   UNL A   1      44.400  24.568  29.407  1.00  0.00     0.028 A 
ATOM     23  C   UNL A   1      46.208  24.945  27.290  1.00  0.00     0.011 A 
ATOM     24  C   UNL A   1      44.924  23.476  28.718  1.00  0.00     0.002 A 
ATOM     25  C   UNL A   1      45.846  23.657  27.697  1.00  0.00     0.001 A 
BRANCH  18  26
ATOM     26  S   UNL A   1      45.968  26.286  31.507  1.00  0.00     0.268 S 
ATOM     27  O   UNL A   1      46.013  27.461  32.363  1.00  0.00    -0.201 OA
ATOM     28  O   UNL A   1      47.192  25.689  30.985  1.00  0.00    -0.201 OA
BRANCH  26  29
ATOM     29  C   UNL A   1      45.445  24.997  32.578  1.00  0.00     0.088 A 
ATOM     30  C   UNL A   1      45.345  21.764  35.449  1.00  0.00     0.044 C 
ATOM     31  C   UNL A   1      45.311  22.912  34.482  1.00  0.00    -0.051 A 
ATOM     32  C   UNL A   1      46.415  23.746  34.467  1.00  0.00     0.005 A 
ATOM     33  C   UNL A   1      44.263  23.148  33.560  1.00  0.00     0.005 A 
ATOM     34  C   UNL A   1      46.464  24.772  33.545  1.00  0.00     0.022 A 
ATOM     35  C   UNL A   1      44.323  24.191  32.593  1.00  0.00     0.022 A 
ENDBRANCH  26  29
ENDBRANCH  18  26
ENDBRANCH  15  17
ENDBRANCH  12  15
ENDBRANCH  10  11
ENDBRANCH   7  10
ENDBRANCH   5   6
BRANCH   5  36
ATOM     36  C   UNL A   1      41.493  26.633  28.202  1.00  0.00     0.072 C 
BRANCH  36  37
ATOM     37  C   UNL A   1      41.280  25.274  27.624  1.00  0.00    -0.020 A 
ATOM     38  C   UNL A   1      40.271  24.397  27.977  1.00  0.00     0.087 A 
ATOM     39  C   UNL A   1      42.031  24.635  26.588  1.00  0.00     0.003 A 
ATOM     40  N   UNL A   1      40.497  23.201  27.349  1.00  0.00    -0.361 N 
ATOM     41  C   UNL A   1      41.615  23.306  26.558  1.00  0.00     0.046 A 
ATOM     42  C   UNL A   1      43.044  25.037  25.692  1.00  0.00     0.010 A 
ATOM     43  H   UNL A   1      39.944  22.393  27.448  1.00  0.00     0.166 HD
ATOM     44  C   UNL A   1      42.258  22.331  25.797  1.00  0.00     0.026 A 
ATOM     45  C   UNL A   1      43.623  24.087  24.838  1.00  0.00     0.001 A 
ATOM     46  C   UNL A   1      43.263  22.746  24.923  1.00  0.00     0.002 A 
ENDBRANCH  36  37
ENDBRANCH   5  36
ENDBRANCH   1   5
BRANCH   3  47
ATOM     47  C   UNL A   1      37.705  28.713  28.582  1.00  0.00     0.116 C 
BRANCH  47  48
ATOM     48  C   UNL A   1      37.037  29.755  27.687  1.00  0.00     0.023 C 
BRANCH  48  49
ATOM     49  C   UNL A   1      35.551  29.996  27.969  1.00  0.00     0.023 C 
BRANCH  49  50
ATOM     50  C   UNL A   1      35.071  31.399  27.642  1.00  0.00     0.116 C 
BRANCH  50  51
ATOM     51  N   UNL A   1      34.559  32.120  28.784  1.00  0.00    -0.352 N 
ATOM     52  C   UNL A   1      35.139  32.310  30.021  1.00  0.00     0.251 C 
ATOM     53  H   UNL A   1      33.672  32.531  28.663  1.00  0.00     0.163 HD
ATOM     54  O   UNL A   1      34.384  32.556  30.963  1.00  0.00    -0.269 OA
BRANCH  52  55
ATOM     55  C   UNL A   1      36.619  32.417  30.177  1.00  0.00     0.039 A 
ATOM     56  C   UNL A   1      37.242  31.469  31.005  1.00  0.00     0.014 A 
ATOM     57  C   UNL A   1      37.311  33.572  29.836  1.00  0.00     0.014 A 
ATOM     58  C   UNL A   1      38.379  31.816  31.725  1.00  0.00     0.010 A 
ATOM     59  C   UNL A   1      38.362  33.968  30.617  1.00  0.00     0.010 A 
ATOM     60  C   UNL A   1      38.828  33.119  31.620  1.00  0.00    -0.014 A 
BRANCH  60  61
ATOM     61  C   UNL A   1      39.837  33.742  32.444  1.00  0.00     0.031 A 
ATOM     62  C   UNL A   1      39.383  34.406  33.676  1.00  0.00     0.074 A 
ATOM     63  C   UNL A   1      41.091  33.278  32.239  1.00  0.00     0.049 A 
ATOM     64  N   UNL A   1      40.153  35.003  34.510  1.00  0.00    -0.248 NA
ATOM     65  C   UNL A   1      37.973  34.442  34.058  1.00  0.00     0.031 C 
ATOM     66  C   UNL A   1      42.169  33.158  33.207  1.00  0.00     0.029 A 
ATOM     67  N   UNL A   1      41.687  32.933  31.015  1.00  0.00    -0.354 N 
ATOM     68  C   UNL A   1      39.408  35.267  35.645  1.00  0.00     0.074 A 
ATOM     69  C   UNL A   1      38.046  34.974  35.279  1.00  0.00     0.031 C 
ATOM     70  C   UNL A   1      43.331  33.040  32.539  1.00  0.00     0.029 A 
ATOM     71  C   UNL A   1      43.037  33.308  31.138  1.00  0.00     0.049 A 
ATOM     72  H   UNL A   1      41.253  32.517  30.236  1.00  0.00     0.167 HD
ATOM     73  C   UNL A   1      40.072  35.564  36.797  1.00  0.00     0.034 A 
ATOM     74  C   UNL A   1      43.588  34.335  30.420  1.00  0.00     0.034 A 
ATOM     75  C   UNL A   1      41.514  35.639  36.520  1.00  0.00     0.049 A 
ATOM     76  C   UNL A   1      44.065  35.473  31.306  1.00  0.00     0.074 A 
ATOM     77  C   UNL A   1      42.529  34.700  36.607  1.00  0.00     0.029 A 
ATOM     78  N   UNL A   1      41.999  36.676  35.735  1.00  0.00    -0.354 N 
ATOM     79  N   UNL A   1      43.728  35.617  32.559  1.00  0.00    -0.248 NA
ATOM     80  C   UNL A   1      44.960  36.534  30.851  1.00  0.00     0.031 C 
ATOM     81  C   UNL A   1      43.586  35.129  35.757  1.00  0.00     0.029 A 
ATOM     82  C   UNL A   1      43.234  36.346  35.196  1.00  0.00     0.049 A 
ATOM     83  H   UNL A   1      41.532  37.529  35.582  1.00  0.00     0.167 HD
ATOM     84  C   UNL A   1      44.240  36.786  33.052  1.00  0.00     0.074 A 
ATOM     85  C   UNL A   1      45.056  37.292  31.959  1.00  0.00     0.031 C 
ATOM     86  C   UNL A   1      43.909  37.270  34.289  1.00  0.00     0.034 A 
BRANCH  73  87
ATOM     87  C   UNL A   1      39.511  35.528  38.212  1.00  0.00     0.023 A 
ATOM     88  C   UNL A   1      39.384  36.775  38.869  1.00  0.00     0.012 A 
ATOM     89  C   UNL A   1      39.148  34.395  38.980  1.00  0.00     0.148 A 
ATOM     90  C   UNL A   1      39.000  36.894  40.209  1.00  0.00     0.002 A 
ATOM     91  C   UNL A   1      38.794  34.507  40.331  1.00  0.00     0.091 A 
ATOM     92  F   UNL A   1      39.080  33.192  38.407  1.00  0.00    -0.205 F 
ATOM     93  C   UNL A   1      38.725  35.757  40.950  1.00  0.00     0.022 A 
BRANCH  91  94
ATOM     94  S   UNL A   1      38.443  33.078  41.377  1.00  0.00     0.127 S 
ATOM     95  O   UNL A   1      37.177  33.462  42.006  1.00  0.00    -0.237 OA
ATOM     96  O   UNL A   1      38.330  31.994  40.403  1.00  0.00    -0.237 OA
ATOM     97  O   UNL A   1      39.561  32.964  42.307  1.00  0.00    -0.744 OA
ENDBRANCH  91  94
ENDBRANCH  73  87
BRANCH  74  98
ATOM     98  C   UNL A   1      43.029  34.495  29.043  1.00  0.00     0.023 A 
ATOM     99  C   UNL A   1      42.257  35.652  28.803  1.00  0.00     0.012 A 
ATOM    100  C   UNL A   1      43.590  33.817  27.945  1.00  0.00     0.148 A 
ATOM    101  C   UNL A   1      42.197  36.225  27.529  1.00  0.00     0.002 A 
ATOM    102  C   UNL A   1      43.530  34.397  26.677  1.00  0.00     0.091 A 
ATOM    103  F   UNL A   1      44.266  32.686  28.176  1.00  0.00    -0.205 F 
ATOM    104  C   UNL A   1      42.880  35.625  26.479  1.00  0.00     0.022 A 
BRANCH 102 105
ATOM    105  S   UNL A   1      44.386  33.705  25.254  1.00  0.00     0.127 S 
ATOM    106  O   UNL A   1      45.783  33.905  25.629  1.00  0.00    -0.237 OA
ATOM    107  O   UNL A   1      43.937  32.316  25.277  1.00  0.00    -0.237 OA
ATOM    108  O   UNL A   1      43.915  34.474  24.113  1.00  0.00    -0.744 OA
ENDBRANCH 102 105
ENDBRANCH  74  98
BRANCH  86 109
ATOM    109  C   UNL A   1      44.175  38.688  34.753  1.00  0.00     0.023 A 
ATOM    110  C   UNL A   1      43.603  39.801  34.109  1.00  0.00     0.012 A 
ATOM    111  C   UNL A   1      44.855  38.934  35.974  1.00  0.00     0.148 A 
ATOM    112  C   UNL A   1      43.751  41.099  34.608  1.00  0.00     0.002 A 
ATOM    113  C   UNL A   1      44.883  40.207  36.533  1.00  0.00     0.091 A 
ATOM    114  F   UNL A   1      45.490  37.932  36.600  1.00  0.00    -0.205 F 
ATOM    115  C   UNL A   1      44.366  41.299  35.836  1.00  0.00     0.022 A 
BRANCH 113 116
ATOM    116  S   UNL A   1      45.404  40.455  38.236  1.00  0.00     0.127 S 
ATOM    117  O   UNL A   1      46.857  40.370  38.123  1.00  0.00    -0.237 OA
ATOM    118  O   UNL A   1      44.891  41.794  38.529  1.00  0.00    -0.237 OA
ATOM    119  O   UNL A   1      44.753  39.390  38.988  1.00  0.00    -0.744 OA
ENDBRANCH 113 116
ENDBRANCH  86 109
ENDBRANCH  60  61
ENDBRANCH  52  55
ENDBRANCH  50  51
ENDBRANCH  49  50
ENDBRANCH  48  49
ENDBRANCH  47  48
ENDBRANCH   3  47
TORSDOF 23
ENDMDL
