MODEL 1
REMARK VINA RESULT:     -13.4      0.000      0.000
REMARK SMILES Cc1ccc(NC(=O)[C@H]2CC=CC[C@H]2C(=O)NCCCCNC(=O)c2ccc(-c3c4nc(c(-c5cccc(S(=O)(=O)[O-])c5F)c5ccc([nH]5)c(-c5cccc(S(=O)(=O)[O-])c5F)c5nc(c(-c6cccc(S(=O)(=O)[O-])c6F)c6ccc3[nH]6)C=C5)C=C4)cc2)cc1F
REMARK SMILES IDX 20 1 19 2 18 3 17 4 15 5 16 6 14 8 9 9 10 10 11 11 13 12
REMARK SMILES IDX 12 13 7 14 6 15 8 17 5 18 1 19 2 20 3 21 89 22 4 23 88 24
REMARK SMILES IDX 90 25 21 26 22 27 23 28 24 30 25 31 26 32 87 33 27 34 86 35
REMARK SMILES IDX 28 36 29 37 30 38 80 39 31 40 85 41 79 42 81 43 32 44 84 45
REMARK SMILES IDX 78 46 77 47 33 49 65 50 45 51 64 52 46 53 49 54 63 55 82 56
REMARK SMILES IDX 47 57 48 58 62 60 83 61 50 62 34 63 35 64 43 65 36 66 38 67
REMARK SMILES IDX 44 68 37 69 39 70 40 71 41 72 42 73 66 74 67 75 75 76 68 77
REMARK SMILES IDX 70 78 76 79 69 80 71 81 72 82 73 83 74 84 51 85 52 86 60 87
REMARK SMILES IDX 53 88 55 89 61 90 54 91 56 92 57 93 58 94 59 95
REMARK H PARENT 17 7 6 16 22 29 81 48 49 59
REMARK Flexibility Score: inf
ROOT
ATOM      1  C   UNL A   1      32.956  28.843  27.261  1.00  0.00     0.023 C 
ENDROOT
BRANCH   1   2
ATOM      2  C   UNL A   1      32.685  27.602  26.405  1.00  0.00     0.023 C 
BRANCH   2   3
ATOM      3  C   UNL A   1      33.899  26.902  25.785  1.00  0.00     0.116 C 
BRANCH   3   4
ATOM      4  N   UNL A   1      33.587  26.132  24.590  1.00  0.00    -0.356 N 
ATOM      5  C   UNL A   1      33.952  24.887  24.193  1.00  0.00     0.224 C 
ATOM      6  O   UNL A   1      33.402  24.433  23.183  1.00  0.00    -0.275 OA
ATOM      7  H   UNL A   1      33.004  26.603  23.951  1.00  0.00     0.163 HD
BRANCH   5   8
ATOM      8  C   UNL A   1      34.966  24.031  24.946  1.00  0.00     0.095 C 
ATOM      9  C   UNL A   1      34.478  23.227  26.187  1.00  0.00     0.095 C 
ATOM     10  C   UNL A   1      35.145  21.836  26.391  1.00  0.00     0.041 C 
ATOM     11  C   UNL A   1      36.052  21.322  25.329  1.00  0.00    -0.030 C 
ATOM     12  C   UNL A   1      35.887  23.358  23.907  1.00  0.00     0.041 C 
ATOM     13  C   UNL A   1      36.380  21.993  24.227  1.00  0.00    -0.030 C 
BRANCH   9  14
ATOM     14  C   UNL A   1      32.965  23.124  26.442  1.00  0.00     0.228 C 
ATOM     15  N   UNL A   1      32.193  22.080  26.035  1.00  0.00    -0.326 N 
ATOM     16  H   UNL A   1      31.370  21.984  26.567  1.00  0.00     0.169 HD
ATOM     17  O   UNL A   1      32.360  24.011  27.057  1.00  0.00    -0.274 OA
BRANCH  15  18
ATOM     18  C   UNL A   1      32.306  21.113  25.030  1.00  0.00     0.044 A 
ATOM     19  C   UNL A   1      32.479  17.913  22.143  1.00  0.00     0.047 C 
ATOM     20  C   UNL A   1      32.429  19.009  23.162  1.00  0.00    -0.015 A 
ATOM     21  C   UNL A   1      32.613  18.749  24.520  1.00  0.00     0.008 A 
ATOM     22  C   UNL A   1      32.185  20.325  22.761  1.00  0.00     0.128 A 
ATOM     23  C   UNL A   1      32.534  19.793  25.447  1.00  0.00     0.026 A 
ATOM     24  C   UNL A   1      32.124  21.372  23.678  1.00  0.00     0.065 A 
ATOM     25  F   UNL A   1      31.964  20.593  21.465  1.00  0.00    -0.207 F 
ENDBRANCH  15  18
ENDBRANCH   9  14
ENDBRANCH   5   8
ENDBRANCH   3   4
ENDBRANCH   2   3
ENDBRANCH   1   2
BRANCH   1  26
ATOM     26  C   UNL A   1      34.430  29.181  27.317  1.00  0.00     0.116 C 
BRANCH  26  27
ATOM     27  N   UNL A   1      34.710  30.345  28.158  1.00  0.00    -0.352 N 
ATOM     28  C   UNL A   1      35.866  30.603  28.880  1.00  0.00     0.251 C 
ATOM     29  H   UNL A   1      33.997  31.022  28.217  1.00  0.00     0.163 HD
ATOM     30  O   UNL A   1      35.886  31.412  29.787  1.00  0.00    -0.269 OA
BRANCH  28  31
ATOM     31  C   UNL A   1      37.049  29.787  28.543  1.00  0.00     0.039 A 
ATOM     32  C   UNL A   1      37.812  30.035  27.398  1.00  0.00     0.014 A 
ATOM     33  C   UNL A   1      37.448  28.837  29.471  1.00  0.00     0.014 A 
ATOM     34  C   UNL A   1      39.041  29.380  27.250  1.00  0.00     0.010 A 
ATOM     35  C   UNL A   1      38.725  28.343  29.418  1.00  0.00     0.010 A 
ATOM     36  C   UNL A   1      39.512  28.555  28.283  1.00  0.00    -0.014 A 
BRANCH  36  37
ATOM     37  C   UNL A   1      40.750  27.770  28.221  1.00  0.00     0.031 A 
ATOM     38  C   UNL A   1      40.757  26.303  28.068  1.00  0.00     0.074 A 
ATOM     39  C   UNL A   1      41.925  28.415  28.417  1.00  0.00     0.049 A 
ATOM     40  N   UNL A   1      41.530  25.511  28.737  1.00  0.00    -0.248 NA
ATOM     41  C   UNL A   1      39.886  25.599  27.131  1.00  0.00     0.031 C 
ATOM     42  C   UNL A   1      43.277  27.875  28.402  1.00  0.00     0.029 A 
ATOM     43  N   UNL A   1      42.121  29.716  28.877  1.00  0.00    -0.354 N 
ATOM     44  C   UNL A   1      41.517  24.293  28.095  1.00  0.00     0.074 A 
ATOM     45  C   UNL A   1      40.383  24.355  27.194  1.00  0.00     0.031 C 
ATOM     46  C   UNL A   1      44.057  28.686  29.145  1.00  0.00     0.029 A 
ATOM     47  C   UNL A   1      43.187  29.677  29.767  1.00  0.00     0.049 A 
ATOM     48  H   UNL A   1      41.603  30.512  28.618  1.00  0.00     0.167 HD
ATOM     49  C   UNL A   1      42.564  23.426  28.243  1.00  0.00     0.034 A 
ATOM     50  C   UNL A   1      43.032  29.926  31.105  1.00  0.00     0.034 A 
ATOM     51  C   UNL A   1      43.642  24.018  29.033  1.00  0.00     0.049 A 
ATOM     52  C   UNL A   1      43.512  28.777  31.966  1.00  0.00     0.074 A 
ATOM     53  C   UNL A   1      44.860  24.579  28.682  1.00  0.00     0.029 A 
ATOM     54  N   UNL A   1      43.436  24.358  30.359  1.00  0.00    -0.354 N 
ATOM     55  N   UNL A   1      43.805  27.601  31.488  1.00  0.00    -0.248 NA
ATOM     56  C   UNL A   1      43.580  28.809  33.426  1.00  0.00     0.031 C 
ATOM     57  C   UNL A   1      45.403  25.224  29.821  1.00  0.00     0.029 A 
ATOM     58  C   UNL A   1      44.517  25.055  30.867  1.00  0.00     0.049 A 
ATOM     59  H   UNL A   1      42.627  24.134  30.872  1.00  0.00     0.167 HD
ATOM     60  C   UNL A   1      44.129  26.752  32.506  1.00  0.00     0.074 A 
ATOM     61  C   UNL A   1      43.931  27.541  33.708  1.00  0.00     0.031 C 
ATOM     62  C   UNL A   1      44.508  25.466  32.261  1.00  0.00     0.034 A 
BRANCH  49  63
ATOM     63  C   UNL A   1      42.744  22.155  27.430  1.00  0.00     0.023 A 
ATOM     64  C   UNL A   1      41.986  20.989  27.677  1.00  0.00     0.012 A 
ATOM     65  C   UNL A   1      43.689  22.062  26.378  1.00  0.00     0.148 A 
ATOM     66  C   UNL A   1      42.043  19.865  26.837  1.00  0.00     0.002 A 
ATOM     67  C   UNL A   1      43.765  20.932  25.560  1.00  0.00     0.091 A 
ATOM     68  F   UNL A   1      44.549  23.061  26.149  1.00  0.00    -0.205 F 
ATOM     69  C   UNL A   1      42.920  19.843  25.763  1.00  0.00     0.022 A 
BRANCH  67  70
ATOM     70  S   UNL A   1      44.971  20.897  24.227  1.00  0.00     0.127 S 
ATOM     71  O   UNL A   1      46.245  20.978  24.933  1.00  0.00    -0.237 OA
ATOM     72  O   UNL A   1      44.670  19.642  23.546  1.00  0.00    -0.237 OA
ATOM     73  O   UNL A   1      44.641  22.093  23.449  1.00  0.00    -0.744 OA
ENDBRANCH  67  70
ENDBRANCH  49  63
BRANCH  50  74
ATOM     74  C   UNL A   1      41.843  30.781  31.448  1.00  0.00     0.023 A 
ATOM     75  C   UNL A   1      41.973  32.182  31.526  1.00  0.00     0.012 A 
ATOM     76  C   UNL A   1      40.741  30.171  32.086  1.00  0.00     0.148 A 
ATOM     77  C   UNL A   1      41.082  32.936  32.304  1.00  0.00     0.002 A 
ATOM     78  C   UNL A   1      39.931  30.913  32.945  1.00  0.00     0.091 A 
ATOM     79  F   UNL A   1      40.585  28.843  31.974  1.00  0.00    -0.205 F 
ATOM     80  C   UNL A   1      40.090  32.299  33.049  1.00  0.00     0.022 A 
BRANCH  78  81
ATOM     81  S   UNL A   1      38.931  30.041  34.166  1.00  0.00     0.127 S 
ATOM     82  O   UNL A   1      39.931  29.351  34.971  1.00  0.00    -0.237 OA
ATOM     83  O   UNL A   1      38.183  31.111  34.820  1.00  0.00    -0.237 OA
ATOM     84  O   UNL A   1      38.082  29.168  33.353  1.00  0.00    -0.744 OA
ENDBRANCH  78  81
ENDBRANCH  50  74
BRANCH  62  85
ATOM     85  C   UNL A   1      44.864  24.456  33.315  1.00  0.00     0.023 A 
ATOM     86  C   UNL A   1      43.853  23.589  33.797  1.00  0.00     0.012 A 
ATOM     87  C   UNL A   1      46.157  24.266  33.821  1.00  0.00     0.148 A 
ATOM     88  C   UNL A   1      44.095  22.638  34.788  1.00  0.00     0.002 A 
ATOM     89  C   UNL A   1      46.384  23.363  34.858  1.00  0.00     0.091 A 
ATOM     90  F   UNL A   1      47.190  24.922  33.273  1.00  0.00    -0.205 F 
ATOM     91  C   UNL A   1      45.360  22.544  35.345  1.00  0.00     0.022 A 
BRANCH  89  92
ATOM     92  S   UNL A   1      47.993  23.347  35.644  1.00  0.00     0.127 S 
ATOM     93  O   UNL A   1      48.058  24.648  36.303  1.00  0.00    -0.237 OA
ATOM     94  O   UNL A   1      47.909  22.179  36.519  1.00  0.00    -0.237 OA
ATOM     95  O   UNL A   1      48.919  23.188  34.522  1.00  0.00    -0.744 OA
ENDBRANCH  89  92
ENDBRANCH  62  85
ENDBRANCH  36  37
ENDBRANCH  28  31
ENDBRANCH  26  27
ENDBRANCH   1  26
TORSDOF 16
ENDMDL
MODEL 2
REMARK VINA RESULT:     -13.3      4.587     10.461
REMARK SMILES Cc1ccc(NC(=O)[C@H]2CC=CC[C@H]2C(=O)NCCCCNC(=O)c2ccc(-c3c4nc(c(-c5cccc(S(=O)(=O)[O-])c5F)c5ccc([nH]5)c(-c5cccc(S(=O)(=O)[O-])c5F)c5nc(c(-c6cccc(S(=O)(=O)[O-])c6F)c6ccc3[nH]6)C=C5)C=C4)cc2)cc1F
REMARK SMILES IDX 20 1 19 2 18 3 17 4 15 5 16 6 14 8 9 9 10 10 11 11 13 12
REMARK SMILES IDX 12 13 7 14 6 15 8 17 5 18 1 19 2 20 3 21 89 22 4 23 88 24
REMARK SMILES IDX 90 25 21 26 22 27 23 28 24 30 25 31 26 32 87 33 27 34 86 35
REMARK SMILES IDX 28 36 29 37 30 38 80 39 31 40 85 41 79 42 81 43 32 44 84 45
REMARK SMILES IDX 78 46 77 47 33 49 65 50 45 51 64 52 46 53 49 54 63 55 82 56
REMARK SMILES IDX 47 57 48 58 62 60 83 61 50 62 34 63 35 64 43 65 36 66 38 67
REMARK SMILES IDX 44 68 37 69 39 70 40 71 41 72 42 73 66 74 67 75 75 76 68 77
REMARK SMILES IDX 70 78 76 79 69 80 71 81 72 82 73 83 74 84 51 85 52 86 60 87
REMARK SMILES IDX 53 88 55 89 61 90 54 91 56 92 57 93 58 94 59 95
REMARK H PARENT 17 7 6 16 22 29 81 48 49 59
REMARK Flexibility Score: inf
ROOT
ATOM      1  C   UNL A   1      36.996  22.730  25.473  1.00  0.00     0.023 C 
ENDROOT
BRANCH   1   2
ATOM      2  C   UNL A   1      35.500  23.032  25.607  1.00  0.00     0.023 C 
BRANCH   2   3
ATOM      3  C   UNL A   1      34.815  23.711  24.416  1.00  0.00     0.116 C 
BRANCH   3   4
ATOM      4  N   UNL A   1      33.376  23.863  24.573  1.00  0.00    -0.356 N 
ATOM      5  C   UNL A   1      32.606  24.939  24.872  1.00  0.00     0.224 C 
ATOM      6  O   UNL A   1      31.381  24.798  24.787  1.00  0.00    -0.275 OA
ATOM      7  H   UNL A   1      32.867  23.030  24.438  1.00  0.00     0.163 HD
BRANCH   5   8
ATOM      8  C   UNL A   1      33.179  26.297  25.266  1.00  0.00     0.095 C 
ATOM      9  C   UNL A   1      33.676  27.247  24.136  1.00  0.00     0.095 C 
ATOM     10  C   UNL A   1      33.437  28.764  24.381  1.00  0.00     0.041 C 
ATOM     11  C   UNL A   1      32.632  29.174  25.564  1.00  0.00    -0.030 C 
ATOM     12  C   UNL A   1      32.326  26.858  26.423  1.00  0.00     0.041 C 
ATOM     13  C   UNL A   1      32.137  28.331  26.468  1.00  0.00    -0.030 C 
BRANCH   9  14
ATOM     14  C   UNL A   1      33.331  26.892  22.680  1.00  0.00     0.228 C 
ATOM     15  N   UNL A   1      32.273  27.411  22.000  1.00  0.00    -0.326 N 
ATOM     16  H   UNL A   1      32.395  27.380  21.023  1.00  0.00     0.169 HD
ATOM     17  O   UNL A   1      34.028  26.099  22.035  1.00  0.00    -0.274 OA
BRANCH  15  18
ATOM     18  C   UNL A   1      31.050  27.977  22.376  1.00  0.00     0.044 A 
ATOM     19  C   UNL A   1      27.278  29.887  23.227  1.00  0.00     0.047 C 
ATOM     20  C   UNL A   1      28.597  29.246  22.927  1.00  0.00    -0.015 A 
ATOM     21  C   UNL A   1      29.620  29.949  22.289  1.00  0.00     0.008 A 
ATOM     22  C   UNL A   1      28.822  27.913  23.279  1.00  0.00     0.128 A 
ATOM     23  C   UNL A   1      30.830  29.310  22.002  1.00  0.00     0.026 A 
ATOM     24  C   UNL A   1      30.032  27.277  23.012  1.00  0.00     0.065 A 
ATOM     25  F   UNL A   1      27.839  27.205  23.856  1.00  0.00    -0.207 F 
ENDBRANCH  15  18
ENDBRANCH   9  14
ENDBRANCH   5   8
ENDBRANCH   3   4
ENDBRANCH   2   3
ENDBRANCH   1   2
BRANCH   1  26
ATOM     26  C   UNL A   1      37.851  23.889  25.937  1.00  0.00     0.116 C 
BRANCH  26  27
ATOM     27  N   UNL A   1      39.248  23.510  26.145  1.00  0.00    -0.352 N 
ATOM     28  C   UNL A   1      40.248  24.273  26.733  1.00  0.00     0.251 C 
ATOM     29  H   UNL A   1      39.508  22.614  25.833  1.00  0.00     0.163 HD
ATOM     30  O   UNL A   1      41.425  24.015  26.574  1.00  0.00    -0.269 OA
BRANCH  28  31
ATOM     31  C   UNL A   1      39.810  25.459  27.495  1.00  0.00     0.039 A 
ATOM     32  C   UNL A   1      39.210  25.346  28.751  1.00  0.00     0.014 A 
ATOM     33  C   UNL A   1      40.127  26.702  26.968  1.00  0.00     0.014 A 
ATOM     34  C   UNL A   1      39.022  26.503  29.518  1.00  0.00     0.010 A 
ATOM     35  C   UNL A   1      40.116  27.801  27.787  1.00  0.00     0.010 A 
ATOM     36  C   UNL A   1      39.509  27.731  29.044  1.00  0.00    -0.014 A 
BRANCH  36  37
ATOM     37  C   UNL A   1      39.322  29.018  29.723  1.00  0.00     0.031 A 
ATOM     38  C   UNL A   1      38.351  30.029  29.263  1.00  0.00     0.074 A 
ATOM     39  C   UNL A   1      40.151  29.323  30.750  1.00  0.00     0.049 A 
ATOM     40  N   UNL A   1      38.604  31.295  29.197  1.00  0.00    -0.248 NA
ATOM     41  C   UNL A   1      36.994  29.691  28.841  1.00  0.00     0.031 C 
ATOM     42  C   UNL A   1      40.172  30.518  31.582  1.00  0.00     0.029 A 
ATOM     43  N   UNL A   1      41.313  28.660  31.138  1.00  0.00    -0.354 N 
ATOM     44  C   UNL A   1      37.396  31.944  29.076  1.00  0.00     0.074 A 
ATOM     45  C   UNL A   1      36.446  30.909  28.720  1.00  0.00     0.031 C 
ATOM     46  C   UNL A   1      41.418  30.657  32.080  1.00  0.00     0.029 A 
ATOM     47  C   UNL A   1      42.251  29.635  31.457  1.00  0.00     0.049 A 
ATOM     48  H   UNL A   1      41.445  27.686  31.180  1.00  0.00     0.167 HD
ATOM     49  C   UNL A   1      37.274  33.249  29.468  1.00  0.00     0.034 A 
ATOM     50  C   UNL A   1      43.388  29.825  30.717  1.00  0.00     0.034 A 
ATOM     51  C   UNL A   1      38.505  33.740  30.084  1.00  0.00     0.049 A 
ATOM     52  C   UNL A   1      43.505  31.241  30.193  1.00  0.00     0.074 A 
ATOM     53  C   UNL A   1      38.873  33.942  31.405  1.00  0.00     0.029 A 
ATOM     54  N   UNL A   1      39.672  33.830  29.346  1.00  0.00    -0.354 N 
ATOM     55  N   UNL A   1      42.528  32.100  30.232  1.00  0.00    -0.248 NA
ATOM     56  C   UNL A   1      44.668  31.764  29.476  1.00  0.00     0.031 C 
ATOM     57  C   UNL A   1      40.268  34.197  31.449  1.00  0.00     0.029 A 
ATOM     58  C   UNL A   1      40.748  34.150  30.155  1.00  0.00     0.049 A 
ATOM     59  H   UNL A   1      39.730  33.686  28.375  1.00  0.00     0.167 HD
ATOM     60  C   UNL A   1      42.901  33.260  29.617  1.00  0.00     0.074 A 
ATOM     61  C   UNL A   1      44.236  32.988  29.120  1.00  0.00     0.031 C 
ATOM     62  C   UNL A   1      42.060  34.331  29.556  1.00  0.00     0.034 A 
BRANCH  49  63
ATOM     63  C   UNL A   1      35.952  33.993  29.565  1.00  0.00     0.023 A 
ATOM     64  C   UNL A   1      35.303  34.525  28.429  1.00  0.00     0.012 A 
ATOM     65  C   UNL A   1      35.296  34.203  30.803  1.00  0.00     0.148 A 
ATOM     66  C   UNL A   1      34.015  35.082  28.493  1.00  0.00     0.002 A 
ATOM     67  C   UNL A   1      34.027  34.782  30.869  1.00  0.00     0.091 A 
ATOM     68  F   UNL A   1      35.889  33.858  31.951  1.00  0.00    -0.205 F 
ATOM     69  C   UNL A   1      33.365  35.192  29.714  1.00  0.00     0.022 A 
BRANCH  67  70
ATOM     70  S   UNL A   1      33.244  34.991  32.474  1.00  0.00     0.127 S 
ATOM     71  O   UNL A   1      34.104  35.967  33.135  1.00  0.00    -0.237 OA
ATOM     72  O   UNL A   1      31.895  35.427  32.127  1.00  0.00    -0.237 OA
ATOM     73  O   UNL A   1      33.308  33.648  33.053  1.00  0.00    -0.744 OA
ENDBRANCH  67  70
ENDBRANCH  49  63
BRANCH  50  74
ATOM     74  C   UNL A   1      43.845  28.615  29.952  1.00  0.00     0.023 A 
ATOM     75  C   UNL A   1      44.735  27.695  30.539  1.00  0.00     0.012 A 
ATOM     76  C   UNL A   1      43.724  28.627  28.545  1.00  0.00     0.148 A 
ATOM     77  C   UNL A   1      45.551  26.882  29.738  1.00  0.00     0.002 A 
ATOM     78  C   UNL A   1      44.615  27.899  27.758  1.00  0.00     0.091 A 
ATOM     79  F   UNL A   1      42.841  29.467  27.981  1.00  0.00    -0.205 F 
ATOM     80  C   UNL A   1      45.525  27.015  28.350  1.00  0.00     0.022 A 
BRANCH  78  81
ATOM     81  S   UNL A   1      44.827  28.362  26.028  1.00  0.00     0.127 S 
ATOM     82  O   UNL A   1      43.519  28.071  25.453  1.00  0.00    -0.237 OA
ATOM     83  O   UNL A   1      45.217  29.767  26.098  1.00  0.00    -0.237 OA
ATOM     84  O   UNL A   1      45.911  27.492  25.571  1.00  0.00    -0.744 OA
ENDBRANCH  78  81
ENDBRANCH  50  74
BRANCH  62  85
ATOM     85  C   UNL A   1      42.376  35.638  28.887  1.00  0.00     0.023 A 
ATOM     86  C   UNL A   1      41.889  35.868  27.576  1.00  0.00     0.012 A 
ATOM     87  C   UNL A   1      43.077  36.687  29.496  1.00  0.00     0.148 A 
ATOM     88  C   UNL A   1      42.154  37.045  26.877  1.00  0.00     0.002 A 
ATOM     89  C   UNL A   1      43.399  37.835  28.773  1.00  0.00     0.091 A 
ATOM     90  F   UNL A   1      43.400  36.608  30.795  1.00  0.00    -0.205 F 
ATOM     91  C   UNL A   1      42.939  38.022  27.465  1.00  0.00     0.022 A 
BRANCH  89  92
ATOM     92  S   UNL A   1      44.515  39.026  29.509  1.00  0.00     0.127 S 
ATOM     93  O   UNL A   1      44.766  39.967  28.422  1.00  0.00    -0.237 OA
ATOM     94  O   UNL A   1      43.742  39.532  30.641  1.00  0.00    -0.237 OA
ATOM     95  O   UNL A   1      45.673  38.217  29.890  1.00  0.00    -0.744 OA
ENDBRANCH  89  92
ENDBRANCH  62  85
ENDBRANCH  36  37
ENDBRANCH  28  31
ENDBRANCH  26  27
ENDBRANCH   1  26
TORSDOF 16
ENDMDL
MODEL 3
REMARK VINA RESULT:     -13.2      2.177      3.729
REMARK SMILES Cc1ccc(NC(=O)[C@H]2CC=CC[C@H]2C(=O)NCCCCNC(=O)c2ccc(-c3c4nc(c(-c5cccc(S(=O)(=O)[O-])c5F)c5ccc([nH]5)c(-c5cccc(S(=O)(=O)[O-])c5F)c5nc(c(-c6cccc(S(=O)(=O)[O-])c6F)c6ccc3[nH]6)C=C5)C=C4)cc2)cc1F
REMARK SMILES IDX 20 1 19 2 18 3 17 4 15 5 16 6 14 8 9 9 10 10 11 11 13 12
REMARK SMILES IDX 12 13 7 14 6 15 8 17 5 18 1 19 2 20 3 21 89 22 4 23 88 24
REMARK SMILES IDX 90 25 21 26 22 27 23 28 24 30 25 31 26 32 87 33 27 34 86 35
REMARK SMILES IDX 28 36 29 37 30 38 80 39 31 40 85 41 79 42 81 43 32 44 84 45
REMARK SMILES IDX 78 46 77 47 33 49 65 50 45 51 64 52 46 53 49 54 63 55 82 56
REMARK SMILES IDX 47 57 48 58 62 60 83 61 50 62 34 63 35 64 43 65 36 66 38 67
REMARK SMILES IDX 44 68 37 69 39 70 40 71 41 72 42 73 66 74 67 75 75 76 68 77
REMARK SMILES IDX 70 78 76 79 69 80 71 81 72 82 73 83 74 84 51 85 52 86 60 87
REMARK SMILES IDX 53 88 55 89 61 90 54 91 56 92 57 93 58 94 59 95
REMARK H PARENT 17 7 6 16 22 29 81 48 49 59
REMARK Flexibility Score: inf
ROOT
ATOM      1  C   UNL A   1      33.067  29.170  27.537  1.00  0.00     0.023 C 
ENDROOT
BRANCH   1   2
ATOM      2  C   UNL A   1      32.178  30.196  26.827  1.00  0.00     0.023 C 
BRANCH   2   3
ATOM      3  C   UNL A   1      31.716  29.856  25.406  1.00  0.00     0.116 C 
BRANCH   3   4
ATOM      4  N   UNL A   1      32.796  29.455  24.516  1.00  0.00    -0.356 N 
ATOM      5  C   UNL A   1      33.238  28.235  24.121  1.00  0.00     0.224 C 
ATOM      6  O   UNL A   1      34.090  28.206  23.225  1.00  0.00    -0.275 OA
ATOM      7  H   UNL A   1      33.297  30.209  24.129  1.00  0.00     0.163 HD
BRANCH   5   8
ATOM      8  C   UNL A   1      32.714  26.924  24.700  1.00  0.00     0.095 C 
ATOM      9  C   UNL A   1      31.805  26.031  23.805  1.00  0.00     0.095 C 
ATOM     10  C   UNL A   1      31.986  24.496  23.986  1.00  0.00     0.041 C 
ATOM     11  C   UNL A   1      33.092  24.009  24.854  1.00  0.00    -0.030 C 
ATOM     12  C   UNL A   1      33.845  26.284  25.531  1.00  0.00     0.041 C 
ATOM     13  C   UNL A   1      33.918  24.799  25.537  1.00  0.00    -0.030 C 
BRANCH   9  14
ATOM     14  C   UNL A   1      31.692  26.372  22.310  1.00  0.00     0.228 C 
ATOM     15  N   UNL A   1      31.101  27.500  21.829  1.00  0.00    -0.326 N 
ATOM     16  H   UNL A   1      31.422  27.744  20.930  1.00  0.00     0.169 HD
ATOM     17  O   UNL A   1      32.156  25.617  21.446  1.00  0.00    -0.274 OA
BRANCH  15  18
ATOM     18  C   UNL A   1      30.140  28.389  22.323  1.00  0.00     0.044 A 
ATOM     19  C   UNL A   1      27.228  31.320  23.557  1.00  0.00     0.047 C 
ATOM     20  C   UNL A   1      28.255  30.320  23.127  1.00  0.00    -0.015 A 
ATOM     21  C   UNL A   1      29.447  30.717  22.518  1.00  0.00     0.008 A 
ATOM     22  C   UNL A   1      28.028  28.956  23.322  1.00  0.00     0.128 A 
ATOM     23  C   UNL A   1      30.372  29.754  22.105  1.00  0.00     0.026 A 
ATOM     24  C   UNL A   1      28.955  27.993  22.930  1.00  0.00     0.065 A 
ATOM     25  F   UNL A   1      26.872  28.549  23.867  1.00  0.00    -0.207 F 
ENDBRANCH  15  18
ENDBRANCH   9  14
ENDBRANCH   5   8
ENDBRANCH   3   4
ENDBRANCH   2   3
ENDBRANCH   1   2
BRANCH   1  26
ATOM     26  C   UNL A   1      34.529  29.554  27.484  1.00  0.00     0.116 C 
BRANCH  26  27
ATOM     27  N   UNL A   1      34.869  30.617  28.430  1.00  0.00    -0.352 N 
ATOM     28  C   UNL A   1      36.021  30.726  29.195  1.00  0.00     0.251 C 
ATOM     29  H   UNL A   1      34.204  31.335  28.536  1.00  0.00     0.163 HD
ATOM     30  O   UNL A   1      36.075  31.448  30.170  1.00  0.00    -0.269 OA
BRANCH  28  31
ATOM     31  C   UNL A   1      37.153  29.859  28.809  1.00  0.00     0.039 A 
ATOM     32  C   UNL A   1      37.844  30.042  27.609  1.00  0.00     0.014 A 
ATOM     33  C   UNL A   1      37.582  28.926  29.741  1.00  0.00     0.014 A 
ATOM     34  C   UNL A   1      39.039  29.341  27.403  1.00  0.00     0.010 A 
ATOM     35  C   UNL A   1      38.836  28.387  29.622  1.00  0.00     0.010 A 
ATOM     36  C   UNL A   1      39.552  28.534  28.430  1.00  0.00    -0.014 A 
BRANCH  36  37
ATOM     37  C   UNL A   1      40.756  27.706  28.315  1.00  0.00     0.031 A 
ATOM     38  C   UNL A   1      40.705  26.239  28.164  1.00  0.00     0.074 A 
ATOM     39  C   UNL A   1      41.962  28.309  28.458  1.00  0.00     0.049 A 
ATOM     40  N   UNL A   1      41.478  25.420  28.798  1.00  0.00    -0.248 NA
ATOM     41  C   UNL A   1      39.768  25.567  27.266  1.00  0.00     0.031 C 
ATOM     42  C   UNL A   1      43.291  27.721  28.384  1.00  0.00     0.029 A 
ATOM     43  N   UNL A   1      42.224  29.601  28.907  1.00  0.00    -0.354 N 
ATOM     44  C   UNL A   1      41.392  24.204  28.159  1.00  0.00     0.074 A 
ATOM     45  C   UNL A   1      40.222  24.307  27.309  1.00  0.00     0.031 C 
ATOM     46  C   UNL A   1      44.132  28.502  29.091  1.00  0.00     0.029 A 
ATOM     47  C   UNL A   1      43.326  29.523  29.749  1.00  0.00     0.049 A 
ATOM     48  H   UNL A   1      41.724  30.415  28.671  1.00  0.00     0.167 HD
ATOM     49  C   UNL A   1      42.414  23.300  28.261  1.00  0.00     0.034 A 
ATOM     50  C   UNL A   1      43.240  29.778  31.092  1.00  0.00     0.034 A 
ATOM     51  C   UNL A   1      43.545  23.853  29.002  1.00  0.00     0.049 A 
ATOM     52  C   UNL A   1      43.716  28.611  31.932  1.00  0.00     0.074 A 
ATOM     53  C   UNL A   1      44.766  24.370  28.596  1.00  0.00     0.029 A 
ATOM     54  N   UNL A   1      43.411  24.199  30.335  1.00  0.00    -0.354 N 
ATOM     55  N   UNL A   1      43.946  27.426  31.444  1.00  0.00    -0.248 NA
ATOM     56  C   UNL A   1      43.850  28.640  33.388  1.00  0.00     0.031 C 
ATOM     57  C   UNL A   1      45.382  24.994  29.710  1.00  0.00     0.029 A 
ATOM     58  C   UNL A   1      44.538  24.857  30.794  1.00  0.00     0.049 A 
ATOM     59  H   UNL A   1      42.618  24.003  30.884  1.00  0.00     0.167 HD
ATOM     60  C   UNL A   1      44.284  26.565  32.447  1.00  0.00     0.074 A 
ATOM     61  C   UNL A   1      44.168  27.360  33.655  1.00  0.00     0.031 C 
ATOM     62  C   UNL A   1      44.606  25.267  32.187  1.00  0.00     0.034 A 
BRANCH  49  63
ATOM     63  C   UNL A   1      42.512  22.023  27.442  1.00  0.00     0.023 A 
ATOM     64  C   UNL A   1      41.657  20.920  27.661  1.00  0.00     0.012 A 
ATOM     65  C   UNL A   1      43.472  21.861  26.414  1.00  0.00     0.148 A 
ATOM     66  C   UNL A   1      41.644  19.801  26.813  1.00  0.00     0.002 A 
ATOM     67  C   UNL A   1      43.478  20.734  25.589  1.00  0.00     0.091 A 
ATOM     68  F   UNL A   1      44.415  22.790  26.214  1.00  0.00    -0.205 F 
ATOM     69  C   UNL A   1      42.544  19.715  25.761  1.00  0.00     0.022 A 
BRANCH  67  70
ATOM     70  S   UNL A   1      44.711  20.611  24.285  1.00  0.00     0.127 S 
ATOM     71  O   UNL A   1      44.423  19.315  23.681  1.00  0.00    -0.237 OA
ATOM     72  O   UNL A   1      44.447  21.794  23.472  1.00  0.00    -0.237 OA
ATOM     73  O   UNL A   1      45.977  20.661  25.020  1.00  0.00    -0.744 OA
ENDBRANCH  67  70
ENDBRANCH  49  63
BRANCH  50  74
ATOM     74  C   UNL A   1      42.099  30.674  31.486  1.00  0.00     0.023 A 
ATOM     75  C   UNL A   1      42.284  32.068  31.568  1.00  0.00     0.012 A 
ATOM     76  C   UNL A   1      41.000  30.102  32.165  1.00  0.00     0.148 A 
ATOM     77  C   UNL A   1      41.454  32.850  32.385  1.00  0.00     0.002 A 
ATOM     78  C   UNL A   1      40.252  30.867  33.059  1.00  0.00     0.091 A 
ATOM     79  F   UNL A   1      40.789  28.781  32.050  1.00  0.00    -0.205 F 
ATOM     80  C   UNL A   1      40.468  32.246  33.165  1.00  0.00     0.022 A 
BRANCH  78  81
ATOM     81  S   UNL A   1      39.269  30.024  34.313  1.00  0.00     0.127 S 
ATOM     82  O   UNL A   1      38.292  29.289  33.518  1.00  0.00    -0.237 OA
ATOM     83  O   UNL A   1      40.255  29.232  35.042  1.00  0.00    -0.237 OA
ATOM     84  O   UNL A   1      38.718  31.121  35.110  1.00  0.00    -0.744 OA
ENDBRANCH  78  81
ENDBRANCH  50  74
BRANCH  62  85
ATOM     85  C   UNL A   1      44.971  24.244  33.225  1.00  0.00     0.023 A 
ATOM     86  C   UNL A   1      43.995  23.299  33.625  1.00  0.00     0.012 A 
ATOM     87  C   UNL A   1      46.247  24.117  33.792  1.00  0.00     0.148 A 
ATOM     88  C   UNL A   1      44.246  22.331  34.596  1.00  0.00     0.002 A 
ATOM     89  C   UNL A   1      46.478  23.194  34.810  1.00  0.00     0.091 A 
ATOM     90  F   UNL A   1      47.262  24.855  33.320  1.00  0.00    -0.205 F 
ATOM     91  C   UNL A   1      45.485  22.296  35.216  1.00  0.00     0.022 A 
BRANCH  89  92
ATOM     92  S   UNL A   1      48.043  23.250  35.679  1.00  0.00     0.127 S 
ATOM     93  O   UNL A   1      48.103  24.621  36.175  1.00  0.00    -0.237 OA
ATOM     94  O   UNL A   1      47.887  22.201  36.685  1.00  0.00    -0.237 OA
ATOM     95  O   UNL A   1      49.022  22.938  34.637  1.00  0.00    -0.744 OA
ENDBRANCH  89  92
ENDBRANCH  62  85
ENDBRANCH  36  37
ENDBRANCH  28  31
ENDBRANCH  26  27
ENDBRANCH   1  26
TORSDOF 16
ENDMDL
