MODEL 1
REMARK VINA RESULT:     -12.4      0.000      0.000
REMARK SMILES O=C(NCCCCNC(=O)c1ccnc(-n2cnnn2)c1)c1ccc(-c2c3nc(c(-c4cccc(S(=O)(=O)[O-])c4F)c4ccc([nH]4)c(-c4cccc(S(=O)(=O)[O-])c4F)c4nc(c(-c5cccc(S(=O)(=O)[O-])c5F)c5ccc2[nH]5)C=C4)C=C3)cc1
REMARK SMILES IDX 4 1 3 2 1 3 2 4 22 6 23 7 84 8 24 9 83 10 25 11 26 12 27 13
REMARK SMILES IDX 77 14 28 15 82 16 76 17 78 18 29 19 81 20 75 21 74 22 30 24
REMARK SMILES IDX 62 25 42 26 61 27 43 28 46 29 60 30 79 31 44 32 45 33 59 35
REMARK SMILES IDX 80 36 47 37 31 38 32 39 40 40 33 41 35 42 41 43 34 44 36 45
REMARK SMILES IDX 37 46 38 47 39 48 63 49 64 50 72 51 65 52 67 53 73 54 66 55
REMARK SMILES IDX 68 56 69 57 70 58 71 59 48 60 49 61 57 62 50 63 52 64 58 65
REMARK SMILES IDX 51 66 53 67 54 68 55 69 56 70 5 71 6 72 7 73 8 74 9 75 10 77
REMARK SMILES IDX 11 78 12 79 21 80 13 81 15 82 14 83 16 84 17 85 20 86 18 87
REMARK SMILES IDX 19 88
REMARK H PARENT 3 5 78 23 46 34 8 76
REMARK Flexibility Score: inf
ROOT
ATOM      1  C   UNL A   1      33.914  29.887  27.240  1.00  0.00     0.116 C 
ENDROOT
BRANCH   1   2
ATOM      2  N   UNL A   1      34.193  31.045  28.060  1.00  0.00    -0.352 N 
ATOM      3  O   UNL A   1      35.212  32.728  29.054  1.00  0.00    -0.269 OA
ATOM      4  C   UNL A   1      35.338  31.605  28.559  1.00  0.00     0.251 C 
ATOM      5  H   UNL A   1      33.381  31.539  28.317  1.00  0.00     0.163 HD
BRANCH   4   6
ATOM      6  C   UNL A   1      36.658  30.923  28.620  1.00  0.00     0.039 A 
ATOM      7  C   UNL A   1      36.896  29.587  28.292  1.00  0.00     0.014 A 
ATOM      8  C   UNL A   1      37.721  31.697  29.119  1.00  0.00     0.014 A 
ATOM      9  C   UNL A   1      38.121  28.998  28.578  1.00  0.00     0.010 A 
ATOM     10  C   UNL A   1      38.954  31.123  29.384  1.00  0.00     0.010 A 
ATOM     11  C   UNL A   1      39.130  29.759  29.161  1.00  0.00    -0.014 A 
BRANCH  11  12
ATOM     12  C   UNL A   1      40.426  29.128  29.379  1.00  0.00     0.031 A 
ATOM     13  C   UNL A   1      40.735  28.854  30.815  1.00  0.00     0.074 A 
ATOM     14  C   UNL A   1      41.177  28.692  28.346  1.00  0.00     0.049 A 
ATOM     15  N   UNL A   1      41.777  29.203  31.502  1.00  0.00    -0.248 NA
ATOM     16  C   UNL A   1      39.678  28.222  31.624  1.00  0.00     0.031 C 
ATOM     17  C   UNL A   1      40.804  28.676  26.927  1.00  0.00     0.029 A 
ATOM     18  N   UNL A   1      42.358  28.012  28.360  1.00  0.00    -0.354 N 
ATOM     19  C   UNL A   1      41.600  28.634  32.767  1.00  0.00     0.074 A 
ATOM     20  C   UNL A   1      40.229  28.213  32.836  1.00  0.00     0.031 C 
ATOM     21  C   UNL A   1      41.587  27.789  26.274  1.00  0.00     0.029 A 
ATOM     22  C   UNL A   1      42.581  27.273  27.198  1.00  0.00     0.049 A 
ATOM     23  H   UNL A   1      42.991  28.040  29.113  1.00  0.00     0.167 HD
ATOM     24  C   UNL A   1      42.658  28.317  33.565  1.00  0.00     0.034 A 
ATOM     25  C   UNL A   1      43.437  26.231  27.047  1.00  0.00     0.034 A 
ATOM     26  C   UNL A   1      43.833  29.059  33.194  1.00  0.00     0.049 A 
ATOM     27  C   UNL A   1      44.411  26.289  28.158  1.00  0.00     0.074 A 
ATOM     28  C   UNL A   1      44.169  30.395  33.126  1.00  0.00     0.029 A 
ATOM     29  N   UNL A   1      44.793  28.392  32.475  1.00  0.00    -0.354 N 
ATOM     30  N   UNL A   1      45.285  27.245  28.301  1.00  0.00    -0.248 NA
ATOM     31  C   UNL A   1      44.120  25.517  29.354  1.00  0.00     0.031 C 
ATOM     32  C   UNL A   1      45.011  30.500  31.980  1.00  0.00     0.029 A 
ATOM     33  C   UNL A   1      45.184  29.217  31.458  1.00  0.00     0.049 A 
ATOM     34  H   UNL A   1      45.136  27.488  32.658  1.00  0.00     0.167 HD
ATOM     35  C   UNL A   1      45.299  27.493  29.666  1.00  0.00     0.074 A 
ATOM     36  C   UNL A   1      44.644  26.335  30.271  1.00  0.00     0.031 C 
ATOM     37  C   UNL A   1      45.574  28.739  30.152  1.00  0.00     0.034 A 
BRANCH  24  38
ATOM     38  C   UNL A   1      42.756  27.050  34.399  1.00  0.00     0.023 A 
ATOM     39  C   UNL A   1      42.540  27.184  35.792  1.00  0.00     0.012 A 
ATOM     40  C   UNL A   1      43.343  25.839  33.964  1.00  0.00     0.148 A 
ATOM     41  C   UNL A   1      42.982  26.217  36.704  1.00  0.00     0.002 A 
ATOM     42  C   UNL A   1      43.723  24.853  34.868  1.00  0.00     0.091 A 
ATOM     43  F   UNL A   1      43.658  25.664  32.679  1.00  0.00    -0.205 F 
ATOM     44  C   UNL A   1      43.580  25.053  36.241  1.00  0.00     0.022 A 
BRANCH  42  45
ATOM     45  S   UNL A   1      44.475  23.314  34.321  1.00  0.00     0.127 S 
ATOM     46  O   UNL A   1      44.577  22.580  35.579  1.00  0.00    -0.237 OA
ATOM     47  O   UNL A   1      43.470  22.807  33.386  1.00  0.00    -0.237 OA
ATOM     48  O   UNL A   1      45.734  23.693  33.694  1.00  0.00    -0.744 OA
ENDBRANCH  42  45
ENDBRANCH  24  38
BRANCH  25  49
ATOM     49  C   UNL A   1      43.277  25.013  26.215  1.00  0.00     0.023 A 
ATOM     50  C   UNL A   1      44.190  24.745  25.175  1.00  0.00     0.012 A 
ATOM     51  C   UNL A   1      42.396  23.980  26.607  1.00  0.00     0.148 A 
ATOM     52  C   UNL A   1      44.235  23.485  24.560  1.00  0.00     0.002 A 
ATOM     53  C   UNL A   1      42.433  22.736  25.985  1.00  0.00     0.091 A 
ATOM     54  F   UNL A   1      41.587  24.187  27.654  1.00  0.00    -0.205 F 
ATOM     55  C   UNL A   1      43.360  22.481  24.967  1.00  0.00     0.022 A 
BRANCH  53  56
ATOM     56  S   UNL A   1      41.342  21.392  26.470  1.00  0.00     0.127 S 
ATOM     57  O   UNL A   1      41.866  20.278  25.679  1.00  0.00    -0.237 OA
ATOM     58  O   UNL A   1      41.596  21.298  27.905  1.00  0.00    -0.237 OA
ATOM     59  O   UNL A   1      39.999  21.813  26.090  1.00  0.00    -0.744 OA
ENDBRANCH  53  56
ENDBRANCH  25  49
BRANCH  37  60
ATOM     60  C   UNL A   1      46.080  29.781  29.190  1.00  0.00     0.023 A 
ATOM     61  C   UNL A   1      47.440  29.873  28.823  1.00  0.00     0.012 A 
ATOM     62  C   UNL A   1      45.135  30.554  28.498  1.00  0.00     0.148 A 
ATOM     63  C   UNL A   1      47.848  30.734  27.800  1.00  0.00     0.002 A 
ATOM     64  C   UNL A   1      45.538  31.371  27.450  1.00  0.00     0.091 A 
ATOM     65  F   UNL A   1      43.846  30.446  28.855  1.00  0.00    -0.205 F 
ATOM     66  C   UNL A   1      46.894  31.472  27.103  1.00  0.00     0.022 A 
BRANCH  64  67
ATOM     67  S   UNL A   1      44.347  32.241  26.429  1.00  0.00     0.127 S 
ATOM     68  O   UNL A   1      45.180  32.717  25.327  1.00  0.00    -0.237 OA
ATOM     69  O   UNL A   1      43.407  31.177  26.071  1.00  0.00    -0.237 OA
ATOM     70  O   UNL A   1      43.774  33.280  27.276  1.00  0.00    -0.744 OA
ENDBRANCH  64  67
ENDBRANCH  37  60
ENDBRANCH  11  12
ENDBRANCH   4   6
ENDBRANCH   1   2
BRANCH   1  71
ATOM     71  C   UNL A   1      32.429  29.646  26.963  1.00  0.00     0.023 C 
BRANCH  71  72
ATOM     72  C   UNL A   1      31.932  28.231  27.270  1.00  0.00     0.023 C 
BRANCH  72  73
ATOM     73  C   UNL A   1      31.270  27.503  26.105  1.00  0.00     0.116 C 
BRANCH  73  74
ATOM     74  N   UNL A   1      32.073  27.559  24.896  1.00  0.00    -0.352 N 
ATOM     75  C   UNL A   1      31.673  27.785  23.605  1.00  0.00     0.251 C 
ATOM     76  H   UNL A   1      33.038  27.415  25.021  1.00  0.00     0.163 HD
ATOM     77  O   UNL A   1      32.444  27.628  22.669  1.00  0.00    -0.269 OA
BRANCH  75  78
ATOM     78  C   UNL A   1      30.291  28.218  23.325  1.00  0.00     0.045 A 
ATOM     79  C   UNL A   1      29.220  27.346  23.491  1.00  0.00     0.034 A 
ATOM     80  C   UNL A   1      30.077  29.556  22.989  1.00  0.00     0.063 A 
ATOM     81  C   UNL A   1      27.951  27.853  23.304  1.00  0.00     0.114 A 
ATOM     82  C   UNL A   1      28.764  29.983  22.841  1.00  0.00     0.157 A 
ATOM     83  N   UNL A   1      27.704  29.147  23.005  1.00  0.00    -0.237 NA
BRANCH  82  84
ATOM     84  N   UNL A   1      28.503  31.341  22.532  1.00  0.00    -0.182 N 
ATOM     85  C   UNL A   1      28.047  31.891  21.361  1.00  0.00     0.254 A 
ATOM     86  N   UNL A   1      28.693  32.345  23.419  1.00  0.00    -0.039 NA
ATOM     87  N   UNL A   1      28.024  33.200  21.476  1.00  0.00    -0.117 NA
ATOM     88  N   UNL A   1      28.443  33.466  22.754  1.00  0.00    -0.024 NA
ENDBRANCH  82  84
ENDBRANCH  75  78
ENDBRANCH  73  74
ENDBRANCH  72  73
ENDBRANCH  71  72
ENDBRANCH   1  71
TORSDOF 15
ENDMDL
MODEL 2
REMARK VINA RESULT:     -12.4      5.136     10.183
REMARK SMILES O=C(NCCCCNC(=O)c1ccnc(-n2cnnn2)c1)c1ccc(-c2c3nc(c(-c4cccc(S(=O)(=O)[O-])c4F)c4ccc([nH]4)c(-c4cccc(S(=O)(=O)[O-])c4F)c4nc(c(-c5cccc(S(=O)(=O)[O-])c5F)c5ccc2[nH]5)C=C4)C=C3)cc1
REMARK SMILES IDX 4 1 3 2 1 3 2 4 22 6 23 7 84 8 24 9 83 10 25 11 26 12 27 13
REMARK SMILES IDX 77 14 28 15 82 16 76 17 78 18 29 19 81 20 75 21 74 22 30 24
REMARK SMILES IDX 62 25 42 26 61 27 43 28 46 29 60 30 79 31 44 32 45 33 59 35
REMARK SMILES IDX 80 36 47 37 31 38 32 39 40 40 33 41 35 42 41 43 34 44 36 45
REMARK SMILES IDX 37 46 38 47 39 48 63 49 64 50 72 51 65 52 67 53 73 54 66 55
REMARK SMILES IDX 68 56 69 57 70 58 71 59 48 60 49 61 57 62 50 63 52 64 58 65
REMARK SMILES IDX 51 66 53 67 54 68 55 69 56 70 5 71 6 72 7 73 8 74 9 75 10 77
REMARK SMILES IDX 11 78 12 79 21 80 13 81 15 82 14 83 16 84 17 85 20 86 18 87
REMARK SMILES IDX 19 88
REMARK H PARENT 3 5 78 23 46 34 8 76
REMARK Flexibility Score: inf
ROOT
ATOM      1  C   UNL A   1      38.059  23.140  26.119  1.00  0.00     0.116 C 
ENDROOT
BRANCH   1   2
ATOM      2  N   UNL A   1      39.404  22.615  26.053  1.00  0.00    -0.352 N 
ATOM      3  O   UNL A   1      41.519  22.175  26.491  1.00  0.00    -0.269 OA
ATOM      4  C   UNL A   1      40.603  22.994  26.596  1.00  0.00     0.251 C 
ATOM      5  H   UNL A   1      39.475  21.806  25.495  1.00  0.00     0.163 HD
BRANCH   4   6
ATOM      6  C   UNL A   1      40.877  24.325  27.198  1.00  0.00     0.039 A 
ATOM      7  C   UNL A   1      41.892  24.607  28.114  1.00  0.00     0.014 A 
ATOM      8  C   UNL A   1      39.979  25.350  26.846  1.00  0.00     0.014 A 
ATOM      9  C   UNL A   1      41.933  25.833  28.766  1.00  0.00     0.010 A 
ATOM     10  C   UNL A   1      40.029  26.584  27.474  1.00  0.00     0.010 A 
ATOM     11  C   UNL A   1      40.976  26.800  28.472  1.00  0.00    -0.014 A 
BRANCH  11  12
ATOM     12  C   UNL A   1      41.094  28.100  29.120  1.00  0.00     0.031 A 
ATOM     13  C   UNL A   1      42.140  28.986  28.524  1.00  0.00     0.074 A 
ATOM     14  C   UNL A   1      40.211  28.499  30.060  1.00  0.00     0.049 A 
ATOM     15  N   UNL A   1      43.125  29.588  29.111  1.00  0.00    -0.248 NA
ATOM     16  C   UNL A   1      42.165  29.105  27.055  1.00  0.00     0.031 C 
ATOM     17  C   UNL A   1      38.998  27.793  30.488  1.00  0.00     0.029 A 
ATOM     18  N   UNL A   1      40.112  29.695  30.705  1.00  0.00    -0.354 N 
ATOM     19  C   UNL A   1      43.753  30.341  28.114  1.00  0.00     0.074 A 
ATOM     20  C   UNL A   1      43.243  29.861  26.860  1.00  0.00     0.031 C 
ATOM     21  C   UNL A   1      38.163  28.671  31.086  1.00  0.00     0.029 A 
ATOM     22  C   UNL A   1      38.829  29.957  31.186  1.00  0.00     0.049 A 
ATOM     23  H   UNL A   1      40.870  30.313  30.821  1.00  0.00     0.167 HD
ATOM     24  C   UNL A   1      44.450  31.475  28.403  1.00  0.00     0.034 A 
ATOM     25  C   UNL A   1      38.318  31.167  31.527  1.00  0.00     0.034 A 
ATOM     26  C   UNL A   1      44.859  31.500  29.782  1.00  0.00     0.049 A 
ATOM     27  C   UNL A   1      39.455  32.089  31.736  1.00  0.00     0.074 A 
ATOM     28  C   UNL A   1      45.648  30.702  30.586  1.00  0.00     0.029 A 
ATOM     29  N   UNL A   1      44.140  32.299  30.635  1.00  0.00    -0.354 N 
ATOM     30  N   UNL A   1      40.320  31.960  32.701  1.00  0.00    -0.248 NA
ATOM     31  C   UNL A   1      39.886  32.898  30.607  1.00  0.00     0.031 C 
ATOM     32  C   UNL A   1      45.006  30.721  31.858  1.00  0.00     0.029 A 
ATOM     33  C   UNL A   1      43.904  31.573  31.768  1.00  0.00     0.049 A 
ATOM     34  H   UNL A   1      43.849  33.223  30.461  1.00  0.00     0.167 HD
ATOM     35  C   UNL A   1      41.538  32.267  32.112  1.00  0.00     0.074 A 
ATOM     36  C   UNL A   1      41.198  32.934  30.857  1.00  0.00     0.031 C 
ATOM     37  C   UNL A   1      42.697  31.693  32.552  1.00  0.00     0.034 A 
BRANCH  24  38
ATOM     38  C   UNL A   1      44.405  32.747  27.571  1.00  0.00     0.023 A 
ATOM     39  C   UNL A   1      45.474  32.956  26.666  1.00  0.00     0.012 A 
ATOM     40  C   UNL A   1      43.580  33.863  27.844  1.00  0.00     0.148 A 
ATOM     41  C   UNL A   1      45.767  34.224  26.152  1.00  0.00     0.002 A 
ATOM     42  C   UNL A   1      43.837  35.108  27.281  1.00  0.00     0.091 A 
ATOM     43  F   UNL A   1      42.602  33.776  28.748  1.00  0.00    -0.205 F 
ATOM     44  C   UNL A   1      44.951  35.303  26.464  1.00  0.00     0.022 A 
BRANCH  42  45
ATOM     45  S   UNL A   1      42.795  36.531  27.628  1.00  0.00     0.127 S 
ATOM     46  O   UNL A   1      41.473  36.007  27.301  1.00  0.00    -0.237 OA
ATOM     47  O   UNL A   1      43.045  36.744  29.054  1.00  0.00    -0.237 OA
ATOM     48  O   UNL A   1      43.293  37.600  26.770  1.00  0.00    -0.744 OA
ENDBRANCH  42  45
ENDBRANCH  24  38
BRANCH  25  49
ATOM     49  C   UNL A   1      36.931  31.666  31.363  1.00  0.00     0.023 A 
ATOM     50  C   UNL A   1      36.224  32.164  32.477  1.00  0.00     0.012 A 
ATOM     51  C   UNL A   1      36.396  31.905  30.077  1.00  0.00     0.148 A 
ATOM     52  C   UNL A   1      35.035  32.890  32.312  1.00  0.00     0.002 A 
ATOM     53  C   UNL A   1      35.209  32.613  29.918  1.00  0.00     0.091 A 
ATOM     54  F   UNL A   1      37.101  31.522  29.004  1.00  0.00    -0.205 F 
ATOM     55  C   UNL A   1      34.530  33.117  31.034  1.00  0.00     0.022 A 
BRANCH  53  56
ATOM     56  S   UNL A   1      34.509  32.954  28.298  1.00  0.00     0.127 S 
ATOM     57  O   UNL A   1      33.384  33.827  28.633  1.00  0.00    -0.237 OA
ATOM     58  O   UNL A   1      35.619  33.619  27.621  1.00  0.00    -0.237 OA
ATOM     59  O   UNL A   1      34.118  31.660  27.752  1.00  0.00    -0.744 OA
ENDBRANCH  53  56
ENDBRANCH  25  49
BRANCH  37  60
ATOM     60  C   UNL A   1      42.655  30.897  33.830  1.00  0.00     0.023 A 
ATOM     61  C   UNL A   1      42.709  31.507  35.101  1.00  0.00     0.012 A 
ATOM     62  C   UNL A   1      42.361  29.528  33.744  1.00  0.00     0.148 A 
ATOM     63  C   UNL A   1      42.493  30.759  36.262  1.00  0.00     0.002 A 
ATOM     64  C   UNL A   1      42.098  28.799  34.896  1.00  0.00     0.091 A 
ATOM     65  F   UNL A   1      42.304  28.968  32.526  1.00  0.00    -0.205 F 
ATOM     66  C   UNL A   1      42.173  29.408  36.159  1.00  0.00     0.022 A 
BRANCH  64  67
ATOM     67  S   UNL A   1      41.550  27.093  34.822  1.00  0.00     0.127 S 
ATOM     68  O   UNL A   1      41.244  26.810  36.222  1.00  0.00    -0.237 OA
ATOM     69  O   UNL A   1      40.381  27.179  33.945  1.00  0.00    -0.237 OA
ATOM     70  O   UNL A   1      42.662  26.337  34.258  1.00  0.00    -0.744 OA
ENDBRANCH  64  67
ENDBRANCH  37  60
ENDBRANCH  11  12
ENDBRANCH   4   6
ENDBRANCH   1   2
BRANCH   1  71
ATOM     71  C   UNL A   1      37.140  22.683  24.985  1.00  0.00     0.023 C 
BRANCH  71  72
ATOM     72  C   UNL A   1      35.987  21.771  25.411  1.00  0.00     0.023 C 
BRANCH  72  73
ATOM     73  C   UNL A   1      34.800  21.729  24.454  1.00  0.00     0.116 C 
BRANCH  73  74
ATOM     74  N   UNL A   1      33.530  21.830  25.151  1.00  0.00    -0.352 N 
ATOM     75  C   UNL A   1      32.400  21.071  24.998  1.00  0.00     0.251 C 
ATOM     76  H   UNL A   1      33.473  22.542  25.828  1.00  0.00     0.163 HD
ATOM     77  O   UNL A   1      31.348  21.390  25.535  1.00  0.00    -0.269 OA
BRANCH  75  78
ATOM     78  C   UNL A   1      32.435  19.851  24.170  1.00  0.00     0.045 A 
ATOM     79  C   UNL A   1      32.197  19.909  22.800  1.00  0.00     0.034 A 
ATOM     80  C   UNL A   1      32.816  18.654  24.779  1.00  0.00     0.063 A 
ATOM     81  C   UNL A   1      32.346  18.742  22.080  1.00  0.00     0.114 A 
ATOM     82  C   UNL A   1      32.960  17.535  23.970  1.00  0.00     0.157 A 
ATOM     83  N   UNL A   1      32.738  17.573  22.628  1.00  0.00    -0.237 NA
BRANCH  82  84
ATOM     84  N   UNL A   1      33.376  16.308  24.545  1.00  0.00    -0.182 N 
ATOM     85  C   UNL A   1      32.628  15.353  25.185  1.00  0.00     0.254 A 
ATOM     86  N   UNL A   1      34.665  15.896  24.542  1.00  0.00    -0.039 NA
ATOM     87  N   UNL A   1      33.423  14.410  25.639  1.00  0.00    -0.117 NA
ATOM     88  N   UNL A   1      34.686  14.771  25.245  1.00  0.00    -0.024 NA
ENDBRANCH  82  84
ENDBRANCH  75  78
ENDBRANCH  73  74
ENDBRANCH  72  73
ENDBRANCH  71  72
ENDBRANCH   1  71
TORSDOF 15
ENDMDL
MODEL 3
REMARK VINA RESULT:     -12.4      5.053      9.873
REMARK SMILES O=C(NCCCCNC(=O)c1ccnc(-n2cnnn2)c1)c1ccc(-c2c3nc(c(-c4cccc(S(=O)(=O)[O-])c4F)c4ccc([nH]4)c(-c4cccc(S(=O)(=O)[O-])c4F)c4nc(c(-c5cccc(S(=O)(=O)[O-])c5F)c5ccc2[nH]5)C=C4)C=C3)cc1
REMARK SMILES IDX 4 1 3 2 1 3 2 4 22 6 23 7 84 8 24 9 83 10 25 11 26 12 27 13
REMARK SMILES IDX 77 14 28 15 82 16 76 17 78 18 29 19 81 20 75 21 74 22 30 24
REMARK SMILES IDX 62 25 42 26 61 27 43 28 46 29 60 30 79 31 44 32 45 33 59 35
REMARK SMILES IDX 80 36 47 37 31 38 32 39 40 40 33 41 35 42 41 43 34 44 36 45
REMARK SMILES IDX 37 46 38 47 39 48 63 49 64 50 72 51 65 52 67 53 73 54 66 55
REMARK SMILES IDX 68 56 69 57 70 58 71 59 48 60 49 61 57 62 50 63 52 64 58 65
REMARK SMILES IDX 51 66 53 67 54 68 55 69 56 70 5 71 6 72 7 73 8 74 9 75 10 77
REMARK SMILES IDX 11 78 12 79 21 80 13 81 15 82 14 83 16 84 17 85 20 86 18 87
REMARK SMILES IDX 19 88
REMARK H PARENT 3 5 78 23 46 34 8 76
REMARK Flexibility Score: inf
ROOT
ATOM      1  C   UNL A   1      36.885  22.257  25.264  1.00  0.00     0.116 C 
ENDROOT
BRANCH   1   2
ATOM      2  N   UNL A   1      38.153  21.569  25.354  1.00  0.00    -0.352 N 
ATOM      3  O   UNL A   1      40.115  20.848  26.055  1.00  0.00    -0.269 OA
ATOM      4  C   UNL A   1      39.296  21.770  26.080  1.00  0.00     0.251 C 
ATOM      5  H   UNL A   1      38.208  20.783  24.764  1.00  0.00     0.163 HD
BRANCH   4   6
ATOM      6  C   UNL A   1      39.637  23.029  26.794  1.00  0.00     0.039 A 
ATOM      7  C   UNL A   1      39.033  24.270  26.581  1.00  0.00     0.014 A 
ATOM      8  C   UNL A   1      40.705  22.944  27.704  1.00  0.00     0.014 A 
ATOM      9  C   UNL A   1      39.563  25.419  27.154  1.00  0.00     0.010 A 
ATOM     10  C   UNL A   1      41.224  24.083  28.299  1.00  0.00     0.010 A 
ATOM     11  C   UNL A   1      40.681  25.324  27.977  1.00  0.00    -0.014 A 
BRANCH  11  12
ATOM     12  C   UNL A   1      41.165  26.540  28.620  1.00  0.00     0.031 A 
ATOM     13  C   UNL A   1      42.523  26.969  28.167  1.00  0.00     0.074 A 
ATOM     14  C   UNL A   1      40.366  27.277  29.419  1.00  0.00     0.049 A 
ATOM     15  N   UNL A   1      43.574  27.226  28.880  1.00  0.00    -0.248 NA
ATOM     16  C   UNL A   1      42.777  26.981  26.715  1.00  0.00     0.031 C 
ATOM     17  C   UNL A   1      38.938  27.065  29.680  1.00  0.00     0.029 A 
ATOM     18  N   UNL A   1      40.614  28.471  30.029  1.00  0.00    -0.354 N 
ATOM     19  C   UNL A   1      44.549  27.651  27.973  1.00  0.00     0.074 A 
ATOM     20  C   UNL A   1      44.068  27.303  26.666  1.00  0.00     0.031 C 
ATOM     21  C   UNL A   1      38.397  28.213  30.143  1.00  0.00     0.029 A 
ATOM     22  C   UNL A   1      39.455  29.191  30.320  1.00  0.00     0.049 A 
ATOM     23  H   UNL A   1      41.519  28.792  30.244  1.00  0.00     0.167 HD
ATOM     24  C   UNL A   1      45.557  28.488  28.344  1.00  0.00     0.034 A 
ATOM     25  C   UNL A   1      39.364  30.522  30.570  1.00  0.00     0.034 A 
ATOM     26  C   UNL A   1      45.769  28.454  29.766  1.00  0.00     0.049 A 
ATOM     27  C   UNL A   1      40.716  31.003  30.927  1.00  0.00     0.074 A 
ATOM     28  C   UNL A   1      46.116  27.483  30.684  1.00  0.00     0.029 A 
ATOM     29  N   UNL A   1      45.274  29.504  30.498  1.00  0.00    -0.354 N 
ATOM     30  N   UNL A   1      41.348  30.640  32.007  1.00  0.00    -0.248 NA
ATOM     31  C   UNL A   1      41.546  31.540  29.860  1.00  0.00     0.031 C 
ATOM     32  C   UNL A   1      45.364  27.802  31.852  1.00  0.00     0.029 A 
ATOM     33  C   UNL A   1      44.654  28.977  31.596  1.00  0.00     0.049 A 
ATOM     34  H   UNL A   1      45.352  30.459  30.274  1.00  0.00     0.167 HD
ATOM     35  C   UNL A   1      42.661  30.468  31.592  1.00  0.00     0.074 A 
ATOM     36  C   UNL A   1      42.742  31.134  30.293  1.00  0.00     0.031 C 
ATOM     37  C   UNL A   1      43.477  29.557  32.199  1.00  0.00     0.034 A 
BRANCH  24  38
ATOM     38  C   UNL A   1      46.071  29.642  27.499  1.00  0.00     0.023 A 
ATOM     39  C   UNL A   1      47.474  29.827  27.454  1.00  0.00     0.012 A 
ATOM     40  C   UNL A   1      45.277  30.713  27.024  1.00  0.00     0.148 A 
ATOM     41  C   UNL A   1      48.047  31.043  27.063  1.00  0.00     0.002 A 
ATOM     42  C   UNL A   1      45.853  31.898  26.578  1.00  0.00     0.091 A 
ATOM     43  F   UNL A   1      43.947  30.658  27.108  1.00  0.00    -0.205 F 
ATOM     44  C   UNL A   1      47.235  32.082  26.631  1.00  0.00     0.022 A 
BRANCH  42  45
ATOM     45  S   UNL A   1      44.850  33.264  25.979  1.00  0.00     0.127 S 
ATOM     46  O   UNL A   1      43.965  32.582  25.039  1.00  0.00    -0.237 OA
ATOM     47  O   UNL A   1      44.210  33.727  27.211  1.00  0.00    -0.237 OA
ATOM     48  O   UNL A   1      45.789  34.217  25.402  1.00  0.00    -0.744 OA
ENDBRANCH  42  45
ENDBRANCH  24  38
BRANCH  25  49
ATOM     49  C   UNL A   1      38.275  31.461  30.205  1.00  0.00     0.023 A 
ATOM     50  C   UNL A   1      37.796  31.504  28.879  1.00  0.00     0.012 A 
ATOM     51  C   UNL A   1      37.523  32.120  31.204  1.00  0.00     0.148 A 
ATOM     52  C   UNL A   1      36.600  32.167  28.566  1.00  0.00     0.002 A 
ATOM     53  C   UNL A   1      36.346  32.788  30.886  1.00  0.00     0.091 A 
ATOM     54  F   UNL A   1      37.913  32.010  32.481  1.00  0.00    -0.205 F 
ATOM     55  C   UNL A   1      35.874  32.805  29.568  1.00  0.00     0.022 A 
BRANCH  53  56
ATOM     56  S   UNL A   1      35.353  33.621  32.132  1.00  0.00     0.127 S 
ATOM     57  O   UNL A   1      35.157  32.559  33.120  1.00  0.00    -0.237 OA
ATOM     58  O   UNL A   1      36.242  34.698  32.558  1.00  0.00    -0.237 OA
ATOM     59  O   UNL A   1      34.131  34.038  31.455  1.00  0.00    -0.744 OA
ENDBRANCH  53  56
ENDBRANCH  25  49
BRANCH  37  60
ATOM     60  C   UNL A   1      42.993  28.904  33.468  1.00  0.00     0.023 A 
ATOM     61  C   UNL A   1      42.034  27.869  33.466  1.00  0.00     0.012 A 
ATOM     62  C   UNL A   1      43.662  29.210  34.662  1.00  0.00     0.148 A 
ATOM     63  C   UNL A   1      41.737  27.168  34.638  1.00  0.00     0.002 A 
ATOM     64  C   UNL A   1      43.400  28.479  35.814  1.00  0.00     0.091 A 
ATOM     65  F   UNL A   1      44.577  30.191  34.642  1.00  0.00    -0.205 F 
ATOM     66  C   UNL A   1      42.431  27.464  35.809  1.00  0.00     0.022 A 
BRANCH  64  67
ATOM     67  S   UNL A   1      44.352  28.720  37.314  1.00  0.00     0.127 S 
ATOM     68  O   UNL A   1      45.721  28.759  36.802  1.00  0.00    -0.237 OA
ATOM     69  O   UNL A   1      43.845  30.002  37.804  1.00  0.00    -0.237 OA
ATOM     70  O   UNL A   1      44.039  27.587  38.176  1.00  0.00    -0.744 OA
ENDBRANCH  64  67
ENDBRANCH  37  60
ENDBRANCH  11  12
ENDBRANCH   4   6
ENDBRANCH   1   2
BRANCH   1  71
ATOM     71  C   UNL A   1      36.602  22.897  23.905  1.00  0.00     0.023 C 
BRANCH  71  72
ATOM     72  C   UNL A   1      35.173  23.412  23.713  1.00  0.00     0.023 C 
BRANCH  72  73
ATOM     73  C   UNL A   1      34.129  22.345  23.404  1.00  0.00     0.116 C 
BRANCH  73  74
ATOM     74  N   UNL A   1      33.155  22.203  24.471  1.00  0.00    -0.352 N 
ATOM     75  C   UNL A   1      32.270  21.184  24.702  1.00  0.00     0.251 C 
ATOM     76  H   UNL A   1      33.128  22.942  25.121  1.00  0.00     0.163 HD
ATOM     77  O   UNL A   1      31.390  21.290  25.544  1.00  0.00    -0.269 OA
BRANCH  75  78
ATOM     78  C   UNL A   1      32.362  19.935  23.923  1.00  0.00     0.045 A 
ATOM     79  C   UNL A   1      32.113  19.925  22.554  1.00  0.00     0.034 A 
ATOM     80  C   UNL A   1      32.806  18.784  24.576  1.00  0.00     0.063 A 
ATOM     81  C   UNL A   1      32.316  18.740  21.879  1.00  0.00     0.114 A 
ATOM     82  C   UNL A   1      33.002  17.642  23.812  1.00  0.00     0.157 A 
ATOM     83  N   UNL A   1      32.770  17.614  22.471  1.00  0.00    -0.237 NA
BRANCH  82  84
ATOM     84  N   UNL A   1      33.484  16.462  24.431  1.00  0.00    -0.182 N 
ATOM     85  C   UNL A   1      32.782  15.470  25.069  1.00  0.00     0.254 A 
ATOM     86  N   UNL A   1      34.798  16.144  24.484  1.00  0.00    -0.039 NA
ATOM     87  N   UNL A   1      33.626  14.598  25.574  1.00  0.00    -0.117 NA
ATOM     88  N   UNL A   1      34.873  15.039  25.216  1.00  0.00    -0.024 NA
ENDBRANCH  82  84
ENDBRANCH  75  78
ENDBRANCH  73  74
ENDBRANCH  72  73
ENDBRANCH  71  72
ENDBRANCH   1  71
TORSDOF 15
ENDMDL
