MODEL 1
REMARK VINA RESULT:     -11.3      0.000      0.000
REMARK SMILES CC[NH2+][C@@]1(C(=O)NCCCCNC(=O)c2ccc(-c3c4nc(c(-c5cccc(S(=O)(=O)[O-])c5F)c5ccc([nH]5)c(-c5cccc(S(=O)(=O)[O-])c5F)c5nc(c(-c6cccc(S(=O)(=O)[O-])c6F)c6ccc3[nH]6)C=C5)C=C4)cc2)CC[C@@H](Oc2cccc(OC)c2)C1
REMARK SMILES IDX 9 1 8 2 7 3 5 4 6 5 4 7 78 8 90 9 79 10 80 11 3 12 2 15 1 16
REMARK SMILES IDX 81 17 82 18 83 19 89 20 84 21 86 22 85 23 87 24 88 25 10 26
REMARK SMILES IDX 11 27 12 28 13 29 14 31 15 32 16 33 77 34 17 35 76 36 18 37
REMARK SMILES IDX 19 38 20 39 70 40 21 41 75 42 69 43 71 44 22 45 74 46 68 47
REMARK SMILES IDX 67 48 23 50 55 51 35 52 54 53 36 54 39 55 53 56 72 57 37 58
REMARK SMILES IDX 38 59 52 61 73 62 40 63 24 64 25 65 33 66 26 67 28 68 34 69
REMARK SMILES IDX 27 70 29 71 30 72 31 73 32 74 56 75 57 76 65 77 58 78 60 79
REMARK SMILES IDX 66 80 59 81 61 82 62 83 63 84 64 85 41 86 42 87 50 88 43 89
REMARK SMILES IDX 45 90 51 91 44 92 46 93 47 94 48 95 49 96
REMARK H PARENT 7 6 3 13 3 14 12 30 71 49 39 60
REMARK Flexibility Score: inf
ROOT
ATOM      1  C   UNL A   1      31.052  30.817  25.120  1.00  0.00     0.023 C 
ENDROOT
BRANCH   1   2
ATOM      2  C   UNL A   1      30.898  29.395  24.584  1.00  0.00     0.116 C 
BRANCH   2   3
ATOM      3  N   UNL A   1      31.694  28.449  25.331  1.00  0.00    -0.351 N 
ATOM      4  C   UNL A   1      32.109  27.177  25.076  1.00  0.00     0.281 C 
ATOM      5  O   UNL A   1      32.699  26.634  26.019  1.00  0.00    -0.268 OA
ATOM      6  H   UNL A   1      31.996  28.793  26.203  1.00  0.00     0.163 HD
BRANCH   4   7
ATOM      7  C   UNL A   1      31.827  26.426  23.714  1.00  0.00     0.179 C 
ATOM      8  C   UNL A   1      30.395  25.884  23.552  1.00  0.00     0.083 C 
ATOM      9  C   UNL A   1      32.772  25.209  23.601  1.00  0.00     0.124 C 
ATOM     10  C   UNL A   1      30.469  24.373  23.359  1.00  0.00     0.052 C 
ATOM     11  C   UNL A   1      31.910  23.948  23.640  1.00  0.00     0.180 C 
BRANCH   7  12
ATOM     12  N   UNL A   1      32.166  27.324  22.564  1.00  0.00    -0.334 N 
ATOM     13  H   UNL A   1      31.598  27.040  21.765  1.00  0.00     0.347 HD
ATOM     14  H   UNL A   1      31.977  28.274  22.883  1.00  0.00     0.347 HD
BRANCH  12  15
ATOM     15  C   UNL A   1      33.571  27.310  22.147  1.00  0.00     0.257 C 
ATOM     16  C   UNL A   1      34.240  28.601  22.593  1.00  0.00     0.071 C 
ENDBRANCH  12  15
ENDBRANCH   7  12
BRANCH  11  17
ATOM     17  O   UNL A   1      32.442  22.840  22.892  1.00  0.00    -0.490 OA
BRANCH  17  18
ATOM     18  C   UNL A   1      32.969  21.829  23.643  1.00  0.00     0.123 A 
ATOM     19  C   UNL A   1      34.278  21.948  24.104  1.00  0.00     0.047 A 
ATOM     20  C   UNL A   1      32.228  20.679  23.902  1.00  0.00     0.092 A 
ATOM     21  C   UNL A   1      34.813  20.950  24.915  1.00  0.00     0.008 A 
ATOM     22  C   UNL A   1      32.744  19.693  24.739  1.00  0.00     0.122 A 
ATOM     23  C   UNL A   1      34.040  19.833  25.242  1.00  0.00     0.046 A 
BRANCH  22  24
ATOM     24  O   UNL A   1      32.081  18.559  25.127  1.00  0.00    -0.497 OA
ATOM     25  C   UNL A   1      32.683  17.322  24.751  1.00  0.00     0.278 C 
ENDBRANCH  22  24
ENDBRANCH  17  18
ENDBRANCH  11  17
ENDBRANCH   4   7
ENDBRANCH   2   3
ENDBRANCH   1   2
BRANCH   1  26
ATOM     26  C   UNL A   1      31.357  30.906  26.614  1.00  0.00     0.023 C 
BRANCH  26  27
ATOM     27  C   UNL A   1      32.751  31.415  26.957  1.00  0.00     0.116 C 
BRANCH  27  28
ATOM     28  N   UNL A   1      32.794  32.820  27.348  1.00  0.00    -0.352 N 
ATOM     29  C   UNL A   1      33.802  33.468  28.025  1.00  0.00     0.251 C 
ATOM     30  H   UNL A   1      32.014  33.367  27.099  1.00  0.00     0.163 HD
ATOM     31  O   UNL A   1      33.686  34.643  28.356  1.00  0.00    -0.269 OA
BRANCH  29  32
ATOM     32  C   UNL A   1      35.005  32.695  28.388  1.00  0.00     0.039 A 
ATOM     33  C   UNL A   1      36.251  33.323  28.344  1.00  0.00     0.014 A 
ATOM     34  C   UNL A   1      34.874  31.395  28.880  1.00  0.00     0.014 A 
ATOM     35  C   UNL A   1      37.364  32.669  28.872  1.00  0.00     0.010 A 
ATOM     36  C   UNL A   1      35.967  30.779  29.475  1.00  0.00     0.010 A 
ATOM     37  C   UNL A   1      37.221  31.409  29.479  1.00  0.00    -0.014 A 
BRANCH  37  38
ATOM     38  C   UNL A   1      38.362  30.736  30.144  1.00  0.00     0.031 A 
ATOM     39  C   UNL A   1      38.745  31.118  31.545  1.00  0.00     0.074 A 
ATOM     40  C   UNL A   1      39.115  29.859  29.450  1.00  0.00     0.049 A 
ATOM     41  N   UNL A   1      39.743  30.693  32.273  1.00  0.00    -0.248 NA
ATOM     42  C   UNL A   1      37.917  32.143  32.204  1.00  0.00     0.031 C 
ATOM     43  C   UNL A   1      38.897  29.472  28.054  1.00  0.00     0.029 A 
ATOM     44  N   UNL A   1      40.232  29.152  29.819  1.00  0.00    -0.354 N 
ATOM     45  C   UNL A   1      39.690  31.423  33.453  1.00  0.00     0.074 A 
ATOM     46  C   UNL A   1      38.586  32.349  33.328  1.00  0.00     0.031 C 
ATOM     47  C   UNL A   1      39.835  28.582  27.693  1.00  0.00     0.029 A 
ATOM     48  C   UNL A   1      40.734  28.353  28.818  1.00  0.00     0.049 A 
ATOM     49  H   UNL A   1      40.635  29.212  30.715  1.00  0.00     0.167 HD
ATOM     50  C   UNL A   1      40.464  31.310  34.557  1.00  0.00     0.034 A 
ATOM     51  C   UNL A   1      41.795  27.523  28.815  1.00  0.00     0.034 A 
ATOM     52  C   UNL A   1      41.518  30.343  34.700  1.00  0.00     0.049 A 
ATOM     53  C   UNL A   1      42.608  27.374  30.074  1.00  0.00     0.074 A 
ATOM     54  C   UNL A   1      42.291  30.069  35.814  1.00  0.00     0.029 A 
ATOM     55  N   UNL A   1      41.947  29.491  33.695  1.00  0.00    -0.354 N 
ATOM     56  N   UNL A   1      42.438  27.950  31.239  1.00  0.00    -0.248 NA
ATOM     57  C   UNL A   1      43.739  26.435  30.026  1.00  0.00     0.031 C 
ATOM     58  C   UNL A   1      43.193  29.055  35.479  1.00  0.00     0.029 A 
ATOM     59  C   UNL A   1      42.978  28.692  34.159  1.00  0.00     0.049 A 
ATOM     60  H   UNL A   1      41.573  29.458  32.785  1.00  0.00     0.167 HD
ATOM     61  C   UNL A   1      43.412  27.418  32.074  1.00  0.00     0.074 A 
ATOM     62  C   UNL A   1      44.162  26.461  31.283  1.00  0.00     0.031 C 
ATOM     63  C   UNL A   1      43.674  27.704  33.373  1.00  0.00     0.034 A 
BRANCH  50  64
ATOM     64  C   UNL A   1      40.142  32.211  35.719  1.00  0.00     0.023 A 
ATOM     65  C   UNL A   1      40.927  33.363  35.938  1.00  0.00     0.012 A 
ATOM     66  C   UNL A   1      39.069  31.935  36.586  1.00  0.00     0.148 A 
ATOM     67  C   UNL A   1      40.678  34.199  37.025  1.00  0.00     0.002 A 
ATOM     68  C   UNL A   1      38.800  32.796  37.644  1.00  0.00     0.091 A 
ATOM     69  F   UNL A   1      38.350  30.821  36.384  1.00  0.00    -0.205 F 
ATOM     70  C   UNL A   1      39.610  33.920  37.872  1.00  0.00     0.022 A 
BRANCH  68  71
ATOM     71  S   UNL A   1      37.398  32.549  38.740  1.00  0.00     0.127 S 
ATOM     72  O   UNL A   1      36.281  32.949  37.888  1.00  0.00    -0.237 OA
ATOM     73  O   UNL A   1      37.466  31.113  39.020  1.00  0.00    -0.237 OA
ATOM     74  O   UNL A   1      37.653  33.396  39.896  1.00  0.00    -0.744 OA
ENDBRANCH  68  71
ENDBRANCH  50  64
BRANCH  51  75
ATOM     75  C   UNL A   1      42.075  26.682  27.617  1.00  0.00     0.023 A 
ATOM     76  C   UNL A   1      42.744  27.265  26.523  1.00  0.00     0.012 A 
ATOM     77  C   UNL A   1      41.737  25.317  27.570  1.00  0.00     0.148 A 
ATOM     78  C   UNL A   1      43.051  26.509  25.391  1.00  0.00     0.002 A 
ATOM     79  C   UNL A   1      42.088  24.557  26.458  1.00  0.00     0.091 A 
ATOM     80  F   UNL A   1      41.094  24.785  28.619  1.00  0.00    -0.205 F 
ATOM     81  C   UNL A   1      42.733  25.154  25.363  1.00  0.00     0.022 A 
BRANCH  79  82
ATOM     82  S   UNL A   1      41.828  22.781  26.378  1.00  0.00     0.127 S 
ATOM     83  O   UNL A   1      42.529  22.321  27.574  1.00  0.00    -0.237 OA
ATOM     84  O   UNL A   1      40.369  22.686  26.443  1.00  0.00    -0.237 OA
ATOM     85  O   UNL A   1      42.401  22.358  25.107  1.00  0.00    -0.744 OA
ENDBRANCH  79  82
ENDBRANCH  51  75
BRANCH  63  86
ATOM     86  C   UNL A   1      44.800  26.959  34.039  1.00  0.00     0.023 A 
ATOM     87  C   UNL A   1      46.109  27.475  33.972  1.00  0.00     0.012 A 
ATOM     88  C   UNL A   1      44.550  25.798  34.796  1.00  0.00     0.148 A 
ATOM     89  C   UNL A   1      47.157  26.834  34.631  1.00  0.00     0.002 A 
ATOM     90  C   UNL A   1      45.591  25.189  35.486  1.00  0.00     0.091 A 
ATOM     91  F   UNL A   1      43.301  25.311  34.827  1.00  0.00    -0.205 F 
ATOM     92  C   UNL A   1      46.896  25.699  35.397  1.00  0.00     0.022 A 
BRANCH  90  93
ATOM     93  S   UNL A   1      45.325  23.781  36.570  1.00  0.00     0.127 S 
ATOM     94  O   UNL A   1      46.695  23.403  36.911  1.00  0.00    -0.237 OA
ATOM     95  O   UNL A   1      44.562  24.371  37.670  1.00  0.00    -0.237 OA
ATOM     96  O   UNL A   1      44.582  22.808  35.779  1.00  0.00    -0.744 OA
ENDBRANCH  90  93
ENDBRANCH  63  86
ENDBRANCH  37  38
ENDBRANCH  29  32
ENDBRANCH  27  28
ENDBRANCH  26  27
ENDBRANCH   1  26
TORSDOF 19
ENDMDL
MODEL 2
REMARK VINA RESULT:     -11.2      2.597      3.272
REMARK SMILES CC[NH2+][C@@]1(C(=O)NCCCCNC(=O)c2ccc(-c3c4nc(c(-c5cccc(S(=O)(=O)[O-])c5F)c5ccc([nH]5)c(-c5cccc(S(=O)(=O)[O-])c5F)c5nc(c(-c6cccc(S(=O)(=O)[O-])c6F)c6ccc3[nH]6)C=C5)C=C4)cc2)CC[C@@H](Oc2cccc(OC)c2)C1
REMARK SMILES IDX 9 1 8 2 7 3 5 4 6 5 4 7 78 8 90 9 79 10 80 11 3 12 2 15 1 16
REMARK SMILES IDX 81 17 82 18 83 19 89 20 84 21 86 22 85 23 87 24 88 25 10 26
REMARK SMILES IDX 11 27 12 28 13 29 14 31 15 32 16 33 77 34 17 35 76 36 18 37
REMARK SMILES IDX 19 38 20 39 70 40 21 41 75 42 69 43 71 44 22 45 74 46 68 47
REMARK SMILES IDX 67 48 23 50 55 51 35 52 54 53 36 54 39 55 53 56 72 57 37 58
REMARK SMILES IDX 38 59 52 61 73 62 40 63 24 64 25 65 33 66 26 67 28 68 34 69
REMARK SMILES IDX 27 70 29 71 30 72 31 73 32 74 56 75 57 76 65 77 58 78 60 79
REMARK SMILES IDX 66 80 59 81 61 82 62 83 63 84 64 85 41 86 42 87 50 88 43 89
REMARK SMILES IDX 45 90 51 91 44 92 46 93 47 94 48 95 49 96
REMARK H PARENT 7 6 3 13 3 14 12 30 71 49 39 60
REMARK Flexibility Score: inf
ROOT
ATOM      1  C   UNL A   1      31.651  29.232  25.864  1.00  0.00     0.023 C 
ENDROOT
BRANCH   1   2
ATOM      2  C   UNL A   1      31.880  28.107  24.855  1.00  0.00     0.116 C 
BRANCH   2   3
ATOM      3  N   UNL A   1      30.655  27.406  24.544  1.00  0.00    -0.351 N 
ATOM      4  C   UNL A   1      30.350  26.086  24.404  1.00  0.00     0.281 C 
ATOM      5  O   UNL A   1      29.194  25.868  24.021  1.00  0.00    -0.268 OA
ATOM      6  H   UNL A   1      29.886  28.004  24.404  1.00  0.00     0.163 HD
BRANCH   4   7
ATOM      7  C   UNL A   1      31.387  24.920  24.658  1.00  0.00     0.179 C 
ATOM      8  C   UNL A   1      32.419  25.196  25.768  1.00  0.00     0.083 C 
ATOM      9  C   UNL A   1      32.191  24.667  23.364  1.00  0.00     0.124 C 
ATOM     10  C   UNL A   1      33.815  25.125  25.158  1.00  0.00     0.052 C 
ATOM     11  C   UNL A   1      33.645  25.046  23.641  1.00  0.00     0.180 C 
BRANCH   7  12
ATOM     12  N   UNL A   1      30.653  23.647  24.949  1.00  0.00    -0.334 N 
ATOM     13  H   UNL A   1      29.654  23.851  24.939  1.00  0.00     0.347 HD
ATOM     14  H   UNL A   1      30.943  22.985  24.229  1.00  0.00     0.347 HD
BRANCH  12  15
ATOM     15  C   UNL A   1      30.974  23.015  26.232  1.00  0.00     0.257 C 
ATOM     16  C   UNL A   1      29.721  22.960  27.092  1.00  0.00     0.071 C 
ENDBRANCH  12  15
ENDBRANCH   7  12
BRANCH  11  17
ATOM     17  O   UNL A   1      34.611  24.284  22.895  1.00  0.00    -0.490 OA
BRANCH  17  18
ATOM     18  C   UNL A   1      35.097  23.176  23.529  1.00  0.00     0.123 A 
ATOM     19  C   UNL A   1      36.468  23.080  23.755  1.00  0.00     0.047 A 
ATOM     20  C   UNL A   1      34.243  22.141  23.900  1.00  0.00     0.092 A 
ATOM     21  C   UNL A   1      36.973  21.982  24.448  1.00  0.00     0.008 A 
ATOM     22  C   UNL A   1      34.736  21.057  24.622  1.00  0.00     0.122 A 
ATOM     23  C   UNL A   1      36.105  20.982  24.892  1.00  0.00     0.046 A 
BRANCH  22  24
ATOM     24  O   UNL A   1      33.983  20.021  25.106  1.00  0.00    -0.497 OA
ATOM     25  C   UNL A   1      32.806  19.703  24.366  1.00  0.00     0.278 C 
ENDBRANCH  22  24
ENDBRANCH  17  18
ENDBRANCH  11  17
ENDBRANCH   4   7
ENDBRANCH   2   3
ENDBRANCH   1   2
BRANCH   1  26
ATOM     26  C   UNL A   1      32.500  29.137  27.129  1.00  0.00     0.023 C 
BRANCH  26  27
ATOM     27  C   UNL A   1      33.790  29.948  27.102  1.00  0.00     0.116 C 
BRANCH  27  28
ATOM     28  N   UNL A   1      33.733  31.184  27.875  1.00  0.00    -0.352 N 
ATOM     29  C   UNL A   1      34.675  31.659  28.760  1.00  0.00     0.251 C 
ATOM     30  H   UNL A   1      32.932  31.742  27.749  1.00  0.00     0.163 HD
ATOM     31  O   UNL A   1      34.476  32.685  29.402  1.00  0.00    -0.269 OA
BRANCH  29  32
ATOM     32  C   UNL A   1      35.908  30.873  28.953  1.00  0.00     0.039 A 
ATOM     33  C   UNL A   1      37.100  31.335  28.393  1.00  0.00     0.014 A 
ATOM     34  C   UNL A   1      35.893  29.749  29.782  1.00  0.00     0.014 A 
ATOM     35  C   UNL A   1      38.301  30.712  28.733  1.00  0.00     0.010 A 
ATOM     36  C   UNL A   1      37.096  29.181  30.181  1.00  0.00     0.010 A 
ATOM     37  C   UNL A   1      38.310  29.657  29.662  1.00  0.00    -0.014 A 
BRANCH  37  38
ATOM     38  C   UNL A   1      39.579  29.045  30.125  1.00  0.00     0.031 A 
ATOM     39  C   UNL A   1      40.265  29.580  31.350  1.00  0.00     0.074 A 
ATOM     40  C   UNL A   1      40.163  28.082  29.385  1.00  0.00     0.049 A 
ATOM     41  N   UNL A   1      41.407  29.223  31.878  1.00  0.00    -0.248 NA
ATOM     42  C   UNL A   1      39.598  30.687  32.055  1.00  0.00     0.031 C 
ATOM     43  C   UNL A   1      39.639  27.541  28.130  1.00  0.00     0.029 A 
ATOM     44  N   UNL A   1      41.341  27.403  29.571  1.00  0.00    -0.354 N 
ATOM     45  C   UNL A   1      41.614  30.086  32.946  1.00  0.00     0.074 A 
ATOM     46  C   UNL A   1      40.502  31.009  32.968  1.00  0.00     0.031 C 
ATOM     47  C   UNL A   1      40.479  26.599  27.671  1.00  0.00     0.029 A 
ATOM     48  C   UNL A   1      41.612  26.487  28.583  1.00  0.00     0.049 A 
ATOM     49  H   UNL A   1      41.936  27.559  30.340  1.00  0.00     0.167 HD
ATOM     50  C   UNL A   1      42.620  30.086  33.853  1.00  0.00     0.034 A 
ATOM     51  C   UNL A   1      42.653  25.643  28.436  1.00  0.00     0.034 A 
ATOM     52  C   UNL A   1      43.687  29.125  33.865  1.00  0.00     0.049 A 
ATOM     53  C   UNL A   1      43.731  25.626  29.487  1.00  0.00     0.074 A 
ATOM     54  C   UNL A   1      44.695  28.968  34.800  1.00  0.00     0.029 A 
ATOM     55  N   UNL A   1      43.886  28.156  32.894  1.00  0.00    -0.354 N 
ATOM     56  N   UNL A   1      43.823  26.335  30.586  1.00  0.00    -0.248 NA
ATOM     57  C   UNL A   1      44.830  24.669  29.294  1.00  0.00     0.031 C 
ATOM     58  C   UNL A   1      45.508  27.906  34.388  1.00  0.00     0.029 A 
ATOM     59  C   UNL A   1      45.003  27.398  33.202  1.00  0.00     0.049 A 
ATOM     60  H   UNL A   1      43.316  28.025  32.102  1.00  0.00     0.167 HD
ATOM     61  C   UNL A   1      44.966  25.885  31.235  1.00  0.00     0.074 A 
ATOM     62  C   UNL A   1      45.526  24.832  30.411  1.00  0.00     0.031 C 
ATOM     63  C   UNL A   1      45.512  26.314  32.400  1.00  0.00     0.034 A 
BRANCH  50  64
ATOM     64  C   UNL A   1      42.560  31.120  34.945  1.00  0.00     0.023 A 
ATOM     65  C   UNL A   1      41.949  30.793  36.174  1.00  0.00     0.012 A 
ATOM     66  C   UNL A   1      43.111  32.404  34.770  1.00  0.00     0.148 A 
ATOM     67  C   UNL A   1      41.846  31.738  37.193  1.00  0.00     0.002 A 
ATOM     68  C   UNL A   1      43.041  33.328  35.807  1.00  0.00     0.091 A 
ATOM     69  F   UNL A   1      43.661  32.712  33.587  1.00  0.00    -0.205 F 
ATOM     70  C   UNL A   1      42.399  33.002  37.013  1.00  0.00     0.022 A 
BRANCH  68  71
ATOM     71  S   UNL A   1      43.793  34.955  35.682  1.00  0.00     0.127 S 
ATOM     72  O   UNL A   1      43.014  35.560  34.604  1.00  0.00    -0.237 OA
ATOM     73  O   UNL A   1      43.540  35.522  37.008  1.00  0.00    -0.237 OA
ATOM     74  O   UNL A   1      45.199  34.714  35.394  1.00  0.00    -0.744 OA
ENDBRANCH  68  71
ENDBRANCH  50  64
BRANCH  51  75
ATOM     75  C   UNL A   1      42.662  24.666  27.312  1.00  0.00     0.023 A 
ATOM     76  C   UNL A   1      43.339  25.007  26.124  1.00  0.00     0.012 A 
ATOM     77  C   UNL A   1      42.060  23.398  27.421  1.00  0.00     0.148 A 
ATOM     78  C   UNL A   1      43.398  24.113  25.055  1.00  0.00     0.002 A 
ATOM     79  C   UNL A   1      42.163  22.493  26.369  1.00  0.00     0.091 A 
ATOM     80  F   UNL A   1      41.415  23.098  28.556  1.00  0.00    -0.205 F 
ATOM     81  C   UNL A   1      42.819  22.853  25.181  1.00  0.00     0.022 A 
BRANCH  79  82
ATOM     82  S   UNL A   1      41.555  20.806  26.482  1.00  0.00     0.127 S 
ATOM     83  O   UNL A   1      40.123  20.988  26.258  1.00  0.00    -0.237 OA
ATOM     84  O   UNL A   1      42.273  20.153  25.386  1.00  0.00    -0.237 OA
ATOM     85  O   UNL A   1      41.934  20.340  27.809  1.00  0.00    -0.744 OA
ENDBRANCH  79  82
ENDBRANCH  51  75
BRANCH  63  86
ATOM     86  C   UNL A   1      46.767  25.632  32.875  1.00  0.00     0.023 A 
ATOM     87  C   UNL A   1      48.022  26.157  32.515  1.00  0.00     0.012 A 
ATOM     88  C   UNL A   1      46.702  24.524  33.743  1.00  0.00     0.148 A 
ATOM     89  C   UNL A   1      49.197  25.577  32.993  1.00  0.00     0.002 A 
ATOM     90  C   UNL A   1      47.875  23.978  34.250  1.00  0.00     0.091 A 
ATOM     91  F   UNL A   1      45.497  24.026  34.055  1.00  0.00    -0.205 F 
ATOM     92  C   UNL A   1      49.122  24.496  33.869  1.00  0.00     0.022 A 
BRANCH  90  93
ATOM     93  S   UNL A   1      47.865  22.646  35.456  1.00  0.00     0.127 S 
ATOM     94  O   UNL A   1      49.285  22.522  35.776  1.00  0.00    -0.237 OA
ATOM     95  O   UNL A   1      47.044  23.203  36.532  1.00  0.00    -0.237 OA
ATOM     96  O   UNL A   1      47.269  21.502  34.779  1.00  0.00    -0.744 OA
ENDBRANCH  90  93
ENDBRANCH  63  86
ENDBRANCH  37  38
ENDBRANCH  29  32
ENDBRANCH  27  28
ENDBRANCH  26  27
ENDBRANCH   1  26
TORSDOF 19
ENDMDL
MODEL 3
REMARK VINA RESULT:     -11.2      2.113      7.953
REMARK SMILES CC[NH2+][C@@]1(C(=O)NCCCCNC(=O)c2ccc(-c3c4nc(c(-c5cccc(S(=O)(=O)[O-])c5F)c5ccc([nH]5)c(-c5cccc(S(=O)(=O)[O-])c5F)c5nc(c(-c6cccc(S(=O)(=O)[O-])c6F)c6ccc3[nH]6)C=C5)C=C4)cc2)CC[C@@H](Oc2cccc(OC)c2)C1
REMARK SMILES IDX 9 1 8 2 7 3 5 4 6 5 4 7 78 8 90 9 79 10 80 11 3 12 2 15 1 16
REMARK SMILES IDX 81 17 82 18 83 19 89 20 84 21 86 22 85 23 87 24 88 25 10 26
REMARK SMILES IDX 11 27 12 28 13 29 14 31 15 32 16 33 77 34 17 35 76 36 18 37
REMARK SMILES IDX 19 38 20 39 70 40 21 41 75 42 69 43 71 44 22 45 74 46 68 47
REMARK SMILES IDX 67 48 23 50 55 51 35 52 54 53 36 54 39 55 53 56 72 57 37 58
REMARK SMILES IDX 38 59 52 61 73 62 40 63 24 64 25 65 33 66 26 67 28 68 34 69
REMARK SMILES IDX 27 70 29 71 30 72 31 73 32 74 56 75 57 76 65 77 58 78 60 79
REMARK SMILES IDX 66 80 59 81 61 82 62 83 63 84 64 85 41 86 42 87 50 88 43 89
REMARK SMILES IDX 45 90 51 91 44 92 46 93 47 94 48 95 49 96
REMARK H PARENT 7 6 3 13 3 14 12 30 71 49 39 60
REMARK Flexibility Score: inf
ROOT
ATOM      1  C   UNL A   1      34.925  30.227  27.691  1.00  0.00     0.023 C 
ENDROOT
BRANCH   1   2
ATOM      2  C   UNL A   1      34.259  29.050  26.980  1.00  0.00     0.116 C 
BRANCH   2   3
ATOM      3  N   UNL A   1      33.010  28.681  27.605  1.00  0.00    -0.351 N 
ATOM      4  C   UNL A   1      32.009  27.827  27.250  1.00  0.00     0.281 C 
ATOM      5  O   UNL A   1      31.025  27.854  27.999  1.00  0.00    -0.268 OA
ATOM      6  H   UNL A   1      32.848  29.140  28.460  1.00  0.00     0.163 HD
BRANCH   4   7
ATOM      7  C   UNL A   1      32.063  26.909  25.964  1.00  0.00     0.179 C 
ATOM      8  C   UNL A   1      30.918  25.886  25.844  1.00  0.00     0.083 C 
ATOM      9  C   UNL A   1      33.377  26.097  25.976  1.00  0.00     0.124 C 
ATOM     10  C   UNL A   1      31.522  24.487  25.798  1.00  0.00     0.052 C 
ATOM     11  C   UNL A   1      33.008  24.622  26.129  1.00  0.00     0.180 C 
BRANCH   7  12
ATOM     12  N   UNL A   1      32.114  27.765  24.735  1.00  0.00    -0.334 N 
ATOM     13  H   UNL A   1      31.187  27.758  24.309  1.00  0.00     0.347 HD
ATOM     14  H   UNL A   1      32.414  28.688  25.048  1.00  0.00     0.347 HD
BRANCH  12  15
ATOM     15  C   UNL A   1      33.083  27.347  23.718  1.00  0.00     0.257 C 
ATOM     16  C   UNL A   1      33.849  28.565  23.225  1.00  0.00     0.071 C 
ENDBRANCH  12  15
ENDBRANCH   7  12
BRANCH  11  17
ATOM     17  O   UNL A   1      33.924  23.711  25.496  1.00  0.00    -0.490 OA
BRANCH  17  18
ATOM     18  C   UNL A   1      33.345  22.738  24.733  1.00  0.00     0.123 A 
ATOM     19  C   UNL A   1      33.065  23.012  23.396  1.00  0.00     0.047 A 
ATOM     20  C   UNL A   1      32.998  21.511  25.293  1.00  0.00     0.092 A 
ATOM     21  C   UNL A   1      32.524  22.013  22.590  1.00  0.00     0.008 A 
ATOM     22  C   UNL A   1      32.488  20.497  24.486  1.00  0.00     0.122 A 
ATOM     23  C   UNL A   1      32.251  20.755  23.133  1.00  0.00     0.046 A 
BRANCH  22  24
ATOM     24  O   UNL A   1      32.184  19.230  24.906  1.00  0.00    -0.497 OA
ATOM     25  C   UNL A   1      32.462  18.180  23.982  1.00  0.00     0.278 C 
ENDBRANCH  22  24
ENDBRANCH  17  18
ENDBRANCH  11  17
ENDBRANCH   4   7
ENDBRANCH   2   3
ENDBRANCH   1   2
BRANCH   1  26
ATOM     26  C   UNL A   1      34.410  31.601  27.269  1.00  0.00     0.023 C 
BRANCH  26  27
ATOM     27  C   UNL A   1      33.000  31.933  27.742  1.00  0.00     0.116 C 
BRANCH  27  28
ATOM     28  N   UNL A   1      32.681  33.356  27.712  1.00  0.00    -0.352 N 
ATOM     29  C   UNL A   1      33.274  34.361  28.442  1.00  0.00     0.251 C 
ATOM     30  H   UNL A   1      31.959  33.630  27.100  1.00  0.00     0.163 HD
ATOM     31  O   UNL A   1      32.865  35.515  28.376  1.00  0.00    -0.269 OA
BRANCH  29  32
ATOM     32  C   UNL A   1      34.384  34.002  29.346  1.00  0.00     0.039 A 
ATOM     33  C   UNL A   1      34.111  33.234  30.479  1.00  0.00     0.014 A 
ATOM     34  C   UNL A   1      35.696  34.330  29.000  1.00  0.00     0.014 A 
ATOM     35  C   UNL A   1      35.171  32.723  31.229  1.00  0.00     0.010 A 
ATOM     36  C   UNL A   1      36.749  33.756  29.701  1.00  0.00     0.010 A 
ATOM     37  C   UNL A   1      36.497  32.947  30.820  1.00  0.00    -0.014 A 
BRANCH  37  38
ATOM     38  C   UNL A   1      37.641  32.329  31.533  1.00  0.00     0.031 A 
ATOM     39  C   UNL A   1      38.418  31.220  30.883  1.00  0.00     0.074 A 
ATOM     40  C   UNL A   1      37.912  32.695  32.801  1.00  0.00     0.049 A 
ATOM     41  N   UNL A   1      39.407  30.513  31.364  1.00  0.00    -0.248 NA
ATOM     42  C   UNL A   1      38.005  30.827  29.525  1.00  0.00     0.031 C 
ATOM     43  C   UNL A   1      37.174  33.698  33.571  1.00  0.00     0.029 A 
ATOM     44  N   UNL A   1      38.870  32.246  33.675  1.00  0.00    -0.354 N 
ATOM     45  C   UNL A   1      39.705  29.569  30.390  1.00  0.00     0.074 A 
ATOM     46  C   UNL A   1      38.766  29.765  29.308  1.00  0.00     0.031 C 
ATOM     47  C   UNL A   1      37.720  33.805  34.793  1.00  0.00     0.029 A 
ATOM     48  C   UNL A   1      38.828  32.863  34.904  1.00  0.00     0.049 A 
ATOM     49  H   UNL A   1      39.525  31.549  33.444  1.00  0.00     0.167 HD
ATOM     50  C   UNL A   1      40.695  28.646  30.379  1.00  0.00     0.034 A 
ATOM     51  C   UNL A   1      39.603  32.693  35.993  1.00  0.00     0.034 A 
ATOM     52  C   UNL A   1      41.665  28.499  31.429  1.00  0.00     0.049 A 
ATOM     53  C   UNL A   1      40.732  31.698  35.935  1.00  0.00     0.074 A 
ATOM     54  C   UNL A   1      42.774  27.672  31.469  1.00  0.00     0.029 A 
ATOM     55  N   UNL A   1      41.643  29.198  32.626  1.00  0.00    -0.354 N 
ATOM     56  N   UNL A   1      41.106  30.931  34.939  1.00  0.00    -0.248 NA
ATOM     57  C   UNL A   1      41.566  31.570  37.140  1.00  0.00     0.031 C 
ATOM     58  C   UNL A   1      43.417  27.867  32.695  1.00  0.00     0.029 A 
ATOM     59  C   UNL A   1      42.714  28.819  33.416  1.00  0.00     0.049 A 
ATOM     60  H   UNL A   1      40.965  29.866  32.876  1.00  0.00     0.167 HD
ATOM     61  C   UNL A   1      42.239  30.258  35.381  1.00  0.00     0.074 A 
ATOM     62  C   UNL A   1      42.498  30.719  36.731  1.00  0.00     0.031 C 
ATOM     63  C   UNL A   1      42.990  29.332  34.734  1.00  0.00     0.034 A 
BRANCH  50  64
ATOM     64  C   UNL A   1      40.812  27.777  29.155  1.00  0.00     0.023 A 
ATOM     65  C   UNL A   1      40.085  26.569  29.093  1.00  0.00     0.012 A 
ATOM     66  C   UNL A   1      41.623  28.149  28.066  1.00  0.00     0.148 A 
ATOM     67  C   UNL A   1      40.199  25.725  27.989  1.00  0.00     0.002 A 
ATOM     68  C   UNL A   1      41.699  27.322  26.951  1.00  0.00     0.091 A 
ATOM     69  F   UNL A   1      42.332  29.285  28.151  1.00  0.00    -0.205 F 
ATOM     70  C   UNL A   1      40.999  26.106  26.916  1.00  0.00     0.022 A 
BRANCH  68  71
ATOM     71  S   UNL A   1      42.650  27.774  25.495  1.00  0.00     0.127 S 
ATOM     72  O   UNL A   1      42.505  26.581  24.665  1.00  0.00    -0.237 OA
ATOM     73  O   UNL A   1      41.931  28.950  25.001  1.00  0.00    -0.237 OA
ATOM     74  O   UNL A   1      43.994  28.054  25.979  1.00  0.00    -0.744 OA
ENDBRANCH  68  71
ENDBRANCH  50  64
BRANCH  51  75
ATOM     75  C   UNL A   1      39.412  33.567  37.184  1.00  0.00     0.023 A 
ATOM     76  C   UNL A   1      39.891  34.891  37.136  1.00  0.00     0.012 A 
ATOM     77  C   UNL A   1      38.724  33.125  38.329  1.00  0.00     0.148 A 
ATOM     78  C   UNL A   1      39.710  35.753  38.217  1.00  0.00     0.002 A 
ATOM     79  C   UNL A   1      38.506  34.004  39.385  1.00  0.00     0.091 A 
ATOM     80  F   UNL A   1      38.284  31.859  38.357  1.00  0.00    -0.205 F 
ATOM     81  C   UNL A   1      39.009  35.315  39.336  1.00  0.00     0.022 A 
BRANCH  79  82
ATOM     82  S   UNL A   1      37.512  33.569  40.818  1.00  0.00     0.127 S 
ATOM     83  O   UNL A   1      37.379  34.858  41.493  1.00  0.00    -0.237 OA
ATOM     84  O   UNL A   1      36.286  33.071  40.194  1.00  0.00    -0.237 OA
ATOM     85  O   UNL A   1      38.277  32.556  41.533  1.00  0.00    -0.744 OA
ENDBRANCH  79  82
ENDBRANCH  51  75
BRANCH  63  86
ATOM     86  C   UNL A   1      44.181  28.768  35.461  1.00  0.00     0.023 A 
ATOM     87  C   UNL A   1      45.450  29.347  35.268  1.00  0.00     0.012 A 
ATOM     88  C   UNL A   1      44.030  27.724  36.394  1.00  0.00     0.148 A 
ATOM     89  C   UNL A   1      46.556  28.880  35.976  1.00  0.00     0.002 A 
ATOM     90  C   UNL A   1      45.128  27.293  37.128  1.00  0.00     0.091 A 
ATOM     91  F   UNL A   1      42.817  27.172  36.546  1.00  0.00    -0.205 F 
ATOM     92  C   UNL A   1      46.393  27.862  36.914  1.00  0.00     0.022 A 
BRANCH  90  93
ATOM     93  S   UNL A   1      44.986  26.053  38.421  1.00  0.00     0.127 S 
ATOM     94  O   UNL A   1      46.368  25.943  38.883  1.00  0.00    -0.237 OA
ATOM     95  O   UNL A   1      44.075  26.693  39.371  1.00  0.00    -0.237 OA
ATOM     96  O   UNL A   1      44.441  24.867  37.775  1.00  0.00    -0.744 OA
ENDBRANCH  90  93
ENDBRANCH  63  86
ENDBRANCH  37  38
ENDBRANCH  29  32
ENDBRANCH  27  28
ENDBRANCH  26  27
ENDBRANCH   1  26
TORSDOF 19
ENDMDL
