MODEL 1
REMARK VINA RESULT:     -13.3      0.000      0.000
REMARK SMILES O=C(NCCCCNC(=O)c1ccc(N2C(=O)[C@@H]3N=NC(c4ccccc4)=C3[C@H]2c2cccc(Br)c2)cc1)c1ccc(-c2c3nc(c(-c4cccc(S(=O)(=O)[O-])c4F)c4ccc([nH]4)c(-c4cccc(S(=O)(=O)[O-])c4F)c4nc(c(-c5cccc(S(=O)(=O)[O-])c5F)c5ccc2[nH]5)C=C4)C=C3)cc1
REMARK SMILES IDX 5 1 4 2 3 3 1 4 2 5 39 7 40 8 101 9 41 10 100 11 42 12 43 13
REMARK SMILES IDX 44 14 94 15 45 16 99 17 93 18 95 19 46 20 98 21 92 22 91 23
REMARK SMILES IDX 47 25 79 26 59 27 78 28 60 29 63 30 77 31 96 32 61 33 62 34
REMARK SMILES IDX 76 36 97 37 64 38 48 39 49 40 57 41 50 42 52 43 58 44 51 45
REMARK SMILES IDX 53 46 54 47 55 48 56 49 80 50 81 51 89 52 82 53 84 54 90 55
REMARK SMILES IDX 83 56 85 57 86 58 87 59 88 60 65 61 66 62 74 63 67 64 69 65
REMARK SMILES IDX 75 66 68 67 70 68 71 69 72 70 73 71 6 72 7 73 8 74 9 75
REMARK SMILES IDX 10 77 11 78 12 79 38 80 13 81 37 82 14 83 15 84 16 85 29 86
REMARK SMILES IDX 18 87 17 88 28 89 19 90 21 91 20 92 30 93 31 94 36 95 32 96
REMARK SMILES IDX 34 97 33 98 35 99 22 100 23 101 27 102 24 103 26 104 25 105
REMARK H PARENT 3 6 95 24 63 35 8 76
REMARK Flexibility Score: inf
ROOT
ATOM      1  C   UNL A   1      32.882  30.397  27.138  1.00  0.00     0.023 C 
ENDROOT
BRANCH   1   2
ATOM      2  C   UNL A   1      34.340  30.540  27.571  1.00  0.00     0.116 C 
BRANCH   2   3
ATOM      3  N   UNL A   1      34.557  31.382  28.729  1.00  0.00    -0.352 N 
ATOM      4  O   UNL A   1      35.445  32.575  30.351  1.00  0.00    -0.269 OA
ATOM      5  C   UNL A   1      35.606  31.627  29.575  1.00  0.00     0.251 C 
ATOM      6  H   UNL A   1      33.757  31.904  28.967  1.00  0.00     0.163 HD
BRANCH   5   7
ATOM      7  C   UNL A   1      36.867  30.834  29.663  1.00  0.00     0.039 A 
ATOM      8  C   UNL A   1      38.151  31.309  29.401  1.00  0.00     0.014 A 
ATOM      9  C   UNL A   1      36.720  29.483  30.042  1.00  0.00     0.014 A 
ATOM     10  C   UNL A   1      39.249  30.447  29.467  1.00  0.00     0.010 A 
ATOM     11  C   UNL A   1      37.812  28.619  30.113  1.00  0.00     0.010 A 
ATOM     12  C   UNL A   1      39.081  29.099  29.808  1.00  0.00    -0.014 A 
BRANCH  12  13
ATOM     13  C   UNL A   1      40.279  28.284  30.003  1.00  0.00     0.031 A 
ATOM     14  C   UNL A   1      40.837  28.317  31.383  1.00  0.00     0.074 A 
ATOM     15  C   UNL A   1      40.818  27.446  29.093  1.00  0.00     0.049 A 
ATOM     16  N   UNL A   1      41.950  28.846  31.773  1.00  0.00    -0.248 NA
ATOM     17  C   UNL A   1      40.008  27.788  32.474  1.00  0.00     0.031 C 
ATOM     18  C   UNL A   1      40.246  27.019  27.816  1.00  0.00     0.029 A 
ATOM     19  N   UNL A   1      41.964  26.703  29.188  1.00  0.00    -0.354 N 
ATOM     20  C   UNL A   1      42.068  28.530  33.127  1.00  0.00     0.074 A 
ATOM     21  C   UNL A   1      40.781  28.028  33.535  1.00  0.00     0.031 C 
ATOM     22  C   UNL A   1      40.925  25.937  27.368  1.00  0.00     0.029 A 
ATOM     23  C   UNL A   1      42.052  25.681  28.250  1.00  0.00     0.049 A 
ATOM     24  H   UNL A   1      42.662  26.877  29.860  1.00  0.00     0.167 HD
ATOM     25  C   UNL A   1      43.276  28.506  33.755  1.00  0.00     0.034 A 
ATOM     26  C   UNL A   1      42.951  24.665  28.235  1.00  0.00     0.034 A 
ATOM     27  C   UNL A   1      44.300  29.142  32.966  1.00  0.00     0.049 A 
ATOM     28  C   UNL A   1      44.110  25.074  29.057  1.00  0.00     0.074 A 
ATOM     29  C   UNL A   1      44.499  30.396  32.426  1.00  0.00     0.029 A 
ATOM     30  N   UNL A   1      45.204  28.315  32.349  1.00  0.00    -0.354 N 
ATOM     31  N   UNL A   1      44.963  25.993  28.708  1.00  0.00    -0.248 NA
ATOM     32  C   UNL A   1      44.149  24.681  30.456  1.00  0.00     0.031 C 
ATOM     33  C   UNL A   1      45.185  30.164  31.199  1.00  0.00     0.029 A 
ATOM     34  C   UNL A   1      45.397  28.789  31.082  1.00  0.00     0.049 A 
ATOM     35  H   UNL A   1      45.636  27.524  32.747  1.00  0.00     0.167 HD
ATOM     36  C   UNL A   1      45.311  26.609  29.902  1.00  0.00     0.074 A 
ATOM     37  C   UNL A   1      44.895  25.675  30.943  1.00  0.00     0.031 C 
ATOM     38  C   UNL A   1      45.627  27.936  29.938  1.00  0.00     0.034 A 
BRANCH  25  39
ATOM     39  C   UNL A   1      43.653  27.607  34.915  1.00  0.00     0.023 A 
ATOM     40  C   UNL A   1      44.203  28.231  36.061  1.00  0.00     0.012 A 
ATOM     41  C   UNL A   1      43.776  26.202  34.834  1.00  0.00     0.148 A 
ATOM     42  C   UNL A   1      44.902  27.509  37.032  1.00  0.00     0.002 A 
ATOM     43  C   UNL A   1      44.402  25.478  35.843  1.00  0.00     0.091 A 
ATOM     44  F   UNL A   1      43.411  25.562  33.720  1.00  0.00    -0.205 F 
ATOM     45  C   UNL A   1      44.999  26.128  36.926  1.00  0.00     0.022 A 
BRANCH  43  46
ATOM     46  S   UNL A   1      44.505  23.685  35.795  1.00  0.00     0.127 S 
ATOM     47  O   UNL A   1      45.028  23.386  37.124  1.00  0.00    -0.237 OA
ATOM     48  O   UNL A   1      43.106  23.311  35.580  1.00  0.00    -0.237 OA
ATOM     49  O   UNL A   1      45.384  23.375  34.674  1.00  0.00    -0.744 OA
ENDBRANCH  43  46
ENDBRANCH  25  39
BRANCH  26  50
ATOM     50  C   UNL A   1      42.839  23.282  27.717  1.00  0.00     0.023 A 
ATOM     51  C   UNL A   1      41.675  22.529  27.984  1.00  0.00     0.012 A 
ATOM     52  C   UNL A   1      43.725  22.808  26.728  1.00  0.00     0.148 A 
ATOM     53  C   UNL A   1      41.384  21.367  27.259  1.00  0.00     0.002 A 
ATOM     54  C   UNL A   1      43.435  21.649  26.013  1.00  0.00     0.091 A 
ATOM     55  F   UNL A   1      44.802  23.544  26.420  1.00  0.00    -0.205 F 
ATOM     56  C   UNL A   1      42.258  20.932  26.267  1.00  0.00     0.022 A 
BRANCH  54  57
ATOM     57  S   UNL A   1      44.501  21.044  24.698  1.00  0.00     0.127 S 
ATOM     58  O   UNL A   1      44.382  22.106  23.697  1.00  0.00    -0.237 OA
ATOM     59  O   UNL A   1      45.797  20.976  25.367  1.00  0.00    -0.237 OA
ATOM     60  O   UNL A   1      43.933  19.767  24.284  1.00  0.00    -0.744 OA
ENDBRANCH  54  57
ENDBRANCH  26  50
BRANCH  38  61
ATOM     61  C   UNL A   1      45.956  28.632  28.644  1.00  0.00     0.023 A 
ATOM     62  C   UNL A   1      44.964  29.054  27.736  1.00  0.00     0.012 A 
ATOM     63  C   UNL A   1      47.291  29.012  28.418  1.00  0.00     0.148 A 
ATOM     64  C   UNL A   1      45.301  29.811  26.611  1.00  0.00     0.002 A 
ATOM     65  C   UNL A   1      47.614  29.811  27.329  1.00  0.00     0.091 A 
ATOM     66  F   UNL A   1      48.226  28.602  29.289  1.00  0.00    -0.205 F 
ATOM     67  C   UNL A   1      46.624  30.202  26.415  1.00  0.00     0.022 A 
BRANCH  65  68
ATOM     68  S   UNL A   1      49.273  30.460  27.113  1.00  0.00     0.127 S 
ATOM     69  O   UNL A   1      49.870  29.478  26.208  1.00  0.00    -0.237 OA
ATOM     70  O   UNL A   1      49.024  31.772  26.511  1.00  0.00    -0.237 OA
ATOM     71  O   UNL A   1      49.852  30.523  28.447  1.00  0.00    -0.744 OA
ENDBRANCH  65  68
ENDBRANCH  38  61
ENDBRANCH  12  13
ENDBRANCH   5   7
ENDBRANCH   2   3
ENDBRANCH   1   2
BRANCH   1  72
ATOM     72  C   UNL A   1      32.644  30.028  25.665  1.00  0.00     0.023 C 
BRANCH  72  73
ATOM     73  C   UNL A   1      31.206  29.710  25.248  1.00  0.00     0.116 C 
BRANCH  73  74
ATOM     74  N   UNL A   1      31.016  29.680  23.807  1.00  0.00    -0.352 N 
ATOM     75  C   UNL A   1      31.062  28.622  22.932  1.00  0.00     0.251 C 
ATOM     76  H   UNL A   1      30.826  30.553  23.395  1.00  0.00     0.163 HD
ATOM     77  O   UNL A   1      30.947  28.827  21.725  1.00  0.00    -0.269 OA
BRANCH  75  78
ATOM     78  C   UNL A   1      31.288  27.231  23.396  1.00  0.00     0.039 A 
ATOM     79  C   UNL A   1      30.160  26.451  23.653  1.00  0.00     0.016 A 
ATOM     80  C   UNL A   1      32.561  26.704  23.659  1.00  0.00     0.016 A 
ATOM     81  C   UNL A   1      30.307  25.136  24.098  1.00  0.00     0.027 A 
ATOM     82  C   UNL A   1      32.708  25.378  24.124  1.00  0.00     0.027 A 
ATOM     83  C   UNL A   1      31.580  24.577  24.324  1.00  0.00     0.045 A 
BRANCH  83  84
ATOM     84  N   UNL A   1      31.690  23.183  24.652  1.00  0.00    -0.299 N 
ATOM     85  C   UNL A   1      31.251  22.845  25.977  1.00  0.00     0.259 C 
ATOM     86  C   UNL A   1      32.929  22.438  24.313  1.00  0.00     0.152 C 
ATOM     87  C   UNL A   1      32.242  21.897  26.576  1.00  0.00     0.248 C 
ATOM     88  O   UNL A   1      30.262  23.294  26.554  1.00  0.00    -0.271 OA
ATOM     89  C   UNL A   1      33.386  22.213  25.698  1.00  0.00     0.021 C 
ATOM     90  N   UNL A   1      32.782  22.248  27.900  1.00  0.00    -0.170 NA
ATOM     91  C   UNL A   1      34.434  22.421  26.488  1.00  0.00     0.097 C 
ATOM     92  N   UNL A   1      34.041  22.396  27.811  1.00  0.00    -0.154 NA
BRANCH  86  93
ATOM     93  C   UNL A   1      32.737  21.087  23.591  1.00  0.00    -0.020 A 
ATOM     94  C   UNL A   1      32.078  21.008  22.333  1.00  0.00     0.006 A 
ATOM     95  C   UNL A   1      33.099  19.871  24.190  1.00  0.00     0.022 A 
ATOM     96  C   UNL A   1      31.804  19.794  21.701  1.00  0.00     0.002 A 
ATOM     97  C   UNL A   1      32.797  18.650  23.559  1.00  0.00     0.018 A 
ATOM     98  C   UNL A   1      32.154  18.607  22.322  1.00  0.00     0.016 A 
ATOM     99  Br  UNL A   1      33.224  17.015  24.411  1.00  0.00    -0.051 Br
ENDBRANCH  86  93
BRANCH  91 100
ATOM    100  C   UNL A   1      35.797  22.803  26.134  1.00  0.00     0.002 A 
ATOM    101  C   UNL A   1      36.683  21.853  25.607  1.00  0.00     0.010 A 
ATOM    102  C   UNL A   1      36.280  24.068  26.486  1.00  0.00     0.010 A 
ATOM    103  C   UNL A   1      38.047  22.142  25.508  1.00  0.00     0.001 A 
ATOM    104  C   UNL A   1      37.642  24.356  26.380  1.00  0.00     0.001 A 
ATOM    105  C   UNL A   1      38.528  23.386  25.914  1.00  0.00     0.000 A 
ENDBRANCH  91 100
ENDBRANCH  83  84
ENDBRANCH  75  78
ENDBRANCH  73  74
ENDBRANCH  72  73
ENDBRANCH   1  72
TORSDOF 17
ENDMDL
MODEL 2
REMARK VINA RESULT:     -12.9      5.453      9.357
REMARK SMILES O=C(NCCCCNC(=O)c1ccc(N2C(=O)[C@@H]3N=NC(c4ccccc4)=C3[C@H]2c2cccc(Br)c2)cc1)c1ccc(-c2c3nc(c(-c4cccc(S(=O)(=O)[O-])c4F)c4ccc([nH]4)c(-c4cccc(S(=O)(=O)[O-])c4F)c4nc(c(-c5cccc(S(=O)(=O)[O-])c5F)c5ccc2[nH]5)C=C4)C=C3)cc1
REMARK SMILES IDX 5 1 4 2 3 3 1 4 2 5 39 7 40 8 101 9 41 10 100 11 42 12 43 13
REMARK SMILES IDX 44 14 94 15 45 16 99 17 93 18 95 19 46 20 98 21 92 22 91 23
REMARK SMILES IDX 47 25 79 26 59 27 78 28 60 29 63 30 77 31 96 32 61 33 62 34
REMARK SMILES IDX 76 36 97 37 64 38 48 39 49 40 57 41 50 42 52 43 58 44 51 45
REMARK SMILES IDX 53 46 54 47 55 48 56 49 80 50 81 51 89 52 82 53 84 54 90 55
REMARK SMILES IDX 83 56 85 57 86 58 87 59 88 60 65 61 66 62 74 63 67 64 69 65
REMARK SMILES IDX 75 66 68 67 70 68 71 69 72 70 73 71 6 72 7 73 8 74 9 75
REMARK SMILES IDX 10 77 11 78 12 79 38 80 13 81 37 82 14 83 15 84 16 85 29 86
REMARK SMILES IDX 18 87 17 88 28 89 19 90 21 91 20 92 30 93 31 94 36 95 32 96
REMARK SMILES IDX 34 97 33 98 35 99 22 100 23 101 27 102 24 103 26 104 25 105
REMARK H PARENT 3 6 95 24 63 35 8 76
REMARK Flexibility Score: inf
ROOT
ATOM      1  C   UNL A   1      34.424  35.674  28.311  1.00  0.00     0.023 C 
ENDROOT
BRANCH   1   2
ATOM      2  C   UNL A   1      35.049  34.299  28.536  1.00  0.00     0.116 C 
BRANCH   2   3
ATOM      3  N   UNL A   1      34.300  33.186  27.991  1.00  0.00    -0.352 N 
ATOM      4  O   UNL A   1      33.495  31.192  27.527  1.00  0.00    -0.269 OA
ATOM      5  C   UNL A   1      34.474  31.830  27.927  1.00  0.00     0.251 C 
ATOM      6  H   UNL A   1      33.463  33.475  27.560  1.00  0.00     0.163 HD
BRANCH   5   7
ATOM      7  C   UNL A   1      35.731  31.090  28.244  1.00  0.00     0.039 A 
ATOM      8  C   UNL A   1      35.932  29.719  28.093  1.00  0.00     0.014 A 
ATOM      9  C   UNL A   1      36.795  31.868  28.747  1.00  0.00     0.014 A 
ATOM     10  C   UNL A   1      37.142  29.137  28.479  1.00  0.00     0.010 A 
ATOM     11  C   UNL A   1      38.006  31.294  29.130  1.00  0.00     0.010 A 
ATOM     12  C   UNL A   1      38.174  29.918  29.011  1.00  0.00    -0.014 A 
BRANCH  12  13
ATOM     13  C   UNL A   1      39.466  29.278  29.260  1.00  0.00     0.031 A 
ATOM     14  C   UNL A   1      39.738  28.961  30.689  1.00  0.00     0.074 A 
ATOM     15  C   UNL A   1      40.334  28.864  28.315  1.00  0.00     0.049 A 
ATOM     16  N   UNL A   1      40.617  29.506  31.465  1.00  0.00    -0.248 NA
ATOM     17  C   UNL A   1      38.859  27.995  31.360  1.00  0.00     0.031 C 
ATOM     18  C   UNL A   1      40.115  28.777  26.871  1.00  0.00     0.029 A 
ATOM     19  N   UNL A   1      41.577  28.314  28.477  1.00  0.00    -0.354 N 
ATOM     20  C   UNL A   1      40.549  28.802  32.668  1.00  0.00     0.074 A 
ATOM     21  C   UNL A   1      39.352  28.005  32.600  1.00  0.00     0.031 C 
ATOM     22  C   UNL A   1      41.086  28.009  26.322  1.00  0.00     0.029 A 
ATOM     23  C   UNL A   1      42.060  27.667  27.346  1.00  0.00     0.049 A 
ATOM     24  H   UNL A   1      42.085  28.374  29.319  1.00  0.00     0.167 HD
ATOM     25  C   UNL A   1      41.596  28.768  33.538  1.00  0.00     0.034 A 
ATOM     26  C   UNL A   1      43.147  26.859  27.272  1.00  0.00     0.034 A 
ATOM     27  C   UNL A   1      42.582  29.770  33.225  1.00  0.00     0.049 A 
ATOM     28  C   UNL A   1      44.016  27.161  28.429  1.00  0.00     0.074 A 
ATOM     29  C   UNL A   1      42.597  31.145  33.114  1.00  0.00     0.029 A 
ATOM     30  N   UNL A   1      43.744  29.329  32.643  1.00  0.00    -0.354 N 
ATOM     31  N   UNL A   1      44.695  28.265  28.561  1.00  0.00    -0.248 NA
ATOM     32  C   UNL A   1      43.882  26.360  29.634  1.00  0.00     0.031 C 
ATOM     33  C   UNL A   1      43.532  31.420  32.074  1.00  0.00     0.029 A 
ATOM     34  C   UNL A   1      44.059  30.202  31.640  1.00  0.00     0.049 A 
ATOM     35  H   UNL A   1      44.259  28.531  32.902  1.00  0.00     0.167 HD
ATOM     36  C   UNL A   1      44.672  28.519  29.925  1.00  0.00     0.074 A 
ATOM     37  C   UNL A   1      44.288  27.252  30.539  1.00  0.00     0.031 C 
ATOM     38  C   UNL A   1      44.677  29.799  30.398  1.00  0.00     0.034 A 
BRANCH  25  39
ATOM     39  C   UNL A   1      41.942  27.620  34.465  1.00  0.00     0.023 A 
ATOM     40  C   UNL A   1      41.685  27.805  35.845  1.00  0.00     0.012 A 
ATOM     41  C   UNL A   1      42.756  26.521  34.110  1.00  0.00     0.148 A 
ATOM     42  C   UNL A   1      42.267  26.991  36.821  1.00  0.00     0.002 A 
ATOM     43  C   UNL A   1      43.267  25.665  35.080  1.00  0.00     0.091 A 
ATOM     44  F   UNL A   1      43.158  26.367  32.846  1.00  0.00    -0.205 F 
ATOM     45  C   UNL A   1      43.056  25.915  36.439  1.00  0.00     0.022 A 
BRANCH  43  46
ATOM     46  S   UNL A   1      44.245  24.221  34.646  1.00  0.00     0.127 S 
ATOM     47  O   UNL A   1      45.400  24.835  33.998  1.00  0.00    -0.237 OA
ATOM     48  O   UNL A   1      44.510  23.634  35.960  1.00  0.00    -0.237 OA
ATOM     49  O   UNL A   1      43.385  23.411  33.793  1.00  0.00    -0.744 OA
ENDBRANCH  43  46
ENDBRANCH  25  39
BRANCH  26  50
ATOM     50  C   UNL A   1      43.439  25.709  26.385  1.00  0.00     0.023 A 
ATOM     51  C   UNL A   1      44.581  25.739  25.556  1.00  0.00     0.012 A 
ATOM     52  C   UNL A   1      42.779  24.475  26.562  1.00  0.00     0.148 A 
ATOM     53  C   UNL A   1      45.072  24.572  24.959  1.00  0.00     0.002 A 
ATOM     54  C   UNL A   1      43.268  23.318  25.962  1.00  0.00     0.091 A 
ATOM     55  F   UNL A   1      41.731  24.418  27.395  1.00  0.00    -0.205 F 
ATOM     56  C   UNL A   1      44.423  23.360  25.170  1.00  0.00     0.022 A 
BRANCH  54  57
ATOM     57  S   UNL A   1      42.499  21.712  26.213  1.00  0.00     0.127 S 
ATOM     58  O   UNL A   1      41.131  21.954  25.749  1.00  0.00    -0.237 OA
ATOM     59  O   UNL A   1      43.298  20.855  25.341  1.00  0.00    -0.237 OA
ATOM     60  O   UNL A   1      42.606  21.441  27.640  1.00  0.00    -0.744 OA
ENDBRANCH  54  57
ENDBRANCH  26  50
BRANCH  38  61
ATOM     61  C   UNL A   1      45.077  30.909  29.462  1.00  0.00     0.023 A 
ATOM     62  C   UNL A   1      44.166  31.525  28.582  1.00  0.00     0.012 A 
ATOM     63  C   UNL A   1      46.369  31.450  29.592  1.00  0.00     0.148 A 
ATOM     64  C   UNL A   1      44.544  32.637  27.825  1.00  0.00     0.002 A 
ATOM     65  C   UNL A   1      46.724  32.588  28.880  1.00  0.00     0.091 A 
ATOM     66  F   UNL A   1      47.228  30.852  30.433  1.00  0.00    -0.205 F 
ATOM     67  C   UNL A   1      45.818  33.178  27.985  1.00  0.00     0.022 A 
BRANCH  65  68
ATOM     68  S   UNL A   1      48.297  33.405  29.158  1.00  0.00     0.127 S 
ATOM     69  O   UNL A   1      49.251  32.325  28.905  1.00  0.00    -0.237 OA
ATOM     70  O   UNL A   1      48.289  34.461  28.143  1.00  0.00    -0.237 OA
ATOM     71  O   UNL A   1      48.251  33.900  30.525  1.00  0.00    -0.744 OA
ENDBRANCH  65  68
ENDBRANCH  38  61
ENDBRANCH  12  13
ENDBRANCH   5   7
ENDBRANCH   2   3
ENDBRANCH   1   2
BRANCH   1  72
ATOM     72  C   UNL A   1      33.189  36.008  29.162  1.00  0.00     0.023 C 
BRANCH  72  73
ATOM     73  C   UNL A   1      33.045  35.282  30.502  1.00  0.00     0.116 C 
BRANCH  73  74
ATOM     74  N   UNL A   1      32.825  36.180  31.624  1.00  0.00    -0.352 N 
ATOM     75  C   UNL A   1      33.521  36.310  32.800  1.00  0.00     0.251 C 
ATOM     76  H   UNL A   1      32.058  36.788  31.525  1.00  0.00     0.163 HD
ATOM     77  O   UNL A   1      33.117  37.089  33.662  1.00  0.00    -0.269 OA
BRANCH  75  78
ATOM     78  C   UNL A   1      34.734  35.504  33.086  1.00  0.00     0.039 A 
ATOM     79  C   UNL A   1      35.646  35.330  32.046  1.00  0.00     0.016 A 
ATOM     80  C   UNL A   1      34.957  34.857  34.311  1.00  0.00     0.016 A 
ATOM     81  C   UNL A   1      36.804  34.575  32.251  1.00  0.00     0.027 A 
ATOM     82  C   UNL A   1      36.121  34.081  34.511  1.00  0.00     0.027 A 
ATOM     83  C   UNL A   1      37.064  33.956  33.488  1.00  0.00     0.045 A 
BRANCH  83  84
ATOM     84  N   UNL A   1      38.326  33.303  33.698  1.00  0.00    -0.299 N 
ATOM     85  C   UNL A   1      38.299  31.878  33.521  1.00  0.00     0.259 C 
ATOM     86  C   UNL A   1      39.159  33.662  34.874  1.00  0.00     0.152 C 
ATOM     87  C   UNL A   1      39.077  31.249  34.634  1.00  0.00     0.248 C 
ATOM     88  O   UNL A   1      37.695  31.264  32.644  1.00  0.00    -0.271 OA
ATOM     89  C   UNL A   1      39.024  32.376  35.586  1.00  0.00     0.021 C 
ATOM     90  N   UNL A   1      38.405  30.186  35.398  1.00  0.00    -0.170 NA
ATOM     91  C   UNL A   1      38.639  31.877  36.755  1.00  0.00     0.097 C 
ATOM     92  N   UNL A   1      38.311  30.543  36.614  1.00  0.00    -0.154 NA
BRANCH  86  93
ATOM     93  C   UNL A   1      40.648  33.960  34.592  1.00  0.00    -0.020 A 
ATOM     94  C   UNL A   1      41.620  33.908  35.627  1.00  0.00     0.006 A 
ATOM     95  C   UNL A   1      41.087  34.403  33.335  1.00  0.00     0.022 A 
ATOM     96  C   UNL A   1      42.955  34.265  35.426  1.00  0.00     0.002 A 
ATOM     97  C   UNL A   1      42.428  34.785  33.146  1.00  0.00     0.018 A 
ATOM     98  C   UNL A   1      43.360  34.718  34.182  1.00  0.00     0.016 A 
ATOM     99  Br  UNL A   1      42.993  35.452  31.467  1.00  0.00    -0.051 Br
ENDBRANCH  86  93
BRANCH  91 100
ATOM    100  C   UNL A   1      38.390  32.565  38.017  1.00  0.00     0.002 A 
ATOM    101  C   UNL A   1      39.437  33.213  38.688  1.00  0.00     0.010 A 
ATOM    102  C   UNL A   1      37.151  32.429  38.652  1.00  0.00     0.010 A 
ATOM    103  C   UNL A   1      39.267  33.647  40.006  1.00  0.00     0.001 A 
ATOM    104  C   UNL A   1      36.981  32.870  39.967  1.00  0.00     0.001 A 
ATOM    105  C   UNL A   1      38.045  33.456  40.650  1.00  0.00     0.000 A 
ENDBRANCH  91 100
ENDBRANCH  83  84
ENDBRANCH  75  78
ENDBRANCH  73  74
ENDBRANCH  72  73
ENDBRANCH   1  72
TORSDOF 17
ENDMDL
MODEL 3
REMARK VINA RESULT:     -12.8      5.627      9.023
REMARK SMILES O=C(NCCCCNC(=O)c1ccc(N2C(=O)[C@@H]3N=NC(c4ccccc4)=C3[C@H]2c2cccc(Br)c2)cc1)c1ccc(-c2c3nc(c(-c4cccc(S(=O)(=O)[O-])c4F)c4ccc([nH]4)c(-c4cccc(S(=O)(=O)[O-])c4F)c4nc(c(-c5cccc(S(=O)(=O)[O-])c5F)c5ccc2[nH]5)C=C4)C=C3)cc1
REMARK SMILES IDX 5 1 4 2 3 3 1 4 2 5 39 7 40 8 101 9 41 10 100 11 42 12 43 13
REMARK SMILES IDX 44 14 94 15 45 16 99 17 93 18 95 19 46 20 98 21 92 22 91 23
REMARK SMILES IDX 47 25 79 26 59 27 78 28 60 29 63 30 77 31 96 32 61 33 62 34
REMARK SMILES IDX 76 36 97 37 64 38 48 39 49 40 57 41 50 42 52 43 58 44 51 45
REMARK SMILES IDX 53 46 54 47 55 48 56 49 80 50 81 51 89 52 82 53 84 54 90 55
REMARK SMILES IDX 83 56 85 57 86 58 87 59 88 60 65 61 66 62 74 63 67 64 69 65
REMARK SMILES IDX 75 66 68 67 70 68 71 69 72 70 73 71 6 72 7 73 8 74 9 75
REMARK SMILES IDX 10 77 11 78 12 79 38 80 13 81 37 82 14 83 15 84 16 85 29 86
REMARK SMILES IDX 18 87 17 88 28 89 19 90 21 91 20 92 30 93 31 94 36 95 32 96
REMARK SMILES IDX 34 97 33 98 35 99 22 100 23 101 27 102 24 103 26 104 25 105
REMARK H PARENT 3 6 95 24 63 35 8 76
REMARK Flexibility Score: inf
ROOT
ATOM      1  C   UNL A   1      34.856  35.175  28.472  1.00  0.00     0.023 C 
ENDROOT
BRANCH   1   2
ATOM      2  C   UNL A   1      35.616  33.853  28.552  1.00  0.00     0.116 C 
BRANCH   2   3
ATOM      3  N   UNL A   1      34.991  32.741  27.866  1.00  0.00    -0.352 N 
ATOM      4  O   UNL A   1      34.351  30.743  27.205  1.00  0.00    -0.269 OA
ATOM      5  C   UNL A   1      35.246  31.401  27.744  1.00  0.00     0.251 C 
ATOM      6  H   UNL A   1      34.190  33.016  27.364  1.00  0.00     0.163 HD
BRANCH   5   7
ATOM      7  C   UNL A   1      36.501  30.706  28.153  1.00  0.00     0.039 A 
ATOM      8  C   UNL A   1      36.733  29.332  28.085  1.00  0.00     0.014 A 
ATOM      9  C   UNL A   1      37.529  31.531  28.655  1.00  0.00     0.014 A 
ATOM     10  C   UNL A   1      37.936  28.797  28.552  1.00  0.00     0.010 A 
ATOM     11  C   UNL A   1      38.733  31.002  29.119  1.00  0.00     0.010 A 
ATOM     12  C   UNL A   1      38.931  29.627  29.083  1.00  0.00    -0.014 A 
BRANCH  12  13
ATOM     13  C   UNL A   1      40.222  29.027  29.419  1.00  0.00     0.031 A 
ATOM     14  C   UNL A   1      40.420  28.748  30.868  1.00  0.00     0.074 A 
ATOM     15  C   UNL A   1      41.153  28.616  28.535  1.00  0.00     0.049 A 
ATOM     16  N   UNL A   1      41.238  29.332  31.681  1.00  0.00    -0.248 NA
ATOM     17  C   UNL A   1      39.529  27.772  31.510  1.00  0.00     0.031 C 
ATOM     18  C   UNL A   1      41.021  28.494  27.083  1.00  0.00     0.029 A 
ATOM     19  N   UNL A   1      42.399  28.104  28.780  1.00  0.00    -0.354 N 
ATOM     20  C   UNL A   1      41.119  28.652  32.894  1.00  0.00     0.074 A 
ATOM     21  C   UNL A   1      39.949  27.821  32.775  1.00  0.00     0.031 C 
ATOM     22  C   UNL A   1      42.041  27.741  26.608  1.00  0.00     0.029 A 
ATOM     23  C   UNL A   1      42.963  27.447  27.693  1.00  0.00     0.049 A 
ATOM     24  H   UNL A   1      42.855  28.195  29.648  1.00  0.00     0.167 HD
ATOM     25  C   UNL A   1      42.114  28.664  33.823  1.00  0.00     0.034 A 
ATOM     26  C   UNL A   1      44.072  26.667  27.699  1.00  0.00     0.034 A 
ATOM     27  C   UNL A   1      43.091  29.686  33.544  1.00  0.00     0.049 A 
ATOM     28  C   UNL A   1      44.865  27.017  28.897  1.00  0.00     0.074 A 
ATOM     29  C   UNL A   1      43.076  31.058  33.403  1.00  0.00     0.029 A 
ATOM     30  N   UNL A   1      44.295  29.265  33.040  1.00  0.00    -0.354 N 
ATOM     31  N   UNL A   1      45.507  28.141  29.043  1.00  0.00    -0.248 NA
ATOM     32  C   UNL A   1      44.683  26.237  30.110  1.00  0.00     0.031 C 
ATOM     33  C   UNL A   1      44.062  31.337  32.412  1.00  0.00     0.029 A 
ATOM     34  C   UNL A   1      44.644  30.124  32.037  1.00  0.00     0.049 A 
ATOM     35  H   UNL A   1      44.814  28.485  33.345  1.00  0.00     0.167 HD
ATOM     36  C   UNL A   1      45.399  28.422  30.398  1.00  0.00     0.074 A 
ATOM     37  C   UNL A   1      45.013  27.159  31.017  1.00  0.00     0.031 C 
ATOM     38  C   UNL A   1      45.344  29.712  30.841  1.00  0.00     0.034 A 
BRANCH  25  39
ATOM     39  C   UNL A   1      42.435  27.545  34.793  1.00  0.00     0.023 A 
ATOM     40  C   UNL A   1      42.417  27.863  36.172  1.00  0.00     0.012 A 
ATOM     41  C   UNL A   1      43.028  26.316  34.430  1.00  0.00     0.148 A 
ATOM     42  C   UNL A   1      43.023  27.043  37.128  1.00  0.00     0.002 A 
ATOM     43  C   UNL A   1      43.558  25.463  35.394  1.00  0.00     0.091 A 
ATOM     44  F   UNL A   1      43.210  26.015  33.141  1.00  0.00    -0.205 F 
ATOM     45  C   UNL A   1      43.591  25.837  36.740  1.00  0.00     0.022 A 
BRANCH  43  46
ATOM     46  S   UNL A   1      44.252  23.863  34.961  1.00  0.00     0.127 S 
ATOM     47  O   UNL A   1      44.675  23.366  36.267  1.00  0.00    -0.237 OA
ATOM     48  O   UNL A   1      43.094  23.182  34.383  1.00  0.00    -0.237 OA
ATOM     49  O   UNL A   1      45.316  24.146  34.007  1.00  0.00    -0.744 OA
ENDBRANCH  43  46
ENDBRANCH  25  39
BRANCH  26  50
ATOM     50  C   UNL A   1      44.445  25.507  26.856  1.00  0.00     0.023 A 
ATOM     51  C   UNL A   1      45.768  25.386  26.380  1.00  0.00     0.012 A 
ATOM     52  C   UNL A   1      43.600  24.381  26.764  1.00  0.00     0.148 A 
ATOM     53  C   UNL A   1      46.245  24.174  25.870  1.00  0.00     0.002 A 
ATOM     54  C   UNL A   1      44.077  23.178  26.251  1.00  0.00     0.091 A 
ATOM     55  F   UNL A   1      42.362  24.461  27.269  1.00  0.00    -0.205 F 
ATOM     56  C   UNL A   1      45.404  23.067  25.815  1.00  0.00     0.022 A 
BRANCH  54  57
ATOM     57  S   UNL A   1      43.058  21.699  26.176  1.00  0.00     0.127 S 
ATOM     58  O   UNL A   1      41.975  22.120  25.285  1.00  0.00    -0.237 OA
ATOM     59  O   UNL A   1      43.981  20.725  25.599  1.00  0.00    -0.237 OA
ATOM     60  O   UNL A   1      42.637  21.439  27.546  1.00  0.00    -0.744 OA
ENDBRANCH  54  57
ENDBRANCH  26  50
BRANCH  38  61
ATOM     61  C   UNL A   1      45.768  30.813  29.905  1.00  0.00     0.023 A 
ATOM     62  C   UNL A   1      47.059  31.379  29.934  1.00  0.00     0.012 A 
ATOM     63  C   UNL A   1      44.892  31.170  28.864  1.00  0.00     0.148 A 
ATOM     64  C   UNL A   1      47.455  32.304  28.965  1.00  0.00     0.002 A 
ATOM     65  C   UNL A   1      45.310  32.047  27.871  1.00  0.00     0.091 A 
ATOM     66  F   UNL A   1      43.666  30.624  28.849  1.00  0.00    -0.205 F 
ATOM     67  C   UNL A   1      46.586  32.626  27.925  1.00  0.00     0.022 A 
BRANCH  65  68
ATOM     68  S   UNL A   1      44.284  32.382  26.437  1.00  0.00     0.127 S 
ATOM     69  O   UNL A   1      43.575  33.595  26.845  1.00  0.00    -0.237 OA
ATOM     70  O   UNL A   1      45.276  32.582  25.378  1.00  0.00    -0.237 OA
ATOM     71  O   UNL A   1      43.457  31.198  26.256  1.00  0.00    -0.744 OA
ENDBRANCH  65  68
ENDBRANCH  38  61
ENDBRANCH  12  13
ENDBRANCH   5   7
ENDBRANCH   2   3
ENDBRANCH   1   2
BRANCH   1  72
ATOM     72  C   UNL A   1      33.444  35.185  29.077  1.00  0.00     0.023 C 
BRANCH  72  73
ATOM     73  C   UNL A   1      33.156  36.220  30.168  1.00  0.00     0.116 C 
BRANCH  73  74
ATOM     74  N   UNL A   1      32.495  35.660  31.335  1.00  0.00    -0.352 N 
ATOM     75  C   UNL A   1      32.962  34.772  32.272  1.00  0.00     0.251 C 
ATOM     76  H   UNL A   1      31.570  35.965  31.474  1.00  0.00     0.163 HD
ATOM     77  O   UNL A   1      32.204  34.362  33.151  1.00  0.00    -0.269 OA
BRANCH  75  78
ATOM     78  C   UNL A   1      34.351  34.253  32.237  1.00  0.00     0.039 A 
ATOM     79  C   UNL A   1      35.376  35.145  32.556  1.00  0.00     0.016 A 
ATOM     80  C   UNL A   1      34.677  32.951  31.828  1.00  0.00     0.016 A 
ATOM     81  C   UNL A   1      36.705  34.718  32.534  1.00  0.00     0.027 A 
ATOM     82  C   UNL A   1      36.024  32.526  31.792  1.00  0.00     0.027 A 
ATOM     83  C   UNL A   1      37.046  33.402  32.168  1.00  0.00     0.045 A 
BRANCH  83  84
ATOM     84  N   UNL A   1      38.409  32.968  32.288  1.00  0.00    -0.299 N 
ATOM     85  C   UNL A   1      38.568  31.624  32.771  1.00  0.00     0.259 C 
ATOM     86  C   UNL A   1      39.420  33.862  32.908  1.00  0.00     0.152 C 
ATOM     87  C   UNL A   1      39.668  31.614  33.786  1.00  0.00     0.248 C 
ATOM     88  O   UNL A   1      37.886  30.651  32.457  1.00  0.00    -0.271 OA
ATOM     89  C   UNL A   1      39.656  33.053  34.119  1.00  0.00     0.021 C 
ATOM     90  N   UNL A   1      39.363  31.007  35.092  1.00  0.00    -0.170 NA
ATOM     91  C   UNL A   1      39.629  33.142  35.444  1.00  0.00     0.097 C 
ATOM     92  N   UNL A   1      39.493  31.886  36.001  1.00  0.00    -0.154 NA
BRANCH  86  93
ATOM     93  C   UNL A   1      40.739  34.046  32.127  1.00  0.00    -0.020 A 
ATOM     94  C   UNL A   1      40.927  33.462  30.845  1.00  0.00     0.006 A 
ATOM     95  C   UNL A   1      41.847  34.698  32.691  1.00  0.00     0.022 A 
ATOM     96  C   UNL A   1      42.140  33.529  30.156  1.00  0.00     0.002 A 
ATOM     97  C   UNL A   1      43.073  34.739  32.003  1.00  0.00     0.018 A 
ATOM     98  C   UNL A   1      43.223  34.160  30.743  1.00  0.00     0.016 A 
ATOM     99  Br  UNL A   1      44.580  35.556  32.805  1.00  0.00    -0.051 Br
ENDBRANCH  86  93
BRANCH  91 100
ATOM    100  C   UNL A   1      39.568  34.330  36.289  1.00  0.00     0.002 A 
ATOM    101  C   UNL A   1      40.340  35.459  35.979  1.00  0.00     0.010 A 
ATOM    102  C   UNL A   1      38.881  34.284  37.507  1.00  0.00     0.010 A 
ATOM    103  C   UNL A   1      40.483  36.491  36.911  1.00  0.00     0.001 A 
ATOM    104  C   UNL A   1      39.020  35.320  38.433  1.00  0.00     0.001 A 
ATOM    105  C   UNL A   1      39.839  36.410  38.145  1.00  0.00     0.000 A 
ENDBRANCH  91 100
ENDBRANCH  83  84
ENDBRANCH  75  78
ENDBRANCH  73  74
ENDBRANCH  72  73
ENDBRANCH   1  72
TORSDOF 17
ENDMDL
