MODEL 1
REMARK VINA RESULT:     -11.7      0.000      0.000
REMARK SMILES CC(C)(C)OC(=O)N1CCC[C@@](CC2CCC2)(C(=O)NCCCCNC(=O)c2ccc(-c3c4nc(c(-c5cccc(S(=O)(=O)[O-])c5F)c5ccc([nH]5)c(-c5cccc(S(=O)(=O)[O-])c5F)c5nc(c(-c6cccc(S(=O)(=O)[O-])c6F)c6ccc3[nH]6)C=C5)C=C4)cc2)C1
REMARK SMILES IDX 22 1 21 2 20 3 18 4 19 5 12 7 8 8 9 9 91 10 10 11 11 12 6 13
REMARK SMILES IDX 7 14 5 15 2 16 1 17 3 18 4 19 13 20 14 21 15 22 17 23 16 24
REMARK SMILES IDX 23 25 24 26 25 27 26 28 27 30 28 31 29 32 90 33 30 34 89 35
REMARK SMILES IDX 31 36 32 37 33 38 83 39 34 40 88 41 82 42 84 43 35 44 87 45
REMARK SMILES IDX 81 46 80 47 36 49 68 50 48 51 67 52 49 53 52 54 66 55 85 56
REMARK SMILES IDX 50 57 51 58 65 60 86 61 53 62 37 63 38 64 46 65 39 66 41 67
REMARK SMILES IDX 47 68 40 69 42 70 43 71 44 72 45 73 69 74 70 75 78 76 71 77
REMARK SMILES IDX 73 78 79 79 72 80 74 81 75 82 76 83 77 84 54 85 55 86 63 87
REMARK SMILES IDX 56 88 58 89 64 90 57 91 59 92 60 93 61 94 62 95
REMARK H PARENT 20 6 25 29 84 48 52 59
REMARK Flexibility Score: inf
ROOT
ATOM      1  C   UNL A   1      36.357  20.465  24.666  1.00  0.00     0.023 C 
ENDROOT
BRANCH   1   2
ATOM      2  C   UNL A   1      36.408  21.743  25.490  1.00  0.00     0.116 C 
BRANCH   2   3
ATOM      3  N   UNL A   1      35.652  21.770  26.713  1.00  0.00    -0.356 N 
ATOM      4  C   UNL A   1      34.329  22.092  26.860  1.00  0.00     0.228 C 
ATOM      5  O   UNL A   1      33.732  21.524  27.780  1.00  0.00    -0.274 OA
ATOM      6  H   UNL A   1      36.138  21.531  27.534  1.00  0.00     0.163 HD
BRANCH   4   7
ATOM      7  C   UNL A   1      33.614  23.157  25.972  1.00  0.00     0.067 C 
ATOM      8  N   UNL A   1      32.060  25.122  26.442  1.00  0.00    -0.307 N 
ATOM      9  C   UNL A   1      33.024  26.114  26.018  1.00  0.00     0.123 C 
ATOM     10  C   UNL A   1      32.618  23.882  27.002  1.00  0.00     0.140 C 
ATOM     11  C   UNL A   1      33.965  25.522  24.986  1.00  0.00     0.023 C 
ATOM     12  C   UNL A   1      34.620  24.254  25.529  1.00  0.00     0.020 C 
BRANCH   8  13
ATOM     13  C   UNL A   1      30.723  25.323  26.143  1.00  0.00     0.410 C 
ATOM     14  O   UNL A   1      29.846  24.556  26.518  1.00  0.00    -0.224 OA
BRANCH  13  15
ATOM     15  O   UNL A   1      30.507  26.412  25.360  1.00  0.00    -0.444 OA
BRANCH  15  16
ATOM     16  C   UNL A   1      30.084  26.249  23.977  1.00  0.00     0.106 C 
ATOM     17  C   UNL A   1      30.823  27.341  23.187  1.00  0.00     0.056 C 
ATOM     18  C   UNL A   1      28.576  26.493  23.882  1.00  0.00     0.056 C 
ATOM     19  C   UNL A   1      30.475  24.897  23.354  1.00  0.00     0.056 C 
ENDBRANCH  15  16
ENDBRANCH  13  15
ENDBRANCH   8  13
BRANCH   7  20
ATOM     20  C   UNL A   1      32.660  22.577  24.876  1.00  0.00     0.022 C 
BRANCH  20  21
ATOM     21  C   UNL A   1      32.910  21.325  24.021  1.00  0.00    -0.010 C 
ATOM     22  C   UNL A   1      32.786  19.825  24.384  1.00  0.00     0.003 C 
ATOM     23  C   UNL A   1      32.112  21.076  22.728  1.00  0.00     0.003 C 
ATOM     24  C   UNL A   1      32.147  19.564  23.005  1.00  0.00     0.001 C 
ENDBRANCH  20  21
ENDBRANCH   7  20
ENDBRANCH   4   7
ENDBRANCH   2   3
ENDBRANCH   1   2
BRANCH   1  25
ATOM     25  C   UNL A   1      37.629  19.620  24.736  1.00  0.00     0.023 C 
BRANCH  25  26
ATOM     26  C   UNL A   1      38.624  19.969  25.843  1.00  0.00     0.116 C 
BRANCH  26  27
ATOM     27  N   UNL A   1      39.858  19.196  25.830  1.00  0.00    -0.352 N 
ATOM     28  C   UNL A   1      41.116  19.610  26.220  1.00  0.00     0.251 C 
ATOM     29  H   UNL A   1      39.788  18.269  25.503  1.00  0.00     0.163 HD
ATOM     30  O   UNL A   1      42.078  18.854  26.135  1.00  0.00    -0.269 OA
BRANCH  28  31
ATOM     31  C   UNL A   1      41.298  21.005  26.682  1.00  0.00     0.039 A 
ATOM     32  C   UNL A   1      42.149  21.246  27.763  1.00  0.00     0.014 A 
ATOM     33  C   UNL A   1      40.727  22.069  25.980  1.00  0.00     0.014 A 
ATOM     34  C   UNL A   1      42.504  22.560  28.078  1.00  0.00     0.010 A 
ATOM     35  C   UNL A   1      41.150  23.371  26.244  1.00  0.00     0.010 A 
ATOM     36  C   UNL A   1      42.052  23.630  27.287  1.00  0.00    -0.014 A 
BRANCH  36  37
ATOM     37  C   UNL A   1      42.543  25.015  27.521  1.00  0.00     0.031 A 
ATOM     38  C   UNL A   1      41.649  26.043  28.161  1.00  0.00     0.074 A 
ATOM     39  C   UNL A   1      43.770  25.372  27.086  1.00  0.00     0.049 A 
ATOM     40  N   UNL A   1      41.894  27.301  28.417  1.00  0.00    -0.248 NA
ATOM     41  C   UNL A   1      40.295  25.608  28.541  1.00  0.00     0.031 C 
ATOM     42  C   UNL A   1      44.705  24.495  26.376  1.00  0.00     0.029 A 
ATOM     43  N   UNL A   1      44.437  26.571  27.159  1.00  0.00    -0.354 N 
ATOM     44  C   UNL A   1      40.721  27.816  28.957  1.00  0.00     0.074 A 
ATOM     45  C   UNL A   1      39.751  26.742  28.956  1.00  0.00     0.031 C 
ATOM     46  C   UNL A   1      45.823  25.182  26.088  1.00  0.00     0.029 A 
ATOM     47  C   UNL A   1      45.677  26.553  26.562  1.00  0.00     0.049 A 
ATOM     48  H   UNL A   1      44.062  27.369  27.598  1.00  0.00     0.167 HD
ATOM     49  C   UNL A   1      40.478  29.059  29.435  1.00  0.00     0.034 A 
ATOM     50  C   UNL A   1      46.590  27.534  26.404  1.00  0.00     0.034 A 
ATOM     51  C   UNL A   1      41.453  30.115  29.466  1.00  0.00     0.049 A 
ATOM     52  C   UNL A   1      46.306  28.898  26.973  1.00  0.00     0.074 A 
ATOM     53  C   UNL A   1      41.330  31.381  30.011  1.00  0.00     0.029 A 
ATOM     54  N   UNL A   1      42.724  30.036  28.921  1.00  0.00    -0.354 N 
ATOM     55  N   UNL A   1      45.248  29.315  27.627  1.00  0.00    -0.248 NA
ATOM     56  C   UNL A   1      47.354  29.917  26.816  1.00  0.00     0.031 C 
ATOM     57  C   UNL A   1      42.514  32.081  29.762  1.00  0.00     0.029 A 
ATOM     58  C   UNL A   1      43.392  31.236  29.102  1.00  0.00     0.049 A 
ATOM     59  H   UNL A   1      43.098  29.245  28.470  1.00  0.00     0.167 HD
ATOM     60  C   UNL A   1      45.521  30.629  27.992  1.00  0.00     0.074 A 
ATOM     61  C   UNL A   1      46.851  30.931  27.506  1.00  0.00     0.031 C 
ATOM     62  C   UNL A   1      44.734  31.510  28.659  1.00  0.00     0.034 A 
BRANCH  49  63
ATOM     63  C   UNL A   1      39.113  29.337  30.009  1.00  0.00     0.023 A 
ATOM     64  C   UNL A   1      38.810  28.924  31.322  1.00  0.00     0.012 A 
ATOM     65  C   UNL A   1      38.155  30.064  29.275  1.00  0.00     0.148 A 
ATOM     66  C   UNL A   1      37.565  29.201  31.885  1.00  0.00     0.002 A 
ATOM     67  C   UNL A   1      36.935  30.378  29.860  1.00  0.00     0.091 A 
ATOM     68  F   UNL A   1      38.455  30.431  28.021  1.00  0.00    -0.205 F 
ATOM     69  C   UNL A   1      36.633  29.937  31.160  1.00  0.00     0.022 A 
BRANCH  67  70
ATOM     70  S   UNL A   1      35.698  31.392  29.041  1.00  0.00     0.127 S 
ATOM     71  O   UNL A   1      35.060  30.418  28.156  1.00  0.00    -0.237 OA
ATOM     72  O   UNL A   1      34.870  31.829  30.164  1.00  0.00    -0.237 OA
ATOM     73  O   UNL A   1      36.428  32.457  28.371  1.00  0.00    -0.744 OA
ENDBRANCH  67  70
ENDBRANCH  49  63
BRANCH  50  74
ATOM     74  C   UNL A   1      47.884  27.251  25.717  1.00  0.00     0.023 A 
ATOM     75  C   UNL A   1      48.978  26.771  26.464  1.00  0.00     0.012 A 
ATOM     76  C   UNL A   1      48.036  27.452  24.332  1.00  0.00     0.148 A 
ATOM     77  C   UNL A   1      50.210  26.535  25.852  1.00  0.00     0.002 A 
ATOM     78  C   UNL A   1      49.248  27.159  23.718  1.00  0.00     0.091 A 
ATOM     79  F   UNL A   1      46.988  27.920  23.640  1.00  0.00    -0.205 F 
ATOM     80  C   UNL A   1      50.343  26.721  24.478  1.00  0.00     0.022 A 
BRANCH  78  81
ATOM     81  S   UNL A   1      49.470  27.242  21.937  1.00  0.00     0.127 S 
ATOM     82  O   UNL A   1      49.096  28.625  21.653  1.00  0.00    -0.237 OA
ATOM     83  O   UNL A   1      50.895  26.946  21.797  1.00  0.00    -0.237 OA
ATOM     84  O   UNL A   1      48.589  26.221  21.384  1.00  0.00    -0.744 OA
ENDBRANCH  78  81
ENDBRANCH  50  74
BRANCH  62  85
ATOM     85  C   UNL A   1      45.302  32.874  28.952  1.00  0.00     0.023 A 
ATOM     86  C   UNL A   1      46.073  33.085  30.112  1.00  0.00     0.012 A 
ATOM     87  C   UNL A   1      45.134  33.930  28.033  1.00  0.00     0.148 A 
ATOM     88  C   UNL A   1      46.634  34.334  30.373  1.00  0.00     0.002 A 
ATOM     89  C   UNL A   1      45.741  35.156  28.272  1.00  0.00     0.091 A 
ATOM     90  F   UNL A   1      44.384  33.714  26.943  1.00  0.00    -0.205 F 
ATOM     91  C   UNL A   1      46.480  35.365  29.448  1.00  0.00     0.022 A 
BRANCH  89  92
ATOM     92  S   UNL A   1      45.681  36.508  27.090  1.00  0.00     0.127 S 
ATOM     93  O   UNL A   1      46.314  35.906  25.919  1.00  0.00    -0.237 OA
ATOM     94  O   UNL A   1      44.242  36.737  26.957  1.00  0.00    -0.237 OA
ATOM     95  O   UNL A   1      46.415  37.609  27.700  1.00  0.00    -0.744 OA
ENDBRANCH  89  92
ENDBRANCH  62  85
ENDBRANCH  36  37
ENDBRANCH  28  31
ENDBRANCH  26  27
ENDBRANCH  25  26
ENDBRANCH   1  25
TORSDOF 19
ENDMDL
MODEL 2
REMARK VINA RESULT:     -11.3      1.692      2.509
REMARK SMILES CC(C)(C)OC(=O)N1CCC[C@@](CC2CCC2)(C(=O)NCCCCNC(=O)c2ccc(-c3c4nc(c(-c5cccc(S(=O)(=O)[O-])c5F)c5ccc([nH]5)c(-c5cccc(S(=O)(=O)[O-])c5F)c5nc(c(-c6cccc(S(=O)(=O)[O-])c6F)c6ccc3[nH]6)C=C5)C=C4)cc2)C1
REMARK SMILES IDX 22 1 21 2 20 3 18 4 19 5 12 7 8 8 9 9 91 10 10 11 11 12 6 13
REMARK SMILES IDX 7 14 5 15 2 16 1 17 3 18 4 19 13 20 14 21 15 22 17 23 16 24
REMARK SMILES IDX 23 25 24 26 25 27 26 28 27 30 28 31 29 32 90 33 30 34 89 35
REMARK SMILES IDX 31 36 32 37 33 38 83 39 34 40 88 41 82 42 84 43 35 44 87 45
REMARK SMILES IDX 81 46 80 47 36 49 68 50 48 51 67 52 49 53 52 54 66 55 85 56
REMARK SMILES IDX 50 57 51 58 65 60 86 61 53 62 37 63 38 64 46 65 39 66 41 67
REMARK SMILES IDX 47 68 40 69 42 70 43 71 44 72 45 73 69 74 70 75 78 76 71 77
REMARK SMILES IDX 73 78 79 79 72 80 74 81 75 82 76 83 77 84 54 85 55 86 63 87
REMARK SMILES IDX 56 88 58 89 64 90 57 91 59 92 60 93 61 94 62 95
REMARK H PARENT 20 6 25 29 84 48 52 59
REMARK Flexibility Score: inf
ROOT
ATOM      1  C   UNL A   1      34.315  22.458  25.754  1.00  0.00     0.023 C 
ENDROOT
BRANCH   1   2
ATOM      2  C   UNL A   1      34.026  23.951  25.796  1.00  0.00     0.116 C 
BRANCH   2   3
ATOM      3  N   UNL A   1      32.844  24.375  26.497  1.00  0.00    -0.356 N 
ATOM      4  C   UNL A   1      31.860  25.204  26.030  1.00  0.00     0.228 C 
ATOM      5  O   UNL A   1      30.723  24.997  26.467  1.00  0.00    -0.274 OA
ATOM      6  H   UNL A   1      32.730  24.031  27.412  1.00  0.00     0.163 HD
BRANCH   4   7
ATOM      7  C   UNL A   1      32.143  26.389  25.055  1.00  0.00     0.067 C 
ATOM      8  N   UNL A   1      30.782  28.370  24.207  1.00  0.00    -0.307 N 
ATOM      9  C   UNL A   1      31.608  29.351  24.877  1.00  0.00     0.123 C 
ATOM     10  C   UNL A   1      30.695  27.053  24.856  1.00  0.00     0.140 C 
ATOM     11  C   UNL A   1      33.020  28.822  25.042  1.00  0.00     0.023 C 
ATOM     12  C   UNL A   1      33.002  27.475  25.760  1.00  0.00     0.020 C 
BRANCH   8  13
ATOM     13  C   UNL A   1      30.283  28.666  22.950  1.00  0.00     0.410 C 
ATOM     14  O   UNL A   1      30.349  27.878  22.016  1.00  0.00    -0.224 OA
BRANCH  13  15
ATOM     15  O   UNL A   1      29.774  29.923  22.859  1.00  0.00    -0.444 OA
BRANCH  15  16
ATOM     16  C   UNL A   1      28.338  30.128  22.749  1.00  0.00     0.106 C 
ATOM     17  C   UNL A   1      28.083  30.489  21.277  1.00  0.00     0.056 C 
ATOM     18  C   UNL A   1      27.930  31.309  23.634  1.00  0.00     0.056 C 
ATOM     19  C   UNL A   1      27.498  28.876  23.061  1.00  0.00     0.056 C 
ENDBRANCH  15  16
ENDBRANCH  13  15
ENDBRANCH   8  13
BRANCH   7  20
ATOM     20  C   UNL A   1      32.565  25.972  23.608  1.00  0.00     0.022 C 
BRANCH  20  21
ATOM     21  C   UNL A   1      32.105  24.716  22.851  1.00  0.00    -0.010 C 
ATOM     22  C   UNL A   1      32.892  23.444  22.453  1.00  0.00     0.003 C 
ATOM     23  C   UNL A   1      30.963  23.838  23.394  1.00  0.00     0.003 C 
ATOM     24  C   UNL A   1      31.668  22.589  22.838  1.00  0.00     0.001 C 
ENDBRANCH  20  21
ENDBRANCH   7  20
ENDBRANCH   4   7
ENDBRANCH   2   3
ENDBRANCH   1   2
BRANCH   1  25
ATOM     25  C   UNL A   1      35.730  22.077  26.185  1.00  0.00     0.023 C 
BRANCH  25  26
ATOM     26  C   UNL A   1      36.791  22.022  25.085  1.00  0.00     0.116 C 
BRANCH  26  27
ATOM     27  N   UNL A   1      37.755  20.937  25.210  1.00  0.00    -0.352 N 
ATOM     28  C   UNL A   1      38.976  20.965  25.852  1.00  0.00     0.251 C 
ATOM     29  H   UNL A   1      37.505  20.083  24.788  1.00  0.00     0.163 HD
ATOM     30  O   UNL A   1      39.701  19.975  25.863  1.00  0.00    -0.269 OA
BRANCH  28  31
ATOM     31  C   UNL A   1      39.429  22.231  26.473  1.00  0.00     0.039 A 
ATOM     32  C   UNL A   1      40.443  22.181  27.432  1.00  0.00     0.014 A 
ATOM     33  C   UNL A   1      38.939  23.460  26.024  1.00  0.00     0.014 A 
ATOM     34  C   UNL A   1      41.033  23.370  27.870  1.00  0.00     0.010 A 
ATOM     35  C   UNL A   1      39.586  24.635  26.400  1.00  0.00     0.010 A 
ATOM     36  C   UNL A   1      40.648  24.603  27.317  1.00  0.00    -0.014 A 
BRANCH  36  37
ATOM     37  C   UNL A   1      41.372  25.856  27.665  1.00  0.00     0.031 A 
ATOM     38  C   UNL A   1      40.678  26.948  28.435  1.00  0.00     0.074 A 
ATOM     39  C   UNL A   1      42.632  26.046  27.220  1.00  0.00     0.049 A 
ATOM     40  N   UNL A   1      41.138  28.115  28.802  1.00  0.00    -0.248 NA
ATOM     41  C   UNL A   1      39.279  26.707  28.822  1.00  0.00     0.031 C 
ATOM     42  C   UNL A   1      43.389  25.103  26.393  1.00  0.00     0.029 A 
ATOM     43  N   UNL A   1      43.493  27.104  27.384  1.00  0.00    -0.354 N 
ATOM     44  C   UNL A   1      40.080  28.760  29.433  1.00  0.00     0.074 A 
ATOM     45  C   UNL A   1      38.943  27.868  29.366  1.00  0.00     0.031 C 
ATOM     46  C   UNL A   1      44.601  25.620  26.131  1.00  0.00     0.029 A 
ATOM     47  C   UNL A   1      44.699  26.942  26.740  1.00  0.00     0.049 A 
ATOM     48  H   UNL A   1      43.268  27.905  27.911  1.00  0.00     0.167 HD
ATOM     49  C   UNL A   1      40.062  29.971  30.039  1.00  0.00     0.034 A 
ATOM     50  C   UNL A   1      45.762  27.767  26.643  1.00  0.00     0.034 A 
ATOM     51  C   UNL A   1      41.202  30.841  30.135  1.00  0.00     0.049 A 
ATOM     52  C   UNL A   1      45.724  29.094  27.352  1.00  0.00     0.074 A 
ATOM     53  C   UNL A   1      41.307  32.048  30.804  1.00  0.00     0.029 A 
ATOM     54  N   UNL A   1      42.429  30.608  29.536  1.00  0.00    -0.354 N 
ATOM     55  N   UNL A   1      44.767  29.613  28.083  1.00  0.00    -0.248 NA
ATOM     56  C   UNL A   1      46.926  29.936  27.255  1.00  0.00     0.031 C 
ATOM     57  C   UNL A   1      42.587  32.563  30.579  1.00  0.00     0.029 A 
ATOM     58  C   UNL A   1      43.294  31.656  29.807  1.00  0.00     0.049 A 
ATOM     59  H   UNL A   1      42.654  29.816  28.997  1.00  0.00     0.167 HD
ATOM     60  C   UNL A   1      45.265  30.819  28.563  1.00  0.00     0.074 A 
ATOM     61  C   UNL A   1      46.617  30.944  28.058  1.00  0.00     0.031 C 
ATOM     62  C   UNL A   1      44.654  31.746  29.341  1.00  0.00     0.034 A 
BRANCH  49  63
ATOM     63  C   UNL A   1      38.776  30.411  30.689  1.00  0.00     0.023 A 
ATOM     64  C   UNL A   1      38.585  30.204  32.070  1.00  0.00     0.012 A 
ATOM     65  C   UNL A   1      37.789  31.091  29.948  1.00  0.00     0.148 A 
ATOM     66  C   UNL A   1      37.416  30.635  32.698  1.00  0.00     0.002 A 
ATOM     67  C   UNL A   1      36.649  31.560  30.591  1.00  0.00     0.091 A 
ATOM     68  F   UNL A   1      37.981  31.262  28.633  1.00  0.00    -0.205 F 
ATOM     69  C   UNL A   1      36.456  31.322  31.962  1.00  0.00     0.022 A 
BRANCH  67  70
ATOM     70  S   UNL A   1      35.391  32.528  29.751  1.00  0.00     0.127 S 
ATOM     71  O   UNL A   1      34.411  32.725  30.818  1.00  0.00    -0.237 OA
ATOM     72  O   UNL A   1      36.132  33.731  29.374  1.00  0.00    -0.237 OA
ATOM     73  O   UNL A   1      34.937  31.717  28.631  1.00  0.00    -0.744 OA
ENDBRANCH  67  70
ENDBRANCH  49  63
BRANCH  50  74
ATOM     74  C   UNL A   1      46.974  27.345  25.884  1.00  0.00     0.023 A 
ATOM     75  C   UNL A   1      47.950  26.550  26.515  1.00  0.00     0.012 A 
ATOM     76  C   UNL A   1      47.164  27.724  24.541  1.00  0.00     0.148 A 
ATOM     77  C   UNL A   1      49.111  26.173  25.838  1.00  0.00     0.002 A 
ATOM     78  C   UNL A   1      48.295  27.296  23.854  1.00  0.00     0.091 A 
ATOM     79  F   UNL A   1      46.231  28.490  23.959  1.00  0.00    -0.205 F 
ATOM     80  C   UNL A   1      49.280  26.539  24.505  1.00  0.00     0.022 A 
BRANCH  78  81
ATOM     81  S   UNL A   1      48.530  27.608  22.100  1.00  0.00     0.127 S 
ATOM     82  O   UNL A   1      49.638  28.559  22.111  1.00  0.00    -0.237 OA
ATOM     83  O   UNL A   1      48.865  26.275  21.600  1.00  0.00    -0.237 OA
ATOM     84  O   UNL A   1      47.256  28.125  21.618  1.00  0.00    -0.744 OA
ENDBRANCH  78  81
ENDBRANCH  50  74
BRANCH  62  85
ATOM     85  C   UNL A   1      45.450  32.960  29.743  1.00  0.00     0.023 A 
ATOM     86  C   UNL A   1      46.231  32.937  30.916  1.00  0.00     0.012 A 
ATOM     87  C   UNL A   1      45.484  34.099  28.913  1.00  0.00     0.148 A 
ATOM     88  C   UNL A   1      47.002  34.042  31.276  1.00  0.00     0.002 A 
ATOM     89  C   UNL A   1      46.295  35.174  29.250  1.00  0.00     0.091 A 
ATOM     90  F   UNL A   1      44.721  34.108  27.810  1.00  0.00    -0.205 F 
ATOM     91  C   UNL A   1      47.044  35.154  30.437  1.00  0.00     0.022 A 
BRANCH  89  92
ATOM     92  S   UNL A   1      46.491  36.606  28.182  1.00  0.00     0.127 S 
ATOM     93  O   UNL A   1      45.326  37.410  28.546  1.00  0.00    -0.237 OA
ATOM     94  O   UNL A   1      47.773  37.152  28.629  1.00  0.00    -0.237 OA
ATOM     95  O   UNL A   1      46.494  36.094  26.818  1.00  0.00    -0.744 OA
ENDBRANCH  89  92
ENDBRANCH  62  85
ENDBRANCH  36  37
ENDBRANCH  28  31
ENDBRANCH  26  27
ENDBRANCH  25  26
ENDBRANCH   1  25
TORSDOF 19
ENDMDL
MODEL 3
REMARK VINA RESULT:     -11.2      2.100      7.906
REMARK SMILES CC(C)(C)OC(=O)N1CCC[C@@](CC2CCC2)(C(=O)NCCCCNC(=O)c2ccc(-c3c4nc(c(-c5cccc(S(=O)(=O)[O-])c5F)c5ccc([nH]5)c(-c5cccc(S(=O)(=O)[O-])c5F)c5nc(c(-c6cccc(S(=O)(=O)[O-])c6F)c6ccc3[nH]6)C=C5)C=C4)cc2)C1
REMARK SMILES IDX 22 1 21 2 20 3 18 4 19 5 12 7 8 8 9 9 91 10 10 11 11 12 6 13
REMARK SMILES IDX 7 14 5 15 2 16 1 17 3 18 4 19 13 20 14 21 15 22 17 23 16 24
REMARK SMILES IDX 23 25 24 26 25 27 26 28 27 30 28 31 29 32 90 33 30 34 89 35
REMARK SMILES IDX 31 36 32 37 33 38 83 39 34 40 88 41 82 42 84 43 35 44 87 45
REMARK SMILES IDX 81 46 80 47 36 49 68 50 48 51 67 52 49 53 52 54 66 55 85 56
REMARK SMILES IDX 50 57 51 58 65 60 86 61 53 62 37 63 38 64 46 65 39 66 41 67
REMARK SMILES IDX 47 68 40 69 42 70 43 71 44 72 45 73 69 74 70 75 78 76 71 77
REMARK SMILES IDX 73 78 79 79 72 80 74 81 75 82 76 83 77 84 54 85 55 86 63 87
REMARK SMILES IDX 56 88 58 89 64 90 57 91 59 92 60 93 61 94 62 95
REMARK H PARENT 20 6 25 29 84 48 52 59
REMARK Flexibility Score: inf
ROOT
ATOM      1  C   UNL A   1      34.073  22.488  26.951  1.00  0.00     0.023 C 
ENDROOT
BRANCH   1   2
ATOM      2  C   UNL A   1      32.633  22.382  26.470  1.00  0.00     0.116 C 
BRANCH   2   3
ATOM      3  N   UNL A   1      31.673  23.273  27.064  1.00  0.00    -0.356 N 
ATOM      4  C   UNL A   1      30.889  24.191  26.419  1.00  0.00     0.228 C 
ATOM      5  O   UNL A   1      29.787  24.417  26.930  1.00  0.00    -0.274 OA
ATOM      6  H   UNL A   1      31.568  23.216  28.041  1.00  0.00     0.163 HD
BRANCH   4   7
ATOM      7  C   UNL A   1      31.363  24.968  25.152  1.00  0.00     0.067 C 
ATOM      8  N   UNL A   1      30.886  27.280  24.191  1.00  0.00    -0.307 N 
ATOM      9  C   UNL A   1      32.237  27.755  24.401  1.00  0.00     0.123 C 
ATOM     10  C   UNL A   1      30.409  26.260  25.137  1.00  0.00     0.140 C 
ATOM     11  C   UNL A   1      33.212  26.594  24.360  1.00  0.00     0.023 C 
ATOM     12  C   UNL A   1      32.800  25.519  25.362  1.00  0.00     0.020 C 
BRANCH   8  13
ATOM     13  C   UNL A   1      30.211  27.674  23.048  1.00  0.00     0.410 C 
ATOM     14  O   UNL A   1      30.628  27.429  21.923  1.00  0.00    -0.224 OA
BRANCH  13  15
ATOM     15  O   UNL A   1      29.091  28.397  23.310  1.00  0.00    -0.444 OA
BRANCH  15  16
ATOM     16  C   UNL A   1      29.079  29.837  23.101  1.00  0.00     0.106 C 
ATOM     17  C   UNL A   1      27.611  30.265  23.255  1.00  0.00     0.056 C 
ATOM     18  C   UNL A   1      29.547  30.141  21.676  1.00  0.00     0.056 C 
ATOM     19  C   UNL A   1      29.894  30.629  24.140  1.00  0.00     0.056 C 
ENDBRANCH  15  16
ENDBRANCH  13  15
ENDBRANCH   8  13
BRANCH   7  20
ATOM     20  C   UNL A   1      31.060  24.264  23.789  1.00  0.00     0.022 C 
BRANCH  20  21
ATOM     21  C   UNL A   1      32.081  23.566  22.877  1.00  0.00    -0.010 C 
ATOM     22  C   UNL A   1      33.137  24.163  21.915  1.00  0.00     0.003 C 
ATOM     23  C   UNL A   1      33.151  22.624  23.462  1.00  0.00     0.003 C 
ATOM     24  C   UNL A   1      34.144  23.095  22.386  1.00  0.00     0.001 C 
ENDBRANCH  20  21
ENDBRANCH   7  20
ENDBRANCH   4   7
ENDBRANCH   2   3
ENDBRANCH   1   2
BRANCH   1  25
ATOM     25  C   UNL A   1      35.031  21.497  26.291  1.00  0.00     0.023 C 
BRANCH  25  26
ATOM     26  C   UNL A   1      36.312  22.079  25.690  1.00  0.00     0.116 C 
BRANCH  26  27
ATOM     27  N   UNL A   1      37.403  21.128  25.524  1.00  0.00    -0.352 N 
ATOM     28  C   UNL A   1      38.722  21.286  25.899  1.00  0.00     0.251 C 
ATOM     29  H   UNL A   1      37.173  20.273  25.094  1.00  0.00     0.163 HD
ATOM     30  O   UNL A   1      39.546  20.404  25.678  1.00  0.00    -0.269 OA
BRANCH  28  31
ATOM     31  C   UNL A   1      39.143  22.566  26.514  1.00  0.00     0.039 A 
ATOM     32  C   UNL A   1      40.213  22.557  27.411  1.00  0.00     0.014 A 
ATOM     33  C   UNL A   1      38.562  23.772  26.117  1.00  0.00     0.014 A 
ATOM     34  C   UNL A   1      40.765  23.769  27.834  1.00  0.00     0.010 A 
ATOM     35  C   UNL A   1      39.168  24.976  26.474  1.00  0.00     0.010 A 
ATOM     36  C   UNL A   1      40.283  24.988  27.327  1.00  0.00    -0.014 A 
BRANCH  36  37
ATOM     37  C   UNL A   1      40.957  26.273  27.653  1.00  0.00     0.031 A 
ATOM     38  C   UNL A   1      42.383  26.513  27.234  1.00  0.00     0.074 A 
ATOM     39  C   UNL A   1      40.312  27.198  28.395  1.00  0.00     0.049 A 
ATOM     40  N   UNL A   1      43.140  27.556  27.453  1.00  0.00    -0.248 NA
ATOM     41  C   UNL A   1      43.053  25.432  26.494  1.00  0.00     0.031 C 
ATOM     42  C   UNL A   1      38.958  27.054  28.936  1.00  0.00     0.029 A 
ATOM     43  N   UNL A   1      40.715  28.433  28.841  1.00  0.00    -0.354 N 
ATOM     44  C   UNL A   1      44.381  27.246  26.909  1.00  0.00     0.074 A 
ATOM     45  C   UNL A   1      44.287  25.902  26.381  1.00  0.00     0.031 C 
ATOM     46  C   UNL A   1      38.641  28.160  29.631  1.00  0.00     0.029 A 
ATOM     47  C   UNL A   1      39.775  29.076  29.615  1.00  0.00     0.049 A 
ATOM     48  H   UNL A   1      41.594  28.822  28.629  1.00  0.00     0.167 HD
ATOM     49  C   UNL A   1      45.492  28.018  26.829  1.00  0.00     0.034 A 
ATOM     50  C   UNL A   1      39.823  30.267  30.248  1.00  0.00     0.034 A 
ATOM     51  C   UNL A   1      45.573  29.366  27.323  1.00  0.00     0.049 A 
ATOM     52  C   UNL A   1      41.059  31.116  30.115  1.00  0.00     0.074 A 
ATOM     53  C   UNL A   1      46.625  30.259  27.210  1.00  0.00     0.029 A 
ATOM     54  N   UNL A   1      44.575  30.011  28.033  1.00  0.00    -0.354 N 
ATOM     55  N   UNL A   1      42.164  30.868  29.454  1.00  0.00    -0.248 NA
ATOM     56  C   UNL A   1      41.042  32.425  30.785  1.00  0.00     0.031 C 
ATOM     57  C   UNL A   1      46.275  31.432  27.885  1.00  0.00     0.029 A 
ATOM     58  C   UNL A   1      44.990  31.287  28.380  1.00  0.00     0.049 A 
ATOM     59  H   UNL A   1      43.700  29.622  28.259  1.00  0.00     0.167 HD
ATOM     60  C   UNL A   1      42.955  32.003  29.596  1.00  0.00     0.074 A 
ATOM     61  C   UNL A   1      42.194  32.948  30.387  1.00  0.00     0.031 C 
ATOM     62  C   UNL A   1      44.204  32.237  29.123  1.00  0.00     0.034 A 
BRANCH  49  63
ATOM     63  C   UNL A   1      46.700  27.440  26.140  1.00  0.00     0.023 A 
ATOM     64  C   UNL A   1      46.872  27.629  24.754  1.00  0.00     0.012 A 
ATOM     65  C   UNL A   1      47.698  26.770  26.875  1.00  0.00     0.148 A 
ATOM     66  C   UNL A   1      48.000  27.132  24.103  1.00  0.00     0.002 A 
ATOM     67  C   UNL A   1      48.843  26.320  26.227  1.00  0.00     0.091 A 
ATOM     68  F   UNL A   1      47.509  26.583  28.188  1.00  0.00    -0.205 F 
ATOM     69  C   UNL A   1      48.990  26.489  24.840  1.00  0.00     0.022 A 
BRANCH  67  70
ATOM     70  S   UNL A   1      50.213  25.553  27.099  1.00  0.00     0.127 S 
ATOM     71  O   UNL A   1      49.597  24.320  27.588  1.00  0.00    -0.237 OA
ATOM     72  O   UNL A   1      51.190  25.364  26.027  1.00  0.00    -0.237 OA
ATOM     73  O   UNL A   1      50.615  26.498  28.131  1.00  0.00    -0.744 OA
ENDBRANCH  67  70
ENDBRANCH  49  63
BRANCH  50  74
ATOM     74  C   UNL A   1      38.647  30.752  31.027  1.00  0.00     0.023 A 
ATOM     75  C   UNL A   1      38.604  30.552  32.420  1.00  0.00     0.012 A 
ATOM     76  C   UNL A   1      37.576  31.414  30.397  1.00  0.00     0.148 A 
ATOM     77  C   UNL A   1      37.498  30.963  33.166  1.00  0.00     0.002 A 
ATOM     78  C   UNL A   1      36.504  31.874  31.154  1.00  0.00     0.091 A 
ATOM     79  F   UNL A   1      37.629  31.587  29.069  1.00  0.00    -0.205 F 
ATOM     80  C   UNL A   1      36.452  31.631  32.535  1.00  0.00     0.022 A 
BRANCH  78  81
ATOM     81  S   UNL A   1      35.179  32.859  30.446  1.00  0.00     0.127 S 
ATOM     82  O   UNL A   1      34.310  33.066  31.602  1.00  0.00    -0.237 OA
ATOM     83  O   UNL A   1      35.898  34.049  29.994  1.00  0.00    -0.237 OA
ATOM     84  O   UNL A   1      34.620  32.051  29.370  1.00  0.00    -0.744 OA
ENDBRANCH  78  81
ENDBRANCH  50  74
BRANCH  62  85
ATOM     85  C   UNL A   1      44.818  33.584  29.402  1.00  0.00     0.023 A 
ATOM     86  C   UNL A   1      45.523  33.805  30.603  1.00  0.00     0.012 A 
ATOM     87  C   UNL A   1      44.761  34.609  28.437  1.00  0.00     0.148 A 
ATOM     88  C   UNL A   1      46.127  35.036  30.853  1.00  0.00     0.002 A 
ATOM     89  C   UNL A   1      45.411  35.814  28.670  1.00  0.00     0.091 A 
ATOM     90  F   UNL A   1      44.072  34.385  27.308  1.00  0.00    -0.205 F 
ATOM     91  C   UNL A   1      46.082  36.035  29.883  1.00  0.00     0.022 A 
BRANCH  89  92
ATOM     92  S   UNL A   1      45.492  37.120  27.438  1.00  0.00     0.127 S 
ATOM     93  O   UNL A   1      44.082  37.477  27.290  1.00  0.00    -0.237 OA
ATOM     94  O   UNL A   1      46.310  38.129  28.112  1.00  0.00    -0.237 OA
ATOM     95  O   UNL A   1      46.111  36.525  26.261  1.00  0.00    -0.744 OA
ENDBRANCH  89  92
ENDBRANCH  62  85
ENDBRANCH  36  37
ENDBRANCH  28  31
ENDBRANCH  26  27
ENDBRANCH  25  26
ENDBRANCH   1  25
TORSDOF 19
ENDMDL
