MODEL 1
REMARK VINA RESULT:     -11.2      0.000      0.000
REMARK SMILES CN(c1ccc(C(=O)NCCCCNC(=O)c2ccc(-c3c4nc(c(-c5cccc(S(=O)(=O)[O-])c5F)c5ccc([nH]5)c(-c5cccc(S(=O)(=O)[O-])c5F)c5nc(c(-c6cccc(S(=O)(=O)[O-])c6F)c6ccc3[nH]6)C=C5)C=C4)cc2)cc1[N+](=O)[O-])C1CC1
REMARK SMILES IDX 12 1 11 2 10 3 9 4 7 5 8 6 6 8 3 9 4 10 81 11 5 12 80 13
REMARK SMILES IDX 2 14 1 15 85 16 86 17 87 18 82 19 83 20 84 21 13 22 14 23
REMARK SMILES IDX 15 24 16 26 17 27 18 28 79 29 19 30 78 31 20 32 21 33 22 34
REMARK SMILES IDX 72 35 23 36 77 37 71 38 73 39 24 40 76 41 70 42 69 43 25 45
REMARK SMILES IDX 57 46 37 47 56 48 38 49 41 50 55 51 74 52 39 53 40 54 54 56
REMARK SMILES IDX 75 57 42 58 26 59 27 60 35 61 28 62 30 63 36 64 29 65 31 66
REMARK SMILES IDX 32 67 33 68 34 69 58 70 59 71 67 72 60 73 62 74 68 75 61 76
REMARK SMILES IDX 63 77 64 78 65 79 66 80 43 81 44 82 52 83 45 84 47 85 53 86
REMARK SMILES IDX 46 87 48 88 49 89 50 90 51 91
REMARK H PARENT 9 7 14 25 73 44 41 55
REMARK Flexibility Score: inf
ROOT
ATOM      1  C   UNL A   1      35.198  21.719  25.961  1.00  0.00     0.023 C 
ENDROOT
BRANCH   1   2
ATOM      2  C   UNL A   1      34.518  20.523  25.288  1.00  0.00     0.023 C 
BRANCH   2   3
ATOM      3  C   UNL A   1      32.990  20.594  25.281  1.00  0.00     0.116 C 
BRANCH   3   4
ATOM      4  N   UNL A   1      32.480  20.421  23.934  1.00  0.00    -0.352 N 
ATOM      5  C   UNL A   1      32.172  21.325  22.953  1.00  0.00     0.251 C 
ATOM      6  O   UNL A   1      31.783  20.899  21.867  1.00  0.00    -0.269 OA
ATOM      7  H   UNL A   1      32.330  19.482  23.679  1.00  0.00     0.163 HD
BRANCH   5   8
ATOM      8  C   UNL A   1      32.336  22.793  23.123  1.00  0.00     0.046 A 
ATOM      9  C   UNL A   1      32.860  25.587  23.406  1.00  0.00     0.116 A 
ATOM     10  C   UNL A   1      33.873  24.679  23.058  1.00  0.00     0.034 A 
ATOM     11  C   UNL A   1      31.580  25.049  23.590  1.00  0.00     0.293 A 
ATOM     12  C   UNL A   1      33.620  23.310  22.919  1.00  0.00     0.016 A 
ATOM     13  C   UNL A   1      31.303  23.679  23.424  1.00  0.00     0.101 A 
BRANCH   9  14
ATOM     14  N   UNL A   1      33.219  26.932  23.549  1.00  0.00    -0.366 N 
ATOM     15  C   UNL A   1      33.531  27.707  22.354  1.00  0.00     0.144 C 
BRANCH  14  16
ATOM     16  C   UNL A   1      33.673  27.468  24.841  1.00  0.00     0.082 C 
ATOM     17  C   UNL A   1      32.684  28.147  25.752  1.00  0.00     0.027 C 
ATOM     18  C   UNL A   1      33.351  26.876  26.188  1.00  0.00     0.027 C 
ENDBRANCH  14  16
ENDBRANCH   9  14
BRANCH  11  19
ATOM     19  N   UNL A   1      30.465  25.888  23.986  1.00  0.00     0.065 N 
ATOM     20  O   UNL A   1      30.031  26.672  23.128  1.00  0.00    -0.258 OA
ATOM     21  O   UNL A   1      30.041  25.793  25.146  1.00  0.00    -0.258 OA
ENDBRANCH  11  19
ENDBRANCH   5   8
ENDBRANCH   3   4
ENDBRANCH   2   3
ENDBRANCH   1   2
BRANCH   1  22
ATOM     22  C   UNL A   1      36.567  22.076  25.394  1.00  0.00     0.116 C 
BRANCH  22  23
ATOM     23  N   UNL A   1      37.550  21.014  25.557  1.00  0.00    -0.352 N 
ATOM     24  C   UNL A   1      38.842  21.115  26.021  1.00  0.00     0.251 C 
ATOM     25  H   UNL A   1      37.252  20.111  25.304  1.00  0.00     0.163 HD
ATOM     26  O   UNL A   1      39.587  20.149  26.004  1.00  0.00    -0.269 OA
BRANCH  24  27
ATOM     27  C   UNL A   1      39.322  22.430  26.498  1.00  0.00     0.039 A 
ATOM     28  C   UNL A   1      40.355  22.466  27.439  1.00  0.00     0.014 A 
ATOM     29  C   UNL A   1      38.791  23.612  25.979  1.00  0.00     0.014 A 
ATOM     30  C   UNL A   1      40.903  23.695  27.809  1.00  0.00     0.010 A 
ATOM     31  C   UNL A   1      39.381  24.829  26.300  1.00  0.00     0.010 A 
ATOM     32  C   UNL A   1      40.444  24.882  27.214  1.00  0.00    -0.014 A 
BRANCH  32  33
ATOM     33  C   UNL A   1      41.070  26.192  27.523  1.00  0.00     0.031 A 
ATOM     34  C   UNL A   1      42.495  26.457  27.122  1.00  0.00     0.074 A 
ATOM     35  C   UNL A   1      40.384  27.102  28.242  1.00  0.00     0.049 A 
ATOM     36  N   UNL A   1      43.240  27.502  27.372  1.00  0.00    -0.248 NA
ATOM     37  C   UNL A   1      43.181  25.399  26.361  1.00  0.00     0.031 C 
ATOM     38  C   UNL A   1      39.020  26.931  28.748  1.00  0.00     0.029 A 
ATOM     39  N   UNL A   1      40.749  28.345  28.695  1.00  0.00    -0.354 N 
ATOM     40  C   UNL A   1      44.484  27.219  26.824  1.00  0.00     0.074 A 
ATOM     41  C   UNL A   1      44.409  25.889  26.262  1.00  0.00     0.031 C 
ATOM     42  C   UNL A   1      38.664  28.028  29.437  1.00  0.00     0.029 A 
ATOM     43  C   UNL A   1      39.780  28.969  29.445  1.00  0.00     0.049 A 
ATOM     44  H   UNL A   1      41.625  28.753  28.500  1.00  0.00     0.167 HD
ATOM     45  C   UNL A   1      45.582  28.010  26.759  1.00  0.00     0.034 A 
ATOM     46  C   UNL A   1      39.791  30.162  30.070  1.00  0.00     0.034 A 
ATOM     47  C   UNL A   1      45.639  29.349  27.278  1.00  0.00     0.049 A 
ATOM     48  C   UNL A   1      41.017  31.030  29.960  1.00  0.00     0.074 A 
ATOM     49  C   UNL A   1      46.685  30.253  27.214  1.00  0.00     0.029 A 
ATOM     50  N   UNL A   1      44.605  29.981  27.953  1.00  0.00    -0.354 N 
ATOM     51  N   UNL A   1      42.135  30.800  29.314  1.00  0.00    -0.248 NA
ATOM     52  C   UNL A   1      40.969  32.337  30.632  1.00  0.00     0.031 C 
ATOM     53  C   UNL A   1      46.282  31.432  27.852  1.00  0.00     0.029 A 
ATOM     54  C   UNL A   1      44.985  31.264  28.305  1.00  0.00     0.049 A 
ATOM     55  H   UNL A   1      43.731  29.576  28.152  1.00  0.00     0.167 HD
ATOM     56  C   UNL A   1      42.905  31.947  29.469  1.00  0.00     0.074 A 
ATOM     57  C   UNL A   1      42.118  32.878  30.251  1.00  0.00     0.031 C 
ATOM     58  C   UNL A   1      44.160  32.202  29.022  1.00  0.00     0.034 A 
BRANCH  45  59
ATOM     59  C   UNL A   1      46.786  27.477  26.031  1.00  0.00     0.023 A 
ATOM     60  C   UNL A   1      46.900  27.699  24.643  1.00  0.00     0.012 A 
ATOM     61  C   UNL A   1      47.827  26.819  26.715  1.00  0.00     0.148 A 
ATOM     62  C   UNL A   1      48.018  27.251  23.941  1.00  0.00     0.002 A 
ATOM     63  C   UNL A   1      48.957  26.411  26.013  1.00  0.00     0.091 A 
ATOM     64  F   UNL A   1      47.691  26.599  28.029  1.00  0.00    -0.205 F 
ATOM     65  C   UNL A   1      49.050  26.618  24.627  1.00  0.00     0.022 A 
BRANCH  63  66
ATOM     66  S   UNL A   1      50.374  25.649  26.813  1.00  0.00     0.127 S 
ATOM     67  O   UNL A   1      50.764  26.683  27.769  1.00  0.00    -0.237 OA
ATOM     68  O   UNL A   1      49.782  24.454  27.414  1.00  0.00    -0.237 OA
ATOM     69  O   UNL A   1      51.338  25.383  25.753  1.00  0.00    -0.744 OA
ENDBRANCH  63  66
ENDBRANCH  45  59
BRANCH  46  70
ATOM     70  C   UNL A   1      38.581  30.647  30.792  1.00  0.00     0.023 A 
ATOM     71  C   UNL A   1      38.465  30.409  32.176  1.00  0.00     0.012 A 
ATOM     72  C   UNL A   1      37.550  31.339  30.129  1.00  0.00     0.148 A 
ATOM     73  C   UNL A   1      37.331  30.816  32.878  1.00  0.00     0.002 A 
ATOM     74  C   UNL A   1      36.445  31.790  30.845  1.00  0.00     0.091 A 
ATOM     75  F   UNL A   1      37.665  31.543  28.809  1.00  0.00    -0.205 F 
ATOM     76  C   UNL A   1      36.325  31.514  32.215  1.00  0.00     0.022 A 
BRANCH  74  77
ATOM     77  S   UNL A   1      35.172  32.805  30.087  1.00  0.00     0.127 S 
ATOM     78  O   UNL A   1      35.945  33.945  29.603  1.00  0.00    -0.237 OA
ATOM     79  O   UNL A   1      34.655  31.922  29.040  1.00  0.00    -0.237 OA
ATOM     80  O   UNL A   1      34.218  33.082  31.153  1.00  0.00    -0.744 OA
ENDBRANCH  74  77
ENDBRANCH  46  70
BRANCH  58  81
ATOM     81  C   UNL A   1      44.749  33.552  29.327  1.00  0.00     0.023 A 
ATOM     82  C   UNL A   1      45.483  33.739  30.514  1.00  0.00     0.012 A 
ATOM     83  C   UNL A   1      44.645  34.609  28.401  1.00  0.00     0.148 A 
ATOM     84  C   UNL A   1      46.082  34.967  30.789  1.00  0.00     0.002 A 
ATOM     85  C   UNL A   1      45.282  35.816  28.661  1.00  0.00     0.091 A 
ATOM     86  F   UNL A   1      43.925  34.415  27.287  1.00  0.00    -0.205 F 
ATOM     87  C   UNL A   1      45.992  36.000  29.859  1.00  0.00     0.022 A 
BRANCH  85  88
ATOM     88  S   UNL A   1      45.297  37.169  27.479  1.00  0.00     0.127 S 
ATOM     89  O   UNL A   1      46.050  38.190  28.204  1.00  0.00    -0.237 OA
ATOM     90  O   UNL A   1      46.005  36.580  26.341  1.00  0.00    -0.237 OA
ATOM     91  O   UNL A   1      43.900  37.488  27.218  1.00  0.00    -0.744 OA
ENDBRANCH  85  88
ENDBRANCH  58  81
ENDBRANCH  32  33
ENDBRANCH  24  27
ENDBRANCH  22  23
ENDBRANCH   1  22
TORSDOF 17
ENDMDL
MODEL 2
REMARK VINA RESULT:     -11.2      1.632      1.983
REMARK SMILES CN(c1ccc(C(=O)NCCCCNC(=O)c2ccc(-c3c4nc(c(-c5cccc(S(=O)(=O)[O-])c5F)c5ccc([nH]5)c(-c5cccc(S(=O)(=O)[O-])c5F)c5nc(c(-c6cccc(S(=O)(=O)[O-])c6F)c6ccc3[nH]6)C=C5)C=C4)cc2)cc1[N+](=O)[O-])C1CC1
REMARK SMILES IDX 12 1 11 2 10 3 9 4 7 5 8 6 6 8 3 9 4 10 81 11 5 12 80 13
REMARK SMILES IDX 2 14 1 15 85 16 86 17 87 18 82 19 83 20 84 21 13 22 14 23
REMARK SMILES IDX 15 24 16 26 17 27 18 28 79 29 19 30 78 31 20 32 21 33 22 34
REMARK SMILES IDX 72 35 23 36 77 37 71 38 73 39 24 40 76 41 70 42 69 43 25 45
REMARK SMILES IDX 57 46 37 47 56 48 38 49 41 50 55 51 74 52 39 53 40 54 54 56
REMARK SMILES IDX 75 57 42 58 26 59 27 60 35 61 28 62 30 63 36 64 29 65 31 66
REMARK SMILES IDX 32 67 33 68 34 69 58 70 59 71 67 72 60 73 62 74 68 75 61 76
REMARK SMILES IDX 63 77 64 78 65 79 66 80 43 81 44 82 52 83 45 84 47 85 53 86
REMARK SMILES IDX 46 87 48 88 49 89 50 90 51 91
REMARK H PARENT 9 7 14 25 73 44 41 55
REMARK Flexibility Score: inf
ROOT
ATOM      1  C   UNL A   1      35.602  21.230  25.237  1.00  0.00     0.023 C 
ENDROOT
BRANCH   1   2
ATOM      2  C   UNL A   1      34.678  21.990  24.281  1.00  0.00     0.023 C 
BRANCH   2   3
ATOM      3  C   UNL A   1      33.196  21.648  24.437  1.00  0.00     0.116 C 
BRANCH   3   4
ATOM      4  N   UNL A   1      32.763  21.877  25.803  1.00  0.00    -0.352 N 
ATOM      5  C   UNL A   1      32.446  23.025  26.478  1.00  0.00     0.251 C 
ATOM      6  O   UNL A   1      32.065  22.932  27.644  1.00  0.00    -0.269 OA
ATOM      7  H   UNL A   1      32.682  21.057  26.341  1.00  0.00     0.163 HD
BRANCH   5   8
ATOM      8  C   UNL A   1      32.487  24.372  25.851  1.00  0.00     0.046 A 
ATOM      9  C   UNL A   1      32.761  26.988  24.735  1.00  0.00     0.116 A 
ATOM     10  C   UNL A   1      33.783  26.403  25.499  1.00  0.00     0.034 A 
ATOM     11  C   UNL A   1      31.611  26.214  24.537  1.00  0.00     0.293 A 
ATOM     12  C   UNL A   1      33.652  25.122  26.048  1.00  0.00     0.016 A 
ATOM     13  C   UNL A   1      31.477  24.912  25.057  1.00  0.00     0.101 A 
BRANCH   9  14
ATOM     14  N   UNL A   1      32.976  28.284  24.253  1.00  0.00    -0.366 N 
ATOM     15  C   UNL A   1      33.850  28.471  23.102  1.00  0.00     0.144 C 
BRANCH  14  16
ATOM     16  C   UNL A   1      32.689  29.464  25.083  1.00  0.00     0.082 C 
ATOM     17  C   UNL A   1      31.311  30.072  25.060  1.00  0.00     0.027 C 
ATOM     18  C   UNL A   1      31.839  29.466  26.326  1.00  0.00     0.027 C 
ENDBRANCH  14  16
ENDBRANCH   9  14
BRANCH  11  19
ATOM     19  N   UNL A   1      30.478  26.731  23.794  1.00  0.00     0.065 N 
ATOM     20  O   UNL A   1      29.372  26.660  24.353  1.00  0.00    -0.258 OA
ATOM     21  O   UNL A   1      30.675  27.178  22.657  1.00  0.00    -0.258 OA
ENDBRANCH  11  19
ENDBRANCH   5   8
ENDBRANCH   3   4
ENDBRANCH   2   3
ENDBRANCH   1   2
BRANCH   1  22
ATOM     22  C   UNL A   1      37.026  21.768  25.312  1.00  0.00     0.116 C 
BRANCH  22  23
ATOM     23  N   UNL A   1      38.018  20.731  25.553  1.00  0.00    -0.352 N 
ATOM     24  C   UNL A   1      39.280  20.870  26.087  1.00  0.00     0.251 C 
ATOM     25  H   UNL A   1      37.753  19.816  25.306  1.00  0.00     0.163 HD
ATOM     26  O   UNL A   1      40.044  19.919  26.135  1.00  0.00    -0.269 OA
BRANCH  24  27
ATOM     27  C   UNL A   1      39.706  22.204  26.560  1.00  0.00     0.039 A 
ATOM     28  C   UNL A   1      40.671  22.283  27.568  1.00  0.00     0.014 A 
ATOM     29  C   UNL A   1      39.194  23.363  25.973  1.00  0.00     0.014 A 
ATOM     30  C   UNL A   1      41.174  23.530  27.940  1.00  0.00     0.010 A 
ATOM     31  C   UNL A   1      39.743  24.598  26.299  1.00  0.00     0.010 A 
ATOM     32  C   UNL A   1      40.739  24.693  27.283  1.00  0.00    -0.014 A 
BRANCH  32  33
ATOM     33  C   UNL A   1      41.322  26.021  27.597  1.00  0.00     0.031 A 
ATOM     34  C   UNL A   1      42.737  26.334  27.196  1.00  0.00     0.074 A 
ATOM     35  C   UNL A   1      40.608  26.905  28.322  1.00  0.00     0.049 A 
ATOM     36  N   UNL A   1      43.448  27.402  27.451  1.00  0.00    -0.248 NA
ATOM     37  C   UNL A   1      43.457  25.303  26.430  1.00  0.00     0.031 C 
ATOM     38  C   UNL A   1      39.251  26.687  28.828  1.00  0.00     0.029 A 
ATOM     39  N   UNL A   1      40.933  28.157  28.780  1.00  0.00    -0.354 N 
ATOM     40  C   UNL A   1      44.701  27.162  26.900  1.00  0.00     0.074 A 
ATOM     41  C   UNL A   1      44.668  25.833  26.332  1.00  0.00     0.031 C 
ATOM     42  C   UNL A   1      38.860  27.769  29.523  1.00  0.00     0.029 A 
ATOM     43  C   UNL A   1      39.945  28.745  29.534  1.00  0.00     0.049 A 
ATOM     44  H   UNL A   1      41.795  28.594  28.586  1.00  0.00     0.167 HD
ATOM     45  C   UNL A   1      45.772  27.989  26.838  1.00  0.00     0.034 A 
ATOM     46  C   UNL A   1      39.918  29.935  30.166  1.00  0.00     0.034 A 
ATOM     47  C   UNL A   1      45.787  29.327  27.364  1.00  0.00     0.049 A 
ATOM     48  C   UNL A   1      41.115  30.843  30.058  1.00  0.00     0.074 A 
ATOM     49  C   UNL A   1      46.802  30.264  27.303  1.00  0.00     0.029 A 
ATOM     50  N   UNL A   1      44.733  29.920  28.043  1.00  0.00    -0.354 N 
ATOM     51  N   UNL A   1      42.239  30.653  29.411  1.00  0.00    -0.248 NA
ATOM     52  C   UNL A   1      41.026  32.144  30.736  1.00  0.00     0.031 C 
ATOM     53  C   UNL A   1      46.362  31.426  27.948  1.00  0.00     0.029 A 
ATOM     54  C   UNL A   1      45.071  31.214  28.401  1.00  0.00     0.049 A 
ATOM     55  H   UNL A   1      43.873  29.486  28.240  1.00  0.00     0.167 HD
ATOM     56  C   UNL A   1      42.972  31.823  29.570  1.00  0.00     0.074 A 
ATOM     57  C   UNL A   1      42.155  32.724  30.358  1.00  0.00     0.031 C 
ATOM     58  C   UNL A   1      44.217  32.121  29.123  1.00  0.00     0.034 A 
BRANCH  45  59
ATOM     59  C   UNL A   1      46.992  27.498  26.107  1.00  0.00     0.023 A 
ATOM     60  C   UNL A   1      47.896  26.648  26.778  1.00  0.00     0.012 A 
ATOM     61  C   UNL A   1      47.216  27.816  24.754  1.00  0.00     0.148 A 
ATOM     62  C   UNL A   1      49.018  26.144  26.122  1.00  0.00     0.002 A 
ATOM     63  C   UNL A   1      48.316  27.277  24.095  1.00  0.00     0.091 A 
ATOM     64  F   UNL A   1      46.357  28.642  24.140  1.00  0.00    -0.205 F 
ATOM     65  C   UNL A   1      49.222  26.449  24.780  1.00  0.00     0.022 A 
BRANCH  63  66
ATOM     66  S   UNL A   1      48.634  27.550  22.348  1.00  0.00     0.127 S 
ATOM     67  O   UNL A   1      49.908  28.266  22.389  1.00  0.00    -0.237 OA
ATOM     68  O   UNL A   1      48.718  26.184  21.833  1.00  0.00    -0.237 OA
ATOM     69  O   UNL A   1      47.501  28.320  21.849  1.00  0.00    -0.744 OA
ENDBRANCH  63  66
ENDBRANCH  45  59
BRANCH  46  70
ATOM     70  C   UNL A   1      38.693  30.377  30.891  1.00  0.00     0.023 A 
ATOM     71  C   UNL A   1      38.566  30.087  32.263  1.00  0.00     0.012 A 
ATOM     72  C   UNL A   1      37.661  31.080  30.242  1.00  0.00     0.148 A 
ATOM     73  C   UNL A   1      37.418  30.452  32.967  1.00  0.00     0.002 A 
ATOM     74  C   UNL A   1      36.542  31.489  30.961  1.00  0.00     0.091 A 
ATOM     75  F   UNL A   1      37.787  31.334  28.931  1.00  0.00    -0.205 F 
ATOM     76  C   UNL A   1      36.411  31.161  32.319  1.00  0.00     0.022 A 
BRANCH  74  77
ATOM     77  S   UNL A   1      35.264  32.515  30.227  1.00  0.00     0.127 S 
ATOM     78  O   UNL A   1      36.022  33.693  29.818  1.00  0.00    -0.237 OA
ATOM     79  O   UNL A   1      34.789  31.675  29.125  1.00  0.00    -0.237 OA
ATOM     80  O   UNL A   1      34.281  32.717  31.284  1.00  0.00    -0.744 OA
ENDBRANCH  74  77
ENDBRANCH  46  70
BRANCH  58  81
ATOM     81  C   UNL A   1      44.762  33.488  29.434  1.00  0.00     0.023 A 
ATOM     82  C   UNL A   1      45.467  33.700  30.635  1.00  0.00     0.012 A 
ATOM     83  C   UNL A   1      44.648  34.538  28.501  1.00  0.00     0.148 A 
ATOM     84  C   UNL A   1      46.025  34.945  30.917  1.00  0.00     0.002 A 
ATOM     85  C   UNL A   1      45.246  35.763  28.769  1.00  0.00     0.091 A 
ATOM     86  F   UNL A   1      43.957  34.320  27.374  1.00  0.00    -0.205 F 
ATOM     87  C   UNL A   1      45.926  35.972  29.981  1.00  0.00     0.022 A 
BRANCH  85  88
ATOM     88  S   UNL A   1      45.248  37.112  27.582  1.00  0.00     0.127 S 
ATOM     89  O   UNL A   1      45.970  36.518  26.458  1.00  0.00    -0.237 OA
ATOM     90  O   UNL A   1      43.819  37.322  27.347  1.00  0.00    -0.237 OA
ATOM     91  O   UNL A   1      45.920  38.224  28.241  1.00  0.00    -0.744 OA
ENDBRANCH  85  88
ENDBRANCH  58  81
ENDBRANCH  32  33
ENDBRANCH  24  27
ENDBRANCH  22  23
ENDBRANCH   1  22
TORSDOF 17
ENDMDL
MODEL 3
REMARK VINA RESULT:     -11.1      1.831      7.877
REMARK SMILES CN(c1ccc(C(=O)NCCCCNC(=O)c2ccc(-c3c4nc(c(-c5cccc(S(=O)(=O)[O-])c5F)c5ccc([nH]5)c(-c5cccc(S(=O)(=O)[O-])c5F)c5nc(c(-c6cccc(S(=O)(=O)[O-])c6F)c6ccc3[nH]6)C=C5)C=C4)cc2)cc1[N+](=O)[O-])C1CC1
REMARK SMILES IDX 12 1 11 2 10 3 9 4 7 5 8 6 6 8 3 9 4 10 81 11 5 12 80 13
REMARK SMILES IDX 2 14 1 15 85 16 86 17 87 18 82 19 83 20 84 21 13 22 14 23
REMARK SMILES IDX 15 24 16 26 17 27 18 28 79 29 19 30 78 31 20 32 21 33 22 34
REMARK SMILES IDX 72 35 23 36 77 37 71 38 73 39 24 40 76 41 70 42 69 43 25 45
REMARK SMILES IDX 57 46 37 47 56 48 38 49 41 50 55 51 74 52 39 53 40 54 54 56
REMARK SMILES IDX 75 57 42 58 26 59 27 60 35 61 28 62 30 63 36 64 29 65 31 66
REMARK SMILES IDX 32 67 33 68 34 69 58 70 59 71 67 72 60 73 62 74 68 75 61 76
REMARK SMILES IDX 63 77 64 78 65 79 66 80 43 81 44 82 52 83 45 84 47 85 53 86
REMARK SMILES IDX 46 87 48 88 49 89 50 90 51 91
REMARK H PARENT 9 7 14 25 73 44 41 55
REMARK Flexibility Score: inf
ROOT
ATOM      1  C   UNL A   1      34.896  21.622  24.897  1.00  0.00     0.023 C 
ENDROOT
BRANCH   1   2
ATOM      2  C   UNL A   1      33.721  21.598  25.877  1.00  0.00     0.023 C 
BRANCH   2   3
ATOM      3  C   UNL A   1      32.345  21.597  25.208  1.00  0.00     0.116 C 
BRANCH   3   4
ATOM      4  N   UNL A   1      31.315  21.954  26.165  1.00  0.00    -0.352 N 
ATOM      5  C   UNL A   1      30.801  23.165  26.542  1.00  0.00     0.251 C 
ATOM      6  O   UNL A   1      29.888  23.182  27.367  1.00  0.00    -0.269 OA
ATOM      7  H   UNL A   1      30.912  21.183  26.627  1.00  0.00     0.163 HD
BRANCH   5   8
ATOM      8  C   UNL A   1      31.256  24.455  25.960  1.00  0.00     0.046 A 
ATOM      9  C   UNL A   1      32.291  26.934  24.986  1.00  0.00     0.116 A 
ATOM     10  C   UNL A   1      32.927  26.225  26.017  1.00  0.00     0.034 A 
ATOM     11  C   UNL A   1      31.134  26.352  24.453  1.00  0.00     0.293 A 
ATOM     12  C   UNL A   1      32.422  25.011  26.497  1.00  0.00     0.016 A 
ATOM     13  C   UNL A   1      30.631  25.117  24.904  1.00  0.00     0.101 A 
BRANCH   9  14
ATOM     14  N   UNL A   1      32.857  28.152  24.595  1.00  0.00    -0.366 N 
ATOM     15  C   UNL A   1      33.916  28.146  23.593  1.00  0.00     0.144 C 
BRANCH  14  16
ATOM     16  C   UNL A   1      32.715  29.360  25.422  1.00  0.00     0.082 C 
ATOM     17  C   UNL A   1      31.440  30.160  25.355  1.00  0.00     0.027 C 
ATOM     18  C   UNL A   1      31.832  29.484  26.635  1.00  0.00     0.027 C 
ENDBRANCH  14  16
ENDBRANCH   9  14
BRANCH  11  19
ATOM     19  N   UNL A   1      30.375  27.013  23.409  1.00  0.00     0.065 N 
ATOM     20  O   UNL A   1      30.841  26.948  22.261  1.00  0.00    -0.258 OA
ATOM     21  O   UNL A   1      29.341  27.616  23.726  1.00  0.00    -0.258 OA
ENDBRANCH  11  19
ENDBRANCH   5   8
ENDBRANCH   3   4
ENDBRANCH   2   3
ENDBRANCH   1   2
BRANCH   1  22
ATOM     22  C   UNL A   1      36.247  21.936  25.527  1.00  0.00     0.116 C 
BRANCH  22  23
ATOM     23  N   UNL A   1      37.203  20.844  25.407  1.00  0.00    -0.352 N 
ATOM     24  C   UNL A   1      38.552  20.861  25.686  1.00  0.00     0.251 C 
ATOM     25  H   UNL A   1      36.840  19.987  25.088  1.00  0.00     0.163 HD
ATOM     26  O   UNL A   1      39.251  19.892  25.437  1.00  0.00    -0.269 OA
BRANCH  24  27
ATOM     27  C   UNL A   1      39.143  22.092  26.251  1.00  0.00     0.039 A 
ATOM     28  C   UNL A   1      40.196  21.974  27.162  1.00  0.00     0.014 A 
ATOM     29  C   UNL A   1      38.693  23.349  25.842  1.00  0.00     0.014 A 
ATOM     30  C   UNL A   1      40.846  23.124  27.611  1.00  0.00     0.010 A 
ATOM     31  C   UNL A   1      39.383  24.488  26.240  1.00  0.00     0.010 A 
ATOM     32  C   UNL A   1      40.468  24.387  27.126  1.00  0.00    -0.014 A 
BRANCH  32  33
ATOM     33  C   UNL A   1      41.201  25.616  27.518  1.00  0.00     0.031 A 
ATOM     34  C   UNL A   1      40.502  26.686  28.310  1.00  0.00     0.074 A 
ATOM     35  C   UNL A   1      42.462  25.805  27.083  1.00  0.00     0.049 A 
ATOM     36  N   UNL A   1      40.944  27.861  28.677  1.00  0.00    -0.248 NA
ATOM     37  C   UNL A   1      39.115  26.412  28.724  1.00  0.00     0.031 C 
ATOM     38  C   UNL A   1      43.221  24.869  26.250  1.00  0.00     0.029 A 
ATOM     39  N   UNL A   1      43.322  26.859  27.262  1.00  0.00    -0.354 N 
ATOM     40  C   UNL A   1      39.888  28.473  29.340  1.00  0.00     0.074 A 
ATOM     41  C   UNL A   1      38.769  27.558  29.291  1.00  0.00     0.031 C 
ATOM     42  C   UNL A   1      44.433  25.390  25.993  1.00  0.00     0.029 A 
ATOM     43  C   UNL A   1      44.528  26.705  26.619  1.00  0.00     0.049 A 
ATOM     44  H   UNL A   1      43.096  27.653  27.800  1.00  0.00     0.167 HD
ATOM     45  C   UNL A   1      39.862  29.673  29.967  1.00  0.00     0.034 A 
ATOM     46  C   UNL A   1      45.590  27.532  26.542  1.00  0.00     0.034 A 
ATOM     47  C   UNL A   1      40.990  30.560  30.053  1.00  0.00     0.049 A 
ATOM     48  C   UNL A   1      45.540  28.849  27.270  1.00  0.00     0.074 A 
ATOM     49  C   UNL A   1      41.084  31.773  30.712  1.00  0.00     0.029 A 
ATOM     50  N   UNL A   1      42.225  30.328  29.465  1.00  0.00    -0.354 N 
ATOM     51  N   UNL A   1      44.580  29.346  28.010  1.00  0.00    -0.248 NA
ATOM     52  C   UNL A   1      46.735  29.701  27.183  1.00  0.00     0.031 C 
ATOM     53  C   UNL A   1      42.376  32.275  30.522  1.00  0.00     0.029 A 
ATOM     54  C   UNL A   1      43.088  31.371  29.752  1.00  0.00     0.049 A 
ATOM     55  H   UNL A   1      42.453  29.538  28.925  1.00  0.00     0.167 HD
ATOM     56  C   UNL A   1      45.069  30.549  28.509  1.00  0.00     0.074 A 
ATOM     57  C   UNL A   1      46.418  30.694  28.002  1.00  0.00     0.031 C 
ATOM     58  C   UNL A   1      44.452  31.462  29.298  1.00  0.00     0.034 A 
BRANCH  45  59
ATOM     59  C   UNL A   1      38.595  30.062  30.680  1.00  0.00     0.023 A 
ATOM     60  C   UNL A   1      38.404  29.641  32.012  1.00  0.00     0.012 A 
ATOM     61  C   UNL A   1      37.631  30.887  30.069  1.00  0.00     0.148 A 
ATOM     62  C   UNL A   1      37.260  30.012  32.717  1.00  0.00     0.002 A 
ATOM     63  C   UNL A   1      36.512  31.284  30.793  1.00  0.00     0.091 A 
ATOM     64  F   UNL A   1      37.821  31.259  28.796  1.00  0.00    -0.205 F 
ATOM     65  C   UNL A   1      36.320  30.841  32.112  1.00  0.00     0.022 A 
BRANCH  63  66
ATOM     66  S   UNL A   1      35.276  32.408  30.131  1.00  0.00     0.127 S 
ATOM     67  O   UNL A   1      34.388  32.579  31.280  1.00  0.00    -0.237 OA
ATOM     68  O   UNL A   1      36.077  33.586  29.798  1.00  0.00    -0.237 OA
ATOM     69  O   UNL A   1      34.688  31.729  28.985  1.00  0.00    -0.744 OA
ENDBRANCH  63  66
ENDBRANCH  45  59
BRANCH  46  70
ATOM     70  C   UNL A   1      46.821  27.112  25.813  1.00  0.00     0.023 A 
ATOM     71  C   UNL A   1      47.750  26.275  26.462  1.00  0.00     0.012 A 
ATOM     72  C   UNL A   1      47.079  27.527  24.494  1.00  0.00     0.148 A 
ATOM     73  C   UNL A   1      48.930  25.890  25.825  1.00  0.00     0.002 A 
ATOM     74  C   UNL A   1      48.233  27.097  23.845  1.00  0.00     0.091 A 
ATOM     75  F   UNL A   1      46.195  28.338  23.895  1.00  0.00    -0.205 F 
ATOM     76  C   UNL A   1      49.167  26.293  24.514  1.00  0.00     0.022 A 
BRANCH  74  77
ATOM     77  S   UNL A   1      48.544  27.469  22.115  1.00  0.00     0.127 S 
ATOM     78  O   UNL A   1      47.351  28.226  21.751  1.00  0.00    -0.237 OA
ATOM     79  O   UNL A   1      49.776  28.257  22.186  1.00  0.00    -0.237 OA
ATOM     80  O   UNL A   1      48.706  26.173  21.469  1.00  0.00    -0.744 OA
ENDBRANCH  74  77
ENDBRANCH  46  70
BRANCH  58  81
ATOM     81  C   UNL A   1      45.236  32.680  29.701  1.00  0.00     0.023 A 
ATOM     82  C   UNL A   1      46.043  32.638  30.856  1.00  0.00     0.012 A 
ATOM     83  C   UNL A   1      45.239  33.835  28.894  1.00  0.00     0.148 A 
ATOM     84  C   UNL A   1      46.818  33.739  31.217  1.00  0.00     0.002 A 
ATOM     85  C   UNL A   1      46.049  34.911  29.236  1.00  0.00     0.091 A 
ATOM     86  F   UNL A   1      44.449  33.860  27.811  1.00  0.00    -0.205 F 
ATOM     87  C   UNL A   1      46.831  34.868  30.402  1.00  0.00     0.022 A 
BRANCH  85  88
ATOM     88  S   UNL A   1      46.200  36.369  28.197  1.00  0.00     0.127 S 
ATOM     89  O   UNL A   1      46.296  35.777  26.865  1.00  0.00    -0.237 OA
ATOM     90  O   UNL A   1      44.943  37.071  28.464  1.00  0.00    -0.237 OA
ATOM     91  O   UNL A   1      47.390  37.069  28.660  1.00  0.00    -0.744 OA
ENDBRANCH  85  88
ENDBRANCH  58  81
ENDBRANCH  32  33
ENDBRANCH  24  27
ENDBRANCH  22  23
ENDBRANCH   1  22
TORSDOF 17
ENDMDL
