MODEL 1
REMARK VINA RESULT:     -13.0      0.000      0.000
REMARK SMILES Cc1cc(C(=O)NCCCCNC(=O)c2ccc(-c3c4nc(c(-c5cccc(S(=O)(=O)[O-])c5F)c5ccc([nH]5)c(-c5cccc(S(=O)(=O)[O-])c5F)c5nc(c(-c6cccc(S(=O)(=O)[O-])c6F)c6ccc3[nH]6)C=C5)C=C4)cc2)nc(N2CCN(c3ccccc3Cl)CC2)n1
REMARK SMILES IDX 10 1 9 2 8 3 7 4 5 5 6 6 4 8 1 9 2 10 3 11 93 12 79 13 78 14
REMARK SMILES IDX 80 15 81 16 92 17 82 18 91 19 83 20 84 21 85 22 89 23 86 24
REMARK SMILES IDX 88 25 90 26 87 27 11 28 12 29 13 30 14 32 15 33 16 34 77 35
REMARK SMILES IDX 17 36 76 37 18 38 19 39 20 40 70 41 21 42 75 43 69 44 71 45
REMARK SMILES IDX 22 46 74 47 68 48 67 49 23 51 55 52 35 53 54 54 36 55 39 56
REMARK SMILES IDX 53 57 72 58 37 59 38 60 52 62 73 63 40 64 24 65 25 66 33 67
REMARK SMILES IDX 26 68 28 69 34 70 27 71 29 72 30 73 31 74 32 75 56 76 57 77
REMARK SMILES IDX 65 78 58 79 60 80 66 81 59 82 61 83 62 84 63 85 64 86 41 87
REMARK SMILES IDX 42 88 50 89 43 90 45 91 51 92 44 93 46 94 47 95 48 96 49 97
REMARK H PARENT 7 7 12 31 71 50 39 61
REMARK Flexibility Score: inf
ROOT
ATOM      1  C   UNL A   1      31.867  31.789  26.565  1.00  0.00     0.023 C 
ENDROOT
BRANCH   1   2
ATOM      2  C   UNL A   1      31.726  30.284  26.815  1.00  0.00     0.023 C 
BRANCH   2   3
ATOM      3  C   UNL A   1      33.032  29.508  26.639  1.00  0.00     0.116 C 
BRANCH   3   4
ATOM      4  N   UNL A   1      33.487  29.624  25.275  1.00  0.00    -0.351 N 
ATOM      5  C   UNL A   1      33.134  28.967  24.121  1.00  0.00     0.270 C 
ATOM      6  O   UNL A   1      33.798  29.239  23.118  1.00  0.00    -0.268 OA
ATOM      7  H   UNL A   1      34.187  30.304  25.146  1.00  0.00     0.163 HD
BRANCH   5   8
ATOM      8  C   UNL A   1      31.983  28.006  24.010  1.00  0.00     0.133 A 
ATOM      9  C   UNL A   1      28.314  27.523  23.529  1.00  0.00     0.067 C 
ATOM     10  C   UNL A   1      29.785  27.277  23.692  1.00  0.00     0.044 A 
ATOM     11  C   UNL A   1      30.653  28.329  23.908  1.00  0.00     0.058 A 
ATOM     12  N   UNL A   1      30.193  25.992  23.667  1.00  0.00    -0.218 NA
ATOM     13  C   UNL A   1      31.490  25.756  23.897  1.00  0.00     0.226 A 
ATOM     14  N   UNL A   1      32.390  26.725  24.038  1.00  0.00    -0.208 NA
BRANCH  13  15
ATOM     15  N   UNL A   1      31.960  24.475  24.051  1.00  0.00    -0.337 N 
ATOM     16  C   UNL A   1      32.845  23.900  23.044  1.00  0.00     0.141 C 
ATOM     17  C   UNL A   1      30.969  23.567  24.652  1.00  0.00     0.141 C 
ATOM     18  C   UNL A   1      33.542  22.641  23.623  1.00  0.00     0.138 C 
ATOM     19  C   UNL A   1      31.641  22.289  25.184  1.00  0.00     0.138 C 
ATOM     20  N   UNL A   1      32.529  21.722  24.158  1.00  0.00    -0.367 N 
BRANCH  20  21
ATOM     21  C   UNL A   1      32.637  20.354  24.031  1.00  0.00     0.056 A 
ATOM     22  C   UNL A   1      33.122  19.578  25.093  1.00  0.00     0.027 A 
ATOM     23  C   UNL A   1      32.279  19.682  22.842  1.00  0.00     0.064 A 
ATOM     24  C   UNL A   1      33.244  18.190  24.981  1.00  0.00     0.002 A 
ATOM     25  C   UNL A   1      32.408  18.295  22.726  1.00  0.00     0.023 A 
ATOM     26  Cl  UNL A   1      31.728  20.543  21.440  1.00  0.00    -0.082 Cl
ATOM     27  C   UNL A   1      32.891  17.548  23.797  1.00  0.00     0.002 A 
ENDBRANCH  20  21
ENDBRANCH  13  15
ENDBRANCH   5   8
ENDBRANCH   3   4
ENDBRANCH   2   3
ENDBRANCH   1   2
BRANCH   1  28
ATOM     28  C   UNL A   1      32.876  32.493  27.467  1.00  0.00     0.116 C 
BRANCH  28  29
ATOM     29  N   UNL A   1      32.549  33.892  27.701  1.00  0.00    -0.352 N 
ATOM     30  C   UNL A   1      33.130  34.768  28.589  1.00  0.00     0.251 C 
ATOM     31  H   UNL A   1      31.818  34.259  27.153  1.00  0.00     0.163 HD
ATOM     32  O   UNL A   1      32.669  35.886  28.744  1.00  0.00    -0.269 OA
BRANCH  30  33
ATOM     33  C   UNL A   1      34.290  34.310  29.380  1.00  0.00     0.039 A 
ATOM     34  C   UNL A   1      34.058  33.646  30.586  1.00  0.00     0.014 A 
ATOM     35  C   UNL A   1      35.591  34.497  28.908  1.00  0.00     0.014 A 
ATOM     36  C   UNL A   1      35.136  33.111  31.293  1.00  0.00     0.010 A 
ATOM     37  C   UNL A   1      36.656  33.908  29.580  1.00  0.00     0.010 A 
ATOM     38  C   UNL A   1      36.439  33.211  30.778  1.00  0.00    -0.014 A 
BRANCH  38  39
ATOM     39  C   UNL A   1      37.589  32.575  31.465  1.00  0.00     0.031 A 
ATOM     40  C   UNL A   1      38.315  31.428  30.820  1.00  0.00     0.074 A 
ATOM     41  C   UNL A   1      37.912  32.965  32.714  1.00  0.00     0.049 A 
ATOM     42  N   UNL A   1      39.300  30.708  31.289  1.00  0.00    -0.248 NA
ATOM     43  C   UNL A   1      37.854  31.015  29.484  1.00  0.00     0.031 C 
ATOM     44  C   UNL A   1      37.221  34.005  33.480  1.00  0.00     0.029 A 
ATOM     45  N   UNL A   1      38.883  32.511  33.570  1.00  0.00    -0.354 N 
ATOM     46  C   UNL A   1      39.550  29.736  30.329  1.00  0.00     0.074 A 
ATOM     47  C   UNL A   1      38.593  29.937  29.264  1.00  0.00     0.031 C 
ATOM     48  C   UNL A   1      37.790  34.109  34.691  1.00  0.00     0.029 A 
ATOM     49  C   UNL A   1      38.871  33.134  34.797  1.00  0.00     0.049 A 
ATOM     50  H   UNL A   1      39.528  31.808  33.329  1.00  0.00     0.167 HD
ATOM     51  C   UNL A   1      40.511  28.783  30.318  1.00  0.00     0.034 A 
ATOM     52  C   UNL A   1      39.642  32.938  35.884  1.00  0.00     0.034 A 
ATOM     53  C   UNL A   1      41.495  28.623  31.355  1.00  0.00     0.049 A 
ATOM     54  C   UNL A   1      40.745  31.918  35.821  1.00  0.00     0.074 A 
ATOM     55  C   UNL A   1      42.573  27.756  31.392  1.00  0.00     0.029 A 
ATOM     56  N   UNL A   1      41.520  29.345  32.538  1.00  0.00    -0.354 N 
ATOM     57  N   UNL A   1      41.080  31.125  34.831  1.00  0.00    -0.248 NA
ATOM     58  C   UNL A   1      41.604  31.791  37.008  1.00  0.00     0.031 C 
ATOM     59  C   UNL A   1      43.244  27.948  32.605  1.00  0.00     0.029 A 
ATOM     60  C   UNL A   1      42.591  28.942  33.316  1.00  0.00     0.049 A 
ATOM     61  H   UNL A   1      40.871  30.041  32.789  1.00  0.00     0.167 HD
ATOM     62  C   UNL A   1      42.204  30.431  35.261  1.00  0.00     0.074 A 
ATOM     63  C   UNL A   1      42.507  30.912  36.593  1.00  0.00     0.031 C 
ATOM     64  C   UNL A   1      42.914  29.471  34.616  1.00  0.00     0.034 A 
BRANCH  51  65
ATOM     65  C   UNL A   1      40.585  27.883  29.114  1.00  0.00     0.023 A 
ATOM     66  C   UNL A   1      39.711  26.779  29.022  1.00  0.00     0.012 A 
ATOM     67  C   UNL A   1      41.480  28.145  28.059  1.00  0.00     0.148 A 
ATOM     68  C   UNL A   1      39.752  25.930  27.917  1.00  0.00     0.002 A 
ATOM     69  C   UNL A   1      41.485  27.318  26.941  1.00  0.00     0.091 A 
ATOM     70  F   UNL A   1      42.322  29.182  28.175  1.00  0.00    -0.205 F 
ATOM     71  C   UNL A   1      40.631  26.205  26.874  1.00  0.00     0.022 A 
BRANCH  69  72
ATOM     72  S   UNL A   1      42.529  27.635  25.514  1.00  0.00     0.127 S 
ATOM     73  O   UNL A   1      41.990  28.904  25.029  1.00  0.00    -0.237 OA
ATOM     74  O   UNL A   1      43.860  27.730  26.117  1.00  0.00    -0.237 OA
ATOM     75  O   UNL A   1      42.348  26.494  24.629  1.00  0.00    -0.744 OA
ENDBRANCH  69  72
ENDBRANCH  51  65
BRANCH  52  76
ATOM     76  C   UNL A   1      39.450  33.792  37.089  1.00  0.00     0.023 A 
ATOM     77  C   UNL A   1      39.882  35.132  37.057  1.00  0.00     0.012 A 
ATOM     78  C   UNL A   1      38.803  33.306  38.242  1.00  0.00     0.148 A 
ATOM     79  C   UNL A   1      39.699  35.966  38.160  1.00  0.00     0.002 A 
ATOM     80  C   UNL A   1      38.577  34.157  39.317  1.00  0.00     0.091 A 
ATOM     81  F   UNL A   1      38.409  32.025  38.257  1.00  0.00    -0.205 F 
ATOM     82  C   UNL A   1      39.036  35.483  39.285  1.00  0.00     0.022 A 
BRANCH  80  83
ATOM     83  S   UNL A   1      37.616  33.660  40.752  1.00  0.00     0.127 S 
ATOM     84  O   UNL A   1      38.505  32.689  41.386  1.00  0.00    -0.237 OA
ATOM     85  O   UNL A   1      37.470  34.925  41.473  1.00  0.00    -0.237 OA
ATOM     86  O   UNL A   1      36.369  33.127  40.221  1.00  0.00    -0.744 OA
ENDBRANCH  80  83
ENDBRANCH  52  76
BRANCH  64  87
ATOM     87  C   UNL A   1      44.107  28.890  35.326  1.00  0.00     0.023 A 
ATOM     88  C   UNL A   1      45.378  29.469  35.143  1.00  0.00     0.012 A 
ATOM     89  C   UNL A   1      43.953  27.827  36.239  1.00  0.00     0.148 A 
ATOM     90  C   UNL A   1      46.484  28.981  35.838  1.00  0.00     0.002 A 
ATOM     91  C   UNL A   1      45.053  27.376  36.961  1.00  0.00     0.091 A 
ATOM     92  F   UNL A   1      42.740  27.276  36.384  1.00  0.00    -0.205 F 
ATOM     93  C   UNL A   1      46.319  27.946  36.756  1.00  0.00     0.022 A 
BRANCH  91  94
ATOM     94  S   UNL A   1      44.912  26.112  38.230  1.00  0.00     0.127 S 
ATOM     95  O   UNL A   1      46.264  26.096  38.786  1.00  0.00    -0.237 OA
ATOM     96  O   UNL A   1      43.893  26.672  39.119  1.00  0.00    -0.237 OA
ATOM     97  O   UNL A   1      44.503  24.897  37.537  1.00  0.00    -0.744 OA
ENDBRANCH  91  94
ENDBRANCH  64  87
ENDBRANCH  38  39
ENDBRANCH  30  33
ENDBRANCH  28  29
ENDBRANCH   1  28
TORSDOF 16
ENDMDL
MODEL 2
REMARK VINA RESULT:     -12.8      1.692      7.697
REMARK SMILES Cc1cc(C(=O)NCCCCNC(=O)c2ccc(-c3c4nc(c(-c5cccc(S(=O)(=O)[O-])c5F)c5ccc([nH]5)c(-c5cccc(S(=O)(=O)[O-])c5F)c5nc(c(-c6cccc(S(=O)(=O)[O-])c6F)c6ccc3[nH]6)C=C5)C=C4)cc2)nc(N2CCN(c3ccccc3Cl)CC2)n1
REMARK SMILES IDX 10 1 9 2 8 3 7 4 5 5 6 6 4 8 1 9 2 10 3 11 93 12 79 13 78 14
REMARK SMILES IDX 80 15 81 16 92 17 82 18 91 19 83 20 84 21 85 22 89 23 86 24
REMARK SMILES IDX 88 25 90 26 87 27 11 28 12 29 13 30 14 32 15 33 16 34 77 35
REMARK SMILES IDX 17 36 76 37 18 38 19 39 20 40 70 41 21 42 75 43 69 44 71 45
REMARK SMILES IDX 22 46 74 47 68 48 67 49 23 51 55 52 35 53 54 54 36 55 39 56
REMARK SMILES IDX 53 57 72 58 37 59 38 60 52 62 73 63 40 64 24 65 25 66 33 67
REMARK SMILES IDX 26 68 28 69 34 70 27 71 29 72 30 73 31 74 32 75 56 76 57 77
REMARK SMILES IDX 65 78 58 79 60 80 66 81 59 82 61 83 62 84 63 85 64 86 41 87
REMARK SMILES IDX 42 88 50 89 43 90 45 91 51 92 44 93 46 94 47 95 48 96 49 97
REMARK H PARENT 7 7 12 31 71 50 39 61
REMARK Flexibility Score: inf
ROOT
ATOM      1  C   UNL A   1      31.284  32.166  26.431  1.00  0.00     0.023 C 
ENDROOT
BRANCH   1   2
ATOM      2  C   UNL A   1      31.202  30.776  25.791  1.00  0.00     0.023 C 
BRANCH   2   3
ATOM      3  C   UNL A   1      32.503  29.978  25.891  1.00  0.00     0.116 C 
BRANCH   3   4
ATOM      4  N   UNL A   1      33.050  29.770  24.571  1.00  0.00    -0.351 N 
ATOM      5  C   UNL A   1      32.849  28.791  23.629  1.00  0.00     0.270 C 
ATOM      6  O   UNL A   1      33.560  28.854  22.623  1.00  0.00    -0.268 OA
ATOM      7  H   UNL A   1      33.691  30.463  24.294  1.00  0.00     0.163 HD
BRANCH   5   8
ATOM      8  C   UNL A   1      31.803  27.715  23.733  1.00  0.00     0.133 A 
ATOM      9  C   UNL A   1      28.176  26.840  23.820  1.00  0.00     0.067 C 
ATOM     10  C   UNL A   1      29.674  26.753  23.776  1.00  0.00     0.044 A 
ATOM     11  C   UNL A   1      30.446  27.898  23.813  1.00  0.00     0.058 A 
ATOM     12  N   UNL A   1      30.210  25.516  23.749  1.00  0.00    -0.218 NA
ATOM     13  C   UNL A   1      31.544  25.425  23.796  1.00  0.00     0.226 A 
ATOM     14  N   UNL A   1      32.346  26.485  23.758  1.00  0.00    -0.208 NA
BRANCH  13  15
ATOM     15  N   UNL A   1      32.166  24.209  23.937  1.00  0.00    -0.337 N 
ATOM     16  C   UNL A   1      32.920  23.644  22.823  1.00  0.00     0.141 C 
ATOM     17  C   UNL A   1      31.395  23.259  24.757  1.00  0.00     0.141 C 
ATOM     18  C   UNL A   1      33.835  22.504  23.339  1.00  0.00     0.138 C 
ATOM     19  C   UNL A   1      32.279  22.094  25.233  1.00  0.00     0.138 C 
ATOM     20  N   UNL A   1      33.032  21.537  24.099  1.00  0.00    -0.367 N 
BRANCH  20  21
ATOM     21  C   UNL A   1      33.260  20.179  24.034  1.00  0.00     0.056 A 
ATOM     22  C   UNL A   1      32.327  19.329  23.423  1.00  0.00     0.027 A 
ATOM     23  C   UNL A   1      34.423  19.589  24.578  1.00  0.00     0.064 A 
ATOM     24  C   UNL A   1      32.539  17.950  23.353  1.00  0.00     0.002 A 
ATOM     25  C   UNL A   1      34.632  18.208  24.515  1.00  0.00     0.023 A 
ATOM     26  Cl  UNL A   1      35.615  20.531  25.413  1.00  0.00    -0.082 Cl
ATOM     27  C   UNL A   1      33.689  17.388  23.901  1.00  0.00     0.002 A 
ENDBRANCH  20  21
ENDBRANCH  13  15
ENDBRANCH   5   8
ENDBRANCH   3   4
ENDBRANCH   2   3
ENDBRANCH   1   2
BRANCH   1  28
ATOM     28  C   UNL A   1      32.593  32.457  27.158  1.00  0.00     0.116 C 
BRANCH  28  29
ATOM     29  N   UNL A   1      32.690  33.834  27.621  1.00  0.00    -0.352 N 
ATOM     30  C   UNL A   1      33.630  34.388  28.460  1.00  0.00     0.251 C 
ATOM     31  H   UNL A   1      31.994  34.448  27.292  1.00  0.00     0.163 HD
ATOM     32  O   UNL A   1      33.514  35.539  28.842  1.00  0.00    -0.269 OA
BRANCH  30  33
ATOM     33  C   UNL A   1      34.754  33.546  28.920  1.00  0.00     0.039 A 
ATOM     34  C   UNL A   1      36.055  33.921  28.576  1.00  0.00     0.014 A 
ATOM     35  C   UNL A   1      34.523  32.425  29.720  1.00  0.00     0.014 A 
ATOM     36  C   UNL A   1      37.134  33.202  29.091  1.00  0.00     0.010 A 
ATOM     37  C   UNL A   1      35.601  31.751  30.283  1.00  0.00     0.010 A 
ATOM     38  C   UNL A   1      36.914  32.132  29.974  1.00  0.00    -0.014 A 
BRANCH  38  39
ATOM     39  C   UNL A   1      38.046  31.409  30.603  1.00  0.00     0.031 A 
ATOM     40  C   UNL A   1      38.464  31.737  32.009  1.00  0.00     0.074 A 
ATOM     41  C   UNL A   1      38.760  30.531  29.871  1.00  0.00     0.049 A 
ATOM     42  N   UNL A   1      39.461  31.257  32.705  1.00  0.00    -0.248 NA
ATOM     43  C   UNL A   1      37.675  32.760  32.717  1.00  0.00     0.031 C 
ATOM     44  C   UNL A   1      38.507  30.199  28.467  1.00  0.00     0.029 A 
ATOM     45  N   UNL A   1      39.862  29.782  30.197  1.00  0.00    -0.354 N 
ATOM     46  C   UNL A   1      39.446  31.945  33.911  1.00  0.00     0.074 A 
ATOM     47  C   UNL A   1      38.361  32.898  33.843  1.00  0.00     0.031 C 
ATOM     48  C   UNL A   1      39.427  29.313  28.054  1.00  0.00     0.029 A 
ATOM     49  C   UNL A   1      40.345  29.029  29.152  1.00  0.00     0.049 A 
ATOM     50  H   UNL A   1      40.267  29.782  31.093  1.00  0.00     0.167 HD
ATOM     51  C   UNL A   1      40.243  31.776  34.993  1.00  0.00     0.034 A 
ATOM     52  C   UNL A   1      41.409  28.205  29.087  1.00  0.00     0.034 A 
ATOM     53  C   UNL A   1      41.285  30.789  35.077  1.00  0.00     0.049 A 
ATOM     54  C   UNL A   1      42.237  27.985  30.323  1.00  0.00     0.074 A 
ATOM     55  C   UNL A   1      42.081  30.467  36.161  1.00  0.00     0.029 A 
ATOM     56  N   UNL A   1      41.678  29.965  34.033  1.00  0.00    -0.354 N 
ATOM     57  N   UNL A   1      42.098  28.516  31.513  1.00  0.00    -0.248 NA
ATOM     58  C   UNL A   1      43.344  27.023  30.219  1.00  0.00     0.031 C 
ATOM     59  C   UNL A   1      42.963  29.454  35.769  1.00  0.00     0.029 A 
ATOM     60  C   UNL A   1      42.708  29.138  34.444  1.00  0.00     0.049 A 
ATOM     61  H   UNL A   1      41.283  29.969  33.131  1.00  0.00     0.167 HD
ATOM     62  C   UNL A   1      43.075  27.930  32.310  1.00  0.00     0.074 A 
ATOM     63  C   UNL A   1      43.786  26.988  31.470  1.00  0.00     0.031 C 
ATOM     64  C   UNL A   1      43.367  28.163  33.614  1.00  0.00     0.034 A 
BRANCH  51  65
ATOM     65  C   UNL A   1      39.971  32.634  36.199  1.00  0.00     0.023 A 
ATOM     66  C   UNL A   1      40.669  33.851  36.354  1.00  0.00     0.012 A 
ATOM     67  C   UNL A   1      39.002  32.268  37.154  1.00  0.00     0.148 A 
ATOM     68  C   UNL A   1      40.436  34.670  37.457  1.00  0.00     0.002 A 
ATOM     69  C   UNL A   1      38.745  33.112  38.229  1.00  0.00     0.091 A 
ATOM     70  F   UNL A   1      38.366  31.097  37.006  1.00  0.00    -0.205 F 
ATOM     71  C   UNL A   1      39.467  34.306  38.388  1.00  0.00     0.022 A 
BRANCH  69  72
ATOM     72  S   UNL A   1      37.464  32.765  39.440  1.00  0.00     0.127 S 
ATOM     73  O   UNL A   1      37.902  31.476  39.973  1.00  0.00    -0.237 OA
ATOM     74  O   UNL A   1      37.603  33.886  40.370  1.00  0.00    -0.237 OA
ATOM     75  O   UNL A   1      36.211  32.748  38.699  1.00  0.00    -0.744 OA
ENDBRANCH  69  72
ENDBRANCH  51  65
BRANCH  52  76
ATOM     76  C   UNL A   1      41.690  27.461  27.828  1.00  0.00     0.023 A 
ATOM     77  C   UNL A   1      42.195  28.161  26.714  1.00  0.00     0.012 A 
ATOM     78  C   UNL A   1      41.511  26.067  27.739  1.00  0.00     0.148 A 
ATOM     79  C   UNL A   1      42.490  27.491  25.527  1.00  0.00     0.002 A 
ATOM     80  C   UNL A   1      41.856  25.399  26.571  1.00  0.00     0.091 A 
ATOM     81  F   UNL A   1      41.019  25.421  28.806  1.00  0.00    -0.205 F 
ATOM     82  C   UNL A   1      42.332  26.110  25.458  1.00  0.00     0.022 A 
BRANCH  80  83
ATOM     83  S   UNL A   1      41.812  23.607  26.438  1.00  0.00     0.127 S 
ATOM     84  O   UNL A   1      40.375  23.343  26.431  1.00  0.00    -0.237 OA
ATOM     85  O   UNL A   1      42.487  23.381  25.159  1.00  0.00    -0.237 OA
ATOM     86  O   UNL A   1      42.544  23.112  27.596  1.00  0.00    -0.744 OA
ENDBRANCH  80  83
ENDBRANCH  52  76
BRANCH  64  87
ATOM     87  C   UNL A   1      44.487  27.369  34.230  1.00  0.00     0.023 A 
ATOM     88  C   UNL A   1      45.815  27.826  34.110  1.00  0.00     0.012 A 
ATOM     89  C   UNL A   1      44.217  26.220  35.000  1.00  0.00     0.148 A 
ATOM     90  C   UNL A   1      46.859  27.137  34.724  1.00  0.00     0.002 A 
ATOM     91  C   UNL A   1      45.258  25.564  35.646  1.00  0.00     0.091 A 
ATOM     92  F   UNL A   1      42.951  25.789  35.085  1.00  0.00    -0.205 F 
ATOM     93  C   UNL A   1      46.580  26.015  35.502  1.00  0.00     0.022 A 
BRANCH  91  94
ATOM     94  S   UNL A   1      44.978  24.168  36.742  1.00  0.00     0.127 S 
ATOM     95  O   UNL A   1      44.334  23.209  35.846  1.00  0.00    -0.237 OA
ATOM     96  O   UNL A   1      46.338  23.808  37.145  1.00  0.00    -0.237 OA
ATOM     97  O   UNL A   1      44.144  24.674  37.825  1.00  0.00    -0.744 OA
ENDBRANCH  91  94
ENDBRANCH  64  87
ENDBRANCH  38  39
ENDBRANCH  30  33
ENDBRANCH  28  29
ENDBRANCH   1  28
TORSDOF 16
ENDMDL
MODEL 3
REMARK VINA RESULT:     -12.8      5.883     11.985
REMARK SMILES Cc1cc(C(=O)NCCCCNC(=O)c2ccc(-c3c4nc(c(-c5cccc(S(=O)(=O)[O-])c5F)c5ccc([nH]5)c(-c5cccc(S(=O)(=O)[O-])c5F)c5nc(c(-c6cccc(S(=O)(=O)[O-])c6F)c6ccc3[nH]6)C=C5)C=C4)cc2)nc(N2CCN(c3ccccc3Cl)CC2)n1
REMARK SMILES IDX 10 1 9 2 8 3 7 4 5 5 6 6 4 8 1 9 2 10 3 11 93 12 79 13 78 14
REMARK SMILES IDX 80 15 81 16 92 17 82 18 91 19 83 20 84 21 85 22 89 23 86 24
REMARK SMILES IDX 88 25 90 26 87 27 11 28 12 29 13 30 14 32 15 33 16 34 77 35
REMARK SMILES IDX 17 36 76 37 18 38 19 39 20 40 70 41 21 42 75 43 69 44 71 45
REMARK SMILES IDX 22 46 74 47 68 48 67 49 23 51 55 52 35 53 54 54 36 55 39 56
REMARK SMILES IDX 53 57 72 58 37 59 38 60 52 62 73 63 40 64 24 65 25 66 33 67
REMARK SMILES IDX 26 68 28 69 34 70 27 71 29 72 30 73 31 74 32 75 56 76 57 77
REMARK SMILES IDX 65 78 58 79 60 80 66 81 59 82 61 83 62 84 63 85 64 86 41 87
REMARK SMILES IDX 42 88 50 89 43 90 45 91 51 92 44 93 46 94 47 95 48 96 49 97
REMARK H PARENT 7 7 12 31 71 50 39 61
REMARK Flexibility Score: inf
ROOT
ATOM      1  C   UNL A   1      37.982  20.265  25.325  1.00  0.00     0.023 C 
ENDROOT
BRANCH   1   2
ATOM      2  C   UNL A   1      37.320  21.422  24.570  1.00  0.00     0.023 C 
BRANCH   2   3
ATOM      3  C   UNL A   1      36.970  22.615  25.461  1.00  0.00     0.116 C 
BRANCH   3   4
ATOM      4  N   UNL A   1      36.108  22.184  26.536  1.00  0.00    -0.351 N 
ATOM      5  C   UNL A   1      34.758  21.943  26.602  1.00  0.00     0.270 C 
ATOM      6  O   UNL A   1      34.308  21.676  27.719  1.00  0.00    -0.268 OA
ATOM      7  H   UNL A   1      36.580  22.034  27.388  1.00  0.00     0.163 HD
BRANCH   5   8
ATOM      8  C   UNL A   1      33.839  21.935  25.411  1.00  0.00     0.133 A 
ATOM      9  C   UNL A   1      32.204  19.954  22.703  1.00  0.00     0.067 C 
ATOM     10  C   UNL A   1      32.598  21.066  23.631  1.00  0.00     0.044 A 
ATOM     11  C   UNL A   1      33.573  20.869  24.589  1.00  0.00     0.058 A 
ATOM     12  N   UNL A   1      31.993  22.257  23.444  1.00  0.00    -0.218 NA
ATOM     13  C   UNL A   1      32.399  23.277  24.210  1.00  0.00     0.226 A 
ATOM     14  N   UNL A   1      33.278  23.138  25.198  1.00  0.00    -0.208 NA
BRANCH  13  15
ATOM     15  N   UNL A   1      31.955  24.555  23.978  1.00  0.00    -0.337 N 
ATOM     16  C   UNL A   1      31.166  25.246  24.992  1.00  0.00     0.141 C 
ATOM     17  C   UNL A   1      31.571  24.786  22.575  1.00  0.00     0.141 C 
ATOM     18  C   UNL A   1      31.134  26.765  24.679  1.00  0.00     0.138 C 
ATOM     19  C   UNL A   1      31.484  26.290  22.266  1.00  0.00     0.138 C 
ATOM     20  N   UNL A   1      30.686  26.971  23.297  1.00  0.00    -0.367 N 
BRANCH  20  21
ATOM     21  C   UNL A   1      29.860  28.015  22.939  1.00  0.00     0.056 A 
ATOM     22  C   UNL A   1      30.384  29.154  22.311  1.00  0.00     0.027 A 
ATOM     23  C   UNL A   1      28.470  27.991  23.193  1.00  0.00     0.064 A 
ATOM     24  C   UNL A   1      29.563  30.225  21.947  1.00  0.00     0.002 A 
ATOM     25  C   UNL A   1      27.649  29.065  22.836  1.00  0.00     0.023 A 
ATOM     26  Cl  UNL A   1      27.720  26.665  24.021  1.00  0.00    -0.082 Cl
ATOM     27  C   UNL A   1      28.196  30.182  22.212  1.00  0.00     0.002 A 
ENDBRANCH  20  21
ENDBRANCH  13  15
ENDBRANCH   5   8
ENDBRANCH   3   4
ENDBRANCH   2   3
ENDBRANCH   1   2
BRANCH   1  28
ATOM     28  C   UNL A   1      39.351  20.588  25.915  1.00  0.00     0.116 C 
BRANCH  28  29
ATOM     29  N   UNL A   1      40.246  19.440  25.935  1.00  0.00    -0.352 N 
ATOM     30  C   UNL A   1      41.610  19.425  26.117  1.00  0.00     0.251 C 
ATOM     31  H   UNL A   1      39.821  18.563  25.800  1.00  0.00     0.163 HD
ATOM     32  O   UNL A   1      42.236  18.385  25.999  1.00  0.00    -0.269 OA
BRANCH  30  33
ATOM     33  C   UNL A   1      42.301  20.696  26.413  1.00  0.00     0.039 A 
ATOM     34  C   UNL A   1      42.725  21.491  25.346  1.00  0.00     0.014 A 
ATOM     35  C   UNL A   1      42.485  21.116  27.732  1.00  0.00     0.014 A 
ATOM     36  C   UNL A   1      43.281  22.745  25.604  1.00  0.00     0.010 A 
ATOM     37  C   UNL A   1      42.980  22.391  27.983  1.00  0.00     0.010 A 
ATOM     38  C   UNL A   1      43.382  23.216  26.923  1.00  0.00    -0.014 A 
BRANCH  38  39
ATOM     39  C   UNL A   1      43.888  24.579  27.217  1.00  0.00     0.031 A 
ATOM     40  C   UNL A   1      42.953  25.637  27.729  1.00  0.00     0.074 A 
ATOM     41  C   UNL A   1      45.167  24.888  26.924  1.00  0.00     0.049 A 
ATOM     42  N   UNL A   1      43.195  26.896  27.986  1.00  0.00    -0.248 NA
ATOM     43  C   UNL A   1      41.554  25.237  27.956  1.00  0.00     0.031 C 
ATOM     44  C   UNL A   1      46.145  23.969  26.336  1.00  0.00     0.029 A 
ATOM     45  N   UNL A   1      45.854  26.068  27.051  1.00  0.00    -0.354 N 
ATOM     46  C   UNL A   1      41.978  27.447  28.363  1.00  0.00     0.074 A 
ATOM     47  C   UNL A   1      40.990  26.394  28.272  1.00  0.00     0.031 C 
ATOM     48  C   UNL A   1      47.305  24.621  26.155  1.00  0.00     0.029 A 
ATOM     49  C   UNL A   1      47.149  26.004  26.592  1.00  0.00     0.049 A 
ATOM     50  H   UNL A   1      45.459  26.883  27.436  1.00  0.00     0.167 HD
ATOM     51  C   UNL A   1      41.710  28.707  28.780  1.00  0.00     0.034 A 
ATOM     52  C   UNL A   1      48.103  26.954  26.530  1.00  0.00     0.034 A 
ATOM     53  C   UNL A   1      42.706  29.735  28.921  1.00  0.00     0.049 A 
ATOM     54  C   UNL A   1      47.798  28.328  27.062  1.00  0.00     0.074 A 
ATOM     55  C   UNL A   1      42.558  31.012  29.431  1.00  0.00     0.029 A 
ATOM     56  N   UNL A   1      44.035  29.603  28.548  1.00  0.00    -0.354 N 
ATOM     57  N   UNL A   1      46.684  28.782  27.582  1.00  0.00    -0.248 NA
ATOM     58  C   UNL A   1      48.893  29.309  27.037  1.00  0.00     0.031 C 
ATOM     59  C   UNL A   1      43.799  31.657  29.358  1.00  0.00     0.029 A 
ATOM     60  C   UNL A   1      44.719  30.776  28.813  1.00  0.00     0.049 A 
ATOM     61  H   UNL A   1      44.433  28.794  28.153  1.00  0.00     0.167 HD
ATOM     62  C   UNL A   1      46.950  30.088  27.976  1.00  0.00     0.074 A 
ATOM     63  C   UNL A   1      48.339  30.345  27.653  1.00  0.00     0.031 C 
ATOM     64  C   UNL A   1      46.117  30.998  28.540  1.00  0.00     0.034 A 
BRANCH  51  65
ATOM     65  C   UNL A   1      40.293  29.023  29.179  1.00  0.00     0.023 A 
ATOM     66  C   UNL A   1      39.359  29.383  28.185  1.00  0.00     0.012 A 
ATOM     67  C   UNL A   1      39.872  28.924  30.519  1.00  0.00     0.148 A 
ATOM     68  C   UNL A   1      38.039  29.676  28.522  1.00  0.00     0.002 A 
ATOM     69  C   UNL A   1      38.542  29.176  30.841  1.00  0.00     0.091 A 
ATOM     70  F   UNL A   1      40.778  28.606  31.455  1.00  0.00    -0.205 F 
ATOM     71  C   UNL A   1      37.629  29.562  29.846  1.00  0.00     0.022 A 
BRANCH  69  72
ATOM     72  S   UNL A   1      37.903  28.984  32.509  1.00  0.00     0.127 S 
ATOM     73  O   UNL A   1      38.096  27.553  32.737  1.00  0.00    -0.237 OA
ATOM     74  O   UNL A   1      38.793  29.849  33.285  1.00  0.00    -0.237 OA
ATOM     75  O   UNL A   1      36.519  29.432  32.457  1.00  0.00    -0.744 OA
ENDBRANCH  69  72
ENDBRANCH  51  65
BRANCH  52  76
ATOM     76  C   UNL A   1      49.460  26.607  26.025  1.00  0.00     0.023 A 
ATOM     77  C   UNL A   1      50.287  25.768  26.798  1.00  0.00     0.012 A 
ATOM     78  C   UNL A   1      49.917  27.056  24.771  1.00  0.00     0.148 A 
ATOM     79  C   UNL A   1      51.554  25.406  26.344  1.00  0.00     0.002 A 
ATOM     80  C   UNL A   1      51.160  26.648  24.302  1.00  0.00     0.091 A 
ATOM     81  F   UNL A   1      49.120  27.862  24.056  1.00  0.00    -0.205 F 
ATOM     82  C   UNL A   1      51.987  25.835  25.093  1.00  0.00     0.022 A 
BRANCH  80  83
ATOM     83  S   UNL A   1      51.742  27.044  22.649  1.00  0.00     0.127 S 
ATOM     84  O   UNL A   1      52.162  28.434  22.804  1.00  0.00    -0.237 OA
ATOM     85  O   UNL A   1      52.835  26.086  22.475  1.00  0.00    -0.237 OA
ATOM     86  O   UNL A   1      50.603  26.818  21.770  1.00  0.00    -0.744 OA
ENDBRANCH  80  83
ENDBRANCH  52  76
BRANCH  64  87
ATOM     87  C   UNL A   1      46.683  32.351  28.873  1.00  0.00     0.023 A 
ATOM     88  C   UNL A   1      47.292  32.564  30.125  1.00  0.00     0.012 A 
ATOM     89  C   UNL A   1      46.689  33.385  27.915  1.00  0.00     0.148 A 
ATOM     90  C   UNL A   1      47.875  33.793  30.429  1.00  0.00     0.002 A 
ATOM     91  C   UNL A   1      47.311  34.593  28.209  1.00  0.00     0.091 A 
ATOM     92  F   UNL A   1      46.086  33.170  26.737  1.00  0.00    -0.205 F 
ATOM     93  C   UNL A   1      47.896  34.802  29.468  1.00  0.00     0.022 A 
BRANCH  91  94
ATOM     94  S   UNL A   1      47.467  35.910  26.998  1.00  0.00     0.127 S 
ATOM     95  O   UNL A   1      46.069  36.270  26.766  1.00  0.00    -0.237 OA
ATOM     96  O   UNL A   1      48.244  36.915  27.726  1.00  0.00    -0.237 OA
ATOM     97  O   UNL A   1      48.162  35.323  25.859  1.00  0.00    -0.744 OA
ENDBRANCH  91  94
ENDBRANCH  64  87
ENDBRANCH  38  39
ENDBRANCH  30  33
ENDBRANCH  28  29
ENDBRANCH   1  28
TORSDOF 16
ENDMDL
