MODEL 1
REMARK VINA RESULT:     -10.9      0.000      0.000
REMARK SMILES O=C(Cc1csc(NC(=O)CS[C@@H]2CCS(=O)(=O)C2)n1)NCCCCNC(=O)c1ccc(-c2c3nc(c(-c4cccc(S(=O)(=O)[O-])c4F)c4ccc([nH]4)c(-c4cccc(S(=O)(=O)[O-])c4F)c4nc(c(-c5cccc(S(=O)(=O)[O-])c5F)c5ccc2[nH]5)C=C4)C=C3)cc1
REMARK SMILES IDX 22 1 21 2 1 3 2 4 3 6 4 7 5 8 20 9 6 10 7 11 8 12 9 13 10 15
REMARK SMILES IDX 11 16 12 17 13 18 14 19 19 20 15 21 16 22 17 23 18 24 23 25
REMARK SMILES IDX 24 26 25 27 26 28 27 29 28 31 29 32 30 33 91 34 31 35 90 36
REMARK SMILES IDX 32 37 33 38 34 39 84 40 35 41 89 42 83 43 85 44 36 45 88 46
REMARK SMILES IDX 82 47 81 48 37 50 69 51 49 52 68 53 50 54 53 55 67 56 86 57
REMARK SMILES IDX 51 58 52 59 66 61 87 62 54 63 38 64 39 65 47 66 40 67 42 68
REMARK SMILES IDX 48 69 41 70 43 71 44 72 45 73 46 74 70 75 71 76 79 77 72 78
REMARK SMILES IDX 74 79 80 80 73 81 75 82 76 83 77 84 78 85 55 86 56 87 64 88
REMARK SMILES IDX 57 89 59 90 65 91 58 92 60 93 61 94 62 95 63 96
REMARK H PARENT 21 5 8 14 26 30 85 49 53 60
REMARK Flexibility Score: inf
ROOT
ATOM      1  C   UNL A   1      32.030  28.625  24.813  1.00  0.00     0.116 C 
ENDROOT
BRANCH   1   2
ATOM      2  N   UNL A   1      31.410  27.348  24.549  1.00  0.00    -0.356 N 
ATOM      3  O   UNL A   1      30.708  26.904  26.696  1.00  0.00    -0.275 OA
ATOM      4  C   UNL A   1      30.794  26.581  25.514  1.00  0.00     0.226 C 
ATOM      5  H   UNL A   1      31.430  27.005  23.626  1.00  0.00     0.163 HD
BRANCH   4   6
ATOM      6  C   UNL A   1      30.256  25.259  24.993  1.00  0.00     0.157 C 
BRANCH   6   7
ATOM      7  C   UNL A   1      31.337  24.433  24.380  1.00  0.00     0.063 A 
ATOM      8  C   UNL A   1      31.295  23.801  23.153  1.00  0.00     0.093 A 
ATOM      9  N   UNL A   1      32.512  24.220  25.094  1.00  0.00    -0.224 NA
ATOM     10  S   UNL A   1      32.800  23.055  22.840  1.00  0.00    -0.105 S 
ATOM     11  C   UNL A   1      33.313  23.429  24.420  1.00  0.00     0.189 A 
BRANCH  11  12
ATOM     12  N   UNL A   1      34.516  23.045  24.942  1.00  0.00    -0.301 N 
ATOM     13  C   UNL A   1      34.988  21.854  25.395  1.00  0.00     0.236 C 
ATOM     14  H   UNL A   1      35.172  23.777  25.001  1.00  0.00     0.172 HD
ATOM     15  O   UNL A   1      36.172  21.817  25.753  1.00  0.00    -0.274 OA
BRANCH  13  16
ATOM     16  C   UNL A   1      34.150  20.600  25.506  1.00  0.00     0.170 C 
BRANCH  16  17
ATOM     17  S   UNL A   1      34.851  19.194  24.585  1.00  0.00    -0.148 SA
BRANCH  17  18
ATOM     18  C   UNL A   1      33.381  18.295  23.938  1.00  0.00     0.063 C 
ATOM     19  C   UNL A   1      32.247  18.059  24.943  1.00  0.00     0.031 C 
ATOM     20  C   UNL A   1      33.851  16.878  23.568  1.00  0.00     0.151 C 
ATOM     21  C   UNL A   1      32.774  17.098  26.005  1.00  0.00     0.138 C 
ATOM     22  S   UNL A   1      33.841  15.969  25.116  1.00  0.00     0.151 S 
ATOM     23  O   UNL A   1      35.161  16.012  25.713  1.00  0.00    -0.229 OA
ATOM     24  O   UNL A   1      33.142  14.715  24.923  1.00  0.00    -0.229 OA
ENDBRANCH  17  18
ENDBRANCH  16  17
ENDBRANCH  13  16
ENDBRANCH  11  12
ENDBRANCH   6   7
ENDBRANCH   4   6
ENDBRANCH   1   2
BRANCH   1  25
ATOM     25  C   UNL A   1      33.547  28.507  24.937  1.00  0.00     0.023 C 
BRANCH  25  26
ATOM     26  C   UNL A   1      34.050  28.032  26.304  1.00  0.00     0.023 C 
BRANCH  26  27
ATOM     27  C   UNL A   1      33.408  28.704  27.514  1.00  0.00     0.116 C 
BRANCH  27  28
ATOM     28  N   UNL A   1      33.575  30.150  27.512  1.00  0.00    -0.352 N 
ATOM     29  C   UNL A   1      34.642  30.910  27.931  1.00  0.00     0.251 C 
ATOM     30  H   UNL A   1      32.810  30.660  27.159  1.00  0.00     0.163 HD
ATOM     31  O   UNL A   1      34.530  32.132  27.991  1.00  0.00    -0.269 OA
BRANCH  29  32
ATOM     32  C   UNL A   1      35.913  30.264  28.334  1.00  0.00     0.039 A 
ATOM     33  C   UNL A   1      36.990  30.280  27.444  1.00  0.00     0.014 A 
ATOM     34  C   UNL A   1      36.046  29.638  29.577  1.00  0.00     0.014 A 
ATOM     35  C   UNL A   1      38.217  29.731  27.826  1.00  0.00     0.010 A 
ATOM     36  C   UNL A   1      37.290  29.160  29.984  1.00  0.00     0.010 A 
ATOM     37  C   UNL A   1      38.391  29.200  29.114  1.00  0.00    -0.014 A 
BRANCH  37  38
ATOM     38  C   UNL A   1      39.717  28.705  29.573  1.00  0.00     0.031 A 
ATOM     39  C   UNL A   1      40.463  29.420  30.668  1.00  0.00     0.074 A 
ATOM     40  C   UNL A   1      40.290  27.657  28.946  1.00  0.00     0.049 A 
ATOM     41  N   UNL A   1      41.650  29.165  31.158  1.00  0.00    -0.248 NA
ATOM     42  C   UNL A   1      39.804  30.587  31.276  1.00  0.00     0.031 C 
ATOM     43  C   UNL A   1      39.706  26.920  27.823  1.00  0.00     0.029 A 
ATOM     44  N   UNL A   1      41.504  27.046  29.146  1.00  0.00    -0.354 N 
ATOM     45  C   UNL A   1      41.895  30.156  32.101  1.00  0.00     0.074 A 
ATOM     46  C   UNL A   1      40.747  31.035  32.094  1.00  0.00     0.031 C 
ATOM     47  C   UNL A   1      40.555  25.953  27.441  1.00  0.00     0.029 A 
ATOM     48  C   UNL A   1      41.759  26.023  28.262  1.00  0.00     0.049 A 
ATOM     49  H   UNL A   1      42.132  27.313  29.855  1.00  0.00     0.167 HD
ATOM     50  C   UNL A   1      42.965  30.309  32.916  1.00  0.00     0.034 A 
ATOM     51  C   UNL A   1      42.845  25.238  28.116  1.00  0.00     0.034 A 
ATOM     52  C   UNL A   1      44.092  29.413  32.948  1.00  0.00     0.049 A 
ATOM     53  C   UNL A   1      44.012  25.416  29.050  1.00  0.00     0.074 A 
ATOM     54  C   UNL A   1      45.181  29.435  33.803  1.00  0.00     0.029 A 
ATOM     55  N   UNL A   1      44.282  28.347  32.084  1.00  0.00    -0.354 N 
ATOM     56  N   UNL A   1      44.154  26.265  30.039  1.00  0.00    -0.248 NA
ATOM     57  C   UNL A   1      45.153  24.506  28.871  1.00  0.00     0.031 C 
ATOM     58  C   UNL A   1      46.050  28.406  33.428  1.00  0.00     0.029 A 
ATOM     59  C   UNL A   1      45.480  27.714  32.371  1.00  0.00     0.049 A 
ATOM     60  H   UNL A   1      43.658  28.078  31.372  1.00  0.00     0.167 HD
ATOM     61  C   UNL A   1      45.380  25.964  30.624  1.00  0.00     0.074 A 
ATOM     62  C   UNL A   1      45.929  24.843  29.890  1.00  0.00     0.031 C 
ATOM     63  C   UNL A   1      45.997  26.569  31.668  1.00  0.00     0.034 A 
BRANCH  50  64
ATOM     64  C   UNL A   1      42.963  31.475  33.871  1.00  0.00     0.023 A 
ATOM     65  C   UNL A   1      43.390  32.745  33.429  1.00  0.00     0.012 A 
ATOM     66  C   UNL A   1      42.473  31.331  35.185  1.00  0.00     0.148 A 
ATOM     67  C   UNL A   1      43.362  33.842  34.288  1.00  0.00     0.002 A 
ATOM     68  C   UNL A   1      42.404  32.440  36.020  1.00  0.00     0.091 A 
ATOM     69  F   UNL A   1      42.090  30.113  35.593  1.00  0.00    -0.205 F 
ATOM     70  C   UNL A   1      42.859  33.693  35.578  1.00  0.00     0.022 A 
BRANCH  68  71
ATOM     71  S   UNL A   1      41.696  32.368  37.669  1.00  0.00     0.127 S 
ATOM     72  O   UNL A   1      40.310  31.999  37.378  1.00  0.00    -0.237 OA
ATOM     73  O   UNL A   1      42.490  31.312  38.297  1.00  0.00    -0.237 OA
ATOM     74  O   UNL A   1      41.878  33.693  38.244  1.00  0.00    -0.744 OA
ENDBRANCH  68  71
ENDBRANCH  50  64
BRANCH  51  75
ATOM     75  C   UNL A   1      42.865  24.172  27.072  1.00  0.00     0.023 A 
ATOM     76  C   UNL A   1      43.555  24.395  25.865  1.00  0.00     0.012 A 
ATOM     77  C   UNL A   1      42.210  22.941  27.271  1.00  0.00     0.148 A 
ATOM     78  C   UNL A   1      43.562  23.428  24.860  1.00  0.00     0.002 A 
ATOM     79  C   UNL A   1      42.271  21.959  26.290  1.00  0.00     0.091 A 
ATOM     80  F   UNL A   1      41.550  22.752  28.423  1.00  0.00    -0.205 F 
ATOM     81  C   UNL A   1      42.928  22.207  25.075  1.00  0.00     0.022 A 
BRANCH  79  82
ATOM     82  S   UNL A   1      41.594  20.313  26.532  1.00  0.00     0.127 S 
ATOM     83  O   UNL A   1      42.207  19.922  27.800  1.00  0.00    -0.237 OA
ATOM     84  O   UNL A   1      40.159  20.585  26.598  1.00  0.00    -0.237 OA
ATOM     85  O   UNL A   1      42.007  19.541  25.367  1.00  0.00    -0.744 OA
ENDBRANCH  79  82
ENDBRANCH  51  75
BRANCH  63  86
ATOM     86  C   UNL A   1      47.320  26.007  32.122  1.00  0.00     0.023 A 
ATOM     87  C   UNL A   1      48.519  26.449  31.529  1.00  0.00     0.012 A 
ATOM     88  C   UNL A   1      47.376  25.089  33.191  1.00  0.00     0.148 A 
ATOM     89  C   UNL A   1      49.750  25.958  31.966  1.00  0.00     0.002 A 
ATOM     90  C   UNL A   1      48.607  24.648  33.659  1.00  0.00     0.091 A 
ATOM     91  F   UNL A   1      46.224  24.668  33.732  1.00  0.00    -0.205 F 
ATOM     92  C   UNL A   1      49.795  25.069  33.038  1.00  0.00     0.022 A 
BRANCH  90  93
ATOM     93  S   UNL A   1      48.768  23.583  35.095  1.00  0.00     0.127 S 
ATOM     94  O   UNL A   1      48.123  22.355  34.629  1.00  0.00    -0.237 OA
ATOM     95  O   UNL A   1      50.220  23.488  35.250  1.00  0.00    -0.237 OA
ATOM     96  O   UNL A   1      48.087  24.269  36.185  1.00  0.00    -0.744 OA
ENDBRANCH  90  93
ENDBRANCH  63  86
ENDBRANCH  37  38
ENDBRANCH  29  32
ENDBRANCH  27  28
ENDBRANCH  26  27
ENDBRANCH  25  26
ENDBRANCH   1  25
TORSDOF 19
ENDMDL
MODEL 2
REMARK VINA RESULT:     -10.9      5.271     10.122
REMARK SMILES O=C(Cc1csc(NC(=O)CS[C@@H]2CCS(=O)(=O)C2)n1)NCCCCNC(=O)c1ccc(-c2c3nc(c(-c4cccc(S(=O)(=O)[O-])c4F)c4ccc([nH]4)c(-c4cccc(S(=O)(=O)[O-])c4F)c4nc(c(-c5cccc(S(=O)(=O)[O-])c5F)c5ccc2[nH]5)C=C4)C=C3)cc1
REMARK SMILES IDX 22 1 21 2 1 3 2 4 3 6 4 7 5 8 20 9 6 10 7 11 8 12 9 13 10 15
REMARK SMILES IDX 11 16 12 17 13 18 14 19 19 20 15 21 16 22 17 23 18 24 23 25
REMARK SMILES IDX 24 26 25 27 26 28 27 29 28 31 29 32 30 33 91 34 31 35 90 36
REMARK SMILES IDX 32 37 33 38 34 39 84 40 35 41 89 42 83 43 85 44 36 45 88 46
REMARK SMILES IDX 82 47 81 48 37 50 69 51 49 52 68 53 50 54 53 55 67 56 86 57
REMARK SMILES IDX 51 58 52 59 66 61 87 62 54 63 38 64 39 65 47 66 40 67 42 68
REMARK SMILES IDX 48 69 41 70 43 71 44 72 45 73 46 74 70 75 71 76 79 77 72 78
REMARK SMILES IDX 74 79 80 80 73 81 75 82 76 83 77 84 78 85 55 86 56 87 64 88
REMARK SMILES IDX 57 89 59 90 65 91 58 92 60 93 61 94 62 95 63 96
REMARK H PARENT 21 5 8 14 26 30 85 49 53 60
REMARK Flexibility Score: inf
ROOT
ATOM      1  C   UNL A   1      33.636  20.580  26.125  1.00  0.00     0.116 C 
ENDROOT
BRANCH   1   2
ATOM      2  N   UNL A   1      32.867  21.801  26.065  1.00  0.00    -0.356 N 
ATOM      3  O   UNL A   1      32.962  22.327  28.305  1.00  0.00    -0.275 OA
ATOM      4  C   UNL A   1      32.587  22.585  27.164  1.00  0.00     0.226 C 
ATOM      5  H   UNL A   1      32.522  22.090  25.190  1.00  0.00     0.163 HD
BRANCH   4   6
ATOM      6  C   UNL A   1      31.725  23.795  26.848  1.00  0.00     0.157 C 
BRANCH   6   7
ATOM      7  C   UNL A   1      32.448  24.768  25.977  1.00  0.00     0.063 A 
ATOM      8  C   UNL A   1      32.985  25.979  26.366  1.00  0.00     0.093 A 
ATOM      9  N   UNL A   1      32.591  24.487  24.622  1.00  0.00    -0.224 NA
ATOM     10  S   UNL A   1      33.797  26.697  25.044  1.00  0.00    -0.105 S 
ATOM     11  C   UNL A   1      33.199  25.478  24.016  1.00  0.00     0.189 A 
BRANCH  11  12
ATOM     12  N   UNL A   1      33.416  25.445  22.667  1.00  0.00    -0.301 N 
ATOM     13  C   UNL A   1      32.728  25.946  21.609  1.00  0.00     0.236 C 
ATOM     14  H   UNL A   1      34.235  24.961  22.411  1.00  0.00     0.172 HD
ATOM     15  O   UNL A   1      33.233  25.799  20.488  1.00  0.00    -0.274 OA
BRANCH  13  16
ATOM     16  C   UNL A   1      31.389  26.642  21.723  1.00  0.00     0.170 C 
BRANCH  16  17
ATOM     17  S   UNL A   1      31.540  28.405  22.152  1.00  0.00    -0.148 SA
BRANCH  17  18
ATOM     18  C   UNL A   1      30.651  28.561  23.757  1.00  0.00     0.063 C 
ATOM     19  C   UNL A   1      29.551  27.525  24.013  1.00  0.00     0.031 C 
ATOM     20  C   UNL A   1      29.899  29.902  23.721  1.00  0.00     0.151 C 
ATOM     21  C   UNL A   1      28.439  27.781  23.000  1.00  0.00     0.138 C 
ATOM     22  S   UNL A   1      28.389  29.561  22.812  1.00  0.00     0.151 S 
ATOM     23  O   UNL A   1      28.581  29.884  21.413  1.00  0.00    -0.229 OA
ATOM     24  O   UNL A   1      27.261  30.081  23.558  1.00  0.00    -0.229 OA
ENDBRANCH  17  18
ENDBRANCH  16  17
ENDBRANCH  13  16
ENDBRANCH  11  12
ENDBRANCH   6   7
ENDBRANCH   4   6
ENDBRANCH   1   2
BRANCH   1  25
ATOM     25  C   UNL A   1      34.835  20.616  25.182  1.00  0.00     0.023 C 
BRANCH  25  26
ATOM     26  C   UNL A   1      35.313  22.019  24.794  1.00  0.00     0.023 C 
BRANCH  26  27
ATOM     27  C   UNL A   1      36.529  22.535  25.558  1.00  0.00     0.116 C 
BRANCH  27  28
ATOM     28  N   UNL A   1      37.562  21.524  25.726  1.00  0.00    -0.352 N 
ATOM     29  C   UNL A   1      38.868  21.664  26.137  1.00  0.00     0.251 C 
ATOM     30  H   UNL A   1      37.286  20.603  25.515  1.00  0.00     0.163 HD
ATOM     31  O   UNL A   1      39.631  20.705  26.068  1.00  0.00    -0.269 OA
BRANCH  29  32
ATOM     32  C   UNL A   1      39.363  22.968  26.635  1.00  0.00     0.039 A 
ATOM     33  C   UNL A   1      40.393  22.982  27.580  1.00  0.00     0.014 A 
ATOM     34  C   UNL A   1      38.817  24.172  26.183  1.00  0.00     0.014 A 
ATOM     35  C   UNL A   1      40.919  24.200  28.019  1.00  0.00     0.010 A 
ATOM     36  C   UNL A   1      39.393  25.383  26.564  1.00  0.00     0.010 A 
ATOM     37  C   UNL A   1      40.450  25.412  27.486  1.00  0.00    -0.014 A 
BRANCH  37  38
ATOM     38  C   UNL A   1      41.068  26.712  27.864  1.00  0.00     0.031 A 
ATOM     39  C   UNL A   1      42.510  26.998  27.539  1.00  0.00     0.074 A 
ATOM     40  C   UNL A   1      40.352  27.607  28.577  1.00  0.00     0.049 A 
ATOM     41  N   UNL A   1      43.229  28.050  27.839  1.00  0.00    -0.248 NA
ATOM     42  C   UNL A   1      43.249  25.959  26.804  1.00  0.00     0.031 C 
ATOM     43  C   UNL A   1      38.968  27.423  29.020  1.00  0.00     0.029 A 
ATOM     44  N   UNL A   1      40.698  28.838  29.078  1.00  0.00    -0.354 N 
ATOM     45  C   UNL A   1      44.508  27.786  27.364  1.00  0.00     0.074 A 
ATOM     46  C   UNL A   1      44.476  26.462  26.784  1.00  0.00     0.031 C 
ATOM     47  C   UNL A   1      38.580  28.504  29.716  1.00  0.00     0.029 A 
ATOM     48  C   UNL A   1      39.696  29.440  29.805  1.00  0.00     0.049 A 
ATOM     49  H   UNL A   1      41.579  29.252  28.931  1.00  0.00     0.167 HD
ATOM     50  C   UNL A   1      45.604  28.581  27.387  1.00  0.00     0.034 A 
ATOM     51  C   UNL A   1      39.679  30.607  30.480  1.00  0.00     0.034 A 
ATOM     52  C   UNL A   1      45.627  29.913  27.932  1.00  0.00     0.049 A 
ATOM     53  C   UNL A   1      40.905  31.479  30.469  1.00  0.00     0.074 A 
ATOM     54  C   UNL A   1      46.665  30.828  27.919  1.00  0.00     0.029 A 
ATOM     55  N   UNL A   1      44.572  30.515  28.598  1.00  0.00    -0.354 N 
ATOM     56  N   UNL A   1      42.058  31.275  29.880  1.00  0.00    -0.248 NA
ATOM     57  C   UNL A   1      40.818  32.759  31.189  1.00  0.00     0.031 C 
ATOM     58  C   UNL A   1      46.251  31.968  28.614  1.00  0.00     0.029 A 
ATOM     59  C   UNL A   1      44.939  31.782  29.019  1.00  0.00     0.049 A 
ATOM     60  H   UNL A   1      43.690  30.103  28.750  1.00  0.00     0.167 HD
ATOM     61  C   UNL A   1      42.816  32.416  30.121  1.00  0.00     0.074 A 
ATOM     62  C   UNL A   1      41.984  33.315  30.895  1.00  0.00     0.031 C 
ATOM     63  C   UNL A   1      44.089  32.690  29.745  1.00  0.00     0.034 A 
BRANCH  50  64
ATOM     64  C   UNL A   1      46.874  28.048  26.774  1.00  0.00     0.023 A 
ATOM     65  C   UNL A   1      47.847  27.440  27.596  1.00  0.00     0.012 A 
ATOM     66  C   UNL A   1      47.074  28.084  25.380  1.00  0.00     0.148 A 
ATOM     67  C   UNL A   1      49.012  26.909  27.043  1.00  0.00     0.002 A 
ATOM     68  C   UNL A   1      48.215  27.510  24.832  1.00  0.00     0.091 A 
ATOM     69  F   UNL A   1      46.147  28.682  24.618  1.00  0.00    -0.205 F 
ATOM     70  C   UNL A   1      49.190  26.934  25.662  1.00  0.00     0.022 A 
BRANCH  68  71
ATOM     71  S   UNL A   1      48.498  27.418  23.061  1.00  0.00     0.127 S 
ATOM     72  O   UNL A   1      49.819  28.036  22.942  1.00  0.00    -0.237 OA
ATOM     73  O   UNL A   1      48.476  25.974  22.822  1.00  0.00    -0.237 OA
ATOM     74  O   UNL A   1      47.409  28.156  22.439  1.00  0.00    -0.744 OA
ENDBRANCH  68  71
ENDBRANCH  50  64
BRANCH  51  75
ATOM     75  C   UNL A   1      38.440  31.047  31.184  1.00  0.00     0.023 A 
ATOM     76  C   UNL A   1      38.295  30.787  32.560  1.00  0.00     0.012 A 
ATOM     77  C   UNL A   1      37.412  31.725  30.501  1.00  0.00     0.148 A 
ATOM     78  C   UNL A   1      37.132  31.159  33.236  1.00  0.00     0.002 A 
ATOM     79  C   UNL A   1      36.282  32.146  31.193  1.00  0.00     0.091 A 
ATOM     80  F   UNL A   1      37.565  31.955  29.189  1.00  0.00    -0.205 F 
ATOM     81  C   UNL A   1      36.131  31.846  32.555  1.00  0.00     0.022 A 
BRANCH  79  82
ATOM     82  S   UNL A   1      35.003  33.148  30.428  1.00  0.00     0.127 S 
ATOM     83  O   UNL A   1      35.784  34.233  29.840  1.00  0.00    -0.237 OA
ATOM     84  O   UNL A   1      34.424  32.211  29.466  1.00  0.00    -0.237 OA
ATOM     85  O   UNL A   1      34.104  33.531  31.509  1.00  0.00    -0.744 OA
ENDBRANCH  79  82
ENDBRANCH  51  75
BRANCH  63  86
ATOM     86  C   UNL A   1      44.658  34.035  30.117  1.00  0.00     0.023 A 
ATOM     87  C   UNL A   1      45.365  34.196  31.325  1.00  0.00     0.012 A 
ATOM     88  C   UNL A   1      44.549  35.125  29.230  1.00  0.00     0.148 A 
ATOM     89  C   UNL A   1      45.923  35.430  31.661  1.00  0.00     0.002 A 
ATOM     90  C   UNL A   1      45.154  36.335  29.545  1.00  0.00     0.091 A 
ATOM     91  F   UNL A   1      43.857  34.958  28.093  1.00  0.00    -0.205 F 
ATOM     92  C   UNL A   1      45.829  36.495  30.767  1.00  0.00     0.022 A 
BRANCH  90  93
ATOM     93  S   UNL A   1      45.171  37.729  28.414  1.00  0.00     0.127 S 
ATOM     94  O   UNL A   1      45.474  37.075  27.140  1.00  0.00    -0.237 OA
ATOM     95  O   UNL A   1      43.805  38.238  28.527  1.00  0.00    -0.237 OA
ATOM     96  O   UNL A   1      46.199  38.637  28.907  1.00  0.00    -0.744 OA
ENDBRANCH  90  93
ENDBRANCH  63  86
ENDBRANCH  37  38
ENDBRANCH  29  32
ENDBRANCH  27  28
ENDBRANCH  26  27
ENDBRANCH  25  26
ENDBRANCH   1  25
TORSDOF 19
ENDMDL
MODEL 3
REMARK VINA RESULT:     -10.6      5.080      8.592
REMARK SMILES O=C(Cc1csc(NC(=O)CS[C@@H]2CCS(=O)(=O)C2)n1)NCCCCNC(=O)c1ccc(-c2c3nc(c(-c4cccc(S(=O)(=O)[O-])c4F)c4ccc([nH]4)c(-c4cccc(S(=O)(=O)[O-])c4F)c4nc(c(-c5cccc(S(=O)(=O)[O-])c5F)c5ccc2[nH]5)C=C4)C=C3)cc1
REMARK SMILES IDX 22 1 21 2 1 3 2 4 3 6 4 7 5 8 20 9 6 10 7 11 8 12 9 13 10 15
REMARK SMILES IDX 11 16 12 17 13 18 14 19 19 20 15 21 16 22 17 23 18 24 23 25
REMARK SMILES IDX 24 26 25 27 26 28 27 29 28 31 29 32 30 33 91 34 31 35 90 36
REMARK SMILES IDX 32 37 33 38 34 39 84 40 35 41 89 42 83 43 85 44 36 45 88 46
REMARK SMILES IDX 82 47 81 48 37 50 69 51 49 52 68 53 50 54 53 55 67 56 86 57
REMARK SMILES IDX 51 58 52 59 66 61 87 62 54 63 38 64 39 65 47 66 40 67 42 68
REMARK SMILES IDX 48 69 41 70 43 71 44 72 45 73 46 74 70 75 71 76 79 77 72 78
REMARK SMILES IDX 74 79 80 80 73 81 75 82 76 83 77 84 78 85 55 86 56 87 64 88
REMARK SMILES IDX 57 89 59 90 65 91 58 92 60 93 61 94 62 95 63 96
REMARK H PARENT 21 5 8 14 26 30 85 49 53 60
REMARK Flexibility Score: inf
ROOT
ATOM      1  C   UNL A   1      34.988  18.994  24.604  1.00  0.00     0.116 C 
ENDROOT
BRANCH   1   2
ATOM      2  N   UNL A   1      33.983  20.002  24.841  1.00  0.00    -0.356 N 
ATOM      3  O   UNL A   1      32.223  18.578  25.262  1.00  0.00    -0.275 OA
ATOM      4  C   UNL A   1      32.670  19.717  25.154  1.00  0.00     0.226 C 
ATOM      5  H   UNL A   1      34.248  20.948  24.776  1.00  0.00     0.163 HD
BRANCH   4   6
ATOM      6  C   UNL A   1      31.799  20.950  25.315  1.00  0.00     0.157 C 
BRANCH   6   7
ATOM      7  C   UNL A   1      32.598  22.204  25.191  1.00  0.00     0.063 A 
ATOM      8  C   UNL A   1      33.147  22.936  26.225  1.00  0.00     0.093 A 
ATOM      9  N   UNL A   1      32.810  22.749  23.928  1.00  0.00    -0.224 NA
ATOM     10  S   UNL A   1      34.054  24.237  25.588  1.00  0.00    -0.105 S 
ATOM     11  C   UNL A   1      33.481  23.872  24.027  1.00  0.00     0.189 A 
BRANCH  11  12
ATOM     12  N   UNL A   1      33.774  24.611  22.915  1.00  0.00    -0.301 N 
ATOM     13  C   UNL A   1      33.130  25.628  22.287  1.00  0.00     0.236 C 
ATOM     14  H   UNL A   1      34.622  24.354  22.484  1.00  0.00     0.172 HD
ATOM     15  O   UNL A   1      33.702  26.142  21.317  1.00  0.00    -0.274 OA
BRANCH  13  16
ATOM     16  C   UNL A   1      31.765  26.141  22.689  1.00  0.00     0.170 C 
BRANCH  16  17
ATOM     17  S   UNL A   1      31.676  27.959  22.739  1.00  0.00    -0.148 SA
BRANCH  17  18
ATOM     18  C   UNL A   1      30.877  28.330  24.356  1.00  0.00     0.063 C 
ATOM     19  C   UNL A   1      31.164  29.719  24.938  1.00  0.00     0.031 C 
ATOM     20  C   UNL A   1      31.483  27.362  25.386  1.00  0.00     0.151 C 
ATOM     21  C   UNL A   1      32.647  29.767  25.291  1.00  0.00     0.138 C 
ATOM     22  S   UNL A   1      33.036  28.119  25.875  1.00  0.00     0.151 S 
ATOM     23  O   UNL A   1      34.112  27.583  25.067  1.00  0.00    -0.229 OA
ATOM     24  O   UNL A   1      33.117  28.140  27.321  1.00  0.00    -0.229 OA
ENDBRANCH  17  18
ENDBRANCH  16  17
ENDBRANCH  13  16
ENDBRANCH  11  12
ENDBRANCH   6   7
ENDBRANCH   4   6
ENDBRANCH   1   2
BRANCH   1  25
ATOM     25  C   UNL A   1      36.399  19.536  24.818  1.00  0.00     0.023 C 
BRANCH  25  26
ATOM     26  C   UNL A   1      36.509  21.063  24.846  1.00  0.00     0.023 C 
BRANCH  26  27
ATOM     27  C   UNL A   1      37.875  21.619  25.241  1.00  0.00     0.116 C 
BRANCH  27  28
ATOM     28  N   UNL A   1      38.765  20.601  25.780  1.00  0.00    -0.352 N 
ATOM     29  C   UNL A   1      39.954  20.745  26.456  1.00  0.00     0.251 C 
ATOM     30  H   UNL A   1      38.472  19.671  25.640  1.00  0.00     0.163 HD
ATOM     31  O   UNL A   1      40.638  19.753  26.697  1.00  0.00    -0.269 OA
BRANCH  29  32
ATOM     32  C   UNL A   1      40.426  22.086  26.871  1.00  0.00     0.039 A 
ATOM     33  C   UNL A   1      41.280  22.190  27.972  1.00  0.00     0.014 A 
ATOM     34  C   UNL A   1      40.026  23.238  26.188  1.00  0.00     0.014 A 
ATOM     35  C   UNL A   1      41.787  23.438  28.344  1.00  0.00     0.010 A 
ATOM     36  C   UNL A   1      40.593  24.470  26.513  1.00  0.00     0.010 A 
ATOM     37  C   UNL A   1      41.479  24.585  27.595  1.00  0.00    -0.014 A 
BRANCH  37  38
ATOM     38  C   UNL A   1      42.090  25.904  27.914  1.00  0.00     0.031 A 
ATOM     39  C   UNL A   1      41.275  26.988  28.567  1.00  0.00     0.074 A 
ATOM     40  C   UNL A   1      43.362  26.156  27.538  1.00  0.00     0.049 A 
ATOM     41  N   UNL A   1      41.625  28.213  28.869  1.00  0.00    -0.248 NA
ATOM     42  C   UNL A   1      39.880  26.665  28.905  1.00  0.00     0.031 C 
ATOM     43  C   UNL A   1      44.238  25.218  26.833  1.00  0.00     0.029 A 
ATOM     44  N   UNL A   1      44.130  27.287  27.673  1.00  0.00    -0.354 N 
ATOM     45  C   UNL A   1      40.488  28.815  29.395  1.00  0.00     0.074 A 
ATOM     46  C   UNL A   1      39.429  27.832  29.344  1.00  0.00     0.031 C 
ATOM     47  C   UNL A   1      45.424  25.807  26.607  1.00  0.00     0.029 A 
ATOM     48  C   UNL A   1      45.381  27.175  27.113  1.00  0.00     0.049 A 
ATOM     49  H   UNL A   1      43.815  28.101  28.128  1.00  0.00     0.167 HD
ATOM     50  C   UNL A   1      40.343  30.065  29.897  1.00  0.00     0.034 A 
ATOM     51  C   UNL A   1      46.380  28.074  27.005  1.00  0.00     0.034 A 
ATOM     52  C   UNL A   1      41.406  31.031  29.980  1.00  0.00     0.049 A 
ATOM     53  C   UNL A   1      46.198  29.448  27.591  1.00  0.00     0.074 A 
ATOM     54  C   UNL A   1      41.378  32.291  30.556  1.00  0.00     0.029 A 
ATOM     55  N   UNL A   1      42.680  30.856  29.465  1.00  0.00    -0.354 N 
ATOM     56  N   UNL A   1      45.163  29.945  28.224  1.00  0.00    -0.248 NA
ATOM     57  C   UNL A   1      47.334  30.375  27.479  1.00  0.00     0.031 C 
ATOM     58  C   UNL A   1      42.623  32.892  30.351  1.00  0.00     0.029 A 
ATOM     59  C   UNL A   1      43.442  31.990  29.691  1.00  0.00     0.049 A 
ATOM     60  H   UNL A   1      42.997  30.044  29.007  1.00  0.00     0.167 HD
ATOM     61  C   UNL A   1      45.537  31.224  28.620  1.00  0.00     0.074 A 
ATOM     62  C   UNL A   1      46.901  31.418  28.173  1.00  0.00     0.031 C 
ATOM     63  C   UNL A   1      44.814  32.157  29.286  1.00  0.00     0.034 A 
BRANCH  50  64
ATOM     64  C   UNL A   1      38.988  30.457  30.429  1.00  0.00     0.023 A 
ATOM     65  C   UNL A   1      38.742  30.416  31.818  1.00  0.00     0.012 A 
ATOM     66  C   UNL A   1      37.983  30.933  29.565  1.00  0.00     0.148 A 
ATOM     67  C   UNL A   1      37.507  30.808  32.332  1.00  0.00     0.002 A 
ATOM     68  C   UNL A   1      36.772  31.368  30.089  1.00  0.00     0.091 A 
ATOM     69  F   UNL A   1      38.229  30.947  28.247  1.00  0.00    -0.205 F 
ATOM     70  C   UNL A   1      36.527  31.294  31.470  1.00  0.00     0.022 A 
BRANCH  68  71
ATOM     71  S   UNL A   1      35.478  32.087  29.072  1.00  0.00     0.127 S 
ATOM     72  O   UNL A   1      36.189  33.191  28.427  1.00  0.00    -0.237 OA
ATOM     73  O   UNL A   1      35.136  30.977  28.181  1.00  0.00    -0.237 OA
ATOM     74  O   UNL A   1      34.418  32.483  29.988  1.00  0.00    -0.744 OA
ENDBRANCH  68  71
ENDBRANCH  50  64
BRANCH  51  75
ATOM     75  C   UNL A   1      47.667  27.690  26.356  1.00  0.00     0.023 A 
ATOM     76  C   UNL A   1      48.743  27.252  27.153  1.00  0.00     0.012 A 
ATOM     77  C   UNL A   1      47.828  27.749  24.958  1.00  0.00     0.148 A 
ATOM     78  C   UNL A   1      49.968  26.918  26.574  1.00  0.00     0.002 A 
ATOM     79  C   UNL A   1      49.031  27.358  24.383  1.00  0.00     0.091 A 
ATOM     80  F   UNL A   1      46.796  28.177  24.218  1.00  0.00    -0.205 F 
ATOM     81  C   UNL A   1      50.109  26.962  25.190  1.00  0.00     0.022 A 
BRANCH  79  82
ATOM     82  S   UNL A   1      49.261  27.259  22.605  1.00  0.00     0.127 S 
ATOM     83  O   UNL A   1      50.691  26.977  22.503  1.00  0.00    -0.237 OA
ATOM     84  O   UNL A   1      48.384  26.144  22.250  1.00  0.00    -0.237 OA
ATOM     85  O   UNL A   1      48.833  28.550  22.080  1.00  0.00    -0.744 OA
ENDBRANCH  79  82
ENDBRANCH  51  75
BRANCH  63  86
ATOM     86  C   UNL A   1      45.489  33.462  29.621  1.00  0.00     0.023 A 
ATOM     87  C   UNL A   1      46.304  33.565  30.766  1.00  0.00     0.012 A 
ATOM     88  C   UNL A   1      45.369  34.570  28.757  1.00  0.00     0.148 A 
ATOM     89  C   UNL A   1      46.958  34.759  31.066  1.00  0.00     0.002 A 
ATOM     90  C   UNL A   1      46.068  35.738  29.033  1.00  0.00     0.091 A 
ATOM     91  F   UNL A   1      44.576  34.459  27.682  1.00  0.00    -0.205 F 
ATOM     92  C   UNL A   1      46.851  35.840  30.194  1.00  0.00     0.022 A 
BRANCH  90  93
ATOM     93  S   UNL A   1      46.071  37.145  27.917  1.00  0.00     0.127 S 
ATOM     94  O   UNL A   1      46.650  36.564  26.706  1.00  0.00    -0.237 OA
ATOM     95  O   UNL A   1      44.648  37.467  27.819  1.00  0.00    -0.237 OA
ATOM     96  O   UNL A   1      46.881  38.171  28.563  1.00  0.00    -0.744 OA
ENDBRANCH  90  93
ENDBRANCH  63  86
ENDBRANCH  37  38
ENDBRANCH  29  32
ENDBRANCH  27  28
ENDBRANCH  26  27
ENDBRANCH  25  26
ENDBRANCH   1  25
TORSDOF 19
ENDMDL
