MODEL 1
REMARK VINA RESULT:     -11.7      0.000      0.000
REMARK SMILES C[C@H](c1ccc(Br)s1)[NH+]1CCC(CC(=O)NCCCCNC(=O)c2ccc(-c3c4nc(c(-c5cccc(S(=O)(=O)[O-])c5F)c5ccc([nH]5)c(-c5cccc(S(=O)(=O)[O-])c5F)c5nc(c(-c6cccc(S(=O)(=O)[O-])c6F)c6ccc3[nH]6)C=C5)C=C4)cc2)CC1
REMARK SMILES IDX 18 1 17 2 16 3 14 4 15 5 13 7 12 8 9 9 10 10 88 11 11 13
REMARK SMILES IDX 87 14 2 15 1 16 3 17 4 18 8 19 5 20 6 21 7 22 19 23 20 24
REMARK SMILES IDX 21 25 22 26 23 28 24 29 25 30 86 31 26 32 85 33 27 34 28 35
REMARK SMILES IDX 29 36 79 37 30 38 84 39 78 40 80 41 31 42 83 43 77 44 76 45
REMARK SMILES IDX 32 47 64 48 44 49 63 50 45 51 48 52 62 53 81 54 46 55 47 56
REMARK SMILES IDX 61 58 82 59 49 60 33 61 34 62 42 63 35 64 37 65 43 66 36 67
REMARK SMILES IDX 38 68 39 69 40 70 41 71 65 72 66 73 74 74 67 75 69 76 75 77
REMARK SMILES IDX 68 78 70 79 71 80 72 81 73 82 50 83 51 84 59 85 52 86 54 87
REMARK SMILES IDX 60 88 53 89 55 90 56 91 57 92 58 93
REMARK H PARENT 16 6 9 12 21 27 80 46 48 57
REMARK Flexibility Score: inf
ROOT
ATOM      1  C   UNL A   1      33.367  28.589  25.014  1.00  0.00     0.023 C 
ENDROOT
BRANCH   1   2
ATOM      2  C   UNL A   1      33.282  28.970  23.523  1.00  0.00     0.116 C 
BRANCH   2   3
ATOM      3  N   UNL A   1      31.929  28.865  22.983  1.00  0.00    -0.356 N 
ATOM      4  C   UNL A   1      31.259  27.850  22.354  1.00  0.00     0.220 C 
ATOM      5  O   UNL A   1      30.082  28.052  22.040  1.00  0.00    -0.275 OA
ATOM      6  H   UNL A   1      31.395  29.684  23.092  1.00  0.00     0.163 HD
BRANCH   4   7
ATOM      7  C   UNL A   1      31.914  26.507  22.009  1.00  0.00     0.104 C 
BRANCH   7   8
ATOM      8  C   UNL A   1      31.380  25.342  22.875  1.00  0.00     0.009 C 
ATOM      9  N   UNL A   1      32.092  23.387  24.987  1.00  0.00    -0.328 N 
ATOM     10  C   UNL A   1      32.120  22.993  23.585  1.00  0.00     0.263 C 
ATOM     11  C   UNL A   1      31.008  24.354  25.209  1.00  0.00     0.263 C 
ATOM     12  H   UNL A   1      32.960  23.869  25.217  1.00  0.00     0.348 HD
ATOM     13  C   UNL A   1      32.326  24.181  22.698  1.00  0.00     0.066 C 
ATOM     14  C   UNL A   1      31.235  25.642  24.372  1.00  0.00     0.066 C 
BRANCH   9  15
ATOM     15  C   UNL A   1      32.098  22.222  25.908  1.00  0.00     0.222 C 
ATOM     16  C   UNL A   1      32.458  22.765  27.301  1.00  0.00     0.082 C 
BRANCH  15  17
ATOM     17  C   UNL A   1      33.046  21.091  25.512  1.00  0.00     0.063 A 
ATOM     18  C   UNL A   1      34.434  21.095  25.442  1.00  0.00     0.023 A 
ATOM     19  S   UNL A   1      32.420  19.577  24.986  1.00  0.00    -0.127 S 
ATOM     20  C   UNL A   1      34.965  19.910  24.856  1.00  0.00     0.028 A 
ATOM     21  C   UNL A   1      33.966  19.016  24.575  1.00  0.00     0.070 A 
ATOM     22  Br  UNL A   1      34.278  17.340  23.798  1.00  0.00    -0.039 Br
ENDBRANCH  15  17
ENDBRANCH   9  15
ENDBRANCH   7   8
ENDBRANCH   4   7
ENDBRANCH   2   3
ENDBRANCH   1   2
BRANCH   1  23
ATOM     23  C   UNL A   1      32.113  28.765  25.850  1.00  0.00     0.023 C 
BRANCH  23  24
ATOM     24  C   UNL A   1      32.317  29.463  27.178  1.00  0.00     0.116 C 
BRANCH  24  25
ATOM     25  N   UNL A   1      32.157  30.912  27.119  1.00  0.00    -0.352 N 
ATOM     26  C   UNL A   1      33.094  31.898  27.363  1.00  0.00     0.251 C 
ATOM     27  H   UNL A   1      31.260  31.231  26.870  1.00  0.00     0.163 HD
ATOM     28  O   UNL A   1      32.780  33.078  27.338  1.00  0.00    -0.269 OA
BRANCH  26  29
ATOM     29  C   UNL A   1      34.475  31.492  27.710  1.00  0.00     0.039 A 
ATOM     30  C   UNL A   1      35.454  32.476  27.863  1.00  0.00     0.014 A 
ATOM     31  C   UNL A   1      34.756  30.159  28.009  1.00  0.00     0.014 A 
ATOM     32  C   UNL A   1      36.681  32.136  28.437  1.00  0.00     0.010 A 
ATOM     33  C   UNL A   1      35.929  29.848  28.681  1.00  0.00     0.010 A 
ATOM     34  C   UNL A   1      36.900  30.833  28.913  1.00  0.00    -0.014 A 
BRANCH  34  35
ATOM     35  C   UNL A   1      38.111  30.474  29.694  1.00  0.00     0.031 A 
ATOM     36  C   UNL A   1      39.098  29.489  29.132  1.00  0.00     0.074 A 
ATOM     37  C   UNL A   1      38.249  30.926  30.957  1.00  0.00     0.049 A 
ATOM     38  N   UNL A   1      40.148  28.958  29.702  1.00  0.00    -0.248 NA
ATOM     39  C   UNL A   1      38.851  29.005  27.763  1.00  0.00     0.031 C 
ATOM     40  C   UNL A   1      37.307  31.808  31.651  1.00  0.00     0.029 A 
ATOM     41  N   UNL A   1      39.219  30.677  31.896  1.00  0.00    -0.354 N 
ATOM     42  C   UNL A   1      40.657  28.049  28.783  1.00  0.00     0.074 A 
ATOM     43  C   UNL A   1      39.778  28.068  27.635  1.00  0.00     0.031 C 
ATOM     44  C   UNL A   1      37.750  32.035  32.898  1.00  0.00     0.029 A 
ATOM     45  C   UNL A   1      38.987  31.288  33.107  1.00  0.00     0.049 A 
ATOM     46  H   UNL A   1      40.007  30.113  31.721  1.00  0.00     0.167 HD
ATOM     47  C   UNL A   1      41.777  27.296  28.868  1.00  0.00     0.034 A 
ATOM     48  C   UNL A   1      39.685  31.245  34.259  1.00  0.00     0.034 A 
ATOM     49  C   UNL A   1      42.684  27.331  29.982  1.00  0.00     0.049 A 
ATOM     50  C   UNL A   1      40.948  30.430  34.315  1.00  0.00     0.074 A 
ATOM     51  C   UNL A   1      43.911  26.707  30.113  1.00  0.00     0.029 A 
ATOM     52  N   UNL A   1      42.457  28.024  31.161  1.00  0.00    -0.354 N 
ATOM     53  N   UNL A   1      41.512  29.719  33.369  1.00  0.00    -0.248 NA
ATOM     54  C   UNL A   1      41.682  30.428  35.589  1.00  0.00     0.031 C 
ATOM     55  C   UNL A   1      44.420  27.010  31.380  1.00  0.00     0.029 A 
ATOM     56  C   UNL A   1      43.512  27.828  32.035  1.00  0.00     0.049 A 
ATOM     57  H   UNL A   1      41.663  28.574  31.349  1.00  0.00     0.167 HD
ATOM     58  C   UNL A   1      42.676  29.200  33.924  1.00  0.00     0.074 A 
ATOM     59  C   UNL A   1      42.751  29.702  35.281  1.00  0.00     0.031 C 
ATOM     60  C   UNL A   1      43.590  28.367  33.368  1.00  0.00     0.034 A 
BRANCH  47  61
ATOM     61  C   UNL A   1      42.120  26.428  27.687  1.00  0.00     0.023 A 
ATOM     62  C   UNL A   1      42.859  26.976  26.619  1.00  0.00     0.012 A 
ATOM     63  C   UNL A   1      41.740  25.074  27.641  1.00  0.00     0.148 A 
ATOM     64  C   UNL A   1      43.182  26.202  25.505  1.00  0.00     0.002 A 
ATOM     65  C   UNL A   1      42.103  24.296  26.547  1.00  0.00     0.091 A 
ATOM     66  F   UNL A   1      41.012  24.576  28.652  1.00  0.00    -0.205 F 
ATOM     67  C   UNL A   1      42.813  24.861  25.475  1.00  0.00     0.022 A 
BRANCH  65  68
ATOM     68  S   UNL A   1      41.733  22.541  26.448  1.00  0.00     0.127 S 
ATOM     69  O   UNL A   1      40.276  22.553  26.332  1.00  0.00    -0.237 OA
ATOM     70  O   UNL A   1      42.438  22.142  25.228  1.00  0.00    -0.237 OA
ATOM     71  O   UNL A   1      42.263  21.954  27.670  1.00  0.00    -0.744 OA
ENDBRANCH  65  68
ENDBRANCH  47  61
BRANCH  48  72
ATOM     72  C   UNL A   1      39.242  32.058  35.427  1.00  0.00     0.023 A 
ATOM     73  C   UNL A   1      38.377  31.479  36.376  1.00  0.00     0.012 A 
ATOM     74  C   UNL A   1      39.706  33.372  35.634  1.00  0.00     0.148 A 
ATOM     75  C   UNL A   1      37.964  32.199  37.497  1.00  0.00     0.002 A 
ATOM     76  C   UNL A   1      39.332  34.066  36.780  1.00  0.00     0.091 A 
ATOM     77  F   UNL A   1      40.517  33.911  34.713  1.00  0.00    -0.205 F 
ATOM     78  C   UNL A   1      38.450  33.486  37.705  1.00  0.00     0.022 A 
BRANCH  76  79
ATOM     79  S   UNL A   1      40.014  35.675  37.198  1.00  0.00     0.127 S 
ATOM     80  O   UNL A   1      41.443  35.381  37.278  1.00  0.00    -0.237 OA
ATOM     81  O   UNL A   1      39.613  36.481  36.045  1.00  0.00    -0.237 OA
ATOM     82  O   UNL A   1      39.375  36.057  38.450  1.00  0.00    -0.744 OA
ENDBRANCH  76  79
ENDBRANCH  48  72
BRANCH  60  83
ATOM     83  C   UNL A   1      44.751  27.936  34.223  1.00  0.00     0.023 A 
ATOM     84  C   UNL A   1      45.898  28.752  34.290  1.00  0.00     0.012 A 
ATOM     85  C   UNL A   1      44.673  26.782  35.026  1.00  0.00     0.148 A 
ATOM     86  C   UNL A   1      46.960  28.412  35.127  1.00  0.00     0.002 A 
ATOM     87  C   UNL A   1      45.716  26.474  35.891  1.00  0.00     0.091 A 
ATOM     88  F   UNL A   1      43.578  26.013  34.935  1.00  0.00    -0.205 F 
ATOM     89  C   UNL A   1      46.864  27.283  35.935  1.00  0.00     0.022 A 
BRANCH  87  90
ATOM     90  S   UNL A   1      45.646  25.090  37.035  1.00  0.00     0.127 S 
ATOM     91  O   UNL A   1      44.442  25.401  37.804  1.00  0.00    -0.237 OA
ATOM     92  O   UNL A   1      45.515  23.947  36.132  1.00  0.00    -0.237 OA
ATOM     93  O   UNL A   1      46.892  25.127  37.786  1.00  0.00    -0.744 OA
ENDBRANCH  87  90
ENDBRANCH  60  83
ENDBRANCH  34  35
ENDBRANCH  26  29
ENDBRANCH  24  25
ENDBRANCH  23  24
ENDBRANCH   1  23
TORSDOF 17
ENDMDL
MODEL 2
REMARK VINA RESULT:     -11.7      2.335      8.035
REMARK SMILES C[C@H](c1ccc(Br)s1)[NH+]1CCC(CC(=O)NCCCCNC(=O)c2ccc(-c3c4nc(c(-c5cccc(S(=O)(=O)[O-])c5F)c5ccc([nH]5)c(-c5cccc(S(=O)(=O)[O-])c5F)c5nc(c(-c6cccc(S(=O)(=O)[O-])c6F)c6ccc3[nH]6)C=C5)C=C4)cc2)CC1
REMARK SMILES IDX 18 1 17 2 16 3 14 4 15 5 13 7 12 8 9 9 10 10 88 11 11 13
REMARK SMILES IDX 87 14 2 15 1 16 3 17 4 18 8 19 5 20 6 21 7 22 19 23 20 24
REMARK SMILES IDX 21 25 22 26 23 28 24 29 25 30 86 31 26 32 85 33 27 34 28 35
REMARK SMILES IDX 29 36 79 37 30 38 84 39 78 40 80 41 31 42 83 43 77 44 76 45
REMARK SMILES IDX 32 47 64 48 44 49 63 50 45 51 48 52 62 53 81 54 46 55 47 56
REMARK SMILES IDX 61 58 82 59 49 60 33 61 34 62 42 63 35 64 37 65 43 66 36 67
REMARK SMILES IDX 38 68 39 69 40 70 41 71 65 72 66 73 74 74 67 75 69 76 75 77
REMARK SMILES IDX 68 78 70 79 71 80 72 81 73 82 50 83 51 84 59 85 52 86 54 87
REMARK SMILES IDX 60 88 53 89 55 90 56 91 57 92 58 93
REMARK H PARENT 16 6 9 12 21 27 80 46 48 57
REMARK Flexibility Score: inf
ROOT
ATOM      1  C   UNL A   1      32.405  30.088  27.232  1.00  0.00     0.023 C 
ENDROOT
BRANCH   1   2
ATOM      2  C   UNL A   1      33.773  29.458  26.903  1.00  0.00     0.116 C 
BRANCH   2   3
ATOM      3  N   UNL A   1      34.008  29.317  25.468  1.00  0.00    -0.356 N 
ATOM      4  C   UNL A   1      33.325  28.662  24.479  1.00  0.00     0.220 C 
ATOM      5  O   UNL A   1      33.758  28.759  23.326  1.00  0.00    -0.275 OA
ATOM      6  H   UNL A   1      34.814  29.784  25.151  1.00  0.00     0.163 HD
BRANCH   4   7
ATOM      7  C   UNL A   1      32.081  27.806  24.750  1.00  0.00     0.104 C 
BRANCH   7   8
ATOM      8  C   UNL A   1      32.381  26.583  25.648  1.00  0.00     0.009 C 
ATOM      9  N   UNL A   1      32.373  23.621  25.766  1.00  0.00    -0.328 N 
ATOM     10  C   UNL A   1      31.256  24.379  26.313  1.00  0.00     0.263 C 
ATOM     11  C   UNL A   1      33.623  24.366  25.966  1.00  0.00     0.263 C 
ATOM     12  H   UNL A   1      32.252  23.527  24.758  1.00  0.00     0.348 HD
ATOM     13  C   UNL A   1      31.145  25.720  25.658  1.00  0.00     0.066 C 
ATOM     14  C   UNL A   1      33.582  25.728  25.222  1.00  0.00     0.066 C 
BRANCH   9  15
ATOM     15  C   UNL A   1      32.393  22.213  26.237  1.00  0.00     0.222 C 
ATOM     16  C   UNL A   1      33.537  22.108  27.260  1.00  0.00     0.082 C 
BRANCH  15  17
ATOM     17  C   UNL A   1      32.561  21.166  25.136  1.00  0.00     0.063 A 
ATOM     18  C   UNL A   1      32.205  21.241  23.794  1.00  0.00     0.023 A 
ATOM     19  S   UNL A   1      33.195  19.610  25.506  1.00  0.00    -0.127 S 
ATOM     20  C   UNL A   1      32.347  19.998  23.111  1.00  0.00     0.028 A 
ATOM     21  C   UNL A   1      32.880  19.046  23.938  1.00  0.00     0.070 A 
ATOM     22  Br  UNL A   1      33.216  17.285  23.394  1.00  0.00    -0.039 Br
ENDBRANCH  15  17
ENDBRANCH   9  15
ENDBRANCH   7   8
ENDBRANCH   4   7
ENDBRANCH   2   3
ENDBRANCH   1   2
BRANCH   1  23
ATOM     23  C   UNL A   1      32.219  31.558  26.904  1.00  0.00     0.023 C 
BRANCH  23  24
ATOM     24  C   UNL A   1      33.238  32.489  27.527  1.00  0.00     0.116 C 
BRANCH  24  25
ATOM     25  N   UNL A   1      32.743  33.843  27.754  1.00  0.00    -0.352 N 
ATOM     26  C   UNL A   1      33.157  34.771  28.691  1.00  0.00     0.251 C 
ATOM     27  H   UNL A   1      32.016  34.137  27.158  1.00  0.00     0.163 HD
ATOM     28  O   UNL A   1      32.589  35.846  28.798  1.00  0.00    -0.269 OA
BRANCH  26  29
ATOM     29  C   UNL A   1      34.269  34.411  29.600  1.00  0.00     0.039 A 
ATOM     30  C   UNL A   1      33.978  33.791  30.816  1.00  0.00     0.014 A 
ATOM     31  C   UNL A   1      35.591  34.572  29.184  1.00  0.00     0.014 A 
ATOM     32  C   UNL A   1      35.015  33.218  31.557  1.00  0.00     0.010 A 
ATOM     33  C   UNL A   1      36.601  33.907  29.862  1.00  0.00     0.010 A 
ATOM     34  C   UNL A   1      36.325  33.213  31.049  1.00  0.00    -0.014 A 
BRANCH  34  35
ATOM     35  C   UNL A   1      37.421  32.459  31.708  1.00  0.00     0.031 A 
ATOM     36  C   UNL A   1      37.945  32.913  33.042  1.00  0.00     0.074 A 
ATOM     37  C   UNL A   1      38.032  31.454  31.045  1.00  0.00     0.049 A 
ATOM     38  N   UNL A   1      38.969  32.465  33.721  1.00  0.00    -0.248 NA
ATOM     39  C   UNL A   1      37.254  34.047  33.678  1.00  0.00     0.031 C 
ATOM     40  C   UNL A   1      37.680  30.985  29.703  1.00  0.00     0.029 A 
ATOM     41  N   UNL A   1      39.102  30.670  31.399  1.00  0.00    -0.354 N 
ATOM     42  C   UNL A   1      39.070  33.287  34.836  1.00  0.00     0.074 A 
ATOM     43  C   UNL A   1      38.032  34.288  34.722  1.00  0.00     0.031 C 
ATOM     44  C   UNL A   1      38.509  29.989  29.351  1.00  0.00     0.029 A 
ATOM     45  C   UNL A   1      39.475  29.772  30.425  1.00  0.00     0.049 A 
ATOM     46  H   UNL A   1      39.561  30.744  32.266  1.00  0.00     0.167 HD
ATOM     47  C   UNL A   1      39.924  33.195  35.881  1.00  0.00     0.034 A 
ATOM     48  C   UNL A   1      40.485  28.880  30.394  1.00  0.00     0.034 A 
ATOM     49  C   UNL A   1      40.909  32.160  36.023  1.00  0.00     0.049 A 
ATOM     50  C   UNL A   1      41.397  28.773  31.586  1.00  0.00     0.074 A 
ATOM     51  C   UNL A   1      41.735  31.899  37.101  1.00  0.00     0.029 A 
ATOM     52  N   UNL A   1      41.206  31.216  35.051  1.00  0.00    -0.354 N 
ATOM     53  N   UNL A   1      41.361  29.440  32.714  1.00  0.00    -0.248 NA
ATOM     54  C   UNL A   1      42.473  27.774  31.511  1.00  0.00     0.031 C 
ATOM     55  C   UNL A   1      42.545  30.806  36.774  1.00  0.00     0.029 A 
ATOM     56  C   UNL A   1      42.217  30.382  35.495  1.00  0.00     0.049 A 
ATOM     57  H   UNL A   1      40.763  31.149  34.175  1.00  0.00     0.167 HD
ATOM     58  C   UNL A   1      42.395  28.932  33.491  1.00  0.00     0.074 A 
ATOM     59  C   UNL A   1      43.022  27.880  32.716  1.00  0.00     0.031 C 
ATOM     60  C   UNL A   1      42.803  29.314  34.727  1.00  0.00     0.034 A 
BRANCH  47  61
ATOM     61  C   UNL A   1      39.772  34.202  36.989  1.00  0.00     0.023 A 
ATOM     62  C   UNL A   1      40.159  35.540  36.765  1.00  0.00     0.012 A 
ATOM     63  C   UNL A   1      39.226  33.842  38.235  1.00  0.00     0.148 A 
ATOM     64  C   UNL A   1      40.043  36.494  37.774  1.00  0.00     0.002 A 
ATOM     65  C   UNL A   1      39.073  34.808  39.223  1.00  0.00     0.091 A 
ATOM     66  F   UNL A   1      38.890  32.560  38.442  1.00  0.00    -0.205 F 
ATOM     67  C   UNL A   1      39.490  36.130  38.999  1.00  0.00     0.022 A 
BRANCH  65  68
ATOM     68  S   UNL A   1      38.308  34.451  40.809  1.00  0.00     0.127 S 
ATOM     69  O   UNL A   1      37.141  33.670  40.404  1.00  0.00    -0.237 OA
ATOM     70  O   UNL A   1      39.349  33.681  41.491  1.00  0.00    -0.237 OA
ATOM     71  O   UNL A   1      38.022  35.745  41.412  1.00  0.00    -0.744 OA
ENDBRANCH  65  68
ENDBRANCH  47  61
BRANCH  48  72
ATOM     72  C   UNL A   1      40.638  27.971  29.224  1.00  0.00     0.023 A 
ATOM     73  C   UNL A   1      39.825  26.824  29.137  1.00  0.00     0.012 A 
ATOM     74  C   UNL A   1      41.538  28.254  28.178  1.00  0.00     0.148 A 
ATOM     75  C   UNL A   1      39.919  25.965  28.042  1.00  0.00     0.002 A 
ATOM     76  C   UNL A   1      41.590  27.423  27.064  1.00  0.00     0.091 A 
ATOM     77  F   UNL A   1      42.314  29.343  28.285  1.00  0.00    -0.205 F 
ATOM     78  C   UNL A   1      40.792  26.270  27.001  1.00  0.00     0.022 A 
BRANCH  76  79
ATOM     79  S   UNL A   1      42.585  27.808  25.619  1.00  0.00     0.127 S 
ATOM     80  O   UNL A   1      41.952  29.034  25.140  1.00  0.00    -0.237 OA
ATOM     81  O   UNL A   1      43.913  27.987  26.205  1.00  0.00    -0.237 OA
ATOM     82  O   UNL A   1      42.467  26.650  24.743  1.00  0.00    -0.744 OA
ENDBRANCH  76  79
ENDBRANCH  48  72
BRANCH  60  83
ATOM     83  C   UNL A   1      43.986  28.600  35.321  1.00  0.00     0.023 A 
ATOM     84  C   UNL A   1      45.287  29.010  34.968  1.00  0.00     0.012 A 
ATOM     85  C   UNL A   1      43.815  27.593  36.291  1.00  0.00     0.148 A 
ATOM     86  C   UNL A   1      46.401  28.411  35.555  1.00  0.00     0.002 A 
ATOM     87  C   UNL A   1      44.929  27.033  36.904  1.00  0.00     0.091 A 
ATOM     88  F   UNL A   1      42.568  27.209  36.600  1.00  0.00    -0.205 F 
ATOM     89  C   UNL A   1      46.222  27.434  36.530  1.00  0.00     0.022 A 
BRANCH  87  90
ATOM     90  S   UNL A   1      44.797  25.832  38.234  1.00  0.00     0.127 S 
ATOM     91  O   UNL A   1      44.126  24.719  37.564  1.00  0.00    -0.237 OA
ATOM     92  O   UNL A   1      46.200  25.586  38.570  1.00  0.00    -0.237 OA
ATOM     93  O   UNL A   1      44.029  26.480  39.287  1.00  0.00    -0.744 OA
ENDBRANCH  87  90
ENDBRANCH  60  83
ENDBRANCH  34  35
ENDBRANCH  26  29
ENDBRANCH  24  25
ENDBRANCH  23  24
ENDBRANCH   1  23
TORSDOF 17
ENDMDL
MODEL 3
REMARK VINA RESULT:     -11.6      2.450      3.203
REMARK SMILES C[C@H](c1ccc(Br)s1)[NH+]1CCC(CC(=O)NCCCCNC(=O)c2ccc(-c3c4nc(c(-c5cccc(S(=O)(=O)[O-])c5F)c5ccc([nH]5)c(-c5cccc(S(=O)(=O)[O-])c5F)c5nc(c(-c6cccc(S(=O)(=O)[O-])c6F)c6ccc3[nH]6)C=C5)C=C4)cc2)CC1
REMARK SMILES IDX 18 1 17 2 16 3 14 4 15 5 13 7 12 8 9 9 10 10 88 11 11 13
REMARK SMILES IDX 87 14 2 15 1 16 3 17 4 18 8 19 5 20 6 21 7 22 19 23 20 24
REMARK SMILES IDX 21 25 22 26 23 28 24 29 25 30 86 31 26 32 85 33 27 34 28 35
REMARK SMILES IDX 29 36 79 37 30 38 84 39 78 40 80 41 31 42 83 43 77 44 76 45
REMARK SMILES IDX 32 47 64 48 44 49 63 50 45 51 48 52 62 53 81 54 46 55 47 56
REMARK SMILES IDX 61 58 82 59 49 60 33 61 34 62 42 63 35 64 37 65 43 66 36 67
REMARK SMILES IDX 38 68 39 69 40 70 41 71 65 72 66 73 74 74 67 75 69 76 75 77
REMARK SMILES IDX 68 78 70 79 71 80 72 81 73 82 50 83 51 84 59 85 52 86 54 87
REMARK SMILES IDX 60 88 53 89 55 90 56 91 57 92 58 93
REMARK H PARENT 16 6 9 12 21 27 80 46 48 57
REMARK Flexibility Score: inf
ROOT
ATOM      1  C   UNL A   1      33.033  29.775  26.777  1.00  0.00     0.023 C 
ENDROOT
BRANCH   1   2
ATOM      2  C   UNL A   1      33.084  29.163  25.363  1.00  0.00     0.116 C 
BRANCH   2   3
ATOM      3  N   UNL A   1      31.994  29.617  24.504  1.00  0.00    -0.356 N 
ATOM      4  C   UNL A   1      30.824  29.028  24.104  1.00  0.00     0.220 C 
ATOM      5  O   UNL A   1      30.066  29.692  23.390  1.00  0.00    -0.275 OA
ATOM      6  H   UNL A   1      32.125  30.522  24.142  1.00  0.00     0.163 HD
BRANCH   4   7
ATOM      7  C   UNL A   1      30.441  27.592  24.483  1.00  0.00     0.104 C 
BRANCH   7   8
ATOM      8  C   UNL A   1      31.540  26.565  24.123  1.00  0.00     0.009 C 
ATOM      9  N   UNL A   1      32.160  23.674  23.916  1.00  0.00    -0.328 N 
ATOM     10  C   UNL A   1      32.549  24.423  25.103  1.00  0.00     0.263 C 
ATOM     11  C   UNL A   1      32.256  24.538  22.731  1.00  0.00     0.263 C 
ATOM     12  H   UNL A   1      31.181  23.402  23.996  1.00  0.00     0.348 HD
ATOM     13  C   UNL A   1      31.672  25.621  25.292  1.00  0.00     0.066 C 
ATOM     14  C   UNL A   1      31.290  25.748  22.849  1.00  0.00     0.066 C 
BRANCH   9  15
ATOM     15  C   UNL A   1      32.865  22.371  23.806  1.00  0.00     0.222 C 
ATOM     16  C   UNL A   1      32.251  21.449  24.873  1.00  0.00     0.082 C 
BRANCH  15  17
ATOM     17  C   UNL A   1      34.383  22.442  23.968  1.00  0.00     0.063 A 
ATOM     18  C   UNL A   1      35.324  23.055  23.148  1.00  0.00     0.023 A 
ATOM     19  S   UNL A   1      35.158  21.621  25.266  1.00  0.00    -0.127 S 
ATOM     20  C   UNL A   1      36.666  22.754  23.521  1.00  0.00     0.028 A 
ATOM     21  C   UNL A   1      36.696  21.990  24.657  1.00  0.00     0.070 A 
ATOM     22  Br  UNL A   1      38.285  21.398  25.454  1.00  0.00    -0.039 Br
ENDBRANCH  15  17
ENDBRANCH   9  15
ENDBRANCH   7   8
ENDBRANCH   4   7
ENDBRANCH   2   3
ENDBRANCH   1   2
BRANCH   1  23
ATOM     23  C   UNL A   1      32.465  31.176  26.908  1.00  0.00     0.023 C 
BRANCH  23  24
ATOM     24  C   UNL A   1      33.391  32.188  27.550  1.00  0.00     0.116 C 
BRANCH  24  25
ATOM     25  N   UNL A   1      32.803  33.514  27.708  1.00  0.00    -0.352 N 
ATOM     26  C   UNL A   1      33.170  34.527  28.573  1.00  0.00     0.251 C 
ATOM     27  H   UNL A   1      32.042  33.716  27.116  1.00  0.00     0.163 HD
ATOM     28  O   UNL A   1      32.526  35.563  28.630  1.00  0.00    -0.269 OA
BRANCH  26  29
ATOM     29  C   UNL A   1      34.327  34.307  29.470  1.00  0.00     0.039 A 
ATOM     30  C   UNL A   1      34.120  33.698  30.708  1.00  0.00     0.014 A 
ATOM     31  C   UNL A   1      35.620  34.587  29.024  1.00  0.00     0.014 A 
ATOM     32  C   UNL A   1      35.221  33.253  31.445  1.00  0.00     0.010 A 
ATOM     33  C   UNL A   1      36.702  34.046  29.701  1.00  0.00     0.010 A 
ATOM     34  C   UNL A   1      36.516  33.363  30.912  1.00  0.00    -0.014 A 
BRANCH  34  35
ATOM     35  C   UNL A   1      37.693  32.742  31.570  1.00  0.00     0.031 A 
ATOM     36  C   UNL A   1      38.396  31.587  30.913  1.00  0.00     0.074 A 
ATOM     37  C   UNL A   1      38.042  33.128  32.816  1.00  0.00     0.049 A 
ATOM     38  N   UNL A   1      39.360  30.837  31.378  1.00  0.00    -0.248 NA
ATOM     39  C   UNL A   1      37.924  31.196  29.574  1.00  0.00     0.031 C 
ATOM     40  C   UNL A   1      37.375  34.171  33.600  1.00  0.00     0.029 A 
ATOM     41  N   UNL A   1      39.023  32.661  33.655  1.00  0.00    -0.354 N 
ATOM     42  C   UNL A   1      39.579  29.863  30.412  1.00  0.00     0.074 A 
ATOM     43  C   UNL A   1      38.619  30.090  29.355  1.00  0.00     0.031 C 
ATOM     44  C   UNL A   1      37.971  34.272  34.798  1.00  0.00     0.029 A 
ATOM     45  C   UNL A   1      39.039  33.280  34.885  1.00  0.00     0.049 A 
ATOM     46  H   UNL A   1      39.655  31.951  33.403  1.00  0.00     0.167 HD
ATOM     47  C   UNL A   1      40.520  28.891  30.386  1.00  0.00     0.034 A 
ATOM     48  C   UNL A   1      39.818  33.067  35.964  1.00  0.00     0.034 A 
ATOM     49  C   UNL A   1      41.514  28.712  31.406  1.00  0.00     0.049 A 
ATOM     50  C   UNL A   1      40.882  32.006  35.895  1.00  0.00     0.074 A 
ATOM     51  C   UNL A   1      42.591  27.844  31.417  1.00  0.00     0.029 A 
ATOM     52  N   UNL A   1      41.550  29.410  32.604  1.00  0.00    -0.354 N 
ATOM     53  N   UNL A   1      41.193  31.215  34.897  1.00  0.00    -0.248 NA
ATOM     54  C   UNL A   1      41.717  31.823  37.092  1.00  0.00     0.031 C 
ATOM     55  C   UNL A   1      43.269  28.005  32.629  1.00  0.00     0.029 A 
ATOM     56  C   UNL A   1      42.619  28.980  33.371  1.00  0.00     0.049 A 
ATOM     57  H   UNL A   1      40.910  30.109  32.869  1.00  0.00     0.167 HD
ATOM     58  C   UNL A   1      42.270  30.453  35.335  1.00  0.00     0.074 A 
ATOM     59  C   UNL A   1      42.576  30.898  36.680  1.00  0.00     0.031 C 
ATOM     60  C   UNL A   1      42.933  29.461  34.691  1.00  0.00     0.034 A 
BRANCH  47  61
ATOM     61  C   UNL A   1      40.560  27.998  29.175  1.00  0.00     0.023 A 
ATOM     62  C   UNL A   1      39.679  26.900  29.098  1.00  0.00     0.012 A 
ATOM     63  C   UNL A   1      41.439  28.254  28.107  1.00  0.00     0.148 A 
ATOM     64  C   UNL A   1      39.700  26.047  27.996  1.00  0.00     0.002 A 
ATOM     65  C   UNL A   1      41.424  27.424  26.991  1.00  0.00     0.091 A 
ATOM     66  F   UNL A   1      42.290  29.286  28.209  1.00  0.00    -0.205 F 
ATOM     67  C   UNL A   1      40.564  26.316  26.939  1.00  0.00     0.022 A 
BRANCH  65  68
ATOM     68  S   UNL A   1      42.453  27.730  25.550  1.00  0.00     0.127 S 
ATOM     69  O   UNL A   1      41.896  28.986  25.052  1.00  0.00    -0.237 OA
ATOM     70  O   UNL A   1      43.788  27.847  26.140  1.00  0.00    -0.237 OA
ATOM     71  O   UNL A   1      42.275  26.574  24.684  1.00  0.00    -0.744 OA
ENDBRANCH  65  68
ENDBRANCH  47  61
BRANCH  48  72
ATOM     72  C   UNL A   1      39.667  33.928  37.171  1.00  0.00     0.023 A 
ATOM     73  C   UNL A   1      40.152  35.249  37.135  1.00  0.00     0.012 A 
ATOM     74  C   UNL A   1      39.006  33.471  38.328  1.00  0.00     0.148 A 
ATOM     75  C   UNL A   1      40.003  36.094  38.235  1.00  0.00     0.002 A 
ATOM     76  C   UNL A   1      38.814  34.334  39.402  1.00  0.00     0.091 A 
ATOM     77  F   UNL A   1      38.563  32.206  38.349  1.00  0.00    -0.205 F 
ATOM     78  C   UNL A   1      39.324  35.641  39.363  1.00  0.00     0.022 A 
BRANCH  76  79
ATOM     79  S   UNL A   1      37.836  33.881  40.839  1.00  0.00     0.127 S 
ATOM     80  O   UNL A   1      37.622  35.178  41.476  1.00  0.00    -0.237 OA
ATOM     81  O   UNL A   1      36.647  33.292  40.222  1.00  0.00    -0.237 OA
ATOM     82  O   UNL A   1      38.654  32.935  41.586  1.00  0.00    -0.744 OA
ENDBRANCH  76  79
ENDBRANCH  48  72
BRANCH  60  83
ATOM     83  C   UNL A   1      44.053  28.779  35.429  1.00  0.00     0.023 A 
ATOM     84  C   UNL A   1      45.367  29.271  35.294  1.00  0.00     0.012 A 
ATOM     85  C   UNL A   1      43.798  27.719  36.319  1.00  0.00     0.148 A 
ATOM     86  C   UNL A   1      46.413  28.702  36.018  1.00  0.00     0.002 A 
ATOM     87  C   UNL A   1      44.838  27.186  37.071  1.00  0.00     0.091 A 
ATOM     88  F   UNL A   1      42.543  27.258  36.420  1.00  0.00    -0.205 F 
ATOM     89  C   UNL A   1      46.147  27.670  36.915  1.00  0.00     0.022 A 
BRANCH  87  90
ATOM     90  S   UNL A   1      44.578  25.917  38.316  1.00  0.00     0.127 S 
ATOM     91  O   UNL A   1      43.766  26.628  39.302  1.00  0.00    -0.237 OA
ATOM     92  O   UNL A   1      43.863  24.886  37.564  1.00  0.00    -0.237 OA
ATOM     93  O   UNL A   1      45.905  25.523  38.770  1.00  0.00    -0.744 OA
ENDBRANCH  87  90
ENDBRANCH  60  83
ENDBRANCH  34  35
ENDBRANCH  26  29
ENDBRANCH  24  25
ENDBRANCH  23  24
ENDBRANCH   1  23
TORSDOF 17
ENDMDL
