MODEL 1
REMARK VINA RESULT:     -12.2      0.000      0.000
REMARK SMILES CCc1c(Cl)ccc2c1C=C(C(=O)NCCCCNC(=O)c1ccc(-c3c4nc(c(-c5cccc(S(=O)(=O)[O-])c5F)c5ccc([nH]5)c(-c5cccc(S(=O)(=O)[O-])c5F)c5nc(c(-c6cccc(S(=O)(=O)[O-])c6F)c6ccc3[nH]6)C=C5)C=C4)cc1)[C@@H](C(F)(F)F)O2
REMARK SMILES IDX 17 1 16 2 15 3 14 4 12 5 13 6 11 8 3 9 4 10 9 11 5 12 6 13
REMARK SMILES IDX 8 14 10 15 7 16 90 17 85 18 2 19 1 20 86 21 87 22 88 23
REMARK SMILES IDX 89 24 18 25 19 26 20 27 21 29 22 30 23 31 84 32 24 33 83 34
REMARK SMILES IDX 25 35 26 36 27 37 77 38 28 39 82 40 76 41 78 42 29 43 81 44
REMARK SMILES IDX 75 45 74 46 30 48 62 49 42 50 61 51 43 52 46 53 60 54 79 55
REMARK SMILES IDX 44 56 45 57 59 59 80 60 47 61 31 62 32 63 40 64 33 65 35 66
REMARK SMILES IDX 41 67 34 68 36 69 37 70 38 71 39 72 63 73 64 74 72 75 65 76
REMARK SMILES IDX 67 77 73 78 66 79 68 80 69 81 70 82 71 83 48 84 49 85 57 86
REMARK SMILES IDX 50 87 52 88 58 89 51 90 53 91 54 92 55 93 56 94
REMARK H PARENT 14 7 19 28 78 47 46 58
REMARK Flexibility Score: inf
ROOT
ATOM      1  C   UNL A   1      31.520  31.976  26.870  1.00  0.00     0.023 C 
ENDROOT
BRANCH   1   2
ATOM      2  C   UNL A   1      31.924  30.502  26.955  1.00  0.00     0.023 C 
BRANCH   2   3
ATOM      3  C   UNL A   1      33.380  30.224  26.590  1.00  0.00     0.116 C 
BRANCH   3   4
ATOM      4  N   UNL A   1      33.521  29.759  25.222  1.00  0.00    -0.352 N 
ATOM      5  C   UNL A   1      33.321  28.605  24.546  1.00  0.00     0.251 C 
ATOM      6  O   UNL A   1      33.584  28.651  23.339  1.00  0.00    -0.270 OA
ATOM      7  H   UNL A   1      33.849  30.473  24.630  1.00  0.00     0.163 HD
BRANCH   5   8
ATOM      8  C   UNL A   1      32.823  27.327  25.139  1.00  0.00     0.067 C 
ATOM      9  C   UNL A   1      34.223  23.911  25.775  1.00  0.00    -0.019 A 
ATOM     10  C   UNL A   1      33.779  22.721  26.396  1.00  0.00     0.045 A 
ATOM     11  C   UNL A   1      33.365  25.040  25.798  1.00  0.00     0.022 A 
ATOM     12  Cl  UNL A   1      34.759  21.296  26.477  1.00  0.00    -0.084 Cl
ATOM     13  C   UNL A   1      32.520  22.646  26.998  1.00  0.00     0.024 A 
ATOM     14  C   UNL A   1      32.102  24.937  26.401  1.00  0.00     0.128 A 
ATOM     15  C   UNL A   1      33.743  26.351  25.263  1.00  0.00     0.026 C 
ATOM     16  C   UNL A   1      31.682  23.755  27.001  1.00  0.00     0.048 A 
ATOM     17  O   UNL A   1      31.227  25.983  26.491  1.00  0.00    -0.475 OA
ATOM     18  C   UNL A   1      31.404  27.072  25.545  1.00  0.00     0.314 C 
BRANCH   9  19
ATOM     19  C   UNL A   1      35.594  23.977  25.129  1.00  0.00     0.034 C 
ATOM     20  C   UNL A   1      35.569  23.517  23.678  1.00  0.00     0.009 C 
ENDBRANCH   9  19
BRANCH  18  21
ATOM     21  C   UNL A   1      30.468  26.855  24.342  1.00  0.00     0.429 C 
ATOM     22  F   UNL A   1      31.056  26.046  23.425  1.00  0.00    -0.167 F 
ATOM     23  F   UNL A   1      29.304  26.260  24.688  1.00  0.00    -0.167 F 
ATOM     24  F   UNL A   1      30.152  28.011  23.716  1.00  0.00    -0.167 F 
ENDBRANCH  18  21
ENDBRANCH   5   8
ENDBRANCH   3   4
ENDBRANCH   2   3
ENDBRANCH   1   2
BRANCH   1  25
ATOM     25  C   UNL A   1      32.675  32.976  26.838  1.00  0.00     0.116 C 
BRANCH  25  26
ATOM     26  N   UNL A   1      32.539  34.080  27.779  1.00  0.00    -0.352 N 
ATOM     27  C   UNL A   1      33.382  34.406  28.819  1.00  0.00     0.251 C 
ATOM     28  H   UNL A   1      31.753  34.661  27.658  1.00  0.00     0.163 HD
ATOM     29  O   UNL A   1      33.116  35.335  29.573  1.00  0.00    -0.269 OA
BRANCH  27  30
ATOM     30  C   UNL A   1      34.579  33.570  29.035  1.00  0.00     0.039 A 
ATOM     31  C   UNL A   1      34.459  32.336  29.676  1.00  0.00     0.014 A 
ATOM     32  C   UNL A   1      35.835  34.088  28.713  1.00  0.00     0.014 A 
ATOM     33  C   UNL A   1      35.601  31.707  30.157  1.00  0.00     0.010 A 
ATOM     34  C   UNL A   1      36.983  33.413  29.134  1.00  0.00     0.010 A 
ATOM     35  C   UNL A   1      36.873  32.253  29.915  1.00  0.00    -0.014 A 
BRANCH  35  36
ATOM     36  C   UNL A   1      38.064  31.606  30.519  1.00  0.00     0.031 A 
ATOM     37  C   UNL A   1      38.463  31.897  31.943  1.00  0.00     0.074 A 
ATOM     38  C   UNL A   1      38.751  30.698  29.800  1.00  0.00     0.049 A 
ATOM     39  N   UNL A   1      39.438  31.376  32.643  1.00  0.00    -0.248 NA
ATOM     40  C   UNL A   1      37.673  32.900  32.678  1.00  0.00     0.031 C 
ATOM     41  C   UNL A   1      38.468  30.343  28.409  1.00  0.00     0.029 A 
ATOM     42  N   UNL A   1      39.807  29.893  30.143  1.00  0.00    -0.354 N 
ATOM     43  C   UNL A   1      39.407  32.014  33.877  1.00  0.00     0.074 A 
ATOM     44  C   UNL A   1      38.316  32.962  33.836  1.00  0.00     0.031 C 
ATOM     45  C   UNL A   1      39.291  29.353  28.033  1.00  0.00     0.029 A 
ATOM     46  C   UNL A   1      40.189  29.035  29.140  1.00  0.00     0.049 A 
ATOM     47  H   UNL A   1      40.248  29.927  31.022  1.00  0.00     0.167 HD
ATOM     48  C   UNL A   1      40.203  31.813  34.954  1.00  0.00     0.034 A 
ATOM     49  C   UNL A   1      41.150  28.091  29.111  1.00  0.00     0.034 A 
ATOM     50  C   UNL A   1      41.241  30.822  35.020  1.00  0.00     0.049 A 
ATOM     51  C   UNL A   1      41.993  27.864  30.330  1.00  0.00     0.074 A 
ATOM     52  C   UNL A   1      42.066  30.515  36.089  1.00  0.00     0.029 A 
ATOM     53  N   UNL A   1      41.590  29.970  33.986  1.00  0.00    -0.354 N 
ATOM     54  N   UNL A   1      41.901  28.431  31.508  1.00  0.00    -0.248 NA
ATOM     55  C   UNL A   1      43.067  26.865  30.223  1.00  0.00     0.031 C 
ATOM     56  C   UNL A   1      42.912  29.472  35.701  1.00  0.00     0.029 A 
ATOM     57  C   UNL A   1      42.616  29.135  34.390  1.00  0.00     0.049 A 
ATOM     58  H   UNL A   1      41.172  29.960  33.094  1.00  0.00     0.167 HD
ATOM     59  C   UNL A   1      42.898  27.857  32.285  1.00  0.00     0.074 A 
ATOM     60  C   UNL A   1      43.569  26.879  31.452  1.00  0.00     0.031 C 
ATOM     61  C   UNL A   1      43.243  28.137  33.564  1.00  0.00     0.034 A 
BRANCH  48  62
ATOM     62  C   UNL A   1      39.949  32.634  36.185  1.00  0.00     0.023 A 
ATOM     63  C   UNL A   1      40.610  33.869  36.334  1.00  0.00     0.012 A 
ATOM     64  C   UNL A   1      38.985  32.241  37.135  1.00  0.00     0.148 A 
ATOM     65  C   UNL A   1      40.320  34.702  37.413  1.00  0.00     0.002 A 
ATOM     66  C   UNL A   1      38.684  33.088  38.196  1.00  0.00     0.091 A 
ATOM     67  F   UNL A   1      38.383  31.055  36.979  1.00  0.00    -0.205 F 
ATOM     68  C   UNL A   1      39.351  34.317  38.337  1.00  0.00     0.022 A 
BRANCH  66  69
ATOM     69  S   UNL A   1      37.417  32.712  39.413  1.00  0.00     0.127 S 
ATOM     70  O   UNL A   1      37.558  33.834  40.340  1.00  0.00    -0.237 OA
ATOM     71  O   UNL A   1      36.198  32.735  38.607  1.00  0.00    -0.237 OA
ATOM     72  O   UNL A   1      37.761  31.407  39.962  1.00  0.00    -0.744 OA
ENDBRANCH  66  69
ENDBRANCH  48  62
BRANCH  49  73
ATOM     73  C   UNL A   1      41.303  27.254  27.892  1.00  0.00     0.023 A 
ATOM     74  C   UNL A   1      41.975  27.787  26.776  1.00  0.00     0.012 A 
ATOM     75  C   UNL A   1      40.884  25.911  27.872  1.00  0.00     0.148 A 
ATOM     76  C   UNL A   1      42.229  26.992  25.658  1.00  0.00     0.002 A 
ATOM     77  C   UNL A   1      41.182  25.112  26.775  1.00  0.00     0.091 A 
ATOM     78  F   UNL A   1      40.235  25.434  28.943  1.00  0.00    -0.205 F 
ATOM     79  C   UNL A   1      41.847  25.653  25.663  1.00  0.00     0.022 A 
BRANCH  77  80
ATOM     80  S   UNL A   1      40.846  23.348  26.749  1.00  0.00     0.127 S 
ATOM     81  O   UNL A   1      41.222  22.953  28.103  1.00  0.00    -0.237 OA
ATOM     82  O   UNL A   1      39.409  23.319  26.474  1.00  0.00    -0.237 OA
ATOM     83  O   UNL A   1      41.672  22.805  25.680  1.00  0.00    -0.744 OA
ENDBRANCH  77  80
ENDBRANCH  49  73
BRANCH  61  84
ATOM     84  C   UNL A   1      44.404  27.393  34.159  1.00  0.00     0.023 A 
ATOM     85  C   UNL A   1      45.704  27.904  33.979  1.00  0.00     0.012 A 
ATOM     86  C   UNL A   1      44.201  26.274  34.989  1.00  0.00     0.148 A 
ATOM     87  C   UNL A   1      46.790  27.309  34.618  1.00  0.00     0.002 A 
ATOM     88  C   UNL A   1      45.285  25.704  35.645  1.00  0.00     0.091 A 
ATOM     89  F   UNL A   1      42.954  25.806  35.136  1.00  0.00    -0.205 F 
ATOM     90  C   UNL A   1      46.581  26.219  35.458  1.00  0.00     0.022 A 
BRANCH  88  91
ATOM     91  S   UNL A   1      45.112  24.340  36.801  1.00  0.00     0.127 S 
ATOM     92  O   UNL A   1      44.585  23.284  35.937  1.00  0.00    -0.237 OA
ATOM     93  O   UNL A   1      46.490  24.135  37.245  1.00  0.00    -0.237 OA
ATOM     94  O   UNL A   1      44.201  24.803  37.839  1.00  0.00    -0.744 OA
ENDBRANCH  88  91
ENDBRANCH  61  84
ENDBRANCH  35  36
ENDBRANCH  27  30
ENDBRANCH  25  26
ENDBRANCH   1  25
TORSDOF 16
ENDMDL
MODEL 2
REMARK VINA RESULT:     -11.9      1.752      7.771
REMARK SMILES CCc1c(Cl)ccc2c1C=C(C(=O)NCCCCNC(=O)c1ccc(-c3c4nc(c(-c5cccc(S(=O)(=O)[O-])c5F)c5ccc([nH]5)c(-c5cccc(S(=O)(=O)[O-])c5F)c5nc(c(-c6cccc(S(=O)(=O)[O-])c6F)c6ccc3[nH]6)C=C5)C=C4)cc1)[C@@H](C(F)(F)F)O2
REMARK SMILES IDX 17 1 16 2 15 3 14 4 12 5 13 6 11 8 3 9 4 10 9 11 5 12 6 13
REMARK SMILES IDX 8 14 10 15 7 16 90 17 85 18 2 19 1 20 86 21 87 22 88 23
REMARK SMILES IDX 89 24 18 25 19 26 20 27 21 29 22 30 23 31 84 32 24 33 83 34
REMARK SMILES IDX 25 35 26 36 27 37 77 38 28 39 82 40 76 41 78 42 29 43 81 44
REMARK SMILES IDX 75 45 74 46 30 48 62 49 42 50 61 51 43 52 46 53 60 54 79 55
REMARK SMILES IDX 44 56 45 57 59 59 80 60 47 61 31 62 32 63 40 64 33 65 35 66
REMARK SMILES IDX 41 67 34 68 36 69 37 70 38 71 39 72 63 73 64 74 72 75 65 76
REMARK SMILES IDX 67 77 73 78 66 79 68 80 69 81 70 82 71 83 48 84 49 85 57 86
REMARK SMILES IDX 50 87 52 88 58 89 51 90 53 91 54 92 55 93 56 94
REMARK H PARENT 14 7 19 28 78 47 46 58
REMARK Flexibility Score: inf
ROOT
ATOM      1  C   UNL A   1      32.248  31.429  27.001  1.00  0.00     0.023 C 
ENDROOT
BRANCH   1   2
ATOM      2  C   UNL A   1      32.565  29.950  27.241  1.00  0.00     0.023 C 
BRANCH   2   3
ATOM      3  C   UNL A   1      33.970  29.528  26.818  1.00  0.00     0.116 C 
BRANCH   3   4
ATOM      4  N   UNL A   1      34.042  29.207  25.404  1.00  0.00    -0.352 N 
ATOM      5  C   UNL A   1      33.791  28.133  24.621  1.00  0.00     0.251 C 
ATOM      6  O   UNL A   1      34.000  28.301  23.415  1.00  0.00    -0.270 OA
ATOM      7  H   UNL A   1      34.356  29.975  24.875  1.00  0.00     0.163 HD
BRANCH   5   8
ATOM      8  C   UNL A   1      33.296  26.807  25.101  1.00  0.00     0.067 C 
ATOM      9  C   UNL A   1      34.430  23.245  24.855  1.00  0.00    -0.019 A 
ATOM     10  C   UNL A   1      34.004  21.996  25.363  1.00  0.00     0.045 A 
ATOM     11  C   UNL A   1      33.720  24.407  25.250  1.00  0.00     0.022 A 
ATOM     12  Cl  UNL A   1      34.822  20.516  24.994  1.00  0.00    -0.084 Cl
ATOM     13  C   UNL A   1      32.899  21.901  26.213  1.00  0.00     0.024 A 
ATOM     14  C   UNL A   1      32.609  24.285  26.097  1.00  0.00     0.128 A 
ATOM     15  C   UNL A   1      34.114  25.764  24.858  1.00  0.00     0.026 C 
ATOM     16  C   UNL A   1      32.202  23.046  26.580  1.00  0.00     0.048 A 
ATOM     17  O   UNL A   1      31.888  25.355  26.546  1.00  0.00    -0.475 OA
ATOM     18  C   UNL A   1      31.976  26.580  25.770  1.00  0.00     0.314 C 
BRANCH   9  19
ATOM     19  C   UNL A   1      35.634  23.331  23.936  1.00  0.00     0.034 C 
ATOM     20  C   UNL A   1      36.943  23.416  24.708  1.00  0.00     0.009 C 
ENDBRANCH   9  19
BRANCH  18  21
ATOM     21  C   UNL A   1      30.790  26.645  24.789  1.00  0.00     0.429 C 
ATOM     22  F   UNL A   1      31.109  26.034  23.621  1.00  0.00    -0.167 F 
ATOM     23  F   UNL A   1      29.688  26.020  25.262  1.00  0.00    -0.167 F 
ATOM     24  F   UNL A   1      30.430  27.915  24.495  1.00  0.00    -0.167 F 
ENDBRANCH  18  21
ENDBRANCH   5   8
ENDBRANCH   3   4
ENDBRANCH   2   3
ENDBRANCH   1   2
BRANCH   1  25
ATOM     25  C   UNL A   1      33.273  32.420  27.550  1.00  0.00     0.116 C 
BRANCH  25  26
ATOM     26  N   UNL A   1      32.763  33.772  27.730  1.00  0.00    -0.352 N 
ATOM     27  C   UNL A   1      33.197  34.721  28.630  1.00  0.00     0.251 C 
ATOM     28  H   UNL A   1      32.022  34.041  27.139  1.00  0.00     0.163 HD
ATOM     29  O   UNL A   1      32.637  35.809  28.711  1.00  0.00    -0.269 OA
BRANCH  27  30
ATOM     30  C   UNL A   1      34.313  34.371  29.531  1.00  0.00     0.039 A 
ATOM     31  C   UNL A   1      35.629  34.469  29.077  1.00  0.00     0.014 A 
ATOM     32  C   UNL A   1      34.027  33.818  30.781  1.00  0.00     0.014 A 
ATOM     33  C   UNL A   1      36.642  33.849  29.797  1.00  0.00     0.010 A 
ATOM     34  C   UNL A   1      35.061  33.261  31.537  1.00  0.00     0.010 A 
ATOM     35  C   UNL A   1      36.365  33.215  31.020  1.00  0.00    -0.014 A 
BRANCH  35  36
ATOM     36  C   UNL A   1      37.451  32.483  31.719  1.00  0.00     0.031 A 
ATOM     37  C   UNL A   1      38.192  31.362  31.037  1.00  0.00     0.074 A 
ATOM     38  C   UNL A   1      37.818  32.879  32.953  1.00  0.00     0.049 A 
ATOM     39  N   UNL A   1      39.203  30.661  31.480  1.00  0.00    -0.248 NA
ATOM     40  C   UNL A   1      37.744  30.975  29.688  1.00  0.00     0.031 C 
ATOM     41  C   UNL A   1      37.168  33.943  33.720  1.00  0.00     0.029 A 
ATOM     42  N   UNL A   1      38.837  32.455  33.767  1.00  0.00    -0.354 N 
ATOM     43  C   UNL A   1      39.483  29.726  30.491  1.00  0.00     0.074 A 
ATOM     44  C   UNL A   1      38.538  29.947  29.419  1.00  0.00     0.031 C 
ATOM     45  C   UNL A   1      37.836  34.126  34.868  1.00  0.00     0.029 A 
ATOM     46  C   UNL A   1      38.933  33.166  34.939  1.00  0.00     0.049 A 
ATOM     47  H   UNL A   1      39.441  31.714  33.534  1.00  0.00     0.167 HD
ATOM     48  C   UNL A   1      40.454  28.782  30.468  1.00  0.00     0.034 A 
ATOM     49  C   UNL A   1      39.807  33.063  35.958  1.00  0.00     0.034 A 
ATOM     50  C   UNL A   1      41.438  28.608  31.500  1.00  0.00     0.049 A 
ATOM     51  C   UNL A   1      40.895  32.032  35.892  1.00  0.00     0.074 A 
ATOM     52  C   UNL A   1      42.490  27.707  31.539  1.00  0.00     0.029 A 
ATOM     53  N   UNL A   1      41.504  29.352  32.667  1.00  0.00    -0.354 N 
ATOM     54  N   UNL A   1      41.183  31.206  34.916  1.00  0.00    -0.248 NA
ATOM     55  C   UNL A   1      41.784  31.923  37.058  1.00  0.00     0.031 C 
ATOM     56  C   UNL A   1      43.195  27.912  32.728  1.00  0.00     0.029 A 
ATOM     57  C   UNL A   1      42.578  28.935  33.431  1.00  0.00     0.049 A 
ATOM     58  H   UNL A   1      40.878  30.071  32.916  1.00  0.00     0.167 HD
ATOM     59  C   UNL A   1      42.286  30.481  35.346  1.00  0.00     0.074 A 
ATOM     60  C   UNL A   1      42.633  30.983  36.661  1.00  0.00     0.031 C 
ATOM     61  C   UNL A   1      42.936  29.473  34.717  1.00  0.00     0.034 A 
BRANCH  48  62
ATOM     62  C   UNL A   1      40.552  27.895  29.260  1.00  0.00     0.023 A 
ATOM     63  C   UNL A   1      39.655  26.818  29.126  1.00  0.00     0.012 A 
ATOM     64  C   UNL A   1      41.450  28.188  28.215  1.00  0.00     0.148 A 
ATOM     65  C   UNL A   1      39.652  26.039  27.970  1.00  0.00     0.002 A 
ATOM     66  C   UNL A   1      41.425  27.422  27.055  1.00  0.00     0.091 A 
ATOM     67  F   UNL A   1      42.304  29.208  28.374  1.00  0.00    -0.205 F 
ATOM     68  C   UNL A   1      40.528  26.347  26.932  1.00  0.00     0.022 A 
BRANCH  66  69
ATOM     69  S   UNL A   1      42.476  27.764  25.638  1.00  0.00     0.127 S 
ATOM     70  O   UNL A   1      42.265  26.570  24.821  1.00  0.00    -0.237 OA
ATOM     71  O   UNL A   1      41.880  28.985  25.100  1.00  0.00    -0.237 OA
ATOM     72  O   UNL A   1      43.824  27.924  26.166  1.00  0.00    -0.744 OA
ENDBRANCH  66  69
ENDBRANCH  48  62
BRANCH  49  73
ATOM     73  C   UNL A   1      39.710  34.020  37.092  1.00  0.00     0.023 A 
ATOM     74  C   UNL A   1      40.076  35.363  36.886  1.00  0.00     0.012 A 
ATOM     75  C   UNL A   1      39.160  33.633  38.329  1.00  0.00     0.148 A 
ATOM     76  C   UNL A   1      39.895  36.308  37.897  1.00  0.00     0.002 A 
ATOM     77  C   UNL A   1      38.939  34.588  39.313  1.00  0.00     0.091 A 
ATOM     78  F   UNL A   1      38.832  32.345  38.500  1.00  0.00    -0.205 F 
ATOM     79  C   UNL A   1      39.314  35.924  39.102  1.00  0.00     0.022 A 
BRANCH  77  80
ATOM     80  S   UNL A   1      38.077  34.211  40.843  1.00  0.00     0.127 S 
ATOM     81  O   UNL A   1      36.902  33.494  40.354  1.00  0.00    -0.237 OA
ATOM     82  O   UNL A   1      39.058  33.383  41.545  1.00  0.00    -0.237 OA
ATOM     83  O   UNL A   1      37.814  35.496  41.474  1.00  0.00    -0.744 OA
ENDBRANCH  77  80
ENDBRANCH  49  73
BRANCH  61  84
ATOM     84  C   UNL A   1      44.085  28.822  35.432  1.00  0.00     0.023 A 
ATOM     85  C   UNL A   1      45.377  29.360  35.274  1.00  0.00     0.012 A 
ATOM     86  C   UNL A   1      43.871  27.772  36.344  1.00  0.00     0.148 A 
ATOM     87  C   UNL A   1      46.444  28.859  36.016  1.00  0.00     0.002 A 
ATOM     88  C   UNL A   1      44.935  27.296  37.101  1.00  0.00     0.091 A 
ATOM     89  F   UNL A   1      42.632  27.275  36.467  1.00  0.00    -0.205 F 
ATOM     90  C   UNL A   1      46.223  27.836  36.936  1.00  0.00     0.022 A 
BRANCH  88  91
ATOM     91  S   UNL A   1      44.740  26.029  38.359  1.00  0.00     0.127 S 
ATOM     92  O   UNL A   1      46.114  25.870  38.835  1.00  0.00    -0.237 OA
ATOM     93  O   UNL A   1      43.836  26.675  39.310  1.00  0.00    -0.237 OA
ATOM     94  O   UNL A   1      44.181  24.868  37.681  1.00  0.00    -0.744 OA
ENDBRANCH  88  91
ENDBRANCH  61  84
ENDBRANCH  35  36
ENDBRANCH  27  30
ENDBRANCH  25  26
ENDBRANCH   1  25
TORSDOF 16
ENDMDL
MODEL 3
REMARK VINA RESULT:     -11.8      5.786     11.000
REMARK SMILES CCc1c(Cl)ccc2c1C=C(C(=O)NCCCCNC(=O)c1ccc(-c3c4nc(c(-c5cccc(S(=O)(=O)[O-])c5F)c5ccc([nH]5)c(-c5cccc(S(=O)(=O)[O-])c5F)c5nc(c(-c6cccc(S(=O)(=O)[O-])c6F)c6ccc3[nH]6)C=C5)C=C4)cc1)[C@@H](C(F)(F)F)O2
REMARK SMILES IDX 17 1 16 2 15 3 14 4 12 5 13 6 11 8 3 9 4 10 9 11 5 12 6 13
REMARK SMILES IDX 8 14 10 15 7 16 90 17 85 18 2 19 1 20 86 21 87 22 88 23
REMARK SMILES IDX 89 24 18 25 19 26 20 27 21 29 22 30 23 31 84 32 24 33 83 34
REMARK SMILES IDX 25 35 26 36 27 37 77 38 28 39 82 40 76 41 78 42 29 43 81 44
REMARK SMILES IDX 75 45 74 46 30 48 62 49 42 50 61 51 43 52 46 53 60 54 79 55
REMARK SMILES IDX 44 56 45 57 59 59 80 60 47 61 31 62 32 63 40 64 33 65 35 66
REMARK SMILES IDX 41 67 34 68 36 69 37 70 38 71 39 72 63 73 64 74 72 75 65 76
REMARK SMILES IDX 67 77 73 78 66 79 68 80 69 81 70 82 71 83 48 84 49 85 57 86
REMARK SMILES IDX 50 87 52 88 58 89 51 90 53 91 54 92 55 93 56 94
REMARK H PARENT 14 7 19 28 78 47 46 58
REMARK Flexibility Score: inf
ROOT
ATOM      1  C   UNL A   1      38.117  19.662  24.947  1.00  0.00     0.023 C 
ENDROOT
BRANCH   1   2
ATOM      2  C   UNL A   1      37.217  20.846  24.580  1.00  0.00     0.023 C 
BRANCH   2   3
ATOM      3  C   UNL A   1      37.368  22.060  25.493  1.00  0.00     0.116 C 
BRANCH   3   4
ATOM      4  N   UNL A   1      36.243  22.207  26.398  1.00  0.00    -0.352 N 
ATOM      5  C   UNL A   1      35.053  22.850  26.397  1.00  0.00     0.251 C 
ATOM      6  O   UNL A   1      34.374  22.701  27.419  1.00  0.00    -0.270 OA
ATOM      7  H   UNL A   1      36.382  21.706  27.233  1.00  0.00     0.163 HD
BRANCH   5   8
ATOM      8  C   UNL A   1      34.524  23.696  25.284  1.00  0.00     0.067 C 
ATOM      9  C   UNL A   1      32.764  26.989  24.989  1.00  0.00    -0.019 A 
ATOM     10  C   UNL A   1      32.323  27.825  23.937  1.00  0.00     0.045 A 
ATOM     11  C   UNL A   1      33.464  25.802  24.654  1.00  0.00     0.022 A 
ATOM     12  Cl  UNL A   1      31.504  29.323  24.223  1.00  0.00    -0.084 Cl
ATOM     13  C   UNL A   1      32.547  27.484  22.601  1.00  0.00     0.024 A 
ATOM     14  C   UNL A   1      33.670  25.477  23.305  1.00  0.00     0.128 A 
ATOM     15  C   UNL A   1      34.042  24.899  25.653  1.00  0.00     0.026 C 
ATOM     16  C   UNL A   1      33.221  26.311  22.285  1.00  0.00     0.048 A 
ATOM     17  O   UNL A   1      34.357  24.370  22.897  1.00  0.00    -0.475 OA
ATOM     18  C   UNL A   1      34.466  23.276  23.848  1.00  0.00     0.314 C 
BRANCH   9  19
ATOM     19  C   UNL A   1      32.515  27.375  26.435  1.00  0.00     0.034 C 
ATOM     20  C   UNL A   1      33.598  28.296  26.980  1.00  0.00     0.009 C 
ENDBRANCH   9  19
BRANCH  18  21
ATOM     21  C   UNL A   1      33.352  22.250  23.570  1.00  0.00     0.429 C 
ATOM     22  F   UNL A   1      33.755  21.005  23.927  1.00  0.00    -0.167 F 
ATOM     23  F   UNL A   1      32.224  22.504  24.271  1.00  0.00    -0.167 F 
ATOM     24  F   UNL A   1      33.004  22.203  22.265  1.00  0.00    -0.167 F 
ENDBRANCH  18  21
ENDBRANCH   5   8
ENDBRANCH   3   4
ENDBRANCH   2   3
ENDBRANCH   1   2
BRANCH   1  25
ATOM     25  C   UNL A   1      39.086  19.903  26.103  1.00  0.00     0.116 C 
BRANCH  25  26
ATOM     26  N   UNL A   1      40.405  19.316  25.913  1.00  0.00    -0.352 N 
ATOM     27  C   UNL A   1      41.629  19.914  26.123  1.00  0.00     0.251 C 
ATOM     28  H   UNL A   1      40.426  18.383  25.597  1.00  0.00     0.163 HD
ATOM     29  O   UNL A   1      42.669  19.317  25.868  1.00  0.00    -0.269 OA
BRANCH  27  30
ATOM     30  C   UNL A   1      41.651  21.309  26.606  1.00  0.00     0.039 A 
ATOM     31  C   UNL A   1      41.449  22.358  25.708  1.00  0.00     0.014 A 
ATOM     32  C   UNL A   1      42.006  21.562  27.933  1.00  0.00     0.014 A 
ATOM     33  C   UNL A   1      41.781  23.652  26.091  1.00  0.00     0.010 A 
ATOM     34  C   UNL A   1      42.266  22.874  28.334  1.00  0.00     0.010 A 
ATOM     35  C   UNL A   1      42.218  23.920  27.399  1.00  0.00    -0.014 A 
BRANCH  35  36
ATOM     36  C   UNL A   1      42.651  25.295  27.750  1.00  0.00     0.031 A 
ATOM     37  C   UNL A   1      44.006  25.808  27.338  1.00  0.00     0.074 A 
ATOM     38  C   UNL A   1      41.788  26.111  28.386  1.00  0.00     0.049 A 
ATOM     39  N   UNL A   1      44.518  27.000  27.511  1.00  0.00    -0.248 NA
ATOM     40  C   UNL A   1      44.906  24.869  26.645  1.00  0.00     0.031 C 
ATOM     41  C   UNL A   1      40.454  25.723  28.847  1.00  0.00     0.029 A 
ATOM     42  N   UNL A   1      41.890  27.433  28.732  1.00  0.00    -0.354 N 
ATOM     43  C   UNL A   1      45.806  26.943  26.993  1.00  0.00     0.074 A 
ATOM     44  C   UNL A   1      46.003  25.599  26.495  1.00  0.00     0.031 C 
ATOM     45  C   UNL A   1      39.840  26.797  29.365  1.00  0.00     0.029 A 
ATOM     46  C   UNL A   1      40.751  27.936  29.313  1.00  0.00     0.049 A 
ATOM     47  H   UNL A   1      42.700  27.971  28.577  1.00  0.00     0.167 HD
ATOM     48  C   UNL A   1      46.733  27.927  26.918  1.00  0.00     0.034 A 
ATOM     49  C   UNL A   1      40.465  29.177  29.753  1.00  0.00     0.034 A 
ATOM     50  C   UNL A   1      46.514  29.280  27.347  1.00  0.00     0.049 A 
ATOM     51  C   UNL A   1      41.498  30.258  29.627  1.00  0.00     0.074 A 
ATOM     52  C   UNL A   1      47.381  30.356  27.266  1.00  0.00     0.029 A 
ATOM     53  N   UNL A   1      45.346  29.749  27.925  1.00  0.00    -0.354 N 
ATOM     54  N   UNL A   1      42.683  30.198  29.070  1.00  0.00    -0.248 NA
ATOM     55  C   UNL A   1      41.156  31.577  30.178  1.00  0.00     0.031 C 
ATOM     56  C   UNL A   1      46.734  31.478  27.791  1.00  0.00     0.029 A 
ATOM     57  C   UNL A   1      45.466  31.098  28.203  1.00  0.00     0.049 A 
ATOM     58  H   UNL A   1      44.547  29.203  28.111  1.00  0.00     0.167 HD
ATOM     59  C   UNL A   1      43.228  31.468  29.200  1.00  0.00     0.074 A 
ATOM     60  C   UNL A   1      42.233  32.286  29.865  1.00  0.00     0.031 C 
ATOM     61  C   UNL A   1      44.452  31.908  28.824  1.00  0.00     0.034 A 
BRANCH  48  62
ATOM     62  C   UNL A   1      48.060  27.604  26.292  1.00  0.00     0.023 A 
ATOM     63  C   UNL A   1      49.104  27.127  27.107  1.00  0.00     0.012 A 
ATOM     64  C   UNL A   1      48.239  27.670  24.896  1.00  0.00     0.148 A 
ATOM     65  C   UNL A   1      50.313  26.721  26.543  1.00  0.00     0.002 A 
ATOM     66  C   UNL A   1      49.439  27.242  24.338  1.00  0.00     0.091 A 
ATOM     67  F   UNL A   1      47.235  28.144  24.145  1.00  0.00    -0.205 F 
ATOM     68  C   UNL A   1      50.476  26.769  25.160  1.00  0.00     0.022 A 
BRANCH  66  69
ATOM     69  S   UNL A   1      49.735  27.215  22.567  1.00  0.00     0.127 S 
ATOM     70  O   UNL A   1      48.740  26.241  22.118  1.00  0.00    -0.237 OA
ATOM     71  O   UNL A   1      49.451  28.597  22.185  1.00  0.00    -0.237 OA
ATOM     72  O   UNL A   1      51.122  26.807  22.396  1.00  0.00    -0.744 OA
ENDBRANCH  66  69
ENDBRANCH  48  62
BRANCH  49  73
ATOM     73  C   UNL A   1      39.108  29.457  30.291  1.00  0.00     0.023 A 
ATOM     74  C   UNL A   1      38.783  29.018  31.588  1.00  0.00     0.012 A 
ATOM     75  C   UNL A   1      38.185  30.241  29.573  1.00  0.00     0.148 A 
ATOM     76  C   UNL A   1      37.557  29.358  32.162  1.00  0.00     0.002 A 
ATOM     77  C   UNL A   1      36.987  30.614  30.169  1.00  0.00     0.091 A 
ATOM     78  F   UNL A   1      38.517  30.634  28.335  1.00  0.00    -0.205 F 
ATOM     79  C   UNL A   1      36.667  30.166  31.460  1.00  0.00     0.022 A 
BRANCH  77  80
ATOM     80  S   UNL A   1      35.842  31.759  29.392  1.00  0.00     0.127 S 
ATOM     81  O   UNL A   1      36.718  32.881  29.065  1.00  0.00    -0.237 OA
ATOM     82  O   UNL A   1      35.375  30.985  28.242  1.00  0.00    -0.237 OA
ATOM     83  O   UNL A   1      34.817  32.029  30.390  1.00  0.00    -0.744 OA
ENDBRANCH  77  80
ENDBRANCH  49  73
BRANCH  61  84
ATOM     84  C   UNL A   1      44.810  33.335  29.126  1.00  0.00     0.023 A 
ATOM     85  C   UNL A   1      45.422  33.637  30.358  1.00  0.00     0.012 A 
ATOM     86  C   UNL A   1      44.660  34.342  28.154  1.00  0.00     0.148 A 
ATOM     87  C   UNL A   1      45.879  34.927  30.621  1.00  0.00     0.002 A 
ATOM     88  C   UNL A   1      45.143  35.620  28.413  1.00  0.00     0.091 A 
ATOM     89  F   UNL A   1      44.067  34.026  26.994  1.00  0.00    -0.205 F 
ATOM     90  C   UNL A   1      45.749  35.914  29.647  1.00  0.00     0.022 A 
BRANCH  88  91
ATOM     91  S   UNL A   1      45.086  36.942  27.199  1.00  0.00     0.127 S 
ATOM     92  O   UNL A   1      45.627  38.067  27.961  1.00  0.00    -0.237 OA
ATOM     93  O   UNL A   1      45.968  36.435  26.149  1.00  0.00    -0.237 OA
ATOM     94  O   UNL A   1      43.689  37.073  26.809  1.00  0.00    -0.744 OA
ENDBRANCH  88  91
ENDBRANCH  61  84
ENDBRANCH  35  36
ENDBRANCH  27  30
ENDBRANCH  25  26
ENDBRANCH   1  25
TORSDOF 16
ENDMDL
