MODEL 1
REMARK VINA RESULT:     -11.7      0.000      0.000
REMARK SMILES CC[C@](C)(NC(=O)N1CC[C@@H]([NH+]2CCCCC2)C1)C(=O)NCCCCNC(=O)c1ccc(-c2c3nc(c(-c4cccc(S(=O)(=O)[O-])c4F)c4ccc([nH]4)c(-c4cccc(S(=O)(=O)[O-])c4F)c4nc(c(-c5cccc(S(=O)(=O)[O-])c5F)c5ccc2[nH]5)C=C4)C=C3)cc1
REMARK SMILES IDX 23 1 22 2 21 3 19 4 20 5 3 7 4 8 2 9 1 10 5 11 6 12 7 14
REMARK SMILES IDX 8 15 9 16 18 17 10 18 11 19 12 20 13 21 17 22 14 24 16 25
REMARK SMILES IDX 15 26 24 27 25 28 26 29 27 30 28 32 29 33 30 34 91 35 31 36
REMARK SMILES IDX 90 37 32 38 33 39 34 40 84 41 35 42 89 43 83 44 85 45 36 46
REMARK SMILES IDX 88 47 82 48 81 49 37 51 69 52 49 53 68 54 50 55 53 56 67 57
REMARK SMILES IDX 86 58 51 59 52 60 66 62 87 63 54 64 38 65 39 66 47 67 40 68
REMARK SMILES IDX 42 69 48 70 41 71 43 72 44 73 45 74 46 75 70 76 71 77 79 78
REMARK SMILES IDX 72 79 74 80 80 81 73 82 75 83 76 84 77 85 78 86 55 87 56 88
REMARK SMILES IDX 64 89 57 90 59 91 65 92 58 93 60 94 61 95 62 96 63 97
REMARK H PARENT 21 6 5 13 12 23 26 31 85 50 53 61
REMARK Flexibility Score: inf
ROOT
ATOM      1  C   UNL A   1      36.129  20.005  24.978  1.00  0.00     0.023 C 
ENDROOT
BRANCH   1   2
ATOM      2  C   UNL A   1      35.778  21.490  24.916  1.00  0.00     0.116 C 
BRANCH   2   3
ATOM      3  N   UNL A   1      35.104  22.112  26.048  1.00  0.00    -0.354 N 
ATOM      4  C   UNL A   1      33.816  22.061  26.520  1.00  0.00     0.245 C 
ATOM      5  O   UNL A   1      33.691  22.215  27.744  1.00  0.00    -0.272 OA
ATOM      6  H   UNL A   1      35.694  22.688  26.586  1.00  0.00     0.163 HD
BRANCH   4   7
ATOM      7  C   UNL A   1      32.565  21.750  25.634  1.00  0.00     0.117 C 
ATOM      8  C   UNL A   1      32.450  20.296  25.106  1.00  0.00     0.045 C 
BRANCH   7   9
ATOM      9  C   UNL A   1      32.718  22.643  24.359  1.00  0.00     0.035 C 
ATOM     10  C   UNL A   1      32.508  21.889  23.036  1.00  0.00     0.007 C 
ENDBRANCH   7   9
BRANCH   7  11
ATOM     11  N   UNL A   1      31.319  22.061  26.370  1.00  0.00    -0.324 N 
ATOM     12  C   UNL A   1      30.723  23.204  26.804  1.00  0.00     0.318 C 
ATOM     13  H   UNL A   1      30.802  21.254  26.598  1.00  0.00     0.166 HD
ATOM     14  O   UNL A   1      29.812  23.040  27.623  1.00  0.00    -0.249 OA
BRANCH  12  15
ATOM     15  N   UNL A   1      31.059  24.446  26.357  1.00  0.00    -0.319 N 
ATOM     16  C   UNL A   1      32.146  25.323  26.713  1.00  0.00     0.128 C 
ATOM     17  C   UNL A   1      30.274  25.107  25.298  1.00  0.00     0.186 C 
ATOM     18  C   UNL A   1      31.710  26.706  26.317  1.00  0.00     0.088 C 
ATOM     19  C   UNL A   1      30.974  26.478  25.001  1.00  0.00     0.205 C 
BRANCH  19  20
ATOM     20  N   UNL A   1      31.795  26.670  23.800  1.00  0.00    -0.331 N 
ATOM     21  C   UNL A   1      33.240  26.601  23.800  1.00  0.00     0.262 C 
ATOM     22  C   UNL A   1      31.273  27.554  22.754  1.00  0.00     0.262 C 
ATOM     23  H   UNL A   1      31.604  25.698  23.558  1.00  0.00     0.348 HD
ATOM     24  C   UNL A   1      33.926  27.967  23.857  1.00  0.00     0.062 C 
ATOM     25  C   UNL A   1      31.888  28.961  22.752  1.00  0.00     0.062 C 
ATOM     26  C   UNL A   1      33.407  28.944  22.816  1.00  0.00     0.012 C 
ENDBRANCH  19  20
ENDBRANCH  12  15
ENDBRANCH   7  11
ENDBRANCH   4   7
ENDBRANCH   2   3
ENDBRANCH   1   2
BRANCH   1  27
ATOM     27  C   UNL A   1      37.572  19.589  24.715  1.00  0.00     0.023 C 
BRANCH  27  28
ATOM     28  C   UNL A   1      38.661  20.090  25.655  1.00  0.00     0.116 C 
BRANCH  28  29
ATOM     29  N   UNL A   1      39.773  19.186  25.852  1.00  0.00    -0.352 N 
ATOM     30  C   UNL A   1      41.080  19.510  26.163  1.00  0.00     0.251 C 
ATOM     31  H   UNL A   1      39.576  18.227  25.754  1.00  0.00     0.163 HD
ATOM     32  O   UNL A   1      41.931  18.623  26.166  1.00  0.00    -0.269 OA
BRANCH  30  33
ATOM     33  C   UNL A   1      41.482  20.915  26.465  1.00  0.00     0.039 A 
ATOM     34  C   UNL A   1      41.732  21.782  25.395  1.00  0.00     0.014 A 
ATOM     35  C   UNL A   1      41.668  21.378  27.772  1.00  0.00     0.014 A 
ATOM     36  C   UNL A   1      42.142  23.103  25.632  1.00  0.00     0.010 A 
ATOM     37  C   UNL A   1      42.027  22.714  28.009  1.00  0.00     0.010 A 
ATOM     38  C   UNL A   1      42.287  23.589  26.942  1.00  0.00    -0.014 A 
BRANCH  38  39
ATOM     39  C   UNL A   1      42.727  24.996  27.186  1.00  0.00     0.031 A 
ATOM     40  C   UNL A   1      41.798  26.001  27.824  1.00  0.00     0.074 A 
ATOM     41  C   UNL A   1      43.964  25.392  26.822  1.00  0.00     0.049 A 
ATOM     42  N   UNL A   1      42.024  27.251  28.142  1.00  0.00    -0.248 NA
ATOM     43  C   UNL A   1      40.433  25.547  28.130  1.00  0.00     0.031 C 
ATOM     44  C   UNL A   1      44.951  24.555  26.140  1.00  0.00     0.029 A 
ATOM     45  N   UNL A   1      44.598  26.606  26.960  1.00  0.00    -0.354 N 
ATOM     46  C   UNL A   1      40.831  27.739  28.666  1.00  0.00     0.074 A 
ATOM     47  C   UNL A   1      39.872  26.658  28.588  1.00  0.00     0.031 C 
ATOM     48  C   UNL A   1      46.064  25.275  25.924  1.00  0.00     0.029 A 
ATOM     49  C   UNL A   1      45.867  26.632  26.427  1.00  0.00     0.049 A 
ATOM     50  H   UNL A   1      44.183  27.383  27.399  1.00  0.00     0.167 HD
ATOM     51  C   UNL A   1      40.560  28.959  29.190  1.00  0.00     0.034 A 
ATOM     52  C   UNL A   1      46.769  27.631  26.346  1.00  0.00     0.034 A 
ATOM     53  C   UNL A   1      41.514  30.032  29.296  1.00  0.00     0.049 A 
ATOM     54  C   UNL A   1      46.452  28.974  26.949  1.00  0.00     0.074 A 
ATOM     55  C   UNL A   1      41.347  31.277  29.880  1.00  0.00     0.029 A 
ATOM     56  N   UNL A   1      42.807  29.999  28.797  1.00  0.00    -0.354 N 
ATOM     57  N   UNL A   1      45.370  29.361  27.579  1.00  0.00    -0.248 NA
ATOM     58  C   UNL A   1      47.496  30.008  26.863  1.00  0.00     0.031 C 
ATOM     59  C   UNL A   1      42.528  32.007  29.705  1.00  0.00     0.029 A 
ATOM     60  C   UNL A   1      43.443  31.204  29.046  1.00  0.00     0.049 A 
ATOM     61  H   UNL A   1      43.213  29.230  28.335  1.00  0.00     0.167 HD
ATOM     62  C   UNL A   1      45.615  30.667  27.994  1.00  0.00     0.074 A 
ATOM     63  C   UNL A   1      46.958  30.997  27.564  1.00  0.00     0.031 C 
ATOM     64  C   UNL A   1      44.795  31.517  28.661  1.00  0.00     0.034 A 
BRANCH  51  65
ATOM     65  C   UNL A   1      39.174  29.193  29.740  1.00  0.00     0.023 A 
ATOM     66  C   UNL A   1      38.888  28.845  31.076  1.00  0.00     0.012 A 
ATOM     67  C   UNL A   1      38.178  29.819  28.963  1.00  0.00     0.148 A 
ATOM     68  C   UNL A   1      37.624  29.077  31.617  1.00  0.00     0.002 A 
ATOM     69  C   UNL A   1      36.935  30.088  29.524  1.00  0.00     0.091 A 
ATOM     70  F   UNL A   1      38.461  30.132  27.691  1.00  0.00    -0.205 F 
ATOM     71  C   UNL A   1      36.652  29.707  30.846  1.00  0.00     0.022 A 
BRANCH  69  72
ATOM     72  S   UNL A   1      35.641  30.969  28.641  1.00  0.00     0.127 S 
ATOM     73  O   UNL A   1      34.987  29.880  27.915  1.00  0.00    -0.237 OA
ATOM     74  O   UNL A   1      34.851  31.534  29.735  1.00  0.00    -0.237 OA
ATOM     75  O   UNL A   1      36.320  31.953  27.810  1.00  0.00    -0.744 OA
ENDBRANCH  69  72
ENDBRANCH  51  65
BRANCH  52  76
ATOM     76  C   UNL A   1      48.092  27.386  25.700  1.00  0.00     0.023 A 
ATOM     77  C   UNL A   1      49.190  26.982  26.484  1.00  0.00     0.012 A 
ATOM     78  C   UNL A   1      48.259  27.537  24.310  1.00  0.00     0.148 A 
ATOM     79  C   UNL A   1      50.439  26.764  25.900  1.00  0.00     0.002 A 
ATOM     80  C   UNL A   1      49.489  27.263  23.725  1.00  0.00     0.091 A 
ATOM     81  F   UNL A   1      47.205  27.938  23.584  1.00  0.00    -0.205 F 
ATOM     82  C   UNL A   1      50.585  26.893  24.521  1.00  0.00     0.022 A 
BRANCH  80  83
ATOM     83  S   UNL A   1      49.739  27.279  21.948  1.00  0.00     0.127 S 
ATOM     84  O   UNL A   1      48.718  26.339  21.493  1.00  0.00    -0.237 OA
ATOM     85  O   UNL A   1      49.478  28.681  21.621  1.00  0.00    -0.237 OA
ATOM     86  O   UNL A   1      51.120  26.859  21.741  1.00  0.00    -0.744 OA
ENDBRANCH  80  83
ENDBRANCH  52  76
BRANCH  64  87
ATOM     87  C   UNL A   1      45.329  32.885  29.008  1.00  0.00     0.023 A 
ATOM     88  C   UNL A   1      46.085  33.069  30.183  1.00  0.00     0.012 A 
ATOM     89  C   UNL A   1      45.140  33.973  28.133  1.00  0.00     0.148 A 
ATOM     90  C   UNL A   1      46.614  34.321  30.498  1.00  0.00     0.002 A 
ATOM     91  C   UNL A   1      45.713  35.204  28.427  1.00  0.00     0.091 A 
ATOM     92  F   UNL A   1      44.404  33.784  27.028  1.00  0.00    -0.205 F 
ATOM     93  C   UNL A   1      46.439  35.384  29.615  1.00  0.00     0.022 A 
BRANCH  91  94
ATOM     94  S   UNL A   1      45.623  36.605  27.306  1.00  0.00     0.127 S 
ATOM     95  O   UNL A   1      46.248  36.063  26.100  1.00  0.00    -0.237 OA
ATOM     96  O   UNL A   1      44.181  36.825  27.199  1.00  0.00    -0.237 OA
ATOM     97  O   UNL A   1      46.354  37.686  27.953  1.00  0.00    -0.744 OA
ENDBRANCH  91  94
ENDBRANCH  64  87
ENDBRANCH  38  39
ENDBRANCH  30  33
ENDBRANCH  28  29
ENDBRANCH  27  28
ENDBRANCH   1  27
TORSDOF 18
ENDMDL
MODEL 2
REMARK VINA RESULT:     -11.6      5.220      8.810
REMARK SMILES CC[C@](C)(NC(=O)N1CC[C@@H]([NH+]2CCCCC2)C1)C(=O)NCCCCNC(=O)c1ccc(-c2c3nc(c(-c4cccc(S(=O)(=O)[O-])c4F)c4ccc([nH]4)c(-c4cccc(S(=O)(=O)[O-])c4F)c4nc(c(-c5cccc(S(=O)(=O)[O-])c5F)c5ccc2[nH]5)C=C4)C=C3)cc1
REMARK SMILES IDX 23 1 22 2 21 3 19 4 20 5 3 7 4 8 2 9 1 10 5 11 6 12 7 14
REMARK SMILES IDX 8 15 9 16 18 17 10 18 11 19 12 20 13 21 17 22 14 24 16 25
REMARK SMILES IDX 15 26 24 27 25 28 26 29 27 30 28 32 29 33 30 34 91 35 31 36
REMARK SMILES IDX 90 37 32 38 33 39 34 40 84 41 35 42 89 43 83 44 85 45 36 46
REMARK SMILES IDX 88 47 82 48 81 49 37 51 69 52 49 53 68 54 50 55 53 56 67 57
REMARK SMILES IDX 86 58 51 59 52 60 66 62 87 63 54 64 38 65 39 66 47 67 40 68
REMARK SMILES IDX 42 69 48 70 41 71 43 72 44 73 45 74 46 75 70 76 71 77 79 78
REMARK SMILES IDX 72 79 74 80 80 81 73 82 75 83 76 84 77 85 78 86 55 87 56 88
REMARK SMILES IDX 64 89 57 90 59 91 65 92 58 93 60 94 61 95 62 96 63 97
REMARK H PARENT 21 6 5 13 12 23 26 31 85 50 53 61
REMARK Flexibility Score: inf
ROOT
ATOM      1  C   UNL A   1      32.278  28.281  27.468  1.00  0.00     0.023 C 
ENDROOT
BRANCH   1   2
ATOM      2  C   UNL A   1      31.137  27.421  26.930  1.00  0.00     0.116 C 
BRANCH   2   3
ATOM      3  N   UNL A   1      30.934  27.325  25.490  1.00  0.00    -0.354 N 
ATOM      4  C   UNL A   1      31.147  26.326  24.573  1.00  0.00     0.245 C 
ATOM      5  O   UNL A   1      30.389  26.332  23.593  1.00  0.00    -0.272 OA
ATOM      6  H   UNL A   1      30.568  28.148  25.091  1.00  0.00     0.163 HD
BRANCH   4   7
ATOM      7  C   UNL A   1      32.202  25.183  24.747  1.00  0.00     0.117 C 
ATOM      8  C   UNL A   1      33.690  25.615  24.675  1.00  0.00     0.045 C 
BRANCH   7   9
ATOM      9  C   UNL A   1      31.989  24.224  23.530  1.00  0.00     0.035 C 
ATOM     10  C   UNL A   1      33.204  24.118  22.594  1.00  0.00     0.007 C 
ENDBRANCH   7   9
BRANCH   7  11
ATOM     11  N   UNL A   1      31.999  24.483  26.035  1.00  0.00    -0.324 N 
ATOM     12  C   UNL A   1      32.219  23.217  26.482  1.00  0.00     0.318 C 
ATOM     13  H   UNL A   1      31.616  25.068  26.728  1.00  0.00     0.166 HD
ATOM     14  O   UNL A   1      31.670  22.938  27.553  1.00  0.00    -0.249 OA
BRANCH  12  15
ATOM     15  N   UNL A   1      33.013  22.318  25.838  1.00  0.00    -0.319 N 
ATOM     16  C   UNL A   1      34.447  22.168  25.805  1.00  0.00     0.128 C 
ATOM     17  C   UNL A   1      32.427  21.233  25.029  1.00  0.00     0.186 C 
ATOM     18  C   UNL A   1      34.754  21.388  24.557  1.00  0.00     0.088 C 
ATOM     19  C   UNL A   1      33.622  20.369  24.493  1.00  0.00     0.205 C 
BRANCH  19  20
ATOM     20  N   UNL A   1      33.941  19.063  25.080  1.00  0.00    -0.331 N 
ATOM     21  C   UNL A   1      34.948  18.170  24.546  1.00  0.00     0.262 C 
ATOM     22  C   UNL A   1      32.866  18.348  25.774  1.00  0.00     0.262 C 
ATOM     23  H   UNL A   1      34.525  19.551  25.758  1.00  0.00     0.348 HD
ATOM     24  C   UNL A   1      34.383  17.057  23.663  1.00  0.00     0.062 C 
ATOM     25  C   UNL A   1      32.220  17.225  24.950  1.00  0.00     0.062 C 
ATOM     26  C   UNL A   1      33.240  16.295  24.313  1.00  0.00     0.012 C 
ENDBRANCH  19  20
ENDBRANCH  12  15
ENDBRANCH   7  11
ENDBRANCH   4   7
ENDBRANCH   2   3
ENDBRANCH   1   2
BRANCH   1  27
ATOM     27  C   UNL A   1      33.633  28.207  26.772  1.00  0.00     0.023 C 
BRANCH  27  28
ATOM     28  C   UNL A   1      34.273  29.498  26.276  1.00  0.00     0.116 C 
BRANCH  28  29
ATOM     29  N   UNL A   1      33.911  30.690  27.011  1.00  0.00    -0.352 N 
ATOM     30  C   UNL A   1      34.566  31.247  28.092  1.00  0.00     0.251 C 
ATOM     31  H   UNL A   1      33.103  31.161  26.704  1.00  0.00     0.163 HD
ATOM     32  O   UNL A   1      34.049  32.193  28.683  1.00  0.00    -0.269 OA
BRANCH  30  33
ATOM     33  C   UNL A   1      35.871  30.706  28.574  1.00  0.00     0.039 A 
ATOM     34  C   UNL A   1      37.051  31.212  28.013  1.00  0.00     0.014 A 
ATOM     35  C   UNL A   1      35.955  29.680  29.521  1.00  0.00     0.014 A 
ATOM     36  C   UNL A   1      38.299  30.712  28.413  1.00  0.00     0.010 A 
ATOM     37  C   UNL A   1      37.206  29.219  29.959  1.00  0.00     0.010 A 
ATOM     38  C   UNL A   1      38.394  29.714  29.398  1.00  0.00    -0.014 A 
BRANCH  38  39
ATOM     39  C   UNL A   1      39.727  29.184  29.816  1.00  0.00     0.031 A 
ATOM     40  C   UNL A   1      40.504  29.834  30.935  1.00  0.00     0.074 A 
ATOM     41  C   UNL A   1      40.263  28.120  29.182  1.00  0.00     0.049 A 
ATOM     42  N   UNL A   1      41.657  29.487  31.452  1.00  0.00    -0.248 NA
ATOM     43  C   UNL A   1      39.919  31.039  31.543  1.00  0.00     0.031 C 
ATOM     44  C   UNL A   1      39.662  27.427  28.044  1.00  0.00     0.029 A 
ATOM     45  N   UNL A   1      41.443  27.447  29.396  1.00  0.00    -0.354 N 
ATOM     46  C   UNL A   1      41.944  30.436  32.429  1.00  0.00     0.074 A 
ATOM     47  C   UNL A   1      40.861  31.395  32.405  1.00  0.00     0.031 C 
ATOM     48  C   UNL A   1      40.471  26.424  27.663  1.00  0.00     0.029 A 
ATOM     49  C   UNL A   1      41.661  26.416  28.510  1.00  0.00     0.049 A 
ATOM     50  H   UNL A   1      42.074  27.679  30.115  1.00  0.00     0.167 HD
ATOM     51  C   UNL A   1      42.992  30.493  33.286  1.00  0.00     0.034 A 
ATOM     52  C   UNL A   1      42.699  25.563  28.385  1.00  0.00     0.034 A 
ATOM     53  C   UNL A   1      44.061  29.529  33.334  1.00  0.00     0.049 A 
ATOM     54  C   UNL A   1      43.845  25.637  29.358  1.00  0.00     0.074 A 
ATOM     55  C   UNL A   1      45.125  29.469  34.219  1.00  0.00     0.029 A 
ATOM     56  N   UNL A   1      44.214  28.468  32.457  1.00  0.00    -0.354 N 
ATOM     57  N   UNL A   1      44.016  26.448  30.373  1.00  0.00    -0.248 NA
ATOM     58  C   UNL A   1      44.925  24.650  29.193  1.00  0.00     0.031 C 
ATOM     59  C   UNL A   1      45.938  28.390  33.856  1.00  0.00     0.029 A 
ATOM     60  C   UNL A   1      45.361  27.755  32.770  1.00  0.00     0.049 A 
ATOM     61  H   UNL A   1      43.597  28.250  31.721  1.00  0.00     0.167 HD
ATOM     62  C   UNL A   1      45.201  26.051  30.986  1.00  0.00     0.074 A 
ATOM     63  C   UNL A   1      45.694  24.910  30.243  1.00  0.00     0.031 C 
ATOM     64  C   UNL A   1      45.827  26.592  32.061  1.00  0.00     0.034 A 
BRANCH  51  65
ATOM     65  C   UNL A   1      43.017  31.622  34.287  1.00  0.00     0.023 A 
ATOM     66  C   UNL A   1      43.674  32.827  33.961  1.00  0.00     0.012 A 
ATOM     67  C   UNL A   1      42.337  31.519  35.518  1.00  0.00     0.148 A 
ATOM     68  C   UNL A   1      43.688  33.895  34.857  1.00  0.00     0.002 A 
ATOM     69  C   UNL A   1      42.317  32.605  36.386  1.00  0.00     0.091 A 
ATOM     70  F   UNL A   1      41.729  30.363  35.819  1.00  0.00    -0.205 F 
ATOM     71  C   UNL A   1      43.002  33.788  36.063  1.00  0.00     0.022 A 
BRANCH  69  72
ATOM     72  S   UNL A   1      41.395  32.599  37.928  1.00  0.00     0.127 S 
ATOM     73  O   UNL A   1      42.118  31.588  38.700  1.00  0.00    -0.237 OA
ATOM     74  O   UNL A   1      41.575  33.972  38.401  1.00  0.00    -0.237 OA
ATOM     75  O   UNL A   1      40.025  32.252  37.576  1.00  0.00    -0.744 OA
ENDBRANCH  69  72
ENDBRANCH  51  65
BRANCH  52  76
ATOM     76  C   UNL A   1      42.682  24.525  27.313  1.00  0.00     0.023 A 
ATOM     77  C   UNL A   1      43.310  24.784  26.079  1.00  0.00     0.012 A 
ATOM     78  C   UNL A   1      42.061  23.279  27.519  1.00  0.00     0.148 A 
ATOM     79  C   UNL A   1      43.291  23.832  25.058  1.00  0.00     0.002 A 
ATOM     80  C   UNL A   1      42.095  22.313  26.521  1.00  0.00     0.091 A 
ATOM     81  F   UNL A   1      41.456  23.059  28.696  1.00  0.00    -0.205 F 
ATOM     82  C   UNL A   1      42.694  22.594  25.284  1.00  0.00     0.022 A 
BRANCH  80  83
ATOM     83  S   UNL A   1      41.466  20.650  26.766  1.00  0.00     0.127 S 
ATOM     84  O   UNL A   1      40.037  20.893  26.944  1.00  0.00    -0.237 OA
ATOM     85  O   UNL A   1      41.831  20.003  25.506  1.00  0.00    -0.237 OA
ATOM     86  O   UNL A   1      42.168  20.131  27.934  1.00  0.00    -0.744 OA
ENDBRANCH  80  83
ENDBRANCH  52  76
BRANCH  64  87
ATOM     87  C   UNL A   1      47.103  25.941  32.535  1.00  0.00     0.023 A 
ATOM     88  C   UNL A   1      48.346  26.386  32.045  1.00  0.00     0.012 A 
ATOM     89  C   UNL A   1      47.071  24.933  33.520  1.00  0.00     0.148 A 
ATOM     90  C   UNL A   1      49.535  25.816  32.501  1.00  0.00     0.002 A 
ATOM     91  C   UNL A   1      48.262  24.406  34.008  1.00  0.00     0.091 A 
ATOM     92  F   UNL A   1      45.879  24.509  33.963  1.00  0.00    -0.205 F 
ATOM     93  C   UNL A   1      49.493  24.837  33.491  1.00  0.00     0.022 A 
BRANCH  91  94
ATOM     94  S   UNL A   1      48.312  23.210  35.348  1.00  0.00     0.127 S 
ATOM     95  O   UNL A   1      47.639  22.060  34.747  1.00  0.00    -0.237 OA
ATOM     96  O   UNL A   1      49.750  23.036  35.555  1.00  0.00    -0.237 OA
ATOM     97  O   UNL A   1      47.610  23.828  36.465  1.00  0.00    -0.744 OA
ENDBRANCH  91  94
ENDBRANCH  64  87
ENDBRANCH  38  39
ENDBRANCH  30  33
ENDBRANCH  28  29
ENDBRANCH  27  28
ENDBRANCH   1  27
TORSDOF 18
ENDMDL
MODEL 3
REMARK VINA RESULT:     -11.5      6.335     11.494
REMARK SMILES CC[C@](C)(NC(=O)N1CC[C@@H]([NH+]2CCCCC2)C1)C(=O)NCCCCNC(=O)c1ccc(-c2c3nc(c(-c4cccc(S(=O)(=O)[O-])c4F)c4ccc([nH]4)c(-c4cccc(S(=O)(=O)[O-])c4F)c4nc(c(-c5cccc(S(=O)(=O)[O-])c5F)c5ccc2[nH]5)C=C4)C=C3)cc1
REMARK SMILES IDX 23 1 22 2 21 3 19 4 20 5 3 7 4 8 2 9 1 10 5 11 6 12 7 14
REMARK SMILES IDX 8 15 9 16 18 17 10 18 11 19 12 20 13 21 17 22 14 24 16 25
REMARK SMILES IDX 15 26 24 27 25 28 26 29 27 30 28 32 29 33 30 34 91 35 31 36
REMARK SMILES IDX 90 37 32 38 33 39 34 40 84 41 35 42 89 43 83 44 85 45 36 46
REMARK SMILES IDX 88 47 82 48 81 49 37 51 69 52 49 53 68 54 50 55 53 56 67 57
REMARK SMILES IDX 86 58 51 59 52 60 66 62 87 63 54 64 38 65 39 66 47 67 40 68
REMARK SMILES IDX 42 69 48 70 41 71 43 72 44 73 45 74 46 75 70 76 71 77 79 78
REMARK SMILES IDX 72 79 74 80 80 81 73 82 75 83 76 84 77 85 78 86 55 87 56 88
REMARK SMILES IDX 64 89 57 90 59 91 65 92 58 93 60 94 61 95 62 96 63 97
REMARK H PARENT 21 6 5 13 12 23 26 31 85 50 53 61
REMARK Flexibility Score: inf
ROOT
ATOM      1  C   UNL A   1      31.755  30.413  26.623  1.00  0.00     0.023 C 
ENDROOT
BRANCH   1   2
ATOM      2  C   UNL A   1      31.473  29.788  25.258  1.00  0.00     0.116 C 
BRANCH   2   3
ATOM      3  N   UNL A   1      32.578  29.240  24.482  1.00  0.00    -0.354 N 
ATOM      4  C   UNL A   1      32.642  28.494  23.333  1.00  0.00     0.245 C 
ATOM      5  O   UNL A   1      33.658  28.663  22.643  1.00  0.00    -0.272 OA
ATOM      6  H   UNL A   1      33.462  29.449  24.861  1.00  0.00     0.163 HD
BRANCH   4   7
ATOM      7  C   UNL A   1      31.502  27.544  22.835  1.00  0.00     0.117 C 
ATOM      8  C   UNL A   1      30.133  28.214  22.552  1.00  0.00     0.045 C 
BRANCH   7   9
ATOM      9  C   UNL A   1      31.240  26.546  24.012  1.00  0.00     0.035 C 
ATOM     10  C   UNL A   1      29.766  26.448  24.434  1.00  0.00     0.007 C 
ENDBRANCH   7   9
BRANCH   7  11
ATOM     11  N   UNL A   1      31.919  26.837  21.604  1.00  0.00    -0.324 N 
ATOM     12  C   UNL A   1      32.765  25.808  21.331  1.00  0.00     0.318 C 
ATOM     13  H   UNL A   1      31.483  27.193  20.796  1.00  0.00     0.166 HD
ATOM     14  O   UNL A   1      33.054  25.671  20.137  1.00  0.00    -0.249 OA
BRANCH  12  15
ATOM     15  N   UNL A   1      33.242  24.952  22.277  1.00  0.00    -0.319 N 
ATOM     16  C   UNL A   1      34.006  25.190  23.476  1.00  0.00     0.128 C 
ATOM     17  C   UNL A   1      32.966  23.505  22.197  1.00  0.00     0.186 C 
ATOM     18  C   UNL A   1      34.677  23.885  23.807  1.00  0.00     0.088 C 
ATOM     19  C   UNL A   1      33.612  22.848  23.466  1.00  0.00     0.205 C 
BRANCH  19  20
ATOM     20  N   UNL A   1      32.790  22.420  24.604  1.00  0.00    -0.331 N 
ATOM     21  C   UNL A   1      31.958  23.320  25.373  1.00  0.00     0.262 C 
ATOM     22  C   UNL A   1      33.261  21.277  25.391  1.00  0.00     0.262 C 
ATOM     23  H   UNL A   1      32.087  22.111  23.933  1.00  0.00     0.348 HD
ATOM     24  C   UNL A   1      32.599  23.792  26.678  1.00  0.00     0.062 C 
ATOM     25  C   UNL A   1      33.943  21.659  26.712  1.00  0.00     0.062 C 
ATOM     26  C   UNL A   1      33.137  22.655  27.530  1.00  0.00     0.012 C 
ENDBRANCH  19  20
ENDBRANCH  12  15
ENDBRANCH   7  11
ENDBRANCH   4   7
ENDBRANCH   2   3
ENDBRANCH   1   2
BRANCH   1  27
ATOM     27  C   UNL A   1      31.600  31.923  26.776  1.00  0.00     0.023 C 
BRANCH  27  28
ATOM     28  C   UNL A   1      32.835  32.757  27.095  1.00  0.00     0.116 C 
BRANCH  28  29
ATOM     29  N   UNL A   1      32.571  34.094  27.578  1.00  0.00    -0.352 N 
ATOM     30  C   UNL A   1      33.136  34.726  28.668  1.00  0.00     0.251 C 
ATOM     31  H   UNL A   1      31.909  34.616  27.070  1.00  0.00     0.163 HD
ATOM     32  O   UNL A   1      32.701  35.821  29.019  1.00  0.00    -0.269 OA
BRANCH  30  33
ATOM     33  C   UNL A   1      34.244  34.094  29.445  1.00  0.00     0.039 A 
ATOM     34  C   UNL A   1      35.564  34.372  29.071  1.00  0.00     0.014 A 
ATOM     35  C   UNL A   1      34.009  33.197  30.492  1.00  0.00     0.014 A 
ATOM     36  C   UNL A   1      36.636  33.777  29.753  1.00  0.00     0.010 A 
ATOM     37  C   UNL A   1      35.083  32.644  31.207  1.00  0.00     0.010 A 
ATOM     38  C   UNL A   1      36.410  32.911  30.836  1.00  0.00    -0.014 A 
BRANCH  38  39
ATOM     39  C   UNL A   1      37.557  32.278  31.555  1.00  0.00     0.031 A 
ATOM     40  C   UNL A   1      38.337  31.148  30.929  1.00  0.00     0.074 A 
ATOM     41  C   UNL A   1      37.901  32.703  32.789  1.00  0.00     0.049 A 
ATOM     42  N   UNL A   1      39.381  30.506  31.392  1.00  0.00    -0.248 NA
ATOM     43  C   UNL A   1      37.876  30.664  29.618  1.00  0.00     0.031 C 
ATOM     44  C   UNL A   1      37.204  33.740  33.548  1.00  0.00     0.029 A 
ATOM     45  N   UNL A   1      38.915  32.301  33.628  1.00  0.00    -0.354 N 
ATOM     46  C   UNL A   1      39.690  29.535  30.445  1.00  0.00     0.074 A 
ATOM     47  C   UNL A   1      38.699  29.648  29.397  1.00  0.00     0.031 C 
ATOM     48  C   UNL A   1      37.811  33.898  34.736  1.00  0.00     0.029 A 
ATOM     49  C   UNL A   1      38.925  32.958  34.838  1.00  0.00     0.049 A 
ATOM     50  H   UNL A   1      39.571  31.609  33.387  1.00  0.00     0.167 HD
ATOM     51  C   UNL A   1      40.716  28.650  30.429  1.00  0.00     0.034 A 
ATOM     52  C   UNL A   1      39.732  32.821  35.910  1.00  0.00     0.034 A 
ATOM     53  C   UNL A   1      41.722  28.547  31.454  1.00  0.00     0.049 A 
ATOM     54  C   UNL A   1      40.874  31.841  35.863  1.00  0.00     0.074 A 
ATOM     55  C   UNL A   1      42.840  27.729  31.484  1.00  0.00     0.029 A 
ATOM     56  N   UNL A   1      41.730  29.271  32.636  1.00  0.00    -0.354 N 
ATOM     57  N   UNL A   1      41.238  31.044  34.889  1.00  0.00    -0.248 NA
ATOM     58  C   UNL A   1      41.742  31.771  37.050  1.00  0.00     0.031 C 
ATOM     59  C   UNL A   1      43.504  27.936  32.697  1.00  0.00     0.029 A 
ATOM     60  C   UNL A   1      42.822  28.909  33.407  1.00  0.00     0.049 A 
ATOM     61  H   UNL A   1      41.058  29.945  32.889  1.00  0.00     0.167 HD
ATOM     62  C   UNL A   1      42.393  30.403  35.330  1.00  0.00     0.074 A 
ATOM     63  C   UNL A   1      42.681  30.924  36.650  1.00  0.00     0.031 C 
ATOM     64  C   UNL A   1      43.137  29.461  34.700  1.00  0.00     0.034 A 
BRANCH  51  65
ATOM     65  C   UNL A   1      40.836  27.738  29.232  1.00  0.00     0.023 A 
ATOM     66  C   UNL A   1      40.045  26.573  29.162  1.00  0.00     0.012 A 
ATOM     67  C   UNL A   1      41.677  28.066  28.148  1.00  0.00     0.148 A 
ATOM     68  C   UNL A   1      40.117  25.729  28.055  1.00  0.00     0.002 A 
ATOM     69  C   UNL A   1      41.708  27.243  27.028  1.00  0.00     0.091 A 
ATOM     70  F   UNL A   1      42.433  29.170  28.235  1.00  0.00    -0.205 F 
ATOM     71  C   UNL A   1      40.939  26.069  26.985  1.00  0.00     0.022 A 
BRANCH  69  72
ATOM     72  S   UNL A   1      42.672  27.634  25.563  1.00  0.00     0.127 S 
ATOM     73  O   UNL A   1      42.430  26.457  24.728  1.00  0.00    -0.237 OA
ATOM     74  O   UNL A   1      42.030  28.860  25.089  1.00  0.00    -0.237 OA
ATOM     75  O   UNL A   1      44.045  27.804  26.019  1.00  0.00    -0.744 OA
ENDBRANCH  69  72
ENDBRANCH  51  65
BRANCH  52  76
ATOM     76  C   UNL A   1      39.514  33.671  37.117  1.00  0.00     0.023 A 
ATOM     77  C   UNL A   1      40.021  34.984  37.148  1.00  0.00     0.012 A 
ATOM     78  C   UNL A   1      38.792  33.187  38.224  1.00  0.00     0.148 A 
ATOM     79  C   UNL A   1      39.842  35.790  38.275  1.00  0.00     0.002 A 
ATOM     80  C   UNL A   1      38.566  34.012  39.319  1.00  0.00     0.091 A 
ATOM     81  F   UNL A   1      38.331  31.929  38.180  1.00  0.00    -0.205 F 
ATOM     82  C   UNL A   1      39.106  35.307  39.354  1.00  0.00     0.022 A 
BRANCH  80  83
ATOM     83  S   UNL A   1      37.525  33.524  40.697  1.00  0.00     0.127 S 
ATOM     84  O   UNL A   1      36.335  33.028  40.013  1.00  0.00    -0.237 OA
ATOM     85  O   UNL A   1      38.342  32.496  41.342  1.00  0.00    -0.237 OA
ATOM     86  O   UNL A   1      37.337  34.731  41.495  1.00  0.00    -0.744 OA
ENDBRANCH  80  83
ENDBRANCH  52  76
BRANCH  64  87
ATOM     87  C   UNL A   1      44.367  28.946  35.406  1.00  0.00     0.023 A 
ATOM     88  C   UNL A   1      45.621  29.540  35.161  1.00  0.00     0.012 A 
ATOM     89  C   UNL A   1      44.267  27.918  36.365  1.00  0.00     0.148 A 
ATOM     90  C   UNL A   1      46.761  29.097  35.834  1.00  0.00     0.002 A 
ATOM     91  C   UNL A   1      45.397  27.516  37.068  1.00  0.00     0.091 A 
ATOM     92  F   UNL A   1      43.069  27.352  36.573  1.00  0.00    -0.205 F 
ATOM     93  C   UNL A   1      46.646  28.095  36.795  1.00  0.00     0.022 A 
BRANCH  91  94
ATOM     94  S   UNL A   1      45.331  26.301  38.390  1.00  0.00     0.127 S 
ATOM     95  O   UNL A   1      44.096  26.675  39.078  1.00  0.00    -0.237 OA
ATOM     96  O   UNL A   1      45.259  25.041  37.651  1.00  0.00    -0.237 OA
ATOM     97  O   UNL A   1      46.553  26.481  39.163  1.00  0.00    -0.744 OA
ENDBRANCH  91  94
ENDBRANCH  64  87
ENDBRANCH  38  39
ENDBRANCH  30  33
ENDBRANCH  28  29
ENDBRANCH  27  28
ENDBRANCH   1  27
TORSDOF 18
ENDMDL
