MODEL 1
REMARK VINA RESULT:     -12.4      0.000      0.000
REMARK SMILES Cc1cc(C)c2c(CCCC(=O)NCCCCNC(=O)c3ccc(-c4c5nc(c(-c6cccc(S(=O)(=O)[O-])c6F)c6ccc([nH]6)c(-c6cccc(S(=O)(=O)[O-])c6F)c6nc(c(-c7cccc(S(=O)(=O)[O-])c7F)c7ccc4[nH]7)C=C6)C=C5)cc3)c(-c3ccccn3)[nH]c2c1
REMARK SMILES IDX 15 1 14 2 13 3 11 4 12 5 10 7 9 8 8 9 7 10 1 11 2 12 3 13
REMARK SMILES IDX 93 14 4 15 92 16 5 17 6 18 91 19 84 20 85 22 86 23 90 24
REMARK SMILES IDX 87 25 89 26 88 27 16 28 17 29 18 30 19 31 20 33 21 34 22 35
REMARK SMILES IDX 83 36 23 37 82 38 24 39 25 40 26 41 76 42 27 43 81 44 75 45
REMARK SMILES IDX 77 46 28 47 80 48 74 49 73 50 29 52 61 53 41 54 60 55 42 56
REMARK SMILES IDX 45 57 59 58 78 59 43 60 44 61 58 63 79 64 46 65 30 66 31 67
REMARK SMILES IDX 39 68 32 69 34 70 40 71 33 72 35 73 36 74 37 75 38 76 62 77
REMARK SMILES IDX 63 78 71 79 64 80 66 81 72 82 65 83 67 84 68 85 69 86 70 87
REMARK SMILES IDX 47 88 48 89 56 90 49 91 51 92 57 93 50 94 52 95 53 96 54 97
REMARK SMILES IDX 55 98
REMARK H PARENT 13 6 91 21 18 32 77 51 45 62
REMARK Flexibility Score: inf
ROOT
ATOM      1  C   UNL A   1      36.826  20.431  25.157  1.00  0.00     0.023 C 
ENDROOT
BRANCH   1   2
ATOM      2  C   UNL A   1      36.801  21.888  25.634  1.00  0.00     0.116 C 
BRANCH   2   3
ATOM      3  N   UNL A   1      35.636  22.158  26.447  1.00  0.00    -0.356 N 
ATOM      4  C   UNL A   1      34.796  23.227  26.478  1.00  0.00     0.220 C 
ATOM      5  O   UNL A   1      33.931  23.240  27.359  1.00  0.00    -0.275 OA
ATOM      6  H   UNL A   1      35.412  21.445  27.088  1.00  0.00     0.163 HD
BRANCH   4   7
ATOM      7  C   UNL A   1      34.821  24.317  25.424  1.00  0.00     0.100 C 
BRANCH   7   8
ATOM      8  C   UNL A   1      34.208  25.685  25.668  1.00  0.00     0.015 C 
BRANCH   8   9
ATOM      9  C   UNL A   1      33.310  26.348  24.635  1.00  0.00     0.039 C 
BRANCH   9  10
ATOM     10  C   UNL A   1      31.854  26.000  24.380  1.00  0.00    -0.013 A 
ATOM     11  C   UNL A   1      27.365  29.308  22.915  1.00  0.00     0.044 C 
ATOM     12  C   UNL A   1      28.583  28.497  23.248  1.00  0.00    -0.049 A 
ATOM     13  C   UNL A   1      29.829  29.122  23.301  1.00  0.00     0.007 A 
ATOM     14  C   UNL A   1      28.487  27.127  23.497  1.00  0.00     0.030 A 
ATOM     15  C   UNL A   1      31.014  28.420  23.621  1.00  0.00    -0.041 A 
ATOM     16  C   UNL A   1      29.655  26.436  23.843  1.00  0.00     0.047 A 
ATOM     17  C   UNL A   1      32.306  29.192  23.561  1.00  0.00     0.045 C 
ATOM     18  C   UNL A   1      30.907  27.036  23.953  1.00  0.00     0.006 A 
ATOM     19  N   UNL A   1      29.825  25.104  24.103  1.00  0.00    -0.353 N 
ATOM     20  C   UNL A   1      31.148  24.790  24.311  1.00  0.00     0.068 A 
ATOM     21  H   UNL A   1      29.090  24.450  24.137  1.00  0.00     0.167 HD
BRANCH  20  22
ATOM     22  C   UNL A   1      31.501  23.371  24.291  1.00  0.00     0.087 A 
ATOM     23  C   UNL A   1      32.081  22.809  23.149  1.00  0.00     0.030 A 
ATOM     24  N   UNL A   1      31.227  22.666  25.407  1.00  0.00    -0.255 NA
ATOM     25  C   UNL A   1      32.505  21.485  23.194  1.00  0.00     0.004 A 
ATOM     26  C   UNL A   1      31.655  21.374  25.414  1.00  0.00     0.112 A 
ATOM     27  C   UNL A   1      32.312  20.758  24.359  1.00  0.00     0.020 A 
ENDBRANCH  20  22
ENDBRANCH   9  10
ENDBRANCH   8   9
ENDBRANCH   7   8
ENDBRANCH   4   7
ENDBRANCH   2   3
ENDBRANCH   1   2
BRANCH   1  28
ATOM     28  C   UNL A   1      38.211  19.932  24.738  1.00  0.00     0.023 C 
BRANCH  28  29
ATOM     29  C   UNL A   1      39.272  20.141  25.812  1.00  0.00     0.116 C 
BRANCH  29  30
ATOM     30  N   UNL A   1      40.337  19.140  25.760  1.00  0.00    -0.352 N 
ATOM     31  C   UNL A   1      41.698  19.363  25.898  1.00  0.00     0.251 C 
ATOM     32  H   UNL A   1      40.058  18.208  25.610  1.00  0.00     0.163 HD
ATOM     33  O   UNL A   1      42.521  18.565  25.506  1.00  0.00    -0.269 OA
BRANCH  31  34
ATOM     34  C   UNL A   1      42.109  20.627  26.540  1.00  0.00     0.039 A 
ATOM     35  C   UNL A   1      42.427  21.745  25.768  1.00  0.00     0.014 A 
ATOM     36  C   UNL A   1      42.065  20.694  27.932  1.00  0.00     0.014 A 
ATOM     37  C   UNL A   1      42.610  22.969  26.406  1.00  0.00     0.010 A 
ATOM     38  C   UNL A   1      42.143  21.924  28.549  1.00  0.00     0.010 A 
ATOM     39  C   UNL A   1      42.439  23.062  27.797  1.00  0.00    -0.014 A 
BRANCH  39  40
ATOM     40  C   UNL A   1      42.470  24.375  28.446  1.00  0.00     0.031 A 
ATOM     41  C   UNL A   1      41.264  25.239  28.262  1.00  0.00     0.074 A 
ATOM     42  C   UNL A   1      43.421  24.737  29.333  1.00  0.00     0.049 A 
ATOM     43  N   UNL A   1      41.199  26.389  27.675  1.00  0.00    -0.248 NA
ATOM     44  C   UNL A   1      39.964  24.734  28.724  1.00  0.00     0.031 C 
ATOM     45  C   UNL A   1      44.494  23.911  29.900  1.00  0.00     0.029 A 
ATOM     46  N   UNL A   1      43.529  25.899  30.034  1.00  0.00    -0.354 N 
ATOM     47  C   UNL A   1      39.891  26.845  27.853  1.00  0.00     0.074 A 
ATOM     48  C   UNL A   1      39.146  25.731  28.379  1.00  0.00     0.031 C 
ATOM     49  C   UNL A   1      44.948  24.490  31.033  1.00  0.00     0.029 A 
ATOM     50  C   UNL A   1      44.342  25.800  31.156  1.00  0.00     0.049 A 
ATOM     51  H   UNL A   1      43.072  26.731  29.772  1.00  0.00     0.167 HD
ATOM     52  C   UNL A   1      39.559  28.162  27.728  1.00  0.00     0.034 A 
ATOM     53  C   UNL A   1      44.460  26.715  32.145  1.00  0.00     0.034 A 
ATOM     54  C   UNL A   1      40.621  28.927  27.135  1.00  0.00     0.049 A 
ATOM     55  C   UNL A   1      44.024  28.015  31.594  1.00  0.00     0.074 A 
ATOM     56  C   UNL A   1      41.283  28.925  25.925  1.00  0.00     0.029 A 
ATOM     57  N   UNL A   1      41.391  29.674  27.989  1.00  0.00    -0.354 N 
ATOM     58  N   UNL A   1      44.659  28.653  30.651  1.00  0.00    -0.248 NA
ATOM     59  C   UNL A   1      42.665  28.461  31.846  1.00  0.00     0.031 C 
ATOM     60  C   UNL A   1      42.629  29.273  26.244  1.00  0.00     0.029 A 
ATOM     61  C   UNL A   1      42.698  29.503  27.620  1.00  0.00     0.049 A 
ATOM     62  H   UNL A   1      41.065  30.231  28.733  1.00  0.00     0.167 HD
ATOM     63  C   UNL A   1      43.656  29.249  29.902  1.00  0.00     0.074 A 
ATOM     64  C   UNL A   1      42.478  29.222  30.766  1.00  0.00     0.031 C 
ATOM     65  C   UNL A   1      43.800  29.440  28.557  1.00  0.00     0.034 A 
BRANCH  52  66
ATOM     66  C   UNL A   1      38.399  28.858  28.405  1.00  0.00     0.023 A 
ATOM     67  C   UNL A   1      37.500  29.584  27.586  1.00  0.00     0.012 A 
ATOM     68  C   UNL A   1      38.293  29.051  29.798  1.00  0.00     0.148 A 
ATOM     69  C   UNL A   1      36.568  30.478  28.125  1.00  0.00     0.002 A 
ATOM     70  C   UNL A   1      37.308  29.878  30.334  1.00  0.00     0.091 A 
ATOM     71  F   UNL A   1      39.225  28.544  30.611  1.00  0.00    -0.205 F 
ATOM     72  C   UNL A   1      36.463  30.616  29.502  1.00  0.00     0.022 A 
BRANCH  70  73
ATOM     73  S   UNL A   1      37.079  30.038  32.109  1.00  0.00     0.127 S 
ATOM     74  O   UNL A   1      38.232  30.851  32.483  1.00  0.00    -0.237 OA
ATOM     75  O   UNL A   1      35.787  30.723  32.185  1.00  0.00    -0.237 OA
ATOM     76  O   UNL A   1      37.058  28.673  32.617  1.00  0.00    -0.744 OA
ENDBRANCH  70  73
ENDBRANCH  52  66
BRANCH  53  77
ATOM     77  C   UNL A   1      44.650  26.507  33.598  1.00  0.00     0.023 A 
ATOM     78  C   UNL A   1      45.865  26.905  34.189  1.00  0.00     0.012 A 
ATOM     79  C   UNL A   1      43.550  26.233  34.440  1.00  0.00     0.148 A 
ATOM     80  C   UNL A   1      45.964  27.090  35.572  1.00  0.00     0.002 A 
ATOM     81  C   UNL A   1      43.652  26.421  35.814  1.00  0.00     0.091 A 
ATOM     82  F   UNL A   1      42.379  25.887  33.886  1.00  0.00    -0.205 F 
ATOM     83  C   UNL A   1      44.853  26.865  36.382  1.00  0.00     0.022 A 
BRANCH  81  84
ATOM     84  S   UNL A   1      42.245  26.205  36.913  1.00  0.00     0.127 S 
ATOM     85  O   UNL A   1      42.841  26.455  38.225  1.00  0.00    -0.237 OA
ATOM     86  O   UNL A   1      41.334  27.244  36.442  1.00  0.00    -0.237 OA
ATOM     87  O   UNL A   1      41.790  24.833  36.715  1.00  0.00    -0.744 OA
ENDBRANCH  81  84
ENDBRANCH  53  77
BRANCH  65  88
ATOM     88  C   UNL A   1      45.176  29.279  27.956  1.00  0.00     0.023 A 
ATOM     89  C   UNL A   1      46.127  30.321  27.958  1.00  0.00     0.012 A 
ATOM     90  C   UNL A   1      45.580  27.998  27.543  1.00  0.00     0.148 A 
ATOM     91  C   UNL A   1      47.439  30.097  27.534  1.00  0.00     0.002 A 
ATOM     92  C   UNL A   1      46.900  27.766  27.174  1.00  0.00     0.091 A 
ATOM     93  F   UNL A   1      44.668  27.012  27.546  1.00  0.00    -0.205 F 
ATOM     94  C   UNL A   1      47.830  28.816  27.156  1.00  0.00     0.022 A 
BRANCH  92  95
ATOM     95  S   UNL A   1      47.492  26.109  26.819  1.00  0.00     0.127 S 
ATOM     96  O   UNL A   1      48.885  26.353  26.452  1.00  0.00    -0.237 OA
ATOM     97  O   UNL A   1      47.307  25.424  28.100  1.00  0.00    -0.237 OA
ATOM     98  O   UNL A   1      46.636  25.605  25.751  1.00  0.00    -0.744 OA
ENDBRANCH  92  95
ENDBRANCH  65  88
ENDBRANCH  39  40
ENDBRANCH  31  34
ENDBRANCH  29  30
ENDBRANCH  28  29
ENDBRANCH   1  28
TORSDOF 18
ENDMDL
MODEL 2
REMARK VINA RESULT:     -12.3      3.817      9.398
REMARK SMILES Cc1cc(C)c2c(CCCC(=O)NCCCCNC(=O)c3ccc(-c4c5nc(c(-c6cccc(S(=O)(=O)[O-])c6F)c6ccc([nH]6)c(-c6cccc(S(=O)(=O)[O-])c6F)c6nc(c(-c7cccc(S(=O)(=O)[O-])c7F)c7ccc4[nH]7)C=C6)C=C5)cc3)c(-c3ccccn3)[nH]c2c1
REMARK SMILES IDX 15 1 14 2 13 3 11 4 12 5 10 7 9 8 8 9 7 10 1 11 2 12 3 13
REMARK SMILES IDX 93 14 4 15 92 16 5 17 6 18 91 19 84 20 85 22 86 23 90 24
REMARK SMILES IDX 87 25 89 26 88 27 16 28 17 29 18 30 19 31 20 33 21 34 22 35
REMARK SMILES IDX 83 36 23 37 82 38 24 39 25 40 26 41 76 42 27 43 81 44 75 45
REMARK SMILES IDX 77 46 28 47 80 48 74 49 73 50 29 52 61 53 41 54 60 55 42 56
REMARK SMILES IDX 45 57 59 58 78 59 43 60 44 61 58 63 79 64 46 65 30 66 31 67
REMARK SMILES IDX 39 68 32 69 34 70 40 71 33 72 35 73 36 74 37 75 38 76 62 77
REMARK SMILES IDX 63 78 71 79 64 80 66 81 72 82 65 83 67 84 68 85 69 86 70 87
REMARK SMILES IDX 47 88 48 89 56 90 49 91 51 92 57 93 50 94 52 95 53 96 54 97
REMARK SMILES IDX 55 98
REMARK H PARENT 13 6 91 21 18 32 77 51 45 62
REMARK Flexibility Score: inf
ROOT
ATOM      1  C   UNL A   1      31.842  30.358  26.100  1.00  0.00     0.023 C 
ENDROOT
BRANCH   1   2
ATOM      2  C   UNL A   1      32.523  29.517  27.186  1.00  0.00     0.116 C 
BRANCH   2   3
ATOM      3  N   UNL A   1      31.903  28.217  27.313  1.00  0.00    -0.356 N 
ATOM      4  C   UNL A   1      32.123  27.053  26.645  1.00  0.00     0.220 C 
ATOM      5  O   UNL A   1      31.363  26.110  26.888  1.00  0.00    -0.275 OA
ATOM      6  H   UNL A   1      31.201  28.165  28.002  1.00  0.00     0.163 HD
BRANCH   4   7
ATOM      7  C   UNL A   1      33.306  26.854  25.717  1.00  0.00     0.100 C 
BRANCH   7   8
ATOM      8  C   UNL A   1      34.095  25.556  25.689  1.00  0.00     0.015 C 
BRANCH   8   9
ATOM      9  C   UNL A   1      33.399  24.206  25.631  1.00  0.00     0.039 C 
BRANCH   9  10
ATOM     10  C   UNL A   1      32.716  23.620  24.407  1.00  0.00    -0.013 A 
ATOM     11  C   UNL A   1      32.374  18.192  22.492  1.00  0.00     0.044 C 
ATOM     12  C   UNL A   1      32.459  19.573  23.070  1.00  0.00    -0.049 A 
ATOM     13  C   UNL A   1      33.080  19.763  24.306  1.00  0.00     0.007 A 
ATOM     14  C   UNL A   1      31.920  20.670  22.394  1.00  0.00     0.030 A 
ATOM     15  C   UNL A   1      33.207  21.039  24.900  1.00  0.00    -0.041 A 
ATOM     16  C   UNL A   1      32.069  21.938  22.968  1.00  0.00     0.047 A 
ATOM     17  C   UNL A   1      33.821  21.098  26.275  1.00  0.00     0.045 C 
ATOM     18  C   UNL A   1      32.726  22.171  24.174  1.00  0.00     0.006 A 
ATOM     19  N   UNL A   1      31.612  23.147  22.522  1.00  0.00    -0.353 N 
ATOM     20  C   UNL A   1      31.878  24.156  23.418  1.00  0.00     0.068 A 
ATOM     21  H   UNL A   1      31.148  23.279  21.664  1.00  0.00     0.167 HD
BRANCH  20  22
ATOM     22  C   UNL A   1      31.179  25.424  23.213  1.00  0.00     0.087 A 
ATOM     23  C   UNL A   1      29.936  25.645  23.812  1.00  0.00     0.030 A 
ATOM     24  N   UNL A   1      31.793  26.328  22.421  1.00  0.00    -0.255 NA
ATOM     25  C   UNL A   1      29.343  26.896  23.689  1.00  0.00     0.004 A 
ATOM     26  C   UNL A   1      31.183  27.542  22.323  1.00  0.00     0.112 A 
ATOM     27  C   UNL A   1      29.992  27.875  22.950  1.00  0.00     0.020 A 
ENDBRANCH  20  22
ENDBRANCH   9  10
ENDBRANCH   8   9
ENDBRANCH   7   8
ENDBRANCH   4   7
ENDBRANCH   2   3
ENDBRANCH   1   2
BRANCH   1  28
ATOM     28  C   UNL A   1      31.506  31.787  26.533  1.00  0.00     0.023 C 
BRANCH  28  29
ATOM     29  C   UNL A   1      32.661  32.486  27.240  1.00  0.00     0.116 C 
BRANCH  29  30
ATOM     30  N   UNL A   1      32.337  33.854  27.641  1.00  0.00    -0.352 N 
ATOM     31  C   UNL A   1      32.963  34.607  28.622  1.00  0.00     0.251 C 
ATOM     32  H   UNL A   1      31.593  34.289  27.163  1.00  0.00     0.163 HD
ATOM     33  O   UNL A   1      32.433  35.572  29.125  1.00  0.00    -0.269 OA
BRANCH  31  34
ATOM     34  C   UNL A   1      34.312  34.174  29.040  1.00  0.00     0.039 A 
ATOM     35  C   UNL A   1      34.480  33.352  30.154  1.00  0.00     0.014 A 
ATOM     36  C   UNL A   1      35.388  34.528  28.227  1.00  0.00     0.014 A 
ATOM     37  C   UNL A   1      35.737  32.801  30.394  1.00  0.00     0.010 A 
ATOM     38  C   UNL A   1      36.602  33.900  28.408  1.00  0.00     0.010 A 
ATOM     39  C   UNL A   1      36.792  33.054  29.502  1.00  0.00    -0.014 A 
BRANCH  39  40
ATOM     40  C   UNL A   1      38.064  32.348  29.664  1.00  0.00     0.031 A 
ATOM     41  C   UNL A   1      38.118  30.944  29.152  1.00  0.00     0.074 A 
ATOM     42  C   UNL A   1      39.202  32.958  30.058  1.00  0.00     0.049 A 
ATOM     43  N   UNL A   1      38.317  29.862  29.832  1.00  0.00    -0.248 NA
ATOM     44  C   UNL A   1      37.851  30.709  27.726  1.00  0.00     0.031 C 
ATOM     45  C   UNL A   1      39.433  34.391  30.279  1.00  0.00     0.029 A 
ATOM     46  N   UNL A   1      40.447  32.424  30.195  1.00  0.00    -0.354 N 
ATOM     47  C   UNL A   1      38.387  28.824  28.902  1.00  0.00     0.074 A 
ATOM     48  C   UNL A   1      37.956  29.380  27.645  1.00  0.00     0.031 C 
ATOM     49  C   UNL A   1      40.760  34.638  30.242  1.00  0.00     0.029 A 
ATOM     50  C   UNL A   1      41.463  33.372  30.191  1.00  0.00     0.049 A 
ATOM     51  H   UNL A   1      40.613  31.459  30.288  1.00  0.00     0.167 HD
ATOM     52  C   UNL A   1      38.972  27.627  29.194  1.00  0.00     0.034 A 
ATOM     53  C   UNL A   1      42.790  33.126  30.094  1.00  0.00     0.034 A 
ATOM     54  C   UNL A   1      39.228  27.487  30.601  1.00  0.00     0.049 A 
ATOM     55  C   UNL A   1      43.009  31.729  30.526  1.00  0.00     0.074 A 
ATOM     56  C   UNL A   1      38.461  27.452  31.746  1.00  0.00     0.029 A 
ATOM     57  N   UNL A   1      40.519  27.700  31.014  1.00  0.00    -0.354 N 
ATOM     58  N   UNL A   1      42.813  31.307  31.744  1.00  0.00    -0.248 NA
ATOM     59  C   UNL A   1      43.118  30.693  29.514  1.00  0.00     0.031 C 
ATOM     60  C   UNL A   1      39.252  28.104  32.738  1.00  0.00     0.029 A 
ATOM     61  C   UNL A   1      40.466  28.463  32.149  1.00  0.00     0.049 A 
ATOM     62  H   UNL A   1      41.334  27.365  30.575  1.00  0.00     0.167 HD
ATOM     63  C   UNL A   1      42.326  30.018  31.587  1.00  0.00     0.074 A 
ATOM     64  C   UNL A   1      42.678  29.649  30.218  1.00  0.00     0.031 C 
ATOM     65  C   UNL A   1      41.434  29.489  32.477  1.00  0.00     0.034 A 
BRANCH  52  66
ATOM     66  C   UNL A   1      39.605  26.676  28.202  1.00  0.00     0.023 A 
ATOM     67  C   UNL A   1      39.203  25.319  28.244  1.00  0.00     0.012 A 
ATOM     68  C   UNL A   1      40.739  26.984  27.422  1.00  0.00     0.148 A 
ATOM     69  C   UNL A   1      39.912  24.318  27.571  1.00  0.00     0.002 A 
ATOM     70  C   UNL A   1      41.392  25.996  26.686  1.00  0.00     0.091 A 
ATOM     71  F   UNL A   1      41.279  28.204  27.488  1.00  0.00    -0.205 F 
ATOM     72  C   UNL A   1      41.001  24.659  26.780  1.00  0.00     0.022 A 
BRANCH  70  73
ATOM     73  S   UNL A   1      42.760  26.390  25.590  1.00  0.00     0.127 S 
ATOM     74  O   UNL A   1      43.780  26.827  26.538  1.00  0.00    -0.237 OA
ATOM     75  O   UNL A   1      43.018  25.097  24.955  1.00  0.00    -0.237 OA
ATOM     76  O   UNL A   1      42.243  27.406  24.683  1.00  0.00    -0.744 OA
ENDBRANCH  70  73
ENDBRANCH  52  66
BRANCH  53  77
ATOM     77  C   UNL A   1      43.840  33.902  29.399  1.00  0.00     0.023 A 
ATOM     78  C   UNL A   1      44.802  34.587  30.166  1.00  0.00     0.012 A 
ATOM     79  C   UNL A   1      44.091  33.707  28.022  1.00  0.00     0.148 A 
ATOM     80  C   UNL A   1      46.009  35.007  29.596  1.00  0.00     0.002 A 
ATOM     81  C   UNL A   1      45.293  34.124  27.461  1.00  0.00     0.091 A 
ATOM     82  F   UNL A   1      43.198  33.027  27.289  1.00  0.00    -0.205 F 
ATOM     83  C   UNL A   1      46.261  34.760  28.249  1.00  0.00     0.022 A 
BRANCH  81  84
ATOM     84  S   UNL A   1      45.710  33.789  25.744  1.00  0.00     0.127 S 
ATOM     85  O   UNL A   1      45.623  32.330  25.688  1.00  0.00    -0.237 OA
ATOM     86  O   UNL A   1      44.649  34.497  25.034  1.00  0.00    -0.237 OA
ATOM     87  O   UNL A   1      47.057  34.315  25.549  1.00  0.00    -0.744 OA
ENDBRANCH  81  84
ENDBRANCH  53  77
BRANCH  65  88
ATOM     88  C   UNL A   1      41.226  30.205  33.790  1.00  0.00     0.023 A 
ATOM     89  C   UNL A   1      42.088  30.025  34.892  1.00  0.00     0.012 A 
ATOM     90  C   UNL A   1      40.248  31.212  33.856  1.00  0.00     0.148 A 
ATOM     91  C   UNL A   1      41.961  30.812  36.040  1.00  0.00     0.002 A 
ATOM     92  C   UNL A   1      40.160  32.030  34.976  1.00  0.00     0.091 A 
ATOM     93  F   UNL A   1      39.433  31.377  32.801  1.00  0.00    -0.205 F 
ATOM     94  C   UNL A   1      41.006  31.825  36.077  1.00  0.00     0.022 A 
BRANCH  92  95
ATOM     95  S   UNL A   1      39.050  33.439  35.018  1.00  0.00     0.127 S 
ATOM     96  O   UNL A   1      39.379  34.052  36.303  1.00  0.00    -0.237 OA
ATOM     97  O   UNL A   1      39.471  34.211  33.847  1.00  0.00    -0.237 OA
ATOM     98  O   UNL A   1      37.705  32.886  34.908  1.00  0.00    -0.744 OA
ENDBRANCH  92  95
ENDBRANCH  65  88
ENDBRANCH  39  40
ENDBRANCH  31  34
ENDBRANCH  29  30
ENDBRANCH  28  29
ENDBRANCH   1  28
TORSDOF 18
ENDMDL
MODEL 3
REMARK VINA RESULT:     -11.9      3.175      6.851
REMARK SMILES Cc1cc(C)c2c(CCCC(=O)NCCCCNC(=O)c3ccc(-c4c5nc(c(-c6cccc(S(=O)(=O)[O-])c6F)c6ccc([nH]6)c(-c6cccc(S(=O)(=O)[O-])c6F)c6nc(c(-c7cccc(S(=O)(=O)[O-])c7F)c7ccc4[nH]7)C=C6)C=C5)cc3)c(-c3ccccn3)[nH]c2c1
REMARK SMILES IDX 15 1 14 2 13 3 11 4 12 5 10 7 9 8 8 9 7 10 1 11 2 12 3 13
REMARK SMILES IDX 93 14 4 15 92 16 5 17 6 18 91 19 84 20 85 22 86 23 90 24
REMARK SMILES IDX 87 25 89 26 88 27 16 28 17 29 18 30 19 31 20 33 21 34 22 35
REMARK SMILES IDX 83 36 23 37 82 38 24 39 25 40 26 41 76 42 27 43 81 44 75 45
REMARK SMILES IDX 77 46 28 47 80 48 74 49 73 50 29 52 61 53 41 54 60 55 42 56
REMARK SMILES IDX 45 57 59 58 78 59 43 60 44 61 58 63 79 64 46 65 30 66 31 67
REMARK SMILES IDX 39 68 32 69 34 70 40 71 33 72 35 73 36 74 37 75 38 76 62 77
REMARK SMILES IDX 63 78 71 79 64 80 66 81 72 82 65 83 67 84 68 85 69 86 70 87
REMARK SMILES IDX 47 88 48 89 56 90 49 91 51 92 57 93 50 94 52 95 53 96 54 97
REMARK SMILES IDX 55 98
REMARK H PARENT 13 6 91 21 18 32 77 51 45 62
REMARK Flexibility Score: inf
ROOT
ATOM      1  C   UNL A   1      38.091  20.911  25.334  1.00  0.00     0.023 C 
ENDROOT
BRANCH   1   2
ATOM      2  C   UNL A   1      36.722  21.397  24.842  1.00  0.00     0.116 C 
BRANCH   2   3
ATOM      3  N   UNL A   1      35.863  21.763  25.947  1.00  0.00    -0.356 N 
ATOM      4  C   UNL A   1      35.177  22.908  26.204  1.00  0.00     0.220 C 
ATOM      5  O   UNL A   1      34.599  22.987  27.292  1.00  0.00    -0.275 OA
ATOM      6  H   UNL A   1      35.757  21.062  26.630  1.00  0.00     0.163 HD
BRANCH   4   7
ATOM      7  C   UNL A   1      35.017  24.013  25.178  1.00  0.00     0.100 C 
BRANCH   7   8
ATOM      8  C   UNL A   1      34.384  25.348  25.527  1.00  0.00     0.015 C 
BRANCH   8   9
ATOM      9  C   UNL A   1      33.434  26.051  24.570  1.00  0.00     0.039 C 
BRANCH   9  10
ATOM     10  C   UNL A   1      31.967  25.709  24.375  1.00  0.00    -0.013 A 
ATOM     11  C   UNL A   1      27.444  29.026  23.042  1.00  0.00     0.044 C 
ATOM     12  C   UNL A   1      28.669  28.213  23.338  1.00  0.00    -0.049 A 
ATOM     13  C   UNL A   1      29.920  28.830  23.336  1.00  0.00     0.007 A 
ATOM     14  C   UNL A   1      28.575  26.846  23.608  1.00  0.00     0.030 A 
ATOM     15  C   UNL A   1      31.112  28.125  23.619  1.00  0.00    -0.041 A 
ATOM     16  C   UNL A   1      29.751  26.152  23.917  1.00  0.00     0.047 A 
ATOM     17  C   UNL A   1      32.406  28.888  23.500  1.00  0.00     0.045 C 
ATOM     18  C   UNL A   1      31.010  26.745  23.972  1.00  0.00     0.006 A 
ATOM     19  N   UNL A   1      29.924  24.822  24.186  1.00  0.00    -0.353 N 
ATOM     20  C   UNL A   1      31.252  24.502  24.348  1.00  0.00     0.068 A 
ATOM     21  H   UNL A   1      29.187  24.173  24.257  1.00  0.00     0.167 HD
BRANCH  20  22
ATOM     22  C   UNL A   1      31.596  23.081  24.332  1.00  0.00     0.087 A 
ATOM     23  C   UNL A   1      31.916  22.451  23.125  1.00  0.00     0.030 A 
ATOM     24  N   UNL A   1      31.572  22.442  25.519  1.00  0.00    -0.255 NA
ATOM     25  C   UNL A   1      32.344  21.128  23.151  1.00  0.00     0.004 A 
ATOM     26  C   UNL A   1      31.995  21.148  25.506  1.00  0.00     0.112 A 
ATOM     27  C   UNL A   1      32.409  20.469  24.370  1.00  0.00     0.020 A 
ENDBRANCH  20  22
ENDBRANCH   9  10
ENDBRANCH   8   9
ENDBRANCH   7   8
ENDBRANCH   4   7
ENDBRANCH   2   3
ENDBRANCH   1   2
BRANCH   1  28
ATOM     28  C   UNL A   1      38.924  21.986  26.036  1.00  0.00     0.023 C 
BRANCH  28  29
ATOM     29  C   UNL A   1      40.137  21.422  26.766  1.00  0.00     0.116 C 
BRANCH  29  30
ATOM     30  N   UNL A   1      41.382  21.600  26.020  1.00  0.00    -0.352 N 
ATOM     31  C   UNL A   1      42.045  22.793  25.776  1.00  0.00     0.251 C 
ATOM     32  H   UNL A   1      41.794  20.786  25.650  1.00  0.00     0.163 HD
ATOM     33  O   UNL A   1      42.855  22.904  24.883  1.00  0.00    -0.269 OA
BRANCH  31  34
ATOM     34  C   UNL A   1      41.714  23.934  26.652  1.00  0.00     0.039 A 
ATOM     35  C   UNL A   1      42.311  24.064  27.906  1.00  0.00     0.014 A 
ATOM     36  C   UNL A   1      40.873  24.923  26.141  1.00  0.00     0.014 A 
ATOM     37  C   UNL A   1      42.132  25.251  28.613  1.00  0.00     0.010 A 
ATOM     38  C   UNL A   1      40.784  26.133  26.794  1.00  0.00     0.010 A 
ATOM     39  C   UNL A   1      41.390  26.297  28.041  1.00  0.00    -0.014 A 
BRANCH  39  40
ATOM     40  C   UNL A   1      41.338  27.599  28.709  1.00  0.00     0.031 A 
ATOM     41  C   UNL A   1      42.271  28.650  28.198  1.00  0.00     0.074 A 
ATOM     42  C   UNL A   1      40.380  27.935  29.599  1.00  0.00     0.049 A 
ATOM     43  N   UNL A   1      43.238  29.226  28.835  1.00  0.00    -0.248 NA
ATOM     44  C   UNL A   1      42.162  29.058  26.790  1.00  0.00     0.031 C 
ATOM     45  C   UNL A   1      39.186  27.169  29.977  1.00  0.00     0.029 A 
ATOM     46  N   UNL A   1      40.197  29.121  30.243  1.00  0.00    -0.354 N 
ATOM     47  C   UNL A   1      43.743  30.204  27.977  1.00  0.00     0.074 A 
ATOM     48  C   UNL A   1      43.140  29.961  26.692  1.00  0.00     0.031 C 
ATOM     49  C   UNL A   1      38.286  28.001  30.544  1.00  0.00     0.029 A 
ATOM     50  C   UNL A   1      38.911  29.293  30.739  1.00  0.00     0.049 A 
ATOM     51  H   UNL A   1      40.908  29.793  30.346  1.00  0.00     0.167 HD
ATOM     52  C   UNL A   1      44.481  31.257  28.431  1.00  0.00     0.034 A 
ATOM     53  C   UNL A   1      38.386  30.440  31.226  1.00  0.00     0.034 A 
ATOM     54  C   UNL A   1      44.889  31.074  29.797  1.00  0.00     0.049 A 
ATOM     55  C   UNL A   1      39.516  31.302  31.633  1.00  0.00     0.074 A 
ATOM     56  C   UNL A   1      45.668  30.165  30.481  1.00  0.00     0.029 A 
ATOM     57  N   UNL A   1      44.173  31.754  30.749  1.00  0.00    -0.354 N 
ATOM     58  N   UNL A   1      40.327  31.019  32.613  1.00  0.00    -0.248 NA
ATOM     59  C   UNL A   1      39.974  32.333  30.718  1.00  0.00     0.031 C 
ATOM     60  C   UNL A   1      45.040  30.028  31.754  1.00  0.00     0.029 A 
ATOM     61  C   UNL A   1      43.940  30.888  31.783  1.00  0.00     0.049 A 
ATOM     62  H   UNL A   1      43.880  32.692  30.698  1.00  0.00     0.167 HD
ATOM     63  C   UNL A   1      41.559  31.491  32.187  1.00  0.00     0.074 A 
ATOM     64  C   UNL A   1      41.251  32.413  31.097  1.00  0.00     0.031 C 
ATOM     65  C   UNL A   1      42.718  30.871  32.561  1.00  0.00     0.034 A 
BRANCH  52  66
ATOM     66  C   UNL A   1      44.604  32.612  27.771  1.00  0.00     0.023 A 
ATOM     67  C   UNL A   1      45.791  32.887  27.050  1.00  0.00     0.012 A 
ATOM     68  C   UNL A   1      43.748  33.703  28.032  1.00  0.00     0.148 A 
ATOM     69  C   UNL A   1      46.123  34.183  26.640  1.00  0.00     0.002 A 
ATOM     70  C   UNL A   1      44.042  34.977  27.549  1.00  0.00     0.091 A 
ATOM     71  F   UNL A   1      42.711  33.549  28.862  1.00  0.00    -0.205 F 
ATOM     72  C   UNL A   1      45.241  35.228  26.879  1.00  0.00     0.022 A 
BRANCH  70  73
ATOM     73  S   UNL A   1      42.903  36.350  27.765  1.00  0.00     0.127 S 
ATOM     74  O   UNL A   1      41.659  35.783  27.256  1.00  0.00    -0.237 OA
ATOM     75  O   UNL A   1      42.946  36.550  29.214  1.00  0.00    -0.237 OA
ATOM     76  O   UNL A   1      43.476  37.446  26.996  1.00  0.00    -0.744 OA
ENDBRANCH  70  73
ENDBRANCH  52  66
BRANCH  53  77
ATOM     77  C   UNL A   1      37.007  30.964  31.110  1.00  0.00     0.023 A 
ATOM     78  C   UNL A   1      36.378  31.488  32.256  1.00  0.00     0.012 A 
ATOM     79  C   UNL A   1      36.445  31.247  29.845  1.00  0.00     0.148 A 
ATOM     80  C   UNL A   1      35.263  32.325  32.144  1.00  0.00     0.002 A 
ATOM     81  C   UNL A   1      35.338  32.083  29.739  1.00  0.00     0.091 A 
ATOM     82  F   UNL A   1      37.054  30.783  28.745  1.00  0.00    -0.205 F 
ATOM     83  C   UNL A   1      34.754  32.636  30.885  1.00  0.00     0.022 A 
BRANCH  81  84
ATOM     84  S   UNL A   1      34.663  32.571  28.145  1.00  0.00     0.127 S 
ATOM     85  O   UNL A   1      33.508  33.378  28.538  1.00  0.00    -0.237 OA
ATOM     86  O   UNL A   1      35.772  33.324  27.567  1.00  0.00    -0.237 OA
ATOM     87  O   UNL A   1      34.319  31.331  27.459  1.00  0.00    -0.744 OA
ENDBRANCH  81  84
ENDBRANCH  53  77
BRANCH  65  88
ATOM     88  C   UNL A   1      42.659  29.863  33.684  1.00  0.00     0.023 A 
ATOM     89  C   UNL A   1      42.160  28.557  33.499  1.00  0.00     0.012 A 
ATOM     90  C   UNL A   1      43.284  30.181  34.902  1.00  0.00     0.148 A 
ATOM     91  C   UNL A   1      42.259  27.600  34.513  1.00  0.00     0.002 A 
ATOM     92  C   UNL A   1      43.429  29.212  35.887  1.00  0.00     0.091 A 
ATOM     93  F   UNL A   1      43.757  31.426  35.068  1.00  0.00    -0.205 F 
ATOM     94  C   UNL A   1      42.907  27.922  35.702  1.00  0.00     0.022 A 
BRANCH  92  95
ATOM     95  S   UNL A   1      44.381  29.529  37.376  1.00  0.00     0.127 S 
ATOM     96  O   UNL A   1      45.685  29.901  36.833  1.00  0.00    -0.237 OA
ATOM     97  O   UNL A   1      43.640  30.629  37.998  1.00  0.00    -0.237 OA
ATOM     98  O   UNL A   1      44.345  28.287  38.139  1.00  0.00    -0.744 OA
ENDBRANCH  92  95
ENDBRANCH  65  88
ENDBRANCH  39  40
ENDBRANCH  31  34
ENDBRANCH  29  30
ENDBRANCH  28  29
ENDBRANCH   1  28
TORSDOF 18
ENDMDL
