MODEL 1
REMARK VINA RESULT:     -11.8      0.000      0.000
REMARK SMILES [NH3+]C[C@@H]1CC[C@H](C(=O)N[C@@H](Cc2ccccc2)C(=O)NCCCCNC(=O)c2ccc(-c3c4nc(c(-c5cccc(S(=O)(=O)[O-])c5F)c5ccc([nH]5)c(-c5cccc(S(=O)(=O)[O-])c5F)c5nc(c(-c6cccc(S(=O)(=O)[O-])c6F)c6ccc3[nH]6)C=C5)C=C4)cc2)O1
REMARK SMILES IDX 22 1 21 2 20 3 18 4 19 5 10 7 9 8 7 9 8 10 6 12 3 13 4 14
REMARK SMILES IDX 91 15 5 16 2 17 1 18 11 22 12 23 13 24 17 25 14 26 16 27
REMARK SMILES IDX 15 28 23 29 24 30 25 31 26 32 27 34 28 35 29 36 90 37 30 38
REMARK SMILES IDX 89 39 31 40 32 41 33 42 83 43 34 44 88 45 82 46 84 47 35 48
REMARK SMILES IDX 87 49 81 50 80 51 36 53 68 54 48 55 67 56 49 57 52 58 66 59
REMARK SMILES IDX 85 60 50 61 51 62 65 64 86 65 53 66 37 67 38 68 46 69 39 70
REMARK SMILES IDX 41 71 47 72 40 73 42 74 43 75 44 76 45 77 69 78 70 79 78 80
REMARK SMILES IDX 71 81 73 82 79 83 72 84 74 85 75 86 76 87 77 88 54 89 55 90
REMARK SMILES IDX 63 91 56 92 58 93 64 94 57 95 59 96 60 97 61 98 62 99
REMARK H PARENT 20 6 9 11 1 19 1 20 1 21 25 33 84 52 52 63
REMARK Flexibility Score: inf
ROOT
ATOM      1  C   UNL A   1      33.480  28.419  25.206  1.00  0.00     0.023 C 
ENDROOT
BRANCH   1   2
ATOM      2  C   UNL A   1      32.864  27.505  24.158  1.00  0.00     0.116 C 
BRANCH   2   3
ATOM      3  N   UNL A   1      31.698  26.783  24.610  1.00  0.00    -0.354 N 
ATOM      4  C   UNL A   1      31.622  25.547  25.176  1.00  0.00     0.242 C 
ATOM      5  O   UNL A   1      30.669  25.345  25.939  1.00  0.00    -0.273 OA
ATOM      6  H   UNL A   1      30.838  27.249  24.491  1.00  0.00     0.163 HD
BRANCH   4   7
ATOM      7  C   UNL A   1      32.717  24.463  25.029  1.00  0.00     0.175 C 
BRANCH   7   8
ATOM      8  N   UNL A   1      33.256  24.202  23.692  1.00  0.00    -0.342 N 
ATOM      9  C   UNL A   1      33.061  23.138  22.864  1.00  0.00     0.249 C 
ATOM     10  O   UNL A   1      33.694  23.120  21.803  1.00  0.00    -0.272 OA
ATOM     11  H   UNL A   1      33.849  24.903  23.337  1.00  0.00     0.164 HD
BRANCH   9  12
ATOM     12  C   UNL A   1      32.150  21.961  23.253  1.00  0.00     0.207 C 
ATOM     13  C   UNL A   1      32.273  19.869  24.244  1.00  0.00     0.174 C 
ATOM     14  C   UNL A   1      32.321  19.606  22.748  1.00  0.00     0.041 C 
ATOM     15  O   UNL A   1      32.610  21.256  24.405  1.00  0.00    -0.359 OA
ATOM     16  C   UNL A   1      31.945  20.942  22.138  1.00  0.00     0.045 C 
BRANCH  13  17
ATOM     17  C   UNL A   1      33.241  18.991  25.052  1.00  0.00     0.291 C 
BRANCH  17  18
ATOM     18  N   UNL A   1      32.988  19.070  26.494  1.00  0.00    -0.355 N 
ATOM     19  H   UNL A   1      32.608  19.988  26.724  1.00  0.00     0.344 HD
ATOM     20  H   UNL A   1      33.862  18.927  27.001  1.00  0.00     0.344 HD
ATOM     21  H   UNL A   1      32.318  18.348  26.762  1.00  0.00     0.344 HD
ENDBRANCH  17  18
ENDBRANCH  13  17
ENDBRANCH   9  12
ENDBRANCH   7   8
BRANCH   7  22
ATOM     22  C   UNL A   1      33.823  24.551  26.099  1.00  0.00     0.070 C 
BRANCH  22  23
ATOM     23  C   UNL A   1      34.996  23.623  25.912  1.00  0.00    -0.045 A 
ATOM     24  C   UNL A   1      36.205  24.125  25.410  1.00  0.00     0.004 A 
ATOM     25  C   UNL A   1      34.890  22.254  26.192  1.00  0.00     0.004 A 
ATOM     26  C   UNL A   1      37.273  23.266  25.150  1.00  0.00     0.000 A 
ATOM     27  C   UNL A   1      35.954  21.394  25.913  1.00  0.00     0.000 A 
ATOM     28  C   UNL A   1      37.142  21.899  25.386  1.00  0.00     0.000 A 
ENDBRANCH  22  23
ENDBRANCH   7  22
ENDBRANCH   4   7
ENDBRANCH   2   3
ENDBRANCH   1   2
BRANCH   1  29
ATOM     29  C   UNL A   1      32.690  29.689  25.515  1.00  0.00     0.023 C 
BRANCH  29  30
ATOM     30  C   UNL A   1      32.624  30.105  26.981  1.00  0.00     0.116 C 
BRANCH  30  31
ATOM     31  N   UNL A   1      32.628  31.547  27.198  1.00  0.00    -0.352 N 
ATOM     32  C   UNL A   1      33.649  32.343  27.667  1.00  0.00     0.251 C 
ATOM     33  H   UNL A   1      31.789  32.013  26.981  1.00  0.00     0.163 HD
ATOM     34  O   UNL A   1      33.489  33.547  27.812  1.00  0.00    -0.269 OA
BRANCH  32  35
ATOM     35  C   UNL A   1      34.930  31.706  28.033  1.00  0.00     0.039 A 
ATOM     36  C   UNL A   1      36.073  32.501  28.143  1.00  0.00     0.014 A 
ATOM     37  C   UNL A   1      34.970  30.350  28.369  1.00  0.00     0.014 A 
ATOM     38  C   UNL A   1      37.238  31.956  28.684  1.00  0.00     0.010 A 
ATOM     39  C   UNL A   1      36.108  29.830  28.975  1.00  0.00     0.010 A 
ATOM     40  C   UNL A   1      37.248  30.630  29.152  1.00  0.00    -0.014 A 
BRANCH  40  41
ATOM     41  C   UNL A   1      38.424  30.071  29.865  1.00  0.00     0.031 A 
ATOM     42  C   UNL A   1      38.755  30.535  31.256  1.00  0.00     0.074 A 
ATOM     43  C   UNL A   1      39.253  29.224  29.219  1.00  0.00     0.049 A 
ATOM     44  N   UNL A   1      39.774  30.216  32.010  1.00  0.00    -0.248 NA
ATOM     45  C   UNL A   1      37.835  31.507  31.869  1.00  0.00     0.031 C 
ATOM     46  C   UNL A   1      39.091  28.770  27.836  1.00  0.00     0.029 A 
ATOM     47  N   UNL A   1      40.413  28.617  29.632  1.00  0.00    -0.354 N 
ATOM     48  C   UNL A   1      39.641  30.973  33.167  1.00  0.00     0.074 A 
ATOM     49  C   UNL A   1      38.461  31.793  33.002  1.00  0.00     0.031 C 
ATOM     50  C   UNL A   1      40.108  27.950  27.519  1.00  0.00     0.029 A 
ATOM     51  C   UNL A   1      41.004  27.836  28.665  1.00  0.00     0.049 A 
ATOM     52  H   UNL A   1      40.787  28.729  30.536  1.00  0.00     0.167 HD
ATOM     53  C   UNL A   1      40.407  30.960  34.283  1.00  0.00     0.034 A 
ATOM     54  C   UNL A   1      42.138  27.109  28.700  1.00  0.00     0.034 A 
ATOM     55  C   UNL A   1      41.545  30.102  34.467  1.00  0.00     0.049 A 
ATOM     56  C   UNL A   1      42.936  27.064  29.975  1.00  0.00     0.074 A 
ATOM     57  C   UNL A   1      42.338  29.953  35.591  1.00  0.00     0.029 A 
ATOM     58  N   UNL A   1      42.050  29.243  33.504  1.00  0.00    -0.354 N 
ATOM     59  N   UNL A   1      42.700  27.662  31.117  1.00  0.00    -0.248 NA
ATOM     60  C   UNL A   1      44.135  26.213  29.980  1.00  0.00     0.031 C 
ATOM     61  C   UNL A   1      43.323  29.002  35.307  1.00  0.00     0.029 A 
ATOM     62  C   UNL A   1      43.140  28.555  34.008  1.00  0.00     0.049 A 
ATOM     63  H   UNL A   1      41.686  29.136  32.596  1.00  0.00     0.167 HD
ATOM     64  C   UNL A   1      43.696  27.232  31.987  1.00  0.00     0.074 A 
ATOM     65  C   UNL A   1      44.528  26.307  31.244  1.00  0.00     0.031 C 
ATOM     66  C   UNL A   1      43.914  27.585  33.277  1.00  0.00     0.034 A 
BRANCH  53  67
ATOM     67  C   UNL A   1      39.988  31.849  35.423  1.00  0.00     0.023 A 
ATOM     68  C   UNL A   1      40.534  33.146  35.517  1.00  0.00     0.012 A 
ATOM     69  C   UNL A   1      39.029  31.432  36.366  1.00  0.00     0.148 A 
ATOM     70  C   UNL A   1      40.160  34.002  36.551  1.00  0.00     0.002 A 
ATOM     71  C   UNL A   1      38.633  32.306  37.372  1.00  0.00     0.091 A 
ATOM     72  F   UNL A   1      38.540  30.187  36.275  1.00  0.00    -0.205 F 
ATOM     73  C   UNL A   1      39.203  33.586  37.471  1.00  0.00     0.022 A 
BRANCH  71  74
ATOM     74  S   UNL A   1      37.354  31.890  38.564  1.00  0.00     0.127 S 
ATOM     75  O   UNL A   1      38.029  32.168  39.830  1.00  0.00    -0.237 OA
ATOM     76  O   UNL A   1      36.290  32.833  38.221  1.00  0.00    -0.237 OA
ATOM     77  O   UNL A   1      37.023  30.492  38.321  1.00  0.00    -0.744 OA
ENDBRANCH  71  74
ENDBRANCH  53  67
BRANCH  54  78
ATOM     78  C   UNL A   1      42.534  26.284  27.523  1.00  0.00     0.023 A 
ATOM     79  C   UNL A   1      43.328  26.868  26.517  1.00  0.00     0.012 A 
ATOM     80  C   UNL A   1      42.161  24.932  27.403  1.00  0.00     0.148 A 
ATOM     81  C   UNL A   1      43.715  26.132  25.396  1.00  0.00     0.002 A 
ATOM     82  C   UNL A   1      42.592  24.190  26.309  1.00  0.00     0.091 A 
ATOM     83  F   UNL A   1      41.391  24.396  28.362  1.00  0.00    -0.205 F 
ATOM     84  C   UNL A   1      43.356  24.791  25.297  1.00  0.00     0.022 A 
BRANCH  82  85
ATOM     85  S   UNL A   1      42.282  22.425  26.170  1.00  0.00     0.127 S 
ATOM     86  O   UNL A   1      42.916  21.913  27.381  1.00  0.00    -0.237 OA
ATOM     87  O   UNL A   1      40.820  22.367  26.168  1.00  0.00    -0.237 OA
ATOM     88  O   UNL A   1      42.894  22.026  24.908  1.00  0.00    -0.744 OA
ENDBRANCH  82  85
ENDBRANCH  54  78
BRANCH  66  89
ATOM     89  C   UNL A   1      45.074  26.946  33.990  1.00  0.00     0.023 A 
ATOM     90  C   UNL A   1      46.335  27.573  33.967  1.00  0.00     0.012 A 
ATOM     91  C   UNL A   1      44.896  25.775  34.752  1.00  0.00     0.148 A 
ATOM     92  C   UNL A   1      47.409  27.030  34.672  1.00  0.00     0.002 A 
ATOM     93  C   UNL A   1      45.960  25.263  35.486  1.00  0.00     0.091 A 
ATOM     94  F   UNL A   1      43.694  25.180  34.742  1.00  0.00    -0.205 F 
ATOM     95  C   UNL A   1      47.218  25.885  35.441  1.00  0.00     0.022 A 
BRANCH  93  96
ATOM     96  S   UNL A   1      45.776  23.844  36.574  1.00  0.00     0.127 S 
ATOM     97  O   UNL A   1      45.217  22.843  35.667  1.00  0.00    -0.237 OA
ATOM     98  O   UNL A   1      47.156  23.587  36.991  1.00  0.00    -0.237 OA
ATOM     99  O   UNL A   1      44.896  24.281  37.649  1.00  0.00    -0.744 OA
ENDBRANCH  93  96
ENDBRANCH  66  89
ENDBRANCH  40  41
ENDBRANCH  32  35
ENDBRANCH  30  31
ENDBRANCH  29  30
ENDBRANCH   1  29
TORSDOF 20
ENDMDL
MODEL 2
REMARK VINA RESULT:     -11.7      1.239      2.580
REMARK SMILES [NH3+]C[C@@H]1CC[C@H](C(=O)N[C@@H](Cc2ccccc2)C(=O)NCCCCNC(=O)c2ccc(-c3c4nc(c(-c5cccc(S(=O)(=O)[O-])c5F)c5ccc([nH]5)c(-c5cccc(S(=O)(=O)[O-])c5F)c5nc(c(-c6cccc(S(=O)(=O)[O-])c6F)c6ccc3[nH]6)C=C5)C=C4)cc2)O1
REMARK SMILES IDX 22 1 21 2 20 3 18 4 19 5 10 7 9 8 7 9 8 10 6 12 3 13 4 14
REMARK SMILES IDX 91 15 5 16 2 17 1 18 11 22 12 23 13 24 17 25 14 26 16 27
REMARK SMILES IDX 15 28 23 29 24 30 25 31 26 32 27 34 28 35 29 36 90 37 30 38
REMARK SMILES IDX 89 39 31 40 32 41 33 42 83 43 34 44 88 45 82 46 84 47 35 48
REMARK SMILES IDX 87 49 81 50 80 51 36 53 68 54 48 55 67 56 49 57 52 58 66 59
REMARK SMILES IDX 85 60 50 61 51 62 65 64 86 65 53 66 37 67 38 68 46 69 39 70
REMARK SMILES IDX 41 71 47 72 40 73 42 74 43 75 44 76 45 77 69 78 70 79 78 80
REMARK SMILES IDX 71 81 73 82 79 83 72 84 74 85 75 86 76 87 77 88 54 89 55 90
REMARK SMILES IDX 63 91 56 92 58 93 64 94 57 95 59 96 60 97 61 98 62 99
REMARK H PARENT 20 6 9 11 1 19 1 20 1 21 25 33 84 52 52 63
REMARK Flexibility Score: inf
ROOT
ATOM      1  C   UNL A   1      31.327  27.830  26.328  1.00  0.00     0.023 C 
ENDROOT
BRANCH   1   2
ATOM      2  C   UNL A   1      31.918  26.435  26.464  1.00  0.00     0.116 C 
BRANCH   2   3
ATOM      3  N   UNL A   1      33.155  26.241  25.744  1.00  0.00    -0.354 N 
ATOM      4  C   UNL A   1      33.380  25.535  24.602  1.00  0.00     0.242 C 
ATOM      5  O   UNL A   1      34.323  25.912  23.894  1.00  0.00    -0.273 OA
ATOM      6  H   UNL A   1      33.946  26.680  26.135  1.00  0.00     0.163 HD
BRANCH   4   7
ATOM      7  C   UNL A   1      32.451  24.408  24.089  1.00  0.00     0.175 C 
BRANCH   7   8
ATOM      8  N   UNL A   1      31.687  23.640  25.075  1.00  0.00    -0.342 N 
ATOM      9  C   UNL A   1      31.607  22.293  25.263  1.00  0.00     0.249 C 
ATOM     10  O   UNL A   1      30.826  21.885  26.128  1.00  0.00    -0.272 OA
ATOM     11  H   UNL A   1      31.148  24.179  25.697  1.00  0.00     0.164 HD
BRANCH   9  12
ATOM     12  C   UNL A   1      32.397  21.303  24.391  1.00  0.00     0.207 C 
ATOM     13  C   UNL A   1      32.913  19.045  24.283  1.00  0.00     0.174 C 
ATOM     14  C   UNL A   1      34.096  19.693  24.983  1.00  0.00     0.041 C 
ATOM     15  O   UNL A   1      31.836  19.991  24.386  1.00  0.00    -0.359 OA
ATOM     16  C   UNL A   1      33.868  21.176  24.774  1.00  0.00     0.045 C 
BRANCH  13  17
ATOM     17  C   UNL A   1      32.497  17.701  24.899  1.00  0.00     0.291 C 
BRANCH  17  18
ATOM     18  N   UNL A   1      33.219  17.414  26.142  1.00  0.00    -0.355 N 
ATOM     19  H   UNL A   1      34.219  17.551  25.995  1.00  0.00     0.344 HD
ATOM     20  H   UNL A   1      33.047  16.447  26.420  1.00  0.00     0.344 HD
ATOM     21  H   UNL A   1      32.894  18.042  26.878  1.00  0.00     0.344 HD
ENDBRANCH  17  18
ENDBRANCH  13  17
ENDBRANCH   9  12
ENDBRANCH   7   8
BRANCH   7  22
ATOM     22  C   UNL A   1      31.596  24.815  22.874  1.00  0.00     0.070 C 
BRANCH  22  23
ATOM     23  C   UNL A   1      30.825  26.102  23.011  1.00  0.00    -0.045 A 
ATOM     24  C   UNL A   1      29.550  26.089  23.595  1.00  0.00     0.004 A 
ATOM     25  C   UNL A   1      31.340  27.313  22.527  1.00  0.00     0.004 A 
ATOM     26  C   UNL A   1      28.787  27.256  23.654  1.00  0.00     0.000 A 
ATOM     27  C   UNL A   1      30.565  28.475  22.570  1.00  0.00     0.000 A 
ATOM     28  C   UNL A   1      29.288  28.444  23.127  1.00  0.00     0.000 A 
ENDBRANCH  22  23
ENDBRANCH   7  22
ENDBRANCH   4   7
ENDBRANCH   2   3
ENDBRANCH   1   2
BRANCH   1  29
ATOM     29  C   UNL A   1      31.958  28.899  27.218  1.00  0.00     0.023 C 
BRANCH  29  30
ATOM     30  C   UNL A   1      32.912  29.871  26.532  1.00  0.00     0.116 C 
BRANCH  30  31
ATOM     31  N   UNL A   1      32.802  31.250  26.994  1.00  0.00    -0.352 N 
ATOM     32  C   UNL A   1      33.731  32.007  27.671  1.00  0.00     0.251 C 
ATOM     33  H   UNL A   1      31.949  31.699  26.796  1.00  0.00     0.163 HD
ATOM     34  O   UNL A   1      33.479  33.156  28.009  1.00  0.00    -0.269 OA
BRANCH  32  35
ATOM     35  C   UNL A   1      35.027  31.389  28.020  1.00  0.00     0.039 A 
ATOM     36  C   UNL A   1      36.166  32.194  28.082  1.00  0.00     0.014 A 
ATOM     37  C   UNL A   1      35.086  30.042  28.388  1.00  0.00     0.014 A 
ATOM     38  C   UNL A   1      37.348  31.672  28.607  1.00  0.00     0.010 A 
ATOM     39  C   UNL A   1      36.243  29.545  28.977  1.00  0.00     0.010 A 
ATOM     40  C   UNL A   1      37.381  30.358  29.106  1.00  0.00    -0.014 A 
BRANCH  40  41
ATOM     41  C   UNL A   1      38.579  29.825  29.802  1.00  0.00     0.031 A 
ATOM     42  C   UNL A   1      38.966  30.358  31.154  1.00  0.00     0.074 A 
ATOM     43  C   UNL A   1      39.376  28.938  29.171  1.00  0.00     0.049 A 
ATOM     44  N   UNL A   1      40.011  30.069  31.884  1.00  0.00    -0.248 NA
ATOM     45  C   UNL A   1      38.078  31.370  31.750  1.00  0.00     0.031 C 
ATOM     46  C   UNL A   1      39.157  28.413  27.821  1.00  0.00     0.029 A 
ATOM     47  N   UNL A   1      40.545  28.342  29.572  1.00  0.00    -0.354 N 
ATOM     48  C   UNL A   1      39.928  30.887  33.004  1.00  0.00     0.074 A 
ATOM     49  C   UNL A   1      38.749  31.709  32.841  1.00  0.00     0.031 C 
ATOM     50  C   UNL A   1      40.154  27.568  27.509  1.00  0.00     0.029 A 
ATOM     51  C   UNL A   1      41.093  27.506  28.625  1.00  0.00     0.049 A 
ATOM     52  H   UNL A   1      40.955  28.497  30.453  1.00  0.00     0.167 HD
ATOM     53  C   UNL A   1      40.736  30.924  34.089  1.00  0.00     0.034 A 
ATOM     54  C   UNL A   1      42.222  26.770  28.656  1.00  0.00     0.034 A 
ATOM     55  C   UNL A   1      41.874  30.066  34.275  1.00  0.00     0.049 A 
ATOM     56  C   UNL A   1      43.068  26.784  29.900  1.00  0.00     0.074 A 
ATOM     57  C   UNL A   1      42.707  29.967  35.375  1.00  0.00     0.029 A 
ATOM     58  N   UNL A   1      42.334  29.153  33.341  1.00  0.00    -0.354 N 
ATOM     59  N   UNL A   1      42.881  27.443  31.018  1.00  0.00    -0.248 NA
ATOM     60  C   UNL A   1      44.259  25.922  29.905  1.00  0.00     0.031 C 
ATOM     61  C   UNL A   1      43.674  28.994  35.104  1.00  0.00     0.029 A 
ATOM     62  C   UNL A   1      43.437  28.481  33.838  1.00  0.00     0.049 A 
ATOM     63  H   UNL A   1      41.935  29.002  32.453  1.00  0.00     0.167 HD
ATOM     64  C   UNL A   1      43.905  27.049  31.870  1.00  0.00     0.074 A 
ATOM     65  C   UNL A   1      44.701  26.079  31.146  1.00  0.00     0.031 C 
ATOM     66  C   UNL A   1      44.175  27.467  33.131  1.00  0.00     0.034 A 
BRANCH  53  67
ATOM     67  C   UNL A   1      40.368  31.876  35.196  1.00  0.00     0.023 A 
ATOM     68  C   UNL A   1      41.079  33.087  35.324  1.00  0.00     0.012 A 
ATOM     69  C   UNL A   1      39.300  31.605  36.073  1.00  0.00     0.148 A 
ATOM     70  C   UNL A   1      40.758  33.998  36.328  1.00  0.00     0.002 A 
ATOM     71  C   UNL A   1      38.961  32.537  37.048  1.00  0.00     0.091 A 
ATOM     72  F   UNL A   1      38.652  30.438  35.953  1.00  0.00    -0.205 F 
ATOM     73  C   UNL A   1      39.694  33.728  37.182  1.00  0.00     0.022 A 
BRANCH  71  74
ATOM     74  S   UNL A   1      37.561  32.313  38.152  1.00  0.00     0.127 S 
ATOM     75  O   UNL A   1      37.991  33.062  39.331  1.00  0.00    -0.237 OA
ATOM     76  O   UNL A   1      36.470  32.935  37.400  1.00  0.00    -0.237 OA
ATOM     77  O   UNL A   1      37.424  30.875  38.336  1.00  0.00    -0.744 OA
ENDBRANCH  71  74
ENDBRANCH  53  67
BRANCH  54  78
ATOM     78  C   UNL A   1      42.566  25.881  27.510  1.00  0.00     0.023 A 
ATOM     79  C   UNL A   1      43.387  26.381  26.480  1.00  0.00     0.012 A 
ATOM     80  C   UNL A   1      42.117  24.549  27.441  1.00  0.00     0.148 A 
ATOM     81  C   UNL A   1      43.727  25.583  25.387  1.00  0.00     0.002 A 
ATOM     82  C   UNL A   1      42.501  23.743  26.375  1.00  0.00     0.091 A 
ATOM     83  F   UNL A   1      41.323  24.092  28.421  1.00  0.00    -0.205 F 
ATOM     84  C   UNL A   1      43.294  24.262  25.339  1.00  0.00     0.022 A 
BRANCH  82  85
ATOM     85  S   UNL A   1      42.093  21.994  26.302  1.00  0.00     0.127 S 
ATOM     86  O   UNL A   1      40.649  22.032  26.086  1.00  0.00    -0.237 OA
ATOM     87  O   UNL A   1      42.877  21.541  25.153  1.00  0.00    -0.237 OA
ATOM     88  O   UNL A   1      42.535  21.443  27.577  1.00  0.00    -0.744 OA
ENDBRANCH  82  85
ENDBRANCH  54  78
BRANCH  66  89
ATOM     89  C   UNL A   1      45.357  26.855  33.833  1.00  0.00     0.023 A 
ATOM     90  C   UNL A   1      46.581  27.550  33.867  1.00  0.00     0.012 A 
ATOM     91  C   UNL A   1      45.231  25.636  34.528  1.00  0.00     0.148 A 
ATOM     92  C   UNL A   1      47.671  27.029  34.563  1.00  0.00     0.002 A 
ATOM     93  C   UNL A   1      46.309  25.144  35.255  1.00  0.00     0.091 A 
ATOM     94  F   UNL A   1      44.064  24.979  34.463  1.00  0.00    -0.205 F 
ATOM     95  C   UNL A   1      47.531  25.835  35.267  1.00  0.00     0.022 A 
BRANCH  93  96
ATOM     96  S   UNL A   1      46.186  23.661  36.263  1.00  0.00     0.127 S 
ATOM     97  O   UNL A   1      47.581  23.435  36.632  1.00  0.00    -0.237 OA
ATOM     98  O   UNL A   1      45.326  24.100  37.363  1.00  0.00    -0.237 OA
ATOM     99  O   UNL A   1      45.589  22.648  35.403  1.00  0.00    -0.744 OA
ENDBRANCH  93  96
ENDBRANCH  66  89
ENDBRANCH  40  41
ENDBRANCH  32  35
ENDBRANCH  30  31
ENDBRANCH  29  30
ENDBRANCH   1  29
TORSDOF 20
ENDMDL
MODEL 3
REMARK VINA RESULT:     -11.7      1.848      3.463
REMARK SMILES [NH3+]C[C@@H]1CC[C@H](C(=O)N[C@@H](Cc2ccccc2)C(=O)NCCCCNC(=O)c2ccc(-c3c4nc(c(-c5cccc(S(=O)(=O)[O-])c5F)c5ccc([nH]5)c(-c5cccc(S(=O)(=O)[O-])c5F)c5nc(c(-c6cccc(S(=O)(=O)[O-])c6F)c6ccc3[nH]6)C=C5)C=C4)cc2)O1
REMARK SMILES IDX 22 1 21 2 20 3 18 4 19 5 10 7 9 8 7 9 8 10 6 12 3 13 4 14
REMARK SMILES IDX 91 15 5 16 2 17 1 18 11 22 12 23 13 24 17 25 14 26 16 27
REMARK SMILES IDX 15 28 23 29 24 30 25 31 26 32 27 34 28 35 29 36 90 37 30 38
REMARK SMILES IDX 89 39 31 40 32 41 33 42 83 43 34 44 88 45 82 46 84 47 35 48
REMARK SMILES IDX 87 49 81 50 80 51 36 53 68 54 48 55 67 56 49 57 52 58 66 59
REMARK SMILES IDX 85 60 50 61 51 62 65 64 86 65 53 66 37 67 38 68 46 69 39 70
REMARK SMILES IDX 41 71 47 72 40 73 42 74 43 75 44 76 45 77 69 78 70 79 78 80
REMARK SMILES IDX 71 81 73 82 79 83 72 84 74 85 75 86 76 87 77 88 54 89 55 90
REMARK SMILES IDX 63 91 56 92 58 93 64 94 57 95 59 96 60 97 61 98 62 99
REMARK H PARENT 20 6 9 11 1 19 1 20 1 21 25 33 84 52 52 63
REMARK Flexibility Score: inf
ROOT
ATOM      1  C   UNL A   1      31.814  29.617  25.501  1.00  0.00     0.023 C 
ENDROOT
BRANCH   1   2
ATOM      2  C   UNL A   1      31.995  28.112  25.383  1.00  0.00     0.116 C 
BRANCH   2   3
ATOM      3  N   UNL A   1      31.015  27.337  26.107  1.00  0.00    -0.354 N 
ATOM      4  C   UNL A   1      30.285  26.268  25.683  1.00  0.00     0.242 C 
ATOM      5  O   UNL A   1      29.929  25.461  26.551  1.00  0.00    -0.273 OA
ATOM      6  H   UNL A   1      30.850  27.622  27.035  1.00  0.00     0.163 HD
BRANCH   4   7
ATOM      7  C   UNL A   1      30.011  25.948  24.194  1.00  0.00     0.175 C 
BRANCH   7   8
ATOM      8  N   UNL A   1      30.282  24.589  23.717  1.00  0.00    -0.342 N 
ATOM      9  C   UNL A   1      31.456  23.900  23.661  1.00  0.00     0.249 C 
ATOM     10  O   UNL A   1      31.432  22.779  23.143  1.00  0.00    -0.272 OA
ATOM     11  H   UNL A   1      29.495  24.099  23.388  1.00  0.00     0.164 HD
BRANCH   9  12
ATOM     12  C   UNL A   1      32.780  24.510  24.150  1.00  0.00     0.207 C 
ATOM     13  C   UNL A   1      35.043  24.015  24.232  1.00  0.00     0.174 C 
ATOM     14  C   UNL A   1      34.494  23.601  25.587  1.00  0.00     0.041 C 
ATOM     15  O   UNL A   1      33.903  24.112  23.364  1.00  0.00    -0.359 OA
ATOM     16  C   UNL A   1      33.103  24.202  25.608  1.00  0.00     0.045 C 
BRANCH  13  17
ATOM     17  C   UNL A   1      36.065  23.022  23.655  1.00  0.00     0.291 C 
BRANCH  17  18
ATOM     18  N   UNL A   1      37.391  23.178  24.260  1.00  0.00    -0.355 N 
ATOM     19  H   UNL A   1      37.670  22.301  24.699  1.00  0.00     0.344 HD
ATOM     20  H   UNL A   1      37.359  23.916  24.964  1.00  0.00     0.344 HD
ATOM     21  H   UNL A   1      38.068  23.427  23.538  1.00  0.00     0.344 HD
ENDBRANCH  17  18
ENDBRANCH  13  17
ENDBRANCH   9  12
ENDBRANCH   7   8
BRANCH   7  22
ATOM     22  C   UNL A   1      28.663  26.490  23.681  1.00  0.00     0.070 C 
BRANCH  22  23
ATOM     23  C   UNL A   1      28.682  27.891  23.128  1.00  0.00    -0.045 A 
ATOM     24  C   UNL A   1      29.840  28.374  22.500  1.00  0.00     0.004 A 
ATOM     25  C   UNL A   1      27.576  28.742  23.264  1.00  0.00     0.004 A 
ATOM     26  C   UNL A   1      29.905  29.696  22.058  1.00  0.00     0.000 A 
ATOM     27  C   UNL A   1      27.653  30.070  22.839  1.00  0.00     0.000 A 
ATOM     28  C   UNL A   1      28.819  30.547  22.242  1.00  0.00     0.000 A 
ENDBRANCH  22  23
ENDBRANCH   7  22
ENDBRANCH   4   7
ENDBRANCH   2   3
ENDBRANCH   1   2
BRANCH   1  29
ATOM     29  C   UNL A   1      32.035  30.198  26.897  1.00  0.00     0.023 C 
BRANCH  29  30
ATOM     30  C   UNL A   1      33.199  31.171  27.047  1.00  0.00     0.116 C 
BRANCH  30  31
ATOM     31  N   UNL A   1      32.800  32.559  27.251  1.00  0.00    -0.352 N 
ATOM     32  C   UNL A   1      33.390  33.516  28.046  1.00  0.00     0.251 C 
ATOM     33  H   UNL A   1      32.002  32.850  26.754  1.00  0.00     0.163 HD
ATOM     34  O   UNL A   1      32.921  34.643  28.124  1.00  0.00    -0.269 OA
BRANCH  32  35
ATOM     35  C   UNL A   1      34.580  33.141  28.836  1.00  0.00     0.039 A 
ATOM     36  C   UNL A   1      34.402  32.466  30.046  1.00  0.00     0.014 A 
ATOM     37  C   UNL A   1      35.862  33.361  28.325  1.00  0.00     0.014 A 
ATOM     38  C   UNL A   1      35.511  31.925  30.699  1.00  0.00     0.010 A 
ATOM     39  C   UNL A   1      36.955  32.760  28.939  1.00  0.00     0.010 A 
ATOM     40  C   UNL A   1      36.789  32.024  30.123  1.00  0.00    -0.014 A 
BRANCH  40  41
ATOM     41  C   UNL A   1      37.961  31.334  30.718  1.00  0.00     0.031 A 
ATOM     42  C   UNL A   1      38.484  31.757  32.063  1.00  0.00     0.074 A 
ATOM     43  C   UNL A   1      38.618  30.399  30.001  1.00  0.00     0.049 A 
ATOM     44  N   UNL A   1      39.533  31.325  32.712  1.00  0.00    -0.248 NA
ATOM     45  C   UNL A   1      37.748  32.828  32.756  1.00  0.00     0.031 C 
ATOM     46  C   UNL A   1      38.264  29.965  28.648  1.00  0.00     0.029 A 
ATOM     47  N   UNL A   1      39.738  29.663  30.301  1.00  0.00    -0.354 N 
ATOM     48  C   UNL A   1      39.606  32.092  33.868  1.00  0.00     0.074 A 
ATOM     49  C   UNL A   1      38.515  33.041  33.815  1.00  0.00     0.031 C 
ATOM     50  C   UNL A   1      39.143  29.035  28.238  1.00  0.00     0.029 A 
ATOM     51  C   UNL A   1      40.134  28.820  29.288  1.00  0.00     0.049 A 
ATOM     52  H   UNL A   1      40.213  29.731  31.160  1.00  0.00     0.167 HD
ATOM     53  C   UNL A   1      40.476  31.991  34.900  1.00  0.00     0.034 A 
ATOM     54  C   UNL A   1      41.175  27.968  29.215  1.00  0.00     0.034 A 
ATOM     55  C   UNL A   1      41.523  31.010  34.976  1.00  0.00     0.049 A 
ATOM     56  C   UNL A   1      42.091  27.833  30.402  1.00  0.00     0.074 A 
ATOM     57  C   UNL A   1      42.405  30.771  36.015  1.00  0.00     0.029 A 
ATOM     58  N   UNL A   1      41.825  30.098  33.978  1.00  0.00    -0.354 N 
ATOM     59  N   UNL A   1      42.043  28.454  31.555  1.00  0.00    -0.248 NA
ATOM     60  C   UNL A   1      43.180  26.850  30.294  1.00  0.00     0.031 C 
ATOM     61  C   UNL A   1      43.242  29.714  35.643  1.00  0.00     0.029 A 
ATOM     62  C   UNL A   1      42.876  29.291  34.375  1.00  0.00     0.049 A 
ATOM     63  H   UNL A   1      41.360  30.034  33.112  1.00  0.00     0.167 HD
ATOM     64  C   UNL A   1      43.068  27.913  32.323  1.00  0.00     0.074 A 
ATOM     65  C   UNL A   1      43.708  26.900  31.511  1.00  0.00     0.031 C 
ATOM     66  C   UNL A   1      43.456  28.239  33.580  1.00  0.00     0.034 A 
BRANCH  53  67
ATOM     67  C   UNL A   1      40.280  32.923  36.066  1.00  0.00     0.023 A 
ATOM     68  C   UNL A   1      40.899  34.190  36.043  1.00  0.00     0.012 A 
ATOM     69  C   UNL A   1      39.456  32.575  37.153  1.00  0.00     0.148 A 
ATOM     70  C   UNL A   1      40.730  35.083  37.099  1.00  0.00     0.002 A 
ATOM     71  C   UNL A   1      39.261  33.488  38.184  1.00  0.00     0.091 A 
ATOM     72  F   UNL A   1      38.896  31.357  37.170  1.00  0.00    -0.205 F 
ATOM     73  C   UNL A   1      39.904  34.737  38.163  1.00  0.00     0.022 A 
BRANCH  71  74
ATOM     74  S   UNL A   1      38.158  33.163  39.565  1.00  0.00     0.127 S 
ATOM     75  O   UNL A   1      38.848  32.065  40.242  1.00  0.00    -0.237 OA
ATOM     76  O   UNL A   1      38.182  34.434  40.289  1.00  0.00    -0.237 OA
ATOM     77  O   UNL A   1      36.869  32.827  38.976  1.00  0.00    -0.744 OA
ENDBRANCH  71  74
ENDBRANCH  53  67
BRANCH  54  78
ATOM     78  C   UNL A   1      41.352  27.104  28.013  1.00  0.00     0.023 A 
ATOM     79  C   UNL A   1      42.022  27.626  26.889  1.00  0.00     0.012 A 
ATOM     80  C   UNL A   1      40.895  25.773  27.981  1.00  0.00     0.148 A 
ATOM     81  C   UNL A   1      42.202  26.851  25.743  1.00  0.00     0.002 A 
ATOM     82  C   UNL A   1      41.123  24.990  26.854  1.00  0.00     0.091 A 
ATOM     83  F   UNL A   1      40.245  25.296  29.053  1.00  0.00    -0.205 F 
ATOM     84  C   UNL A   1      41.762  25.531  25.728  1.00  0.00     0.022 A 
BRANCH  82  85
ATOM     85  S   UNL A   1      40.703  23.243  26.804  1.00  0.00     0.127 S 
ATOM     86  O   UNL A   1      39.272  23.287  26.511  1.00  0.00    -0.237 OA
ATOM     87  O   UNL A   1      41.541  22.756  25.708  1.00  0.00    -0.237 OA
ATOM     88  O   UNL A   1      41.073  22.721  28.113  1.00  0.00    -0.744 OA
ENDBRANCH  82  85
ENDBRANCH  54  78
BRANCH  66  89
ATOM     89  C   UNL A   1      44.603  27.472  34.179  1.00  0.00     0.023 A 
ATOM     90  C   UNL A   1      45.919  27.946  34.010  1.00  0.00     0.012 A 
ATOM     91  C   UNL A   1      44.373  26.335  34.977  1.00  0.00     0.148 A 
ATOM     92  C   UNL A   1      46.991  27.284  34.607  1.00  0.00     0.002 A 
ATOM     93  C   UNL A   1      45.442  25.705  35.603  1.00  0.00     0.091 A 
ATOM     94  F   UNL A   1      43.116  25.886  35.105  1.00  0.00    -0.205 F 
ATOM     95  C   UNL A   1      46.752  26.174  35.414  1.00  0.00     0.022 A 
BRANCH  93  96
ATOM     96  S   UNL A   1      45.212  24.325  36.731  1.00  0.00     0.127 S 
ATOM     97  O   UNL A   1      46.587  24.036  37.134  1.00  0.00    -0.237 OA
ATOM     98  O   UNL A   1      44.379  24.913  37.782  1.00  0.00    -0.237 OA
ATOM     99  O   UNL A   1      44.552  23.285  35.954  1.00  0.00    -0.744 OA
ENDBRANCH  93  96
ENDBRANCH  66  89
ENDBRANCH  40  41
ENDBRANCH  32  35
ENDBRANCH  30  31
ENDBRANCH  29  30
ENDBRANCH   1  29
TORSDOF 20
ENDMDL
