MODEL 1
REMARK VINA RESULT:     -12.2      0.000      0.000
REMARK SMILES Cc1nc(=O)[nH]c(C)c1CC(=O)N1CC[C@H](C(=O)NCCCCNC(=O)c2ccc(-c3c4nc(c(-c5cccc(S(=O)(=O)[O-])c5F)c5ccc([nH]5)c(-c5cccc(S(=O)(=O)[O-])c5F)c5nc(c(-c6cccc(S(=O)(=O)[O-])c6F)c6ccc3[nH]6)C=C5)C=C4)cc2)[C@@H]1C
REMARK SMILES IDX 21 1 20 2 19 3 17 4 18 5 16 7 13 8 14 9 90 10 15 11 91 12
REMARK SMILES IDX 11 13 12 14 10 15 9 16 1 17 2 18 3 19 4 20 7 21 5 22 6 23
REMARK SMILES IDX 8 24 22 26 23 27 24 28 25 29 26 31 27 32 28 33 89 34 29 35
REMARK SMILES IDX 88 36 30 37 31 38 32 39 82 40 33 41 87 42 81 43 83 44 34 45
REMARK SMILES IDX 86 46 80 47 79 48 35 50 67 51 47 52 66 53 48 54 51 55 65 56
REMARK SMILES IDX 84 57 49 58 50 59 64 61 85 62 52 63 36 64 37 65 45 66 38 67
REMARK SMILES IDX 40 68 46 69 39 70 41 71 42 72 43 73 44 74 68 75 69 76 77 77
REMARK SMILES IDX 70 78 72 79 78 80 71 81 73 82 74 83 75 84 76 85 53 86 54 87
REMARK SMILES IDX 62 88 55 89 57 90 63 91 56 92 58 93 59 94 60 95 61 96
REMARK H PARENT 19 6 6 25 24 30 83 49 51 60
REMARK Flexibility Score: inf
ROOT
ATOM      1  C   UNL A   1      37.187  20.871  24.716  1.00  0.00     0.023 C 
ENDROOT
BRANCH   1   2
ATOM      2  C   UNL A   1      35.743  20.474  25.000  1.00  0.00     0.116 C 
BRANCH   2   3
ATOM      3  N   UNL A   1      35.192  21.082  26.200  1.00  0.00    -0.356 N 
ATOM      4  C   UNL A   1      34.092  21.840  26.438  1.00  0.00     0.225 C 
ATOM      5  O   UNL A   1      33.793  21.995  27.629  1.00  0.00    -0.275 OA
ATOM      6  H   UNL A   1      35.726  20.906  27.007  1.00  0.00     0.163 HD
BRANCH   4   7
ATOM      7  C   UNL A   1      33.266  22.604  25.390  1.00  0.00     0.102 C 
ATOM      8  N   UNL A   1      32.899  24.918  25.798  1.00  0.00    -0.339 N 
ATOM      9  C   UNL A   1      31.922  24.156  26.577  1.00  0.00     0.120 C 
ATOM     10  C   UNL A   1      33.658  24.009  24.903  1.00  0.00     0.094 C 
ATOM     11  C   UNL A   1      31.849  22.801  25.906  1.00  0.00     0.037 C 
ATOM     12  C   UNL A   1      35.175  24.130  24.787  1.00  0.00     0.032 C 
BRANCH   8  13
ATOM     13  C   UNL A   1      32.876  26.287  25.966  1.00  0.00     0.227 C 
ATOM     14  O   UNL A   1      33.936  26.907  26.123  1.00  0.00    -0.275 OA
BRANCH  13  15
ATOM     15  C   UNL A   1      31.570  27.050  26.154  1.00  0.00     0.139 C 
BRANCH  15  16
ATOM     16  C   UNL A   1      31.061  27.842  24.997  1.00  0.00     0.002 A 
ATOM     17  C   UNL A   1      29.839  25.740  23.991  1.00  0.00     0.067 C 
ATOM     18  C   UNL A   1      30.261  27.196  23.903  1.00  0.00     0.049 A 
ATOM     19  N   UNL A   1      29.900  27.791  22.811  1.00  0.00    -0.198 NA
ATOM     20  C   UNL A   1      30.237  29.098  22.620  1.00  0.00     0.345 A 
ATOM     21  C   UNL A   1      31.279  29.160  24.812  1.00  0.00     0.022 A 
ATOM     22  O   UNL A   1      30.000  29.701  21.576  1.00  0.00    -0.246 OA
ATOM     23  N   UNL A   1      30.869  29.749  23.643  1.00  0.00    -0.310 N 
ATOM     24  C   UNL A   1      32.021  30.075  25.750  1.00  0.00     0.065 C 
ATOM     25  H   UNL A   1      31.044  30.712  23.533  1.00  0.00     0.171 HD
ENDBRANCH  15  16
ENDBRANCH  13  15
ENDBRANCH   8  13
ENDBRANCH   4   7
ENDBRANCH   2   3
ENDBRANCH   1   2
BRANCH   1  26
ATOM     26  C   UNL A   1      38.197  19.734  24.837  1.00  0.00     0.023 C 
BRANCH  26  27
ATOM     27  C   UNL A   1      38.994  19.704  26.136  1.00  0.00     0.116 C 
BRANCH  27  28
ATOM     28  N   UNL A   1      40.273  19.012  26.013  1.00  0.00    -0.352 N 
ATOM     29  C   UNL A   1      41.549  19.514  26.126  1.00  0.00     0.251 C 
ATOM     30  H   UNL A   1      40.214  18.048  25.823  1.00  0.00     0.163 HD
ATOM     31  O   UNL A   1      42.516  18.800  25.879  1.00  0.00    -0.269 OA
BRANCH  29  32
ATOM     32  C   UNL A   1      41.738  20.929  26.510  1.00  0.00     0.039 A 
ATOM     33  C   UNL A   1      42.205  21.231  27.791  1.00  0.00     0.014 A 
ATOM     34  C   UNL A   1      41.520  21.947  25.579  1.00  0.00     0.014 A 
ATOM     35  C   UNL A   1      42.537  22.550  28.108  1.00  0.00     0.010 A 
ATOM     36  C   UNL A   1      41.945  23.240  25.864  1.00  0.00     0.010 A 
ATOM     37  C   UNL A   1      42.458  23.558  27.131  1.00  0.00    -0.014 A 
BRANCH  37  38
ATOM     38  C   UNL A   1      42.923  24.943  27.409  1.00  0.00     0.031 A 
ATOM     39  C   UNL A   1      41.991  25.949  28.028  1.00  0.00     0.074 A 
ATOM     40  C   UNL A   1      44.154  25.326  27.015  1.00  0.00     0.049 A 
ATOM     41  N   UNL A   1      42.198  27.213  28.291  1.00  0.00    -0.248 NA
ATOM     42  C   UNL A   1      40.636  25.481  28.362  1.00  0.00     0.031 C 
ATOM     43  C   UNL A   1      45.120  24.478  26.314  1.00  0.00     0.029 A 
ATOM     44  N   UNL A   1      44.792  26.539  27.117  1.00  0.00    -0.354 N 
ATOM     45  C   UNL A   1      40.995  27.700  28.784  1.00  0.00     0.074 A 
ATOM     46  C   UNL A   1      40.048  26.607  28.738  1.00  0.00     0.031 C 
ATOM     47  C   UNL A   1      46.224  25.193  26.049  1.00  0.00     0.029 A 
ATOM     48  C   UNL A   1      46.034  26.560  26.527  1.00  0.00     0.049 A 
ATOM     49  H   UNL A   1      44.396  27.319  27.569  1.00  0.00     0.167 HD
ATOM     50  C   UNL A   1      40.706  28.935  29.262  1.00  0.00     0.034 A 
ATOM     51  C   UNL A   1      46.916  27.567  26.369  1.00  0.00     0.034 A 
ATOM     52  C   UNL A   1      41.655  30.012  29.326  1.00  0.00     0.049 A 
ATOM     53  C   UNL A   1      46.594  28.920  26.939  1.00  0.00     0.074 A 
ATOM     54  C   UNL A   1      41.491  31.271  29.878  1.00  0.00     0.029 A 
ATOM     55  N   UNL A   1      42.937  29.971  28.801  1.00  0.00    -0.354 N 
ATOM     56  N   UNL A   1      45.509  29.316  27.559  1.00  0.00    -0.248 NA
ATOM     57  C   UNL A   1      47.630  29.956  26.823  1.00  0.00     0.031 C 
ATOM     58  C   UNL A   1      42.661  32.003  29.647  1.00  0.00     0.029 A 
ATOM     59  C   UNL A   1      43.571  31.186  28.997  1.00  0.00     0.049 A 
ATOM     60  H   UNL A   1      43.339  29.190  28.354  1.00  0.00     0.167 HD
ATOM     61  C   UNL A   1      45.741  30.634  27.933  1.00  0.00     0.074 A 
ATOM     62  C   UNL A   1      47.080  30.962  27.488  1.00  0.00     0.031 C 
ATOM     63  C   UNL A   1      44.916  31.495  28.580  1.00  0.00     0.034 A 
BRANCH  50  64
ATOM     64  C   UNL A   1      39.307  29.167  29.778  1.00  0.00     0.023 A 
ATOM     65  C   UNL A   1      38.973  28.791  31.096  1.00  0.00     0.012 A 
ATOM     66  C   UNL A   1      38.328  29.771  28.966  1.00  0.00     0.148 A 
ATOM     67  C   UNL A   1      37.675  28.957  31.578  1.00  0.00     0.002 A 
ATOM     68  C   UNL A   1      37.050  29.984  29.473  1.00  0.00     0.091 A 
ATOM     69  F   UNL A   1      38.652  30.106  27.710  1.00  0.00    -0.205 F 
ATOM     70  C   UNL A   1      36.717  29.561  30.770  1.00  0.00     0.022 A 
BRANCH  68  71
ATOM     71  S   UNL A   1      35.770  30.834  28.542  1.00  0.00     0.127 S 
ATOM     72  O   UNL A   1      36.530  31.914  27.915  1.00  0.00    -0.237 OA
ATOM     73  O   UNL A   1      35.317  29.791  27.621  1.00  0.00    -0.237 OA
ATOM     74  O   UNL A   1      34.775  31.253  29.520  1.00  0.00    -0.744 OA
ENDBRANCH  68  71
ENDBRANCH  50  64
BRANCH  51  75
ATOM     75  C   UNL A   1      48.205  27.309  25.667  1.00  0.00     0.023 A 
ATOM     76  C   UNL A   1      49.315  26.833  26.392  1.00  0.00     0.012 A 
ATOM     77  C   UNL A   1      48.315  27.481  24.274  1.00  0.00     0.148 A 
ATOM     78  C   UNL A   1      50.519  26.553  25.742  1.00  0.00     0.002 A 
ATOM     79  C   UNL A   1      49.496  27.145  23.626  1.00  0.00     0.091 A 
ATOM     80  F   UNL A   1      47.247  27.942  23.607  1.00  0.00    -0.205 F 
ATOM     81  C   UNL A   1      50.606  26.698  24.360  1.00  0.00     0.022 A 
BRANCH  79  82
ATOM     82  S   UNL A   1      49.655  27.164  21.837  1.00  0.00     0.127 S 
ATOM     83  O   UNL A   1      49.418  28.572  21.530  1.00  0.00    -0.237 OA
ATOM     84  O   UNL A   1      51.037  26.716  21.656  1.00  0.00    -0.237 OA
ATOM     85  O   UNL A   1      48.650  26.234  21.340  1.00  0.00    -0.744 OA
ENDBRANCH  79  82
ENDBRANCH  51  75
BRANCH  63  86
ATOM     86  C   UNL A   1      45.442  32.875  28.884  1.00  0.00     0.023 A 
ATOM     87  C   UNL A   1      46.205  33.102  30.046  1.00  0.00     0.012 A 
ATOM     88  C   UNL A   1      45.239  33.931  27.973  1.00  0.00     0.148 A 
ATOM     89  C   UNL A   1      46.726  34.368  30.315  1.00  0.00     0.002 A 
ATOM     90  C   UNL A   1      45.807  35.174  28.221  1.00  0.00     0.091 A 
ATOM     91  F   UNL A   1      44.495  33.700  26.882  1.00  0.00    -0.205 F 
ATOM     92  C   UNL A   1      46.539  35.399  29.398  1.00  0.00     0.022 A 
BRANCH  90  93
ATOM     93  S   UNL A   1      45.703  36.533  27.050  1.00  0.00     0.127 S 
ATOM     94  O   UNL A   1      46.458  37.578  27.739  1.00  0.00    -0.237 OA
ATOM     95  O   UNL A   1      46.367  35.976  25.871  1.00  0.00    -0.237 OA
ATOM     96  O   UNL A   1      44.282  36.805  26.873  1.00  0.00    -0.744 OA
ENDBRANCH  90  93
ENDBRANCH  63  86
ENDBRANCH  37  38
ENDBRANCH  29  32
ENDBRANCH  27  28
ENDBRANCH  26  27
ENDBRANCH   1  26
TORSDOF 17
ENDMDL
MODEL 2
REMARK VINA RESULT:     -12.1      6.254     11.718
REMARK SMILES Cc1nc(=O)[nH]c(C)c1CC(=O)N1CC[C@H](C(=O)NCCCCNC(=O)c2ccc(-c3c4nc(c(-c5cccc(S(=O)(=O)[O-])c5F)c5ccc([nH]5)c(-c5cccc(S(=O)(=O)[O-])c5F)c5nc(c(-c6cccc(S(=O)(=O)[O-])c6F)c6ccc3[nH]6)C=C5)C=C4)cc2)[C@@H]1C
REMARK SMILES IDX 21 1 20 2 19 3 17 4 18 5 16 7 13 8 14 9 90 10 15 11 91 12
REMARK SMILES IDX 11 13 12 14 10 15 9 16 1 17 2 18 3 19 4 20 7 21 5 22 6 23
REMARK SMILES IDX 8 24 22 26 23 27 24 28 25 29 26 31 27 32 28 33 89 34 29 35
REMARK SMILES IDX 88 36 30 37 31 38 32 39 82 40 33 41 87 42 81 43 83 44 34 45
REMARK SMILES IDX 86 46 80 47 79 48 35 50 67 51 47 52 66 53 48 54 51 55 65 56
REMARK SMILES IDX 84 57 49 58 50 59 64 61 85 62 52 63 36 64 37 65 45 66 38 67
REMARK SMILES IDX 40 68 46 69 39 70 41 71 42 72 43 73 44 74 68 75 69 76 77 77
REMARK SMILES IDX 70 78 72 79 78 80 71 81 73 82 74 83 75 84 76 85 53 86 54 87
REMARK SMILES IDX 62 88 55 89 57 90 63 91 56 92 58 93 59 94 60 95 61 96
REMARK H PARENT 19 6 6 25 24 30 83 49 51 60
REMARK Flexibility Score: inf
ROOT
ATOM      1  C   UNL A   1      32.213  30.283  26.425  1.00  0.00     0.023 C 
ENDROOT
BRANCH   1   2
ATOM      2  C   UNL A   1      31.645  29.783  25.103  1.00  0.00     0.116 C 
BRANCH   2   3
ATOM      3  N   UNL A   1      32.659  29.396  24.136  1.00  0.00    -0.356 N 
ATOM      4  C   UNL A   1      32.823  28.304  23.347  1.00  0.00     0.225 C 
ATOM      5  O   UNL A   1      33.683  28.405  22.462  1.00  0.00    -0.275 OA
ATOM      6  H   UNL A   1      33.372  30.065  24.031  1.00  0.00     0.163 HD
BRANCH   4   7
ATOM      7  C   UNL A   1      32.135  26.941  23.520  1.00  0.00     0.102 C 
ATOM      8  N   UNL A   1      33.544  25.025  23.524  1.00  0.00    -0.339 N 
ATOM      9  C   UNL A   1      33.296  25.407  22.132  1.00  0.00     0.120 C 
ATOM     10  C   UNL A   1      32.708  25.844  24.435  1.00  0.00     0.094 C 
ATOM     11  C   UNL A   1      32.036  26.247  22.170  1.00  0.00     0.037 C 
ATOM     12  C   UNL A   1      33.313  26.461  25.693  1.00  0.00     0.032 C 
BRANCH   8  13
ATOM     13  C   UNL A   1      34.404  23.964  23.718  1.00  0.00     0.227 C 
ATOM     14  O   UNL A   1      35.046  23.507  22.763  1.00  0.00    -0.275 OA
BRANCH  13  15
ATOM     15  C   UNL A   1      34.455  23.204  25.039  1.00  0.00     0.139 C 
BRANCH  15  16
ATOM     16  C   UNL A   1      33.936  21.806  25.050  1.00  0.00     0.002 A 
ATOM     17  C   UNL A   1      31.442  22.646  25.029  1.00  0.00     0.067 C 
ATOM     18  C   UNL A   1      32.462  21.523  25.104  1.00  0.00     0.049 A 
ATOM     19  N   UNL A   1      31.948  20.344  25.247  1.00  0.00    -0.198 NA
ATOM     20  C   UNL A   1      32.773  19.262  25.338  1.00  0.00     0.345 A 
ATOM     21  C   UNL A   1      34.706  20.700  25.037  1.00  0.00     0.022 A 
ATOM     22  O   UNL A   1      32.359  18.126  25.555  1.00  0.00    -0.246 OA
ATOM     23  N   UNL A   1      34.115  19.471  25.182  1.00  0.00    -0.310 N 
ATOM     24  C   UNL A   1      36.209  20.668  24.959  1.00  0.00     0.065 C 
ATOM     25  H   UNL A   1      34.702  18.679  25.172  1.00  0.00     0.171 HD
ENDBRANCH  15  16
ENDBRANCH  13  15
ENDBRANCH   8  13
ENDBRANCH   4   7
ENDBRANCH   2   3
ENDBRANCH   1   2
BRANCH   1  26
ATOM     26  C   UNL A   1      31.844  31.720  26.777  1.00  0.00     0.023 C 
BRANCH  26  27
ATOM     27  C   UNL A   1      32.929  32.516  27.495  1.00  0.00     0.116 C 
BRANCH  27  28
ATOM     28  N   UNL A   1      32.563  33.909  27.731  1.00  0.00    -0.352 N 
ATOM     29  C   UNL A   1      33.097  34.811  28.622  1.00  0.00     0.251 C 
ATOM     30  H   UNL A   1      31.828  34.252  27.174  1.00  0.00     0.163 HD
ATOM     31  O   UNL A   1      32.584  35.916  28.763  1.00  0.00    -0.269 OA
BRANCH  29  32
ATOM     32  C   UNL A   1      34.270  34.419  29.432  1.00  0.00     0.039 A 
ATOM     33  C   UNL A   1      34.070  33.850  30.692  1.00  0.00     0.014 A 
ATOM     34  C   UNL A   1      35.560  34.550  28.913  1.00  0.00     0.014 A 
ATOM     35  C   UNL A   1      35.160  33.332  31.394  1.00  0.00     0.010 A 
ATOM     36  C   UNL A   1      36.628  33.945  29.568  1.00  0.00     0.010 A 
ATOM     37  C   UNL A   1      36.442  33.330  30.816  1.00  0.00    -0.014 A 
BRANCH  37  38
ATOM     38  C   UNL A   1      37.593  32.674  31.490  1.00  0.00     0.031 A 
ATOM     39  C   UNL A   1      38.291  31.508  30.841  1.00  0.00     0.074 A 
ATOM     40  C   UNL A   1      37.951  33.060  32.730  1.00  0.00     0.049 A 
ATOM     41  N   UNL A   1      39.272  30.775  31.299  1.00  0.00    -0.248 NA
ATOM     42  C   UNL A   1      37.798  31.091  29.519  1.00  0.00     0.031 C 
ATOM     43  C   UNL A   1      37.293  34.109  33.512  1.00  0.00     0.029 A 
ATOM     44  N   UNL A   1      38.936  32.593  33.567  1.00  0.00    -0.354 N 
ATOM     45  C   UNL A   1      39.488  29.790  30.344  1.00  0.00     0.074 A 
ATOM     46  C   UNL A   1      38.503  29.991  29.304  1.00  0.00     0.031 C 
ATOM     47  C   UNL A   1      37.889  34.205  34.710  1.00  0.00     0.029 A 
ATOM     48  C   UNL A   1      38.948  33.204  34.799  1.00  0.00     0.049 A 
ATOM     49  H   UNL A   1      39.573  31.888  33.308  1.00  0.00     0.167 HD
ATOM     50  C   UNL A   1      40.437  28.824  30.315  1.00  0.00     0.034 A 
ATOM     51  C   UNL A   1      39.709  32.973  35.888  1.00  0.00     0.034 A 
ATOM     52  C   UNL A   1      41.428  28.641  31.340  1.00  0.00     0.049 A 
ATOM     53  C   UNL A   1      40.781  31.922  35.824  1.00  0.00     0.074 A 
ATOM     54  C   UNL A   1      42.491  27.755  31.362  1.00  0.00     0.029 A 
ATOM     55  N   UNL A   1      41.467  29.339  32.538  1.00  0.00    -0.354 N 
ATOM     56  N   UNL A   1      41.083  31.112  34.839  1.00  0.00    -0.248 NA
ATOM     57  C   UNL A   1      41.645  31.779  37.004  1.00  0.00     0.031 C 
ATOM     58  C   UNL A   1      43.145  27.888  32.591  1.00  0.00     0.029 A 
ATOM     59  C   UNL A   1      42.522  28.892  33.315  1.00  0.00     0.049 A 
ATOM     60  H   UNL A   1      40.837  30.050  32.797  1.00  0.00     0.167 HD
ATOM     61  C   UNL A   1      42.186  30.383  35.267  1.00  0.00     0.074 A 
ATOM     62  C   UNL A   1      42.513  30.865  36.593  1.00  0.00     0.031 C 
ATOM     63  C   UNL A   1      42.861  29.400  34.621  1.00  0.00     0.034 A 
BRANCH  50  64
ATOM     64  C   UNL A   1      40.457  27.910  29.115  1.00  0.00     0.023 A 
ATOM     65  C   UNL A   1      39.536  26.845  29.027  1.00  0.00     0.012 A 
ATOM     66  C   UNL A   1      41.375  28.114  28.066  1.00  0.00     0.148 A 
ATOM     67  C   UNL A   1      39.566  25.963  27.947  1.00  0.00     0.002 A 
ATOM     68  C   UNL A   1      41.362  27.263  26.966  1.00  0.00     0.091 A 
ATOM     69  F   UNL A   1      42.257  29.117  28.171  1.00  0.00    -0.205 F 
ATOM     70  C   UNL A   1      40.473  26.177  26.913  1.00  0.00     0.022 A 
BRANCH  68  71
ATOM     71  S   UNL A   1      42.430  27.507  25.543  1.00  0.00     0.127 S 
ATOM     72  O   UNL A   1      43.755  27.492  26.162  1.00  0.00    -0.237 OA
ATOM     73  O   UNL A   1      42.125  26.333  24.725  1.00  0.00    -0.237 OA
ATOM     74  O   UNL A   1      42.028  28.777  24.953  1.00  0.00    -0.744 OA
ENDBRANCH  68  71
ENDBRANCH  50  64
BRANCH  51  75
ATOM     75  C   UNL A   1      39.497  33.789  37.117  1.00  0.00     0.023 A 
ATOM     76  C   UNL A   1      39.897  35.140  37.140  1.00  0.00     0.012 A 
ATOM     77  C   UNL A   1      38.847  33.245  38.241  1.00  0.00     0.148 A 
ATOM     78  C   UNL A   1      39.673  35.926  38.271  1.00  0.00     0.002 A 
ATOM     79  C   UNL A   1      38.575  34.049  39.340  1.00  0.00     0.091 A 
ATOM     80  F   UNL A   1      38.482  31.956  38.198  1.00  0.00    -0.205 F 
ATOM     81  C   UNL A   1      39.003  35.385  39.365  1.00  0.00     0.022 A 
BRANCH  79  82
ATOM     82  S   UNL A   1      37.595  33.480  40.733  1.00  0.00     0.127 S 
ATOM     83  O   UNL A   1      37.616  34.647  41.611  1.00  0.00    -0.237 OA
ATOM     84  O   UNL A   1      36.304  33.208  40.098  1.00  0.00    -0.237 OA
ATOM     85  O   UNL A   1      38.277  32.297  41.242  1.00  0.00    -0.744 OA
ENDBRANCH  79  82
ENDBRANCH  51  75
BRANCH  63  86
ATOM     86  C   UNL A   1      44.051  28.792  35.319  1.00  0.00     0.023 A 
ATOM     87  C   UNL A   1      45.341  29.318  35.111  1.00  0.00     0.012 A 
ATOM     88  C   UNL A   1      43.875  27.740  36.241  1.00  0.00     0.148 A 
ATOM     89  C   UNL A   1      46.441  28.785  35.782  1.00  0.00     0.002 A 
ATOM     90  C   UNL A   1      44.968  27.251  36.946  1.00  0.00     0.091 A 
ATOM     91  F   UNL A   1      42.643  27.240  36.413  1.00  0.00    -0.205 F 
ATOM     92  C   UNL A   1      46.254  27.761  36.708  1.00  0.00     0.022 A 
BRANCH  90  93
ATOM     93  S   UNL A   1      44.808  26.003  38.229  1.00  0.00     0.127 S 
ATOM     94  O   UNL A   1      46.177  25.918  38.734  1.00  0.00    -0.237 OA
ATOM     95  O   UNL A   1      43.856  26.627  39.149  1.00  0.00    -0.237 OA
ATOM     96  O   UNL A   1      44.312  24.803  37.566  1.00  0.00    -0.744 OA
ENDBRANCH  90  93
ENDBRANCH  63  86
ENDBRANCH  37  38
ENDBRANCH  29  32
ENDBRANCH  27  28
ENDBRANCH  26  27
ENDBRANCH   1  26
TORSDOF 17
ENDMDL
MODEL 3
REMARK VINA RESULT:     -12.0      5.284      8.969
REMARK SMILES Cc1nc(=O)[nH]c(C)c1CC(=O)N1CC[C@H](C(=O)NCCCCNC(=O)c2ccc(-c3c4nc(c(-c5cccc(S(=O)(=O)[O-])c5F)c5ccc([nH]5)c(-c5cccc(S(=O)(=O)[O-])c5F)c5nc(c(-c6cccc(S(=O)(=O)[O-])c6F)c6ccc3[nH]6)C=C5)C=C4)cc2)[C@@H]1C
REMARK SMILES IDX 21 1 20 2 19 3 17 4 18 5 16 7 13 8 14 9 90 10 15 11 91 12
REMARK SMILES IDX 11 13 12 14 10 15 9 16 1 17 2 18 3 19 4 20 7 21 5 22 6 23
REMARK SMILES IDX 8 24 22 26 23 27 24 28 25 29 26 31 27 32 28 33 89 34 29 35
REMARK SMILES IDX 88 36 30 37 31 38 32 39 82 40 33 41 87 42 81 43 83 44 34 45
REMARK SMILES IDX 86 46 80 47 79 48 35 50 67 51 47 52 66 53 48 54 51 55 65 56
REMARK SMILES IDX 84 57 49 58 50 59 64 61 85 62 52 63 36 64 37 65 45 66 38 67
REMARK SMILES IDX 40 68 46 69 39 70 41 71 42 72 43 73 44 74 68 75 69 76 77 77
REMARK SMILES IDX 70 78 72 79 78 80 71 81 73 82 74 83 75 84 76 85 53 86 54 87
REMARK SMILES IDX 62 88 55 89 57 90 63 91 56 92 58 93 59 94 60 95 61 96
REMARK H PARENT 19 6 6 25 24 30 83 49 51 60
REMARK Flexibility Score: inf
ROOT
ATOM      1  C   UNL A   1      31.176  29.695  23.773  1.00  0.00     0.023 C 
ENDROOT
BRANCH   1   2
ATOM      2  C   UNL A   1      30.960  28.628  22.707  1.00  0.00     0.116 C 
BRANCH   2   3
ATOM      3  N   UNL A   1      32.188  28.010  22.236  1.00  0.00    -0.356 N 
ATOM      4  C   UNL A   1      32.708  26.762  22.359  1.00  0.00     0.225 C 
ATOM      5  O   UNL A   1      33.675  26.508  21.628  1.00  0.00    -0.275 OA
ATOM      6  H   UNL A   1      32.759  28.622  21.720  1.00  0.00     0.163 HD
BRANCH   4   7
ATOM      7  C   UNL A   1      32.289  25.695  23.383  1.00  0.00     0.102 C 
ATOM      8  N   UNL A   1      33.945  24.109  24.013  1.00  0.00    -0.339 N 
ATOM      9  C   UNL A   1      33.356  23.676  22.743  1.00  0.00     0.120 C 
ATOM     10  C   UNL A   1      33.201  25.275  24.548  1.00  0.00     0.094 C 
ATOM     11  C   UNL A   1      32.019  24.381  22.665  1.00  0.00     0.037 C 
ATOM     12  C   UNL A   1      33.952  26.484  25.100  1.00  0.00     0.032 C 
BRANCH   8  13
ATOM     13  C   UNL A   1      34.979  23.336  24.498  1.00  0.00     0.227 C 
ATOM     14  O   UNL A   1      36.069  23.324  23.910  1.00  0.00    -0.275 OA
BRANCH  13  15
ATOM     15  C   UNL A   1      34.772  22.341  25.634  1.00  0.00     0.139 C 
BRANCH  15  16
ATOM     16  C   UNL A   1      34.220  21.001  25.285  1.00  0.00     0.002 A 
ATOM     17  C   UNL A   1      31.747  21.861  25.549  1.00  0.00     0.067 C 
ATOM     18  C   UNL A   1      32.741  20.741  25.297  1.00  0.00     0.049 A 
ATOM     19  N   UNL A   1      32.201  19.576  25.133  1.00  0.00    -0.198 NA
ATOM     20  C   UNL A   1      33.001  18.493  24.913  1.00  0.00     0.345 A 
ATOM     21  C   UNL A   1      34.963  19.924  24.959  1.00  0.00     0.022 A 
ATOM     22  O   UNL A   1      32.564  17.349  24.829  1.00  0.00    -0.246 OA
ATOM     23  N   UNL A   1      34.345  18.712  24.785  1.00  0.00    -0.310 N 
ATOM     24  C   UNL A   1      36.463  19.887  24.839  1.00  0.00     0.065 C 
ATOM     25  H   UNL A   1      34.912  17.941  24.550  1.00  0.00     0.171 HD
ENDBRANCH  15  16
ENDBRANCH  13  15
ENDBRANCH   8  13
ENDBRANCH   4   7
ENDBRANCH   2   3
ENDBRANCH   1   2
BRANCH   1  26
ATOM     26  C   UNL A   1      31.422  29.155  25.178  1.00  0.00     0.023 C 
BRANCH  26  27
ATOM     27  C   UNL A   1      32.626  29.747  25.904  1.00  0.00     0.116 C 
BRANCH  27  28
ATOM     28  N   UNL A   1      32.404  31.112  26.371  1.00  0.00    -0.352 N 
ATOM     29  C   UNL A   1      33.173  31.879  27.215  1.00  0.00     0.251 C 
ATOM     30  H   UNL A   1      31.587  31.545  26.034  1.00  0.00     0.163 HD
ATOM     31  O   UNL A   1      32.771  32.976  27.589  1.00  0.00    -0.269 OA
BRANCH  29  32
ATOM     32  C   UNL A   1      34.469  31.351  27.692  1.00  0.00     0.039 A 
ATOM     33  C   UNL A   1      35.518  32.239  27.938  1.00  0.00     0.014 A 
ATOM     34  C   UNL A   1      34.619  29.989  27.960  1.00  0.00     0.014 A 
ATOM     35  C   UNL A   1      36.689  31.771  28.539  1.00  0.00     0.010 A 
ATOM     36  C   UNL A   1      35.744  29.545  28.648  1.00  0.00     0.010 A 
ATOM     37  C   UNL A   1      36.792  30.429  28.944  1.00  0.00    -0.014 A 
BRANCH  37  38
ATOM     38  C   UNL A   1      37.977  29.937  29.696  1.00  0.00     0.031 A 
ATOM     39  C   UNL A   1      38.258  30.439  31.087  1.00  0.00     0.074 A 
ATOM     40  C   UNL A   1      38.857  29.114  29.092  1.00  0.00     0.049 A 
ATOM     41  N   UNL A   1      39.268  30.169  31.873  1.00  0.00    -0.248 NA
ATOM     42  C   UNL A   1      37.295  31.396  31.655  1.00  0.00     0.031 C 
ATOM     43  C   UNL A   1      38.757  28.632  27.713  1.00  0.00     0.029 A 
ATOM     44  N   UNL A   1      40.030  28.562  29.550  1.00  0.00    -0.354 N 
ATOM     45  C   UNL A   1      39.084  30.949  33.007  1.00  0.00     0.074 A 
ATOM     46  C   UNL A   1      37.891  31.737  32.787  1.00  0.00     0.031 C 
ATOM     47  C   UNL A   1      39.819  27.861  27.437  1.00  0.00     0.029 A 
ATOM     48  C   UNL A   1      40.695  27.819  28.603  1.00  0.00     0.049 A 
ATOM     49  H   UNL A   1      40.361  28.687  30.468  1.00  0.00     0.167 HD
ATOM     50  C   UNL A   1      39.819  30.986  34.145  1.00  0.00     0.034 A 
ATOM     51  C   UNL A   1      41.887  27.190  28.657  1.00  0.00     0.034 A 
ATOM     52  C   UNL A   1      40.992  30.185  34.369  1.00  0.00     0.049 A 
ATOM     53  C   UNL A   1      42.670  27.212  29.939  1.00  0.00     0.074 A 
ATOM     54  C   UNL A   1      41.754  30.078  35.519  1.00  0.00     0.029 A 
ATOM     55  N   UNL A   1      41.589  29.372  33.418  1.00  0.00    -0.354 N 
ATOM     56  N   UNL A   1      42.390  27.820  31.066  1.00  0.00    -0.248 NA
ATOM     57  C   UNL A   1      43.914  26.430  29.973  1.00  0.00     0.031 C 
ATOM     58  C   UNL A   1      42.835  29.233  35.249  1.00  0.00     0.029 A 
ATOM     59  C   UNL A   1      42.720  28.774  33.947  1.00  0.00     0.049 A 
ATOM     60  H   UNL A   1      41.257  29.238  32.501  1.00  0.00     0.167 HD
ATOM     61  C   UNL A   1      43.404  27.473  31.951  1.00  0.00     0.074 A 
ATOM     62  C   UNL A   1      44.294  26.583  31.234  1.00  0.00     0.031 C 
ATOM     63  C   UNL A   1      43.584  27.863  33.237  1.00  0.00     0.034 A 
BRANCH  50  64
ATOM     64  C   UNL A   1      39.350  31.910  35.242  1.00  0.00     0.023 A 
ATOM     65  C   UNL A   1      39.632  33.291  35.165  1.00  0.00     0.012 A 
ATOM     66  C   UNL A   1      38.617  31.418  36.338  1.00  0.00     0.148 A 
ATOM     67  C   UNL A   1      39.246  34.155  36.190  1.00  0.00     0.002 A 
ATOM     68  C   UNL A   1      38.187  32.295  37.328  1.00  0.00     0.091 A 
ATOM     69  F   UNL A   1      38.372  30.101  36.407  1.00  0.00    -0.205 F 
ATOM     70  C   UNL A   1      38.516  33.659  37.266  1.00  0.00     0.022 A 
BRANCH  68  71
ATOM     71  S   UNL A   1      37.166  31.768  38.709  1.00  0.00     0.127 S 
ATOM     72  O   UNL A   1      38.063  31.993  39.841  1.00  0.00    -0.237 OA
ATOM     73  O   UNL A   1      36.038  32.697  38.628  1.00  0.00    -0.237 OA
ATOM     74  O   UNL A   1      36.824  30.377  38.446  1.00  0.00    -0.744 OA
ENDBRANCH  68  71
ENDBRANCH  50  64
BRANCH  51  75
ATOM     75  C   UNL A   1      42.383  26.456  27.458  1.00  0.00     0.023 A 
ATOM     76  C   UNL A   1      43.198  27.117  26.519  1.00  0.00     0.012 A 
ATOM     77  C   UNL A   1      42.094  25.090  27.279  1.00  0.00     0.148 A 
ATOM     78  C   UNL A   1      43.699  26.433  25.410  1.00  0.00     0.002 A 
ATOM     79  C   UNL A   1      42.644  24.401  26.205  1.00  0.00     0.091 A 
ATOM     80  F   UNL A   1      41.310  24.484  28.183  1.00  0.00    -0.205 F 
ATOM     81  C   UNL A   1      43.432  25.074  25.259  1.00  0.00     0.022 A 
BRANCH  79  82
ATOM     82  S   UNL A   1      42.471  22.624  26.008  1.00  0.00     0.127 S 
ATOM     83  O   UNL A   1      41.020  22.465  25.981  1.00  0.00    -0.237 OA
ATOM     84  O   UNL A   1      43.141  22.401  24.726  1.00  0.00    -0.237 OA
ATOM     85  O   UNL A   1      43.149  22.031  27.153  1.00  0.00    -0.744 OA
ENDBRANCH  79  82
ENDBRANCH  51  75
BRANCH  63  86
ATOM     86  C   UNL A   1      44.772  27.305  33.979  1.00  0.00     0.023 A 
ATOM     87  C   UNL A   1      46.022  27.950  33.904  1.00  0.00     0.012 A 
ATOM     88  C   UNL A   1      44.625  26.177  34.812  1.00  0.00     0.148 A 
ATOM     89  C   UNL A   1      47.116  27.461  34.618  1.00  0.00     0.002 A 
ATOM     90  C   UNL A   1      45.706  25.729  35.562  1.00  0.00     0.091 A 
ATOM     91  F   UNL A   1      43.433  25.566  34.857  1.00  0.00    -0.205 F 
ATOM     92  C   UNL A   1      46.955  26.360  35.456  1.00  0.00     0.022 A 
BRANCH  90  93
ATOM     93  S   UNL A   1      45.567  24.381  36.742  1.00  0.00     0.127 S 
ATOM     94  O   UNL A   1      45.083  23.293  35.895  1.00  0.00    -0.237 OA
ATOM     95  O   UNL A   1      46.948  24.230  37.201  1.00  0.00    -0.237 OA
ATOM     96  O   UNL A   1      44.635  24.835  37.766  1.00  0.00    -0.744 OA
ENDBRANCH  90  93
ENDBRANCH  63  86
ENDBRANCH  37  38
ENDBRANCH  29  32
ENDBRANCH  27  28
ENDBRANCH  26  27
ENDBRANCH   1  26
TORSDOF 17
ENDMDL
