MODEL 1
REMARK VINA RESULT:     -11.6      0.000      0.000
REMARK SMILES O=C(Cn1nc(-c2ccccc2)ccc1=O)N[C@@H](C(=O)NCCCCNC(=O)c1ccc(-c2c3nc(c(-c4cccc(S(=O)(=O)[O-])c4F)c4ccc([nH]4)c(-c4cccc(S(=O)(=O)[O-])c4F)c4nc(c(-c5cccc(S(=O)(=O)[O-])c5F)c5ccc2[nH]5)C=C4)C=C3)cc1)c1ccccc1
REMARK SMILES IDX 23 1 22 2 21 3 19 4 20 5 18 7 17 8 1 9 2 10 3 12 4 13 5 14
REMARK SMILES IDX 15 15 6 16 14 17 16 18 13 19 7 20 8 21 12 22 9 23 11 24
REMARK SMILES IDX 10 25 92 26 93 27 97 28 94 29 96 30 95 31 24 32 25 33 26 34
REMARK SMILES IDX 27 35 28 37 29 38 30 39 91 40 31 41 90 42 32 43 33 44 34 45
REMARK SMILES IDX 84 46 35 47 89 48 83 49 85 50 36 51 88 52 82 53 81 54 37 56
REMARK SMILES IDX 69 57 49 58 68 59 50 60 53 61 67 62 86 63 51 64 52 65 66 67
REMARK SMILES IDX 87 68 54 69 38 70 39 71 47 72 40 73 42 74 48 75 41 76 43 77
REMARK SMILES IDX 44 78 45 79 46 80 70 81 71 82 79 83 72 84 74 85 80 86 73 87
REMARK SMILES IDX 75 88 76 89 77 90 78 91 55 92 56 93 64 94 57 95 59 96 65 97
REMARK SMILES IDX 58 98 60 99 61 100 62 101 63 102
REMARK H PARENT 21 6 17 11 26 36 85 55 53 66
REMARK Flexibility Score: inf
ROOT
ATOM      1  C   UNL A   1      38.310  22.597  26.080  1.00  0.00     0.023 C 
ENDROOT
BRANCH   1   2
ATOM      2  C   UNL A   1      36.876  22.839  25.604  1.00  0.00     0.116 C 
BRANCH   2   3
ATOM      3  N   UNL A   1      35.917  22.228  26.501  1.00  0.00    -0.354 N 
ATOM      4  C   UNL A   1      34.792  21.508  26.203  1.00  0.00     0.247 C 
ATOM      5  O   UNL A   1      34.090  21.163  27.159  1.00  0.00    -0.272 OA
ATOM      6  H   UNL A   1      36.100  22.348  27.461  1.00  0.00     0.163 HD
BRANCH   4   7
ATOM      7  C   UNL A   1      34.468  21.133  24.725  1.00  0.00     0.202 C 
BRANCH   7   8
ATOM      8  N   UNL A   1      33.444  22.018  24.175  1.00  0.00    -0.339 N 
ATOM      9  O   UNL A   1      34.826  23.153  22.737  1.00  0.00    -0.273 OA
ATOM     10  C   UNL A   1      33.703  22.952  23.194  1.00  0.00     0.242 C 
ATOM     11  H   UNL A   1      32.525  21.942  24.520  1.00  0.00     0.164 HD
BRANCH  10  12
ATOM     12  C   UNL A   1      32.495  23.795  22.785  1.00  0.00     0.248 C 
BRANCH  12  13
ATOM     13  N   UNL A   1      32.710  25.235  22.773  1.00  0.00    -0.220 N 
ATOM     14  N   UNL A   1      32.520  25.924  23.945  1.00  0.00    -0.169 NA
ATOM     15  C   UNL A   1      33.022  25.841  21.564  1.00  0.00     0.267 A 
ATOM     16  C   UNL A   1      32.608  27.213  23.905  1.00  0.00     0.091 A 
ATOM     17  C   UNL A   1      33.130  27.316  21.582  1.00  0.00     0.075 A 
ATOM     18  O   UNL A   1      33.203  25.243  20.506  1.00  0.00    -0.268 OA
ATOM     19  C   UNL A   1      32.921  28.007  22.704  1.00  0.00     0.036 A 
BRANCH  16  20
ATOM     20  C   UNL A   1      32.384  27.979  25.139  1.00  0.00     0.002 A 
ATOM     21  C   UNL A   1      31.954  27.312  26.287  1.00  0.00     0.010 A 
ATOM     22  C   UNL A   1      32.539  29.367  25.126  1.00  0.00     0.010 A 
ATOM     23  C   UNL A   1      31.683  28.046  27.440  1.00  0.00     0.001 A 
ATOM     24  C   UNL A   1      32.262  30.094  26.283  1.00  0.00     0.001 A 
ATOM     25  C   UNL A   1      31.835  29.434  27.437  1.00  0.00     0.000 A 
ENDBRANCH  16  20
ENDBRANCH  12  13
ENDBRANCH  10  12
ENDBRANCH   7   8
BRANCH   7  26
ATOM     26  C   UNL A   1      34.059  19.668  24.596  1.00  0.00    -0.016 A 
ATOM     27  C   UNL A   1      35.046  18.668  24.583  1.00  0.00     0.006 A 
ATOM     28  C   UNL A   1      32.711  19.276  24.575  1.00  0.00     0.006 A 
ATOM     29  C   UNL A   1      34.694  17.318  24.546  1.00  0.00     0.000 A 
ATOM     30  C   UNL A   1      32.362  17.924  24.541  1.00  0.00     0.000 A 
ATOM     31  C   UNL A   1      33.352  16.945  24.523  1.00  0.00     0.000 A 
ENDBRANCH   7  26
ENDBRANCH   4   7
ENDBRANCH   2   3
ENDBRANCH   1   2
BRANCH   1  32
ATOM     32  C   UNL A   1      38.951  21.314  25.544  1.00  0.00     0.023 C 
BRANCH  32  33
ATOM     33  C   UNL A   1      39.626  20.438  26.592  1.00  0.00     0.116 C 
BRANCH  33  34
ATOM     34  N   UNL A   1      40.670  19.583  26.048  1.00  0.00    -0.352 N 
ATOM     35  C   UNL A   1      41.996  19.886  25.840  1.00  0.00     0.251 C 
ATOM     36  H   UNL A   1      40.393  18.672  25.798  1.00  0.00     0.163 HD
ATOM     37  O   UNL A   1      42.729  19.080  25.272  1.00  0.00    -0.269 OA
BRANCH  35  38
ATOM     38  C   UNL A   1      42.514  21.207  26.262  1.00  0.00     0.039 A 
ATOM     39  C   UNL A   1      42.820  21.453  27.601  1.00  0.00     0.014 A 
ATOM     40  C   UNL A   1      42.646  22.223  25.312  1.00  0.00     0.014 A 
ATOM     41  C   UNL A   1      43.095  22.751  28.015  1.00  0.00     0.010 A 
ATOM     42  C   UNL A   1      43.005  23.511  25.720  1.00  0.00     0.010 A 
ATOM     43  C   UNL A   1      43.181  23.798  27.082  1.00  0.00    -0.014 A 
BRANCH  43  44
ATOM     44  C   UNL A   1      43.464  25.175  27.567  1.00  0.00     0.031 A 
ATOM     45  C   UNL A   1      44.829  25.791  27.407  1.00  0.00     0.074 A 
ATOM     46  C   UNL A   1      42.459  25.897  28.100  1.00  0.00     0.049 A 
ATOM     47  N   UNL A   1      45.213  27.010  27.690  1.00  0.00    -0.248 NA
ATOM     48  C   UNL A   1      45.902  24.939  26.868  1.00  0.00     0.031 C 
ATOM     49  C   UNL A   1      41.103  25.398  28.338  1.00  0.00     0.029 A 
ATOM     50  N   UNL A   1      42.411  27.204  28.513  1.00  0.00    -0.354 N 
ATOM     51  C   UNL A   1      46.571  27.061  27.401  1.00  0.00     0.074 A 
ATOM     52  C   UNL A   1      46.951  25.750  26.925  1.00  0.00     0.031 C 
ATOM     53  C   UNL A   1      40.342  26.401  28.799  1.00  0.00     0.029 A 
ATOM     54  C   UNL A   1      41.163  27.601  28.931  1.00  0.00     0.049 A 
ATOM     55  H   UNL A   1      43.195  27.800  28.511  1.00  0.00     0.167 HD
ATOM     56  C   UNL A   1      47.418  28.112  27.500  1.00  0.00     0.034 A 
ATOM     57  C   UNL A   1      40.721  28.797  29.364  1.00  0.00     0.034 A 
ATOM     58  C   UNL A   1      47.027  29.433  27.911  1.00  0.00     0.049 A 
ATOM     59  C   UNL A   1      41.671  29.955  29.428  1.00  0.00     0.074 A 
ATOM     60  C   UNL A   1      47.809  30.573  27.979  1.00  0.00     0.029 A 
ATOM     61  N   UNL A   1      45.753  29.794  28.316  1.00  0.00    -0.354 N 
ATOM     62  N   UNL A   1      42.928  30.005  29.056  1.00  0.00    -0.248 NA
ATOM     63  C   UNL A   1      41.148  31.223  29.954  1.00  0.00     0.031 C 
ATOM     64  C   UNL A   1      47.006  31.626  28.427  1.00  0.00     0.029 A 
ATOM     65  C   UNL A   1      45.725  31.139  28.636  1.00  0.00     0.049 A 
ATOM     66  H   UNL A   1      44.982  29.184  28.367  1.00  0.00     0.167 HD
ATOM     67  C   UNL A   1      43.344  31.307  29.298  1.00  0.00     0.074 A 
ATOM     68  C   UNL A   1      42.200  32.023  29.825  1.00  0.00     0.031 C 
ATOM     69  C   UNL A   1      44.571  31.851  29.117  1.00  0.00     0.034 A 
BRANCH  56  70
ATOM     70  C   UNL A   1      48.851  27.909  27.095  1.00  0.00     0.023 A 
ATOM     71  C   UNL A   1      49.197  28.000  25.733  1.00  0.00     0.012 A 
ATOM     72  C   UNL A   1      49.864  27.747  28.061  1.00  0.00     0.148 A 
ATOM     73  C   UNL A   1      50.531  27.925  25.335  1.00  0.00     0.002 A 
ATOM     74  C   UNL A   1      51.193  27.700  27.659  1.00  0.00     0.091 A 
ATOM     75  F   UNL A   1      49.506  27.652  29.350  1.00  0.00    -0.205 F 
ATOM     76  C   UNL A   1      51.528  27.786  26.298  1.00  0.00     0.022 A 
BRANCH  74  77
ATOM     77  S   UNL A   1      52.559  27.577  28.820  1.00  0.00     0.127 S 
ATOM     78  O   UNL A   1      53.713  27.735  27.935  1.00  0.00    -0.237 OA
ATOM     79  O   UNL A   1      52.310  28.714  29.707  1.00  0.00    -0.237 OA
ATOM     80  O   UNL A   1      52.437  26.271  29.451  1.00  0.00    -0.744 OA
ENDBRANCH  74  77
ENDBRANCH  56  70
BRANCH  57  81
ATOM     81  C   UNL A   1      39.280  28.955  29.699  1.00  0.00     0.023 A 
ATOM     82  C   UNL A   1      38.844  28.669  31.007  1.00  0.00     0.012 A 
ATOM     83  C   UNL A   1      38.367  29.477  28.763  1.00  0.00     0.148 A 
ATOM     84  C   UNL A   1      37.520  28.901  31.377  1.00  0.00     0.002 A 
ATOM     85  C   UNL A   1      37.061  29.749  29.152  1.00  0.00     0.091 A 
ATOM     86  F   UNL A   1      38.809  29.734  27.524  1.00  0.00    -0.205 F 
ATOM     87  C   UNL A   1      36.633  29.454  30.456  1.00  0.00     0.022 A 
BRANCH  85  88
ATOM     88  S   UNL A   1      35.883  30.571  28.074  1.00  0.00     0.127 S 
ATOM     89  O   UNL A   1      34.746  30.766  28.969  1.00  0.00    -0.237 OA
ATOM     90  O   UNL A   1      36.605  31.793  27.718  1.00  0.00    -0.237 OA
ATOM     91  O   UNL A   1      35.658  29.657  26.963  1.00  0.00    -0.744 OA
ENDBRANCH  85  88
ENDBRANCH  57  81
BRANCH  69  92
ATOM     92  C   UNL A   1      44.769  33.291  29.493  1.00  0.00     0.023 A 
ATOM     93  C   UNL A   1      45.259  33.601  30.776  1.00  0.00     0.012 A 
ATOM     94  C   UNL A   1      44.610  34.315  28.540  1.00  0.00     0.148 A 
ATOM     95  C   UNL A   1      45.589  34.913  31.107  1.00  0.00     0.002 A 
ATOM     96  C   UNL A   1      44.970  35.617  28.866  1.00  0.00     0.091 A 
ATOM     97  F   UNL A   1      44.138  33.990  27.327  1.00  0.00    -0.205 F 
ATOM     98  C   UNL A   1      45.457  35.918  30.150  1.00  0.00     0.022 A 
BRANCH  96  99
ATOM     99  S   UNL A   1      44.907  36.968  27.685  1.00  0.00     0.127 S 
ATOM    100  O   UNL A   1      43.540  36.855  27.175  1.00  0.00    -0.237 OA
ATOM    101  O   UNL A   1      45.146  38.133  28.536  1.00  0.00    -0.237 OA
ATOM    102  O   UNL A   1      45.953  36.702  26.707  1.00  0.00    -0.744 OA
ENDBRANCH  96  99
ENDBRANCH  69  92
ENDBRANCH  43  44
ENDBRANCH  35  38
ENDBRANCH  33  34
ENDBRANCH  32  33
ENDBRANCH   1  32
TORSDOF 19
ENDMDL
MODEL 2
REMARK VINA RESULT:     -11.6      1.800      2.184
REMARK SMILES O=C(Cn1nc(-c2ccccc2)ccc1=O)N[C@@H](C(=O)NCCCCNC(=O)c1ccc(-c2c3nc(c(-c4cccc(S(=O)(=O)[O-])c4F)c4ccc([nH]4)c(-c4cccc(S(=O)(=O)[O-])c4F)c4nc(c(-c5cccc(S(=O)(=O)[O-])c5F)c5ccc2[nH]5)C=C4)C=C3)cc1)c1ccccc1
REMARK SMILES IDX 23 1 22 2 21 3 19 4 20 5 18 7 17 8 1 9 2 10 3 12 4 13 5 14
REMARK SMILES IDX 15 15 6 16 14 17 16 18 13 19 7 20 8 21 12 22 9 23 11 24
REMARK SMILES IDX 10 25 92 26 93 27 97 28 94 29 96 30 95 31 24 32 25 33 26 34
REMARK SMILES IDX 27 35 28 37 29 38 30 39 91 40 31 41 90 42 32 43 33 44 34 45
REMARK SMILES IDX 84 46 35 47 89 48 83 49 85 50 36 51 88 52 82 53 81 54 37 56
REMARK SMILES IDX 69 57 49 58 68 59 50 60 53 61 67 62 86 63 51 64 52 65 66 67
REMARK SMILES IDX 87 68 54 69 38 70 39 71 47 72 40 73 42 74 48 75 41 76 43 77
REMARK SMILES IDX 44 78 45 79 46 80 70 81 71 82 79 83 72 84 74 85 80 86 73 87
REMARK SMILES IDX 75 88 76 89 77 90 78 91 55 92 56 93 64 94 57 95 59 96 65 97
REMARK SMILES IDX 58 98 60 99 61 100 62 101 63 102
REMARK H PARENT 21 6 17 11 26 36 85 55 53 66
REMARK Flexibility Score: inf
ROOT
ATOM      1  C   UNL A   1      38.420  22.588  26.143  1.00  0.00     0.023 C 
ENDROOT
BRANCH   1   2
ATOM      2  C   UNL A   1      37.005  22.844  25.622  1.00  0.00     0.116 C 
BRANCH   2   3
ATOM      3  N   UNL A   1      36.010  22.292  26.516  1.00  0.00    -0.354 N 
ATOM      4  C   UNL A   1      34.898  21.549  26.220  1.00  0.00     0.247 C 
ATOM      5  O   UNL A   1      34.158  21.266  27.166  1.00  0.00    -0.272 OA
ATOM      6  H   UNL A   1      36.151  22.477  27.472  1.00  0.00     0.163 HD
BRANCH   4   7
ATOM      7  C   UNL A   1      34.639  21.074  24.758  1.00  0.00     0.202 C 
BRANCH   7   8
ATOM      8  N   UNL A   1      33.664  21.936  24.095  1.00  0.00    -0.339 N 
ATOM      9  O   UNL A   1      35.170  23.079  22.794  1.00  0.00    -0.273 OA
ATOM     10  C   UNL A   1      34.008  22.864  23.135  1.00  0.00     0.242 C 
ATOM     11  H   UNL A   1      32.716  21.849  24.344  1.00  0.00     0.164 HD
BRANCH  10  12
ATOM     12  C   UNL A   1      32.837  23.684  22.594  1.00  0.00     0.248 C 
BRANCH  12  13
ATOM     13  N   UNL A   1      32.986  25.129  22.686  1.00  0.00    -0.220 N 
ATOM     14  N   UNL A   1      32.961  25.701  23.934  1.00  0.00    -0.169 NA
ATOM     15  C   UNL A   1      33.071  25.856  21.506  1.00  0.00     0.267 A 
ATOM     16  C   UNL A   1      32.988  26.991  24.005  1.00  0.00     0.091 A 
ATOM     17  C   UNL A   1      33.118  27.328  21.649  1.00  0.00     0.075 A 
ATOM     18  O   UNL A   1      33.101  25.365  20.381  1.00  0.00    -0.268 OA
ATOM     19  C   UNL A   1      33.067  27.904  22.851  1.00  0.00     0.036 A 
BRANCH  16  20
ATOM     20  C   UNL A   1      32.937  27.632  25.326  1.00  0.00     0.002 A 
ATOM     21  C   UNL A   1      34.072  28.280  25.813  1.00  0.00     0.010 A 
ATOM     22  C   UNL A   1      31.779  27.523  26.100  1.00  0.00     0.010 A 
ATOM     23  C   UNL A   1      34.044  28.836  27.091  1.00  0.00     0.001 A 
ATOM     24  C   UNL A   1      31.760  28.079  27.378  1.00  0.00     0.001 A 
ATOM     25  C   UNL A   1      32.891  28.733  27.872  1.00  0.00     0.000 A 
ENDBRANCH  16  20
ENDBRANCH  12  13
ENDBRANCH  10  12
ENDBRANCH   7   8
BRANCH   7  26
ATOM     26  C   UNL A   1      34.203  19.612  24.714  1.00  0.00    -0.016 A 
ATOM     27  C   UNL A   1      32.834  19.293  24.719  1.00  0.00     0.006 A 
ATOM     28  C   UNL A   1      35.131  18.566  24.581  1.00  0.00     0.006 A 
ATOM     29  C   UNL A   1      32.408  17.969  24.600  1.00  0.00     0.000 A 
ATOM     30  C   UNL A   1      34.702  17.242  24.459  1.00  0.00     0.000 A 
ATOM     31  C   UNL A   1      33.342  16.943  24.471  1.00  0.00     0.000 A 
ENDBRANCH   7  26
ENDBRANCH   4   7
ENDBRANCH   2   3
ENDBRANCH   1   2
BRANCH   1  32
ATOM     32  C   UNL A   1      39.047  21.274  25.665  1.00  0.00     0.023 C 
BRANCH  32  33
ATOM     33  C   UNL A   1      40.006  20.617  26.649  1.00  0.00     0.116 C 
BRANCH  33  34
ATOM     34  N   UNL A   1      40.963  19.723  26.016  1.00  0.00    -0.352 N 
ATOM     35  C   UNL A   1      42.276  19.975  25.686  1.00  0.00     0.251 C 
ATOM     36  H   UNL A   1      40.632  18.823  25.797  1.00  0.00     0.163 HD
ATOM     37  O   UNL A   1      42.923  19.142  25.057  1.00  0.00    -0.269 OA
BRANCH  35  38
ATOM     38  C   UNL A   1      42.879  21.276  26.054  1.00  0.00     0.039 A 
ATOM     39  C   UNL A   1      43.461  21.458  27.309  1.00  0.00     0.014 A 
ATOM     40  C   UNL A   1      42.816  22.338  25.147  1.00  0.00     0.014 A 
ATOM     41  C   UNL A   1      43.825  22.736  27.718  1.00  0.00     0.010 A 
ATOM     42  C   UNL A   1      43.261  23.606  25.532  1.00  0.00     0.010 A 
ATOM     43  C   UNL A   1      43.720  23.827  26.839  1.00  0.00    -0.014 A 
BRANCH  43  44
ATOM     44  C   UNL A   1      44.108  25.179  27.320  1.00  0.00     0.031 A 
ATOM     45  C   UNL A   1      45.526  25.671  27.201  1.00  0.00     0.074 A 
ATOM     46  C   UNL A   1      43.154  25.994  27.811  1.00  0.00     0.049 A 
ATOM     47  N   UNL A   1      46.007  26.855  27.484  1.00  0.00    -0.248 NA
ATOM     48  C   UNL A   1      46.537  24.721  26.707  1.00  0.00     0.031 C 
ATOM     49  C   UNL A   1      41.751  25.620  28.007  1.00  0.00     0.029 A 
ATOM     50  N   UNL A   1      43.208  27.306  28.209  1.00  0.00    -0.354 N 
ATOM     51  C   UNL A   1      47.373  26.783  27.242  1.00  0.00     0.074 A 
ATOM     52  C   UNL A   1      47.651  25.437  26.792  1.00  0.00     0.031 C 
ATOM     53  C   UNL A   1      41.067  26.693  28.432  1.00  0.00     0.029 A 
ATOM     54  C   UNL A   1      41.986  27.817  28.580  1.00  0.00     0.049 A 
ATOM     55  H   UNL A   1      44.040  27.830  28.228  1.00  0.00     0.167 HD
ATOM     56  C   UNL A   1      48.306  27.756  27.359  1.00  0.00     0.034 A 
ATOM     57  C   UNL A   1      41.637  29.053  28.985  1.00  0.00     0.034 A 
ATOM     58  C   UNL A   1      48.020  29.112  27.743  1.00  0.00     0.049 A 
ATOM     59  C   UNL A   1      42.684  30.123  29.070  1.00  0.00     0.074 A 
ATOM     60  C   UNL A   1      48.897  30.179  27.826  1.00  0.00     0.029 A 
ATOM     61  N   UNL A   1      46.770  29.589  28.100  1.00  0.00    -0.354 N 
ATOM     62  N   UNL A   1      43.951  30.057  28.742  1.00  0.00    -0.248 NA
ATOM     63  C   UNL A   1      42.258  31.439  29.566  1.00  0.00     0.031 C 
ATOM     64  C   UNL A   1      48.176  31.305  28.236  1.00  0.00     0.029 A 
ATOM     65  C   UNL A   1      46.851  30.935  28.406  1.00  0.00     0.049 A 
ATOM     66  H   UNL A   1      45.947  29.050  28.132  1.00  0.00     0.167 HD
ATOM     67  C   UNL A   1      44.473  31.321  28.985  1.00  0.00     0.074 A 
ATOM     68  C   UNL A   1      43.380  32.141  29.465  1.00  0.00     0.031 C 
ATOM     69  C   UNL A   1      45.748  31.752  28.840  1.00  0.00     0.034 A 
BRANCH  56  70
ATOM     70  C   UNL A   1      49.728  27.423  27.005  1.00  0.00     0.023 A 
ATOM     71  C   UNL A   1      50.559  26.844  27.985  1.00  0.00     0.012 A 
ATOM     72  C   UNL A   1      50.204  27.571  25.687  1.00  0.00     0.148 A 
ATOM     73  C   UNL A   1      51.848  26.423  27.660  1.00  0.00     0.002 A 
ATOM     74  C   UNL A   1      51.481  27.124  25.366  1.00  0.00     0.091 A 
ATOM     75  F   UNL A   1      49.397  28.134  24.778  1.00  0.00    -0.205 F 
ATOM     76  C   UNL A   1      52.303  26.553  26.351  1.00  0.00     0.022 A 
BRANCH  74  77
ATOM     77  S   UNL A   1      52.146  27.194  23.698  1.00  0.00     0.127 S 
ATOM     78  O   UNL A   1      53.091  26.077  23.712  1.00  0.00    -0.237 OA
ATOM     79  O   UNL A   1      50.951  26.971  22.882  1.00  0.00    -0.237 OA
ATOM     80  O   UNL A   1      52.745  28.512  23.557  1.00  0.00    -0.744 OA
ENDBRANCH  74  77
ENDBRANCH  56  70
BRANCH  57  81
ATOM     81  C   UNL A   1      40.206  29.341  29.270  1.00  0.00     0.023 A 
ATOM     82  C   UNL A   1      39.312  29.507  28.195  1.00  0.00     0.012 A 
ATOM     83  C   UNL A   1      39.714  29.354  30.589  1.00  0.00     0.148 A 
ATOM     84  C   UNL A   1      37.949  29.680  28.430  1.00  0.00     0.002 A 
ATOM     85  C   UNL A   1      38.349  29.482  30.814  1.00  0.00     0.091 A 
ATOM     86  F   UNL A   1      40.589  29.201  31.592  1.00  0.00    -0.205 F 
ATOM     87  C   UNL A   1      37.465  29.654  29.736  1.00  0.00     0.022 A 
BRANCH  85  88
ATOM     88  S   UNL A   1      37.621  29.339  32.449  1.00  0.00     0.127 S 
ATOM     89  O   UNL A   1      38.451  30.255  33.226  1.00  0.00    -0.237 OA
ATOM     90  O   UNL A   1      36.253  29.799  32.209  1.00  0.00    -0.237 OA
ATOM     91  O   UNL A   1      37.730  27.932  32.810  1.00  0.00    -0.744 OA
ENDBRANCH  85  88
ENDBRANCH  57  81
BRANCH  69  92
ATOM     92  C   UNL A   1      46.061  33.174  29.208  1.00  0.00     0.023 A 
ATOM     93  C   UNL A   1      46.621  33.445  30.470  1.00  0.00     0.012 A 
ATOM     94  C   UNL A   1      45.936  34.210  28.262  1.00  0.00     0.148 A 
ATOM     95  C   UNL A   1      47.054  34.731  30.789  1.00  0.00     0.002 A 
ATOM     96  C   UNL A   1      46.398  35.482  28.574  1.00  0.00     0.091 A 
ATOM     97  F   UNL A   1      45.395  33.922  27.069  1.00  0.00    -0.205 F 
ATOM     98  C   UNL A   1      46.954  35.745  29.838  1.00  0.00     0.022 A 
BRANCH  96  99
ATOM     99  S   UNL A   1      46.382  36.838  27.396  1.00  0.00     0.127 S 
ATOM    100  O   UNL A   1      44.982  36.848  26.973  1.00  0.00    -0.237 OA
ATOM    101  O   UNL A   1      46.775  37.974  28.230  1.00  0.00    -0.237 OA
ATOM    102  O   UNL A   1      47.338  36.484  26.357  1.00  0.00    -0.744 OA
ENDBRANCH  96  99
ENDBRANCH  69  92
ENDBRANCH  43  44
ENDBRANCH  35  38
ENDBRANCH  33  34
ENDBRANCH  32  33
ENDBRANCH   1  32
TORSDOF 19
ENDMDL
MODEL 3
REMARK VINA RESULT:     -11.4      1.768      2.178
REMARK SMILES O=C(Cn1nc(-c2ccccc2)ccc1=O)N[C@@H](C(=O)NCCCCNC(=O)c1ccc(-c2c3nc(c(-c4cccc(S(=O)(=O)[O-])c4F)c4ccc([nH]4)c(-c4cccc(S(=O)(=O)[O-])c4F)c4nc(c(-c5cccc(S(=O)(=O)[O-])c5F)c5ccc2[nH]5)C=C4)C=C3)cc1)c1ccccc1
REMARK SMILES IDX 23 1 22 2 21 3 19 4 20 5 18 7 17 8 1 9 2 10 3 12 4 13 5 14
REMARK SMILES IDX 15 15 6 16 14 17 16 18 13 19 7 20 8 21 12 22 9 23 11 24
REMARK SMILES IDX 10 25 92 26 93 27 97 28 94 29 96 30 95 31 24 32 25 33 26 34
REMARK SMILES IDX 27 35 28 37 29 38 30 39 91 40 31 41 90 42 32 43 33 44 34 45
REMARK SMILES IDX 84 46 35 47 89 48 83 49 85 50 36 51 88 52 82 53 81 54 37 56
REMARK SMILES IDX 69 57 49 58 68 59 50 60 53 61 67 62 86 63 51 64 52 65 66 67
REMARK SMILES IDX 87 68 54 69 38 70 39 71 47 72 40 73 42 74 48 75 41 76 43 77
REMARK SMILES IDX 44 78 45 79 46 80 70 81 71 82 79 83 72 84 74 85 80 86 73 87
REMARK SMILES IDX 75 88 76 89 77 90 78 91 55 92 56 93 64 94 57 95 59 96 65 97
REMARK SMILES IDX 58 98 60 99 61 100 62 101 63 102
REMARK H PARENT 21 6 17 11 26 36 85 55 53 66
REMARK Flexibility Score: inf
ROOT
ATOM      1  C   UNL A   1      38.261  22.296  25.904  1.00  0.00     0.023 C 
ENDROOT
BRANCH   1   2
ATOM      2  C   UNL A   1      36.812  22.641  25.555  1.00  0.00     0.116 C 
BRANCH   2   3
ATOM      3  N   UNL A   1      35.893  22.081  26.523  1.00  0.00    -0.354 N 
ATOM      4  C   UNL A   1      34.643  21.556  26.326  1.00  0.00     0.247 C 
ATOM      5  O   UNL A   1      34.023  21.216  27.338  1.00  0.00    -0.272 OA
ATOM      6  H   UNL A   1      36.210  22.076  27.454  1.00  0.00     0.163 HD
BRANCH   4   7
ATOM      7  C   UNL A   1      34.084  21.382  24.881  1.00  0.00     0.202 C 
BRANCH   7   8
ATOM      8  N   UNL A   1      32.871  22.174  24.692  1.00  0.00    -0.339 N 
ATOM      9  O   UNL A   1      33.681  24.115  25.611  1.00  0.00    -0.273 OA
ATOM     10  C   UNL A   1      32.773  23.501  25.053  1.00  0.00     0.242 C 
ATOM     11  H   UNL A   1      32.087  21.739  24.286  1.00  0.00     0.164 HD
BRANCH  10  12
ATOM     12  C   UNL A   1      31.403  24.130  24.797  1.00  0.00     0.248 C 
BRANCH  12  13
ATOM     13  N   UNL A   1      31.369  25.165  23.774  1.00  0.00    -0.220 N 
ATOM     14  N   UNL A   1      30.545  26.244  23.977  1.00  0.00    -0.169 NA
ATOM     15  C   UNL A   1      32.112  24.969  22.618  1.00  0.00     0.267 A 
ATOM     16  C   UNL A   1      30.438  27.107  23.021  1.00  0.00     0.091 A 
ATOM     17  C   UNL A   1      31.964  25.998  21.565  1.00  0.00     0.075 A 
ATOM     18  O   UNL A   1      32.859  24.015  22.418  1.00  0.00    -0.268 OA
ATOM     19  C   UNL A   1      31.147  27.039  21.731  1.00  0.00     0.036 A 
BRANCH  16  20
ATOM     20  C   UNL A   1      29.543  28.259  23.200  1.00  0.00     0.002 A 
ATOM     21  C   UNL A   1      28.164  28.074  23.093  1.00  0.00     0.010 A 
ATOM     22  C   UNL A   1      30.088  29.528  23.407  1.00  0.00     0.010 A 
ATOM     23  C   UNL A   1      27.319  29.176  23.203  1.00  0.00     0.001 A 
ATOM     24  C   UNL A   1      29.235  30.626  23.512  1.00  0.00     0.001 A 
ATOM     25  C   UNL A   1      27.853  30.450  23.410  1.00  0.00     0.000 A 
ENDBRANCH  16  20
ENDBRANCH  12  13
ENDBRANCH  10  12
ENDBRANCH   7   8
BRANCH   7  26
ATOM     26  C   UNL A   1      33.841  19.913  24.549  1.00  0.00    -0.016 A 
ATOM     27  C   UNL A   1      32.612  19.518  23.993  1.00  0.00     0.006 A 
ATOM     28  C   UNL A   1      34.846  18.943  24.702  1.00  0.00     0.006 A 
ATOM     29  C   UNL A   1      32.395  18.194  23.608  1.00  0.00     0.000 A 
ATOM     30  C   UNL A   1      34.627  17.620  24.313  1.00  0.00     0.000 A 
ATOM     31  C   UNL A   1      33.401  17.244  23.768  1.00  0.00     0.000 A 
ENDBRANCH   7  26
ENDBRANCH   4   7
ENDBRANCH   2   3
ENDBRANCH   1   2
BRANCH   1  32
ATOM     32  C   UNL A   1      38.744  20.949  25.355  1.00  0.00     0.023 C 
BRANCH  32  33
ATOM     33  C   UNL A   1      39.394  20.026  26.378  1.00  0.00     0.116 C 
BRANCH  33  34
ATOM     34  N   UNL A   1      40.681  19.502  25.950  1.00  0.00    -0.352 N 
ATOM     35  C   UNL A   1      41.901  20.139  25.944  1.00  0.00     0.251 C 
ATOM     36  H   UNL A   1      40.681  18.573  25.625  1.00  0.00     0.163 HD
ATOM     37  O   UNL A   1      42.881  19.587  25.451  1.00  0.00    -0.269 OA
BRANCH  35  38
ATOM     38  C   UNL A   1      42.007  21.510  26.492  1.00  0.00     0.039 A 
ATOM     39  C   UNL A   1      41.935  22.619  25.647  1.00  0.00     0.014 A 
ATOM     40  C   UNL A   1      42.231  21.683  27.860  1.00  0.00     0.014 A 
ATOM     41  C   UNL A   1      42.251  23.879  26.139  1.00  0.00     0.010 A 
ATOM     42  C   UNL A   1      42.467  22.964  28.368  1.00  0.00     0.010 A 
ATOM     43  C   UNL A   1      42.532  24.067  27.504  1.00  0.00    -0.014 A 
BRANCH  43  44
ATOM     44  C   UNL A   1      42.879  25.428  27.988  1.00  0.00     0.031 A 
ATOM     45  C   UNL A   1      44.283  25.961  27.873  1.00  0.00     0.074 A 
ATOM     46  C   UNL A   1      41.901  26.214  28.478  1.00  0.00     0.049 A 
ATOM     47  N   UNL A   1      44.728  27.158  28.160  1.00  0.00    -0.248 NA
ATOM     48  C   UNL A   1      45.322  25.042  27.379  1.00  0.00     0.031 C 
ATOM     49  C   UNL A   1      40.509  25.799  28.671  1.00  0.00     0.029 A 
ATOM     50  N   UNL A   1      41.916  27.526  28.880  1.00  0.00    -0.354 N 
ATOM     51  C   UNL A   1      46.096  27.126  27.920  1.00  0.00     0.074 A 
ATOM     52  C   UNL A   1      46.415  25.789  27.468  1.00  0.00     0.031 C 
ATOM     53  C   UNL A   1      39.793  26.850  29.097  1.00  0.00     0.029 A 
ATOM     54  C   UNL A   1      40.679  28.000  29.248  1.00  0.00     0.049 A 
ATOM     55  H   UNL A   1      42.733  28.074  28.901  1.00  0.00     0.167 HD
ATOM     56  C   UNL A   1      47.001  28.125  28.041  1.00  0.00     0.034 A 
ATOM     57  C   UNL A   1      40.294  29.225  29.655  1.00  0.00     0.034 A 
ATOM     58  C   UNL A   1      46.675  29.472  28.428  1.00  0.00     0.049 A 
ATOM     59  C   UNL A   1      41.309  30.325  29.745  1.00  0.00     0.074 A 
ATOM     60  C   UNL A   1      47.520  30.563  28.515  1.00  0.00     0.029 A 
ATOM     61  N   UNL A   1      45.411  29.911  28.783  1.00  0.00    -0.354 N 
ATOM     62  N   UNL A   1      42.578  30.297  29.419  1.00  0.00    -0.248 NA
ATOM     63  C   UNL A   1      40.844  31.627  30.242  1.00  0.00     0.031 C 
ATOM     64  C   UNL A   1      46.766  31.667  28.925  1.00  0.00     0.029 A 
ATOM     65  C   UNL A   1      45.452  31.259  29.092  1.00  0.00     0.049 A 
ATOM     66  H   UNL A   1      44.604  29.348  28.811  1.00  0.00     0.167 HD
ATOM     67  C   UNL A   1      43.063  31.574  29.666  1.00  0.00     0.074 A 
ATOM     68  C   UNL A   1      41.946  32.362  30.145  1.00  0.00     0.031 C 
ATOM     69  C   UNL A   1      44.325  32.042  29.525  1.00  0.00     0.034 A 
BRANCH  56  70
ATOM     70  C   UNL A   1      48.433  27.834  27.690  1.00  0.00     0.023 A 
ATOM     71  C   UNL A   1      49.300  27.360  28.693  1.00  0.00     0.012 A 
ATOM     72  C   UNL A   1      48.886  27.915  26.359  1.00  0.00     0.148 A 
ATOM     73  C   UNL A   1      50.603  26.976  28.379  1.00  0.00     0.002 A 
ATOM     74  C   UNL A   1      50.178  27.506  26.049  1.00  0.00     0.091 A 
ATOM     75  F   UNL A   1      48.044  28.380  25.425  1.00  0.00    -0.205 F 
ATOM     76  C   UNL A   1      51.038  27.040  27.057  1.00  0.00     0.022 A 
BRANCH  74  77
ATOM     77  S   UNL A   1      50.821  27.496  24.371  1.00  0.00     0.127 S 
ATOM     78  O   UNL A   1      50.964  28.927  24.102  1.00  0.00    -0.237 OA
ATOM     79  O   UNL A   1      52.085  26.776  24.531  1.00  0.00    -0.237 OA
ATOM     80  O   UNL A   1      49.825  26.810  23.561  1.00  0.00    -0.744 OA
ENDBRANCH  74  77
ENDBRANCH  56  70
BRANCH  57  81
ATOM     81  C   UNL A   1      38.854  29.472  29.937  1.00  0.00     0.023 A 
ATOM     82  C   UNL A   1      38.373  29.306  31.250  1.00  0.00     0.012 A 
ATOM     83  C   UNL A   1      37.990  29.960  28.939  1.00  0.00     0.148 A 
ATOM     84  C   UNL A   1      37.053  29.624  31.564  1.00  0.00     0.002 A 
ATOM     85  C   UNL A   1      36.689  30.318  29.269  1.00  0.00     0.091 A 
ATOM     86  F   UNL A   1      38.473  30.101  27.697  1.00  0.00    -0.205 F 
ATOM     87  C   UNL A   1      36.215  30.143  30.579  1.00  0.00     0.022 A 
BRANCH  85  88
ATOM     88  S   UNL A   1      35.576  31.105  28.100  1.00  0.00     0.127 S 
ATOM     89  O   UNL A   1      36.300  32.332  27.778  1.00  0.00    -0.237 OA
ATOM     90  O   UNL A   1      35.528  30.117  27.022  1.00  0.00    -0.237 OA
ATOM     91  O   UNL A   1      34.318  31.287  28.810  1.00  0.00    -0.744 OA
ENDBRANCH  85  88
ENDBRANCH  57  81
BRANCH  69  92
ATOM     92  C   UNL A   1      44.596  33.472  29.896  1.00  0.00     0.023 A 
ATOM     93  C   UNL A   1      45.222  33.751  31.126  1.00  0.00     0.012 A 
ATOM     94  C   UNL A   1      44.365  34.514  28.977  1.00  0.00     0.148 A 
ATOM     95  C   UNL A   1      45.616  35.051  31.438  1.00  0.00     0.002 A 
ATOM     96  C   UNL A   1      44.788  35.802  29.282  1.00  0.00     0.091 A 
ATOM     97  F   UNL A   1      43.763  34.218  27.816  1.00  0.00    -0.205 F 
ATOM     98  C   UNL A   1      45.410  36.072  30.512  1.00  0.00     0.022 A 
BRANCH  96  99
ATOM     99  S   UNL A   1      44.636  37.172  28.130  1.00  0.00     0.127 S 
ATOM    100  O   UNL A   1      45.293  38.253  28.864  1.00  0.00    -0.237 OA
ATOM    101  O   UNL A   1      45.380  36.682  26.970  1.00  0.00    -0.237 OA
ATOM    102  O   UNL A   1      43.209  37.357  27.906  1.00  0.00    -0.744 OA
ENDBRANCH  96  99
ENDBRANCH  69  92
ENDBRANCH  43  44
ENDBRANCH  35  38
ENDBRANCH  33  34
ENDBRANCH  32  33
ENDBRANCH   1  32
TORSDOF 19
ENDMDL
