MODEL 1
REMARK VINA RESULT:     -12.8      0.000      0.000
REMARK SMILES COc1cccc([C@H]2CC(c3ccc(S(C)(=O)=O)cc3)=NN2c2ccc(C(=O)NCCCCNC(=O)c3ccc(-c4c5nc(c(-c6cccc(S(=O)(=O)[O-])c6F)c6ccc([nH]6)c(-c6cccc(S(=O)(=O)[O-])c6F)c6nc(c(-c7cccc(S(=O)(=O)[O-])c7F)c7ccc4[nH]7)C=C6)C=C5)cc3)cc2)c1
REMARK SMILES IDX 31 1 30 2 29 3 27 4 28 5 26 7 23 8 24 9 101 10 25 11 100 12
REMARK SMILES IDX 22 13 8 14 9 15 10 16 21 17 7 18 3 19 4 20 102 21 5 22 6 23
REMARK SMILES IDX 2 24 1 25 11 26 12 27 20 28 13 29 19 30 14 31 15 32 16 33
REMARK SMILES IDX 17 34 18 35 32 36 33 37 34 38 35 39 36 41 37 42 38 43 99 44
REMARK SMILES IDX 39 45 98 46 40 47 41 48 42 49 92 50 43 51 97 52 91 53 93 54
REMARK SMILES IDX 44 55 96 56 90 57 89 58 45 60 77 61 57 62 76 63 58 64 61 65
REMARK SMILES IDX 75 66 94 67 59 68 60 69 74 71 95 72 62 73 46 74 47 75 55 76
REMARK SMILES IDX 48 77 50 78 56 79 49 80 51 81 52 82 53 83 54 84 78 85 79 86
REMARK SMILES IDX 87 87 80 88 82 89 88 90 81 91 83 92 84 93 85 94 86 95 63 96
REMARK SMILES IDX 64 97 72 98 65 99 67 100 73 101 66 102 68 103 69 104 70 105
REMARK SMILES IDX 71 106
REMARK H PARENT 29 6 34 40 93 59 61 70
REMARK Flexibility Score: inf
ROOT
ATOM      1  C   UNL A   1      37.404  21.506  24.708  1.00  0.00     0.023 C 
ENDROOT
BRANCH   1   2
ATOM      2  C   UNL A   1      36.201  21.778  25.615  1.00  0.00     0.116 C 
BRANCH   2   3
ATOM      3  N   UNL A   1      34.983  21.301  24.994  1.00  0.00    -0.352 N 
ATOM      4  C   UNL A   1      33.832  21.940  24.613  1.00  0.00     0.251 C 
ATOM      5  O   UNL A   1      32.950  21.258  24.089  1.00  0.00    -0.269 OA
ATOM      6  H   UNL A   1      34.981  20.333  24.810  1.00  0.00     0.163 HD
BRANCH   4   7
ATOM      7  C   UNL A   1      33.618  23.411  24.749  1.00  0.00     0.039 A 
ATOM      8  C   UNL A   1      33.047  26.156  25.160  1.00  0.00     0.060 A 
ATOM      9  C   UNL A   1      32.748  25.208  26.141  1.00  0.00     0.029 A 
ATOM     10  C   UNL A   1      33.691  25.722  23.999  1.00  0.00     0.029 A 
ATOM     11  C   UNL A   1      33.011  23.850  25.933  1.00  0.00     0.016 A 
ATOM     12  C   UNL A   1      34.007  24.371  23.813  1.00  0.00     0.016 A 
BRANCH   8  13
ATOM     13  N   UNL A   1      32.717  27.485  25.363  1.00  0.00    -0.257 N 
ATOM     14  C   UNL A   1      32.138  28.348  24.334  1.00  0.00     0.144 C 
ATOM     15  C   UNL A   1      32.228  29.739  24.974  1.00  0.00     0.091 C 
ATOM     16  C   UNL A   1      33.032  29.406  26.198  1.00  0.00     0.071 C 
ATOM     17  N   UNL A   1      33.291  28.154  26.396  1.00  0.00    -0.176 NA
BRANCH  14  18
ATOM     18  C   UNL A   1      30.715  27.933  24.006  1.00  0.00    -0.019 A 
ATOM     19  C   UNL A   1      28.507  28.453  23.099  1.00  0.00     0.119 A 
ATOM     20  C   UNL A   1      28.058  27.195  23.499  1.00  0.00     0.046 A 
ATOM     21  C   UNL A   1      29.829  28.820  23.361  1.00  0.00     0.052 A 
ATOM     22  C   UNL A   1      28.921  26.302  24.135  1.00  0.00     0.004 A 
ATOM     23  C   UNL A   1      30.243  26.666  24.385  1.00  0.00     0.006 A 
BRANCH  19  24
ATOM     24  O   UNL A   1      27.564  29.236  22.494  1.00  0.00    -0.497 OA
ATOM     25  C   UNL A   1      27.649  30.636  22.736  1.00  0.00     0.278 C 
ENDBRANCH  19  24
ENDBRANCH  14  18
BRANCH  16  26
ATOM     26  C   UNL A   1      33.517  30.458  27.090  1.00  0.00    -0.002 A 
ATOM     27  C   UNL A   1      32.812  31.664  27.150  1.00  0.00     0.011 A 
ATOM     28  C   UNL A   1      34.679  30.259  27.837  1.00  0.00     0.011 A 
ATOM     29  C   UNL A   1      33.262  32.680  27.991  1.00  0.00     0.021 A 
ATOM     30  C   UNL A   1      35.145  31.286  28.660  1.00  0.00     0.021 A 
ATOM     31  C   UNL A   1      34.433  32.489  28.732  1.00  0.00     0.067 A 
BRANCH  31  32
ATOM     32  S   UNL A   1      35.002  33.792  29.798  1.00  0.00     0.175 S 
ATOM     33  C   UNL A   1      33.656  34.946  29.839  1.00  0.00     0.163 C 
ATOM     34  O   UNL A   1      35.155  33.215  31.119  1.00  0.00    -0.224 OA
ATOM     35  O   UNL A   1      36.117  34.447  29.137  1.00  0.00    -0.224 OA
ENDBRANCH  31  32
ENDBRANCH  16  26
ENDBRANCH   8  13
ENDBRANCH   4   7
ENDBRANCH   2   3
ENDBRANCH   1   2
BRANCH   1  36
ATOM     36  C   UNL A   1      38.186  20.240  25.071  1.00  0.00     0.023 C 
BRANCH  36  37
ATOM     37  C   UNL A   1      39.388  20.471  25.981  1.00  0.00     0.116 C 
BRANCH  37  38
ATOM     38  N   UNL A   1      40.316  19.349  26.000  1.00  0.00    -0.352 N 
ATOM     39  C   UNL A   1      41.685  19.381  26.128  1.00  0.00     0.251 C 
ATOM     40  H   UNL A   1      39.914  18.456  25.909  1.00  0.00     0.163 HD
ATOM     41  O   UNL A   1      42.340  18.351  26.016  1.00  0.00    -0.269 OA
BRANCH  39  42
ATOM     42  C   UNL A   1      42.354  20.677  26.361  1.00  0.00     0.039 A 
ATOM     43  C   UNL A   1      42.613  21.507  25.269  1.00  0.00     0.014 A 
ATOM     44  C   UNL A   1      42.681  21.086  27.657  1.00  0.00     0.014 A 
ATOM     45  C   UNL A   1      43.148  22.779  25.485  1.00  0.00     0.010 A 
ATOM     46  C   UNL A   1      43.144  22.380  27.874  1.00  0.00     0.010 A 
ATOM     47  C   UNL A   1      43.386  23.237  26.791  1.00  0.00    -0.014 A 
BRANCH  47  48
ATOM     48  C   UNL A   1      43.879  24.615  27.042  1.00  0.00     0.031 A 
ATOM     49  C   UNL A   1      42.952  25.663  27.594  1.00  0.00     0.074 A 
ATOM     50  C   UNL A   1      45.139  24.942  26.693  1.00  0.00     0.049 A 
ATOM     51  N   UNL A   1      43.194  26.922  27.851  1.00  0.00    -0.248 NA
ATOM     52  C   UNL A   1      41.565  25.253  27.866  1.00  0.00     0.031 C 
ATOM     53  C   UNL A   1      46.104  24.038  26.062  1.00  0.00     0.029 A 
ATOM     54  N   UNL A   1      45.817  26.130  26.797  1.00  0.00    -0.354 N 
ATOM     55  C   UNL A   1      41.987  27.461  28.280  1.00  0.00     0.074 A 
ATOM     56  C   UNL A   1      41.004  26.403  28.212  1.00  0.00     0.031 C 
ATOM     57  C   UNL A   1      47.251  24.702  25.842  1.00  0.00     0.029 A 
ATOM     58  C   UNL A   1      47.098  26.081  26.295  1.00  0.00     0.049 A 
ATOM     59  H   UNL A   1      45.425  26.942  27.192  1.00  0.00     0.167 HD
ATOM     60  C   UNL A   1      41.726  28.714  28.723  1.00  0.00     0.034 A 
ATOM     61  C   UNL A   1      48.043  27.039  26.213  1.00  0.00     0.034 A 
ATOM     62  C   UNL A   1      42.719  29.749  28.834  1.00  0.00     0.049 A 
ATOM     63  C   UNL A   1      47.746  28.405  26.770  1.00  0.00     0.074 A 
ATOM     64  C   UNL A   1      42.578  31.021  29.358  1.00  0.00     0.029 A 
ATOM     65  N   UNL A   1      44.033  29.631  28.413  1.00  0.00    -0.354 N 
ATOM     66  N   UNL A   1      46.646  28.846  27.332  1.00  0.00    -0.248 NA
ATOM     67  C   UNL A   1      48.833  29.393  26.722  1.00  0.00     0.031 C 
ATOM     68  C   UNL A   1      43.806  31.681  29.235  1.00  0.00     0.029 A 
ATOM     69  C   UNL A   1      44.717  30.809  28.659  1.00  0.00     0.049 A 
ATOM     70  H   UNL A   1      44.425  28.828  27.998  1.00  0.00     0.167 HD
ATOM     71  C   UNL A   1      46.921  30.146  27.740  1.00  0.00     0.074 A 
ATOM     72  C   UNL A   1      48.297  30.415  27.378  1.00  0.00     0.031 C 
ATOM     73  C   UNL A   1      46.104  31.041  28.349  1.00  0.00     0.034 A 
BRANCH  60  74
ATOM     74  C   UNL A   1      40.323  29.017  29.179  1.00  0.00     0.023 A 
ATOM     75  C   UNL A   1      39.348  29.382  28.228  1.00  0.00     0.012 A 
ATOM     76  C   UNL A   1      39.952  28.885  30.532  1.00  0.00     0.148 A 
ATOM     77  C   UNL A   1      38.036  29.648  28.618  1.00  0.00     0.002 A 
ATOM     78  C   UNL A   1      38.632  29.108  30.907  1.00  0.00     0.091 A 
ATOM     79  F   UNL A   1      40.897  28.559  31.426  1.00  0.00    -0.205 F 
ATOM     80  C   UNL A   1      37.677  29.501  29.954  1.00  0.00     0.022 A 
BRANCH  78  81
ATOM     81  S   UNL A   1      38.050  28.867  32.589  1.00  0.00     0.127 S 
ATOM     82  O   UNL A   1      38.919  29.775  33.335  1.00  0.00    -0.237 OA
ATOM     83  O   UNL A   1      36.655  29.298  32.496  1.00  0.00    -0.237 OA
ATOM     84  O   UNL A   1      38.229  27.451  32.876  1.00  0.00    -0.744 OA
ENDBRANCH  78  81
ENDBRANCH  60  74
BRANCH  61  85
ATOM     85  C   UNL A   1      49.386  26.713  25.657  1.00  0.00     0.023 A 
ATOM     86  C   UNL A   1      50.292  25.966  26.436  1.00  0.00     0.012 A 
ATOM     87  C   UNL A   1      49.760  27.108  24.359  1.00  0.00     0.148 A 
ATOM     88  C   UNL A   1      51.559  25.648  25.945  1.00  0.00     0.002 A 
ATOM     89  C   UNL A   1      51.004  26.742  23.855  1.00  0.00     0.091 A 
ATOM     90  F   UNL A   1      48.889  27.828  23.638  1.00  0.00    -0.205 F 
ATOM     91  C   UNL A   1      51.910  26.026  24.653  1.00  0.00     0.022 A 
BRANCH  89  92
ATOM     92  S   UNL A   1      51.489  27.072  22.158  1.00  0.00     0.127 S 
ATOM     93  O   UNL A   1      51.689  28.518  22.180  1.00  0.00    -0.237 OA
ATOM     94  O   UNL A   1      52.715  26.281  22.034  1.00  0.00    -0.237 OA
ATOM     95  O   UNL A   1      50.385  26.596  21.335  1.00  0.00    -0.744 OA
ENDBRANCH  89  92
ENDBRANCH  61  85
BRANCH  73  96
ATOM     96  C   UNL A   1      46.681  32.384  28.709  1.00  0.00     0.023 A 
ATOM     97  C   UNL A   1      47.407  32.539  29.907  1.00  0.00     0.012 A 
ATOM     98  C   UNL A   1      46.574  33.471  27.819  1.00  0.00     0.148 A 
ATOM     99  C   UNL A   1      47.989  33.764  30.228  1.00  0.00     0.002 A 
ATOM    100  C   UNL A   1      47.200  34.674  28.123  1.00  0.00     0.091 A 
ATOM    101  F   UNL A   1      45.863  33.308  26.694  1.00  0.00    -0.205 F 
ATOM    102  C   UNL A   1      47.898  34.827  29.331  1.00  0.00     0.022 A 
BRANCH 100 103
ATOM    103  S   UNL A   1      47.217  36.061  26.981  1.00  0.00     0.127 S 
ATOM    104  O   UNL A   1      48.011  37.043  27.717  1.00  0.00    -0.237 OA
ATOM    105  O   UNL A   1      47.883  35.492  25.810  1.00  0.00    -0.237 OA
ATOM    106  O   UNL A   1      45.821  36.420  26.766  1.00  0.00    -0.744 OA
ENDBRANCH 100 103
ENDBRANCH  73  96
ENDBRANCH  47  48
ENDBRANCH  39  42
ENDBRANCH  37  38
ENDBRANCH  36  37
ENDBRANCH   1  36
TORSDOF 19
ENDMDL
MODEL 2
REMARK VINA RESULT:     -11.7      0.971      7.343
REMARK SMILES COc1cccc([C@H]2CC(c3ccc(S(C)(=O)=O)cc3)=NN2c2ccc(C(=O)NCCCCNC(=O)c3ccc(-c4c5nc(c(-c6cccc(S(=O)(=O)[O-])c6F)c6ccc([nH]6)c(-c6cccc(S(=O)(=O)[O-])c6F)c6nc(c(-c7cccc(S(=O)(=O)[O-])c7F)c7ccc4[nH]7)C=C6)C=C5)cc3)cc2)c1
REMARK SMILES IDX 31 1 30 2 29 3 27 4 28 5 26 7 23 8 24 9 101 10 25 11 100 12
REMARK SMILES IDX 22 13 8 14 9 15 10 16 21 17 7 18 3 19 4 20 102 21 5 22 6 23
REMARK SMILES IDX 2 24 1 25 11 26 12 27 20 28 13 29 19 30 14 31 15 32 16 33
REMARK SMILES IDX 17 34 18 35 32 36 33 37 34 38 35 39 36 41 37 42 38 43 99 44
REMARK SMILES IDX 39 45 98 46 40 47 41 48 42 49 92 50 43 51 97 52 91 53 93 54
REMARK SMILES IDX 44 55 96 56 90 57 89 58 45 60 77 61 57 62 76 63 58 64 61 65
REMARK SMILES IDX 75 66 94 67 59 68 60 69 74 71 95 72 62 73 46 74 47 75 55 76
REMARK SMILES IDX 48 77 50 78 56 79 49 80 51 81 52 82 53 83 54 84 78 85 79 86
REMARK SMILES IDX 87 87 80 88 82 89 88 90 81 91 83 92 84 93 85 94 86 95 63 96
REMARK SMILES IDX 64 97 72 98 65 99 67 100 73 101 66 102 68 103 69 104 70 105
REMARK SMILES IDX 71 106
REMARK H PARENT 29 6 34 40 93 59 61 70
REMARK Flexibility Score: inf
ROOT
ATOM      1  C   UNL A   1      37.729  20.790  24.645  1.00  0.00     0.023 C 
ENDROOT
BRANCH   1   2
ATOM      2  C   UNL A   1      36.710  21.893  24.347  1.00  0.00     0.116 C 
BRANCH   2   3
ATOM      3  N   UNL A   1      35.376  21.337  24.256  1.00  0.00    -0.352 N 
ATOM      4  C   UNL A   1      34.133  21.907  24.339  1.00  0.00     0.251 C 
ATOM      5  O   UNL A   1      33.157  21.165  24.210  1.00  0.00    -0.269 OA
ATOM      6  H   UNL A   1      35.359  20.364  24.103  1.00  0.00     0.163 HD
BRANCH   4   7
ATOM      7  C   UNL A   1      33.904  23.370  24.522  1.00  0.00     0.039 A 
ATOM      8  C   UNL A   1      33.336  26.096  25.050  1.00  0.00     0.060 A 
ATOM      9  C   UNL A   1      33.253  25.138  26.064  1.00  0.00     0.029 A 
ATOM     10  C   UNL A   1      33.767  25.684  23.788  1.00  0.00     0.029 A 
ATOM     11  C   UNL A   1      33.513  23.789  25.801  1.00  0.00     0.016 A 
ATOM     12  C   UNL A   1      34.083  24.343  23.537  1.00  0.00     0.016 A 
BRANCH   8  13
ATOM     13  N   UNL A   1      33.011  27.415  25.320  1.00  0.00    -0.257 N 
ATOM     14  C   UNL A   1      32.389  28.315  24.350  1.00  0.00     0.144 C 
ATOM     15  C   UNL A   1      32.499  29.680  25.042  1.00  0.00     0.091 C 
ATOM     16  C   UNL A   1      33.351  29.301  26.219  1.00  0.00     0.071 C 
ATOM     17  N   UNL A   1      33.622  28.043  26.356  1.00  0.00    -0.176 NA
BRANCH  14  18
ATOM     18  C   UNL A   1      30.956  27.907  24.060  1.00  0.00    -0.019 A 
ATOM     19  C   UNL A   1      28.759  28.398  23.111  1.00  0.00     0.119 A 
ATOM     20  C   UNL A   1      28.281  27.191  23.621  1.00  0.00     0.046 A 
ATOM     21  C   UNL A   1      30.089  28.755  23.340  1.00  0.00     0.052 A 
ATOM     22  C   UNL A   1      29.124  26.337  24.333  1.00  0.00     0.004 A 
ATOM     23  C   UNL A   1      30.455  26.691  24.550  1.00  0.00     0.006 A 
BRANCH  19  24
ATOM     24  O   UNL A   1      27.833  29.147  22.440  1.00  0.00    -0.497 OA
ATOM     25  C   UNL A   1      28.019  30.557  22.462  1.00  0.00     0.278 C 
ENDBRANCH  19  24
ENDBRANCH  14  18
BRANCH  16  26
ATOM     26  C   UNL A   1      33.867  30.319  27.133  1.00  0.00    -0.002 A 
ATOM     27  C   UNL A   1      35.072  30.072  27.799  1.00  0.00     0.011 A 
ATOM     28  C   UNL A   1      33.147  31.495  27.350  1.00  0.00     0.011 A 
ATOM     29  C   UNL A   1      35.578  31.028  28.679  1.00  0.00     0.021 A 
ATOM     30  C   UNL A   1      33.639  32.441  28.250  1.00  0.00     0.021 A 
ATOM     31  C   UNL A   1      34.852  32.202  28.908  1.00  0.00     0.067 A 
BRANCH  31  32
ATOM     32  S   UNL A   1      35.502  33.413  30.034  1.00  0.00     0.175 S 
ATOM     33  C   UNL A   1      35.015  32.829  31.636  1.00  0.00     0.163 C 
ATOM     34  O   UNL A   1      36.946  33.341  29.936  1.00  0.00    -0.224 OA
ATOM     35  O   UNL A   1      34.799  34.660  29.793  1.00  0.00    -0.224 OA
ENDBRANCH  31  32
ENDBRANCH  16  26
ENDBRANCH   8  13
ENDBRANCH   4   7
ENDBRANCH   2   3
ENDBRANCH   1   2
BRANCH   1  36
ATOM     36  C   UNL A   1      38.277  20.816  26.076  1.00  0.00     0.023 C 
BRANCH  36  37
ATOM     37  C   UNL A   1      39.743  21.218  26.191  1.00  0.00     0.116 C 
BRANCH  37  38
ATOM     38  N   UNL A   1      40.660  20.106  25.980  1.00  0.00    -0.352 N 
ATOM     39  C   UNL A   1      42.033  20.134  25.934  1.00  0.00     0.251 C 
ATOM     40  H   UNL A   1      40.243  19.223  25.855  1.00  0.00     0.163 HD
ATOM     41  O   UNL A   1      42.662  19.124  25.639  1.00  0.00    -0.269 OA
BRANCH  39  42
ATOM     42  C   UNL A   1      42.735  21.405  26.205  1.00  0.00     0.039 A 
ATOM     43  C   UNL A   1      42.933  22.302  25.154  1.00  0.00     0.014 A 
ATOM     44  C   UNL A   1      43.151  21.726  27.501  1.00  0.00     0.014 A 
ATOM     45  C   UNL A   1      43.499  23.552  25.415  1.00  0.00     0.010 A 
ATOM     46  C   UNL A   1      43.646  22.998  27.769  1.00  0.00     0.010 A 
ATOM     47  C   UNL A   1      43.829  23.922  26.729  1.00  0.00    -0.014 A 
BRANCH  47  48
ATOM     48  C   UNL A   1      44.357  25.275  27.035  1.00  0.00     0.031 A 
ATOM     49  C   UNL A   1      45.794  25.611  26.748  1.00  0.00     0.074 A 
ATOM     50  C   UNL A   1      43.561  26.174  27.649  1.00  0.00     0.049 A 
ATOM     51  N   UNL A   1      46.439  26.727  26.974  1.00  0.00    -0.248 NA
ATOM     52  C   UNL A   1      46.625  24.548  26.160  1.00  0.00     0.031 C 
ATOM     53  C   UNL A   1      42.176  25.934  28.065  1.00  0.00     0.029 A 
ATOM     54  N   UNL A   1      43.810  27.460  28.054  1.00  0.00    -0.354 N 
ATOM     55  C   UNL A   1      47.753  26.489  26.588  1.00  0.00     0.074 A 
ATOM     56  C   UNL A   1      47.824  25.113  26.151  1.00  0.00     0.031 C 
ATOM     57  C   UNL A   1      41.697  27.040  28.657  1.00  0.00     0.029 A 
ATOM     58  C   UNL A   1      42.742  28.058  28.685  1.00  0.00     0.049 A 
ATOM     59  H   UNL A   1      44.671  27.914  27.909  1.00  0.00     0.167 HD
ATOM     60  C   UNL A   1      48.800  27.350  26.567  1.00  0.00     0.034 A 
ATOM     61  C   UNL A   1      42.620  29.288  29.222  1.00  0.00     0.034 A 
ATOM     62  C   UNL A   1      48.711  28.731  26.957  1.00  0.00     0.049 A 
ATOM     63  C   UNL A   1      43.778  30.243  29.128  1.00  0.00     0.074 A 
ATOM     64  C   UNL A   1      49.688  29.708  26.884  1.00  0.00     0.029 A 
ATOM     65  N   UNL A   1      47.584  29.330  27.494  1.00  0.00    -0.354 N 
ATOM     66  N   UNL A   1      44.964  30.053  28.600  1.00  0.00    -0.248 NA
ATOM     67  C   UNL A   1      43.570  31.596  29.663  1.00  0.00     0.031 C 
ATOM     68  C   UNL A   1      49.155  30.896  27.396  1.00  0.00     0.029 A 
ATOM     69  C   UNL A   1      47.839  30.663  27.763  1.00  0.00     0.049 A 
ATOM     70  H   UNL A   1      46.727  28.874  27.661  1.00  0.00     0.167 HD
ATOM     71  C   UNL A   1      45.627  31.270  28.703  1.00  0.00     0.074 A 
ATOM     72  C   UNL A   1      44.705  32.196  29.326  1.00  0.00     0.031 C 
ATOM     73  C   UNL A   1      46.890  31.589  28.327  1.00  0.00     0.034 A 
BRANCH  60  74
ATOM     74  C   UNL A   1      50.117  26.835  26.047  1.00  0.00     0.023 A 
ATOM     75  C   UNL A   1      50.870  25.940  26.834  1.00  0.00     0.012 A 
ATOM     76  C   UNL A   1      50.581  27.186  24.765  1.00  0.00     0.148 A 
ATOM     77  C   UNL A   1      52.083  25.432  26.371  1.00  0.00     0.002 A 
ATOM     78  C   UNL A   1      51.769  26.640  24.290  1.00  0.00     0.091 A 
ATOM     79  F   UNL A   1      49.863  28.055  24.039  1.00  0.00    -0.205 F 
ATOM     80  C   UNL A   1      52.526  25.773  25.097  1.00  0.00     0.022 A 
BRANCH  78  81
ATOM     81  S   UNL A   1      52.384  26.953  22.633  1.00  0.00     0.127 S 
ATOM     82  O   UNL A   1      52.847  28.335  22.746  1.00  0.00    -0.237 OA
ATOM     83  O   UNL A   1      53.454  25.961  22.509  1.00  0.00    -0.237 OA
ATOM     84  O   UNL A   1      51.255  26.740  21.739  1.00  0.00    -0.744 OA
ENDBRANCH  78  81
ENDBRANCH  60  74
BRANCH  61  85
ATOM     85  C   UNL A   1      41.322  29.713  29.818  1.00  0.00     0.023 A 
ATOM     86  C   UNL A   1      40.271  30.114  28.968  1.00  0.00     0.012 A 
ATOM     87  C   UNL A   1      41.110  29.695  31.209  1.00  0.00     0.148 A 
ATOM     88  C   UNL A   1      39.045  30.522  29.496  1.00  0.00     0.002 A 
ATOM     89  C   UNL A   1      39.868  30.051  31.725  1.00  0.00     0.091 A 
ATOM     90  F   UNL A   1      42.125  29.321  32.001  1.00  0.00    -0.205 F 
ATOM     91  C   UNL A   1      38.841  30.480  30.872  1.00  0.00     0.022 A 
BRANCH  89  92
ATOM     92  S   UNL A   1      39.474  29.902  33.471  1.00  0.00     0.127 S 
ATOM     93  O   UNL A   1      38.033  30.137  33.473  1.00  0.00    -0.237 OA
ATOM     94  O   UNL A   1      39.874  28.523  33.755  1.00  0.00    -0.237 OA
ATOM     95  O   UNL A   1      40.283  30.910  34.143  1.00  0.00    -0.744 OA
ENDBRANCH  89  92
ENDBRANCH  61  85
BRANCH  73  96
ATOM     96  C   UNL A   1      47.344  33.010  28.532  1.00  0.00     0.023 A 
ATOM     97  C   UNL A   1      47.897  33.400  29.768  1.00  0.00     0.012 A 
ATOM     98  C   UNL A   1      47.298  33.937  27.472  1.00  0.00     0.148 A 
ATOM     99  C   UNL A   1      48.368  34.698  29.954  1.00  0.00     0.002 A 
ATOM    100  C   UNL A   1      47.814  35.214  27.650  1.00  0.00     0.091 A 
ATOM    101  F   UNL A   1      46.750  33.552  26.310  1.00  0.00    -0.205 F 
ATOM    102  C   UNL A   1      48.339  35.601  28.893  1.00  0.00     0.022 A 
BRANCH 100 103
ATOM    103  S   UNL A   1      47.908  36.407  26.310  1.00  0.00     0.127 S 
ATOM    104  O   UNL A   1      48.644  35.655  25.293  1.00  0.00    -0.237 OA
ATOM    105  O   UNL A   1      46.497  36.635  25.996  1.00  0.00    -0.237 OA
ATOM    106  O   UNL A   1      48.600  37.567  26.853  1.00  0.00    -0.744 OA
ENDBRANCH 100 103
ENDBRANCH  73  96
ENDBRANCH  47  48
ENDBRANCH  39  42
ENDBRANCH  37  38
ENDBRANCH  36  37
ENDBRANCH   1  36
TORSDOF 19
ENDMDL
MODEL 3
REMARK VINA RESULT:     -11.4      4.683     11.933
REMARK SMILES COc1cccc([C@H]2CC(c3ccc(S(C)(=O)=O)cc3)=NN2c2ccc(C(=O)NCCCCNC(=O)c3ccc(-c4c5nc(c(-c6cccc(S(=O)(=O)[O-])c6F)c6ccc([nH]6)c(-c6cccc(S(=O)(=O)[O-])c6F)c6nc(c(-c7cccc(S(=O)(=O)[O-])c7F)c7ccc4[nH]7)C=C6)C=C5)cc3)cc2)c1
REMARK SMILES IDX 31 1 30 2 29 3 27 4 28 5 26 7 23 8 24 9 101 10 25 11 100 12
REMARK SMILES IDX 22 13 8 14 9 15 10 16 21 17 7 18 3 19 4 20 102 21 5 22 6 23
REMARK SMILES IDX 2 24 1 25 11 26 12 27 20 28 13 29 19 30 14 31 15 32 16 33
REMARK SMILES IDX 17 34 18 35 32 36 33 37 34 38 35 39 36 41 37 42 38 43 99 44
REMARK SMILES IDX 39 45 98 46 40 47 41 48 42 49 92 50 43 51 97 52 91 53 93 54
REMARK SMILES IDX 44 55 96 56 90 57 89 58 45 60 77 61 57 62 76 63 58 64 61 65
REMARK SMILES IDX 75 66 94 67 59 68 60 69 74 71 95 72 62 73 46 74 47 75 55 76
REMARK SMILES IDX 48 77 50 78 56 79 49 80 51 81 52 82 53 83 54 84 78 85 79 86
REMARK SMILES IDX 87 87 80 88 82 89 88 90 81 91 83 92 84 93 85 94 86 95 63 96
REMARK SMILES IDX 64 97 72 98 65 99 67 100 73 101 66 102 68 103 69 104 70 105
REMARK SMILES IDX 71 106
REMARK H PARENT 29 6 34 40 93 59 61 70
REMARK Flexibility Score: inf
ROOT
ATOM      1  C   UNL A   1      42.093  21.737  27.871  1.00  0.00     0.023 C 
ENDROOT
BRANCH   1   2
ATOM      2  C   UNL A   1      42.538  23.010  27.145  1.00  0.00     0.116 C 
BRANCH   2   3
ATOM      3  N   UNL A   1      43.958  22.962  26.867  1.00  0.00    -0.352 N 
ATOM      4  C   UNL A   1      45.056  23.291  27.620  1.00  0.00     0.251 C 
ATOM      5  O   UNL A   1      46.165  23.131  27.108  1.00  0.00    -0.269 OA
ATOM      6  H   UNL A   1      44.179  22.628  25.967  1.00  0.00     0.163 HD
BRANCH   4   7
ATOM      7  C   UNL A   1      44.977  23.776  29.029  1.00  0.00     0.039 A 
ATOM      8  C   UNL A   1      44.628  24.586  31.723  1.00  0.00     0.060 A 
ATOM      9  C   UNL A   1      44.012  23.430  31.237  1.00  0.00     0.029 A 
ATOM     10  C   UNL A   1      45.469  25.295  30.863  1.00  0.00     0.029 A 
ATOM     11  C   UNL A   1      44.167  23.039  29.903  1.00  0.00     0.016 A 
ATOM     12  C   UNL A   1      45.670  24.874  29.543  1.00  0.00     0.016 A 
BRANCH   8  13
ATOM     13  N   UNL A   1      44.407  24.987  33.029  1.00  0.00    -0.257 N 
ATOM     14  C   UNL A   1      44.065  24.070  34.116  1.00  0.00     0.144 C 
ATOM     15  C   UNL A   1      43.668  25.027  35.248  1.00  0.00     0.091 C 
ATOM     16  C   UNL A   1      43.687  26.329  34.500  1.00  0.00     0.071 C 
ATOM     17  N   UNL A   1      44.100  26.286  33.274  1.00  0.00    -0.176 NA
BRANCH  14  18
ATOM     18  C   UNL A   1      45.240  23.178  34.474  1.00  0.00    -0.019 A 
ATOM     19  C   UNL A   1      47.626  22.881  34.905  1.00  0.00     0.119 A 
ATOM     20  C   UNL A   1      47.421  21.507  35.029  1.00  0.00     0.046 A 
ATOM     21  C   UNL A   1      46.539  23.708  34.619  1.00  0.00     0.052 A 
ATOM     22  C   UNL A   1      46.144  20.964  34.892  1.00  0.00     0.004 A 
ATOM     23  C   UNL A   1      45.058  21.794  34.618  1.00  0.00     0.006 A 
BRANCH  19  24
ATOM     24  O   UNL A   1      48.924  23.286  35.053  1.00  0.00    -0.497 OA
ATOM     25  C   UNL A   1      49.812  22.978  33.984  1.00  0.00     0.278 C 
ENDBRANCH  19  24
ENDBRANCH  14  18
BRANCH  16  26
ATOM     26  C   UNL A   1      43.226  27.566  35.129  1.00  0.00    -0.002 A 
ATOM     27  C   UNL A   1      42.042  28.151  34.670  1.00  0.00     0.011 A 
ATOM     28  C   UNL A   1      43.978  28.155  36.147  1.00  0.00     0.011 A 
ATOM     29  C   UNL A   1      41.589  29.332  35.254  1.00  0.00     0.021 A 
ATOM     30  C   UNL A   1      43.539  29.352  36.715  1.00  0.00     0.021 A 
ATOM     31  C   UNL A   1      42.347  29.932  36.265  1.00  0.00     0.067 A 
BRANCH  31  32
ATOM     32  S   UNL A   1      41.764  31.441  37.001  1.00  0.00     0.175 S 
ATOM     33  C   UNL A   1      42.520  32.722  36.036  1.00  0.00     0.163 C 
ATOM     34  O   UNL A   1      40.332  31.485  36.785  1.00  0.00    -0.224 OA
ATOM     35  O   UNL A   1      42.319  31.520  38.341  1.00  0.00    -0.224 OA
ENDBRANCH  31  32
ENDBRANCH  16  26
ENDBRANCH   8  13
ENDBRANCH   4   7
ENDBRANCH   2   3
ENDBRANCH   1   2
BRANCH   1  36
ATOM     36  C   UNL A   1      40.955  20.986  27.171  1.00  0.00     0.023 C 
BRANCH  36  37
ATOM     37  C   UNL A   1      40.556  21.552  25.814  1.00  0.00     0.116 C 
BRANCH  37  38
ATOM     38  N   UNL A   1      39.118  21.736  25.670  1.00  0.00    -0.352 N 
ATOM     39  C   UNL A   1      38.357  22.812  26.059  1.00  0.00     0.251 C 
ATOM     40  H   UNL A   1      38.631  20.997  25.240  1.00  0.00     0.163 HD
ATOM     41  O   UNL A   1      37.134  22.770  25.966  1.00  0.00    -0.269 OA
BRANCH  39  42
ATOM     42  C   UNL A   1      39.027  24.000  26.627  1.00  0.00     0.039 A 
ATOM     43  C   UNL A   1      39.641  24.905  25.760  1.00  0.00     0.014 A 
ATOM     44  C   UNL A   1      39.006  24.238  28.004  1.00  0.00     0.014 A 
ATOM     45  C   UNL A   1      40.185  26.084  26.271  1.00  0.00     0.010 A 
ATOM     46  C   UNL A   1      39.483  25.447  28.500  1.00  0.00     0.010 A 
ATOM     47  C   UNL A   1      40.081  26.380  27.640  1.00  0.00    -0.014 A 
BRANCH  47  48
ATOM     48  C   UNL A   1      40.583  27.665  28.188  1.00  0.00     0.031 A 
ATOM     49  C   UNL A   1      42.061  27.926  28.278  1.00  0.00     0.074 A 
ATOM     50  C   UNL A   1      39.706  28.563  28.681  1.00  0.00     0.049 A 
ATOM     51  N   UNL A   1      42.685  28.973  28.752  1.00  0.00    -0.248 NA
ATOM     52  C   UNL A   1      42.958  26.860  27.802  1.00  0.00     0.031 C 
ATOM     53  C   UNL A   1      38.253  28.385  28.737  1.00  0.00     0.029 A 
ATOM     54  N   UNL A   1      39.911  29.793  29.253  1.00  0.00    -0.354 N 
ATOM     55  C   UNL A   1      44.041  28.679  28.664  1.00  0.00     0.074 A 
ATOM     56  C   UNL A   1      44.149  27.341  28.128  1.00  0.00     0.031 C 
ATOM     57  C   UNL A   1      37.698  29.469  29.302  1.00  0.00     0.029 A 
ATOM     58  C   UNL A   1      38.752  30.409  29.670  1.00  0.00     0.049 A 
ATOM     59  H   UNL A   1      40.802  30.198  29.356  1.00  0.00     0.167 HD
ATOM     60  C   UNL A   1      45.101  29.466  28.970  1.00  0.00     0.034 A 
ATOM     61  C   UNL A   1      38.562  31.597  30.277  1.00  0.00     0.034 A 
ATOM     62  C   UNL A   1      44.986  30.813  29.457  1.00  0.00     0.049 A 
ATOM     63  C   UNL A   1      39.753  32.476  30.547  1.00  0.00     0.074 A 
ATOM     64  C   UNL A   1      45.996  31.725  29.707  1.00  0.00     0.029 A 
ATOM     65  N   UNL A   1      43.792  31.442  29.770  1.00  0.00    -0.354 N 
ATOM     66  N   UNL A   1      41.021  32.249  30.296  1.00  0.00    -0.248 NA
ATOM     67  C   UNL A   1      39.487  33.792  31.145  1.00  0.00     0.031 C 
ATOM     68  C   UNL A   1      45.412  32.901  30.191  1.00  0.00     0.029 A 
ATOM     69  C   UNL A   1      44.037  32.729  30.216  1.00  0.00     0.049 A 
ATOM     70  H   UNL A   1      42.899  31.034  29.688  1.00  0.00     0.167 HD
ATOM     71  C   UNL A   1      41.696  33.406  30.666  1.00  0.00     0.074 A 
ATOM     72  C   UNL A   1      40.695  34.339  31.141  1.00  0.00     0.031 C 
ATOM     73  C   UNL A   1      43.026  33.669  30.627  1.00  0.00     0.034 A 
BRANCH  60  74
ATOM     74  C   UNL A   1      46.478  28.907  28.726  1.00  0.00     0.023 A 
ATOM     75  C   UNL A   1      47.220  28.394  29.810  1.00  0.00     0.012 A 
ATOM     76  C   UNL A   1      47.016  28.833  27.426  1.00  0.00     0.148 A 
ATOM     77  C   UNL A   1      48.490  27.853  29.612  1.00  0.00     0.002 A 
ATOM     78  C   UNL A   1      48.263  28.251  27.230  1.00  0.00     0.091 A 
ATOM     79  F   UNL A   1      46.306  29.345  26.410  1.00  0.00    -0.205 F 
ATOM     80  C   UNL A   1      49.005  27.772  28.323  1.00  0.00     0.022 A 
BRANCH  78  81
ATOM     81  S   UNL A   1      48.980  28.025  25.599  1.00  0.00     0.127 S 
ATOM     82  O   UNL A   1      49.375  26.618  25.643  1.00  0.00    -0.237 OA
ATOM     83  O   UNL A   1      47.845  28.311  24.721  1.00  0.00    -0.237 OA
ATOM     84  O   UNL A   1      50.074  28.981  25.507  1.00  0.00    -0.744 OA
ENDBRANCH  78  81
ENDBRANCH  60  74
BRANCH  61  85
ATOM     85  C   UNL A   1      37.181  32.059  30.590  1.00  0.00     0.023 A 
ATOM     86  C   UNL A   1      36.678  31.893  31.897  1.00  0.00     0.012 A 
ATOM     87  C   UNL A   1      36.377  32.687  29.621  1.00  0.00     0.148 A 
ATOM     88  C   UNL A   1      35.388  32.312  32.221  1.00  0.00     0.002 A 
ATOM     89  C   UNL A   1      35.112  33.151  29.965  1.00  0.00     0.091 A 
ATOM     90  F   UNL A   1      36.870  32.827  28.381  1.00  0.00    -0.205 F 
ATOM     91  C   UNL A   1      34.610  32.949  31.259  1.00  0.00     0.022 A 
BRANCH  89  92
ATOM     92  S   UNL A   1      34.094  34.099  28.829  1.00  0.00     0.127 S 
ATOM     93  O   UNL A   1      33.042  34.594  29.713  1.00  0.00    -0.237 OA
ATOM     94  O   UNL A   1      35.033  35.119  28.359  1.00  0.00    -0.237 OA
ATOM     95  O   UNL A   1      33.670  33.157  27.803  1.00  0.00    -0.744 OA
ENDBRANCH  89  92
ENDBRANCH  61  85
BRANCH  73  96
ATOM     96  C   UNL A   1      43.483  35.034  31.066  1.00  0.00     0.023 A 
ATOM     97  C   UNL A   1      43.682  36.050  30.110  1.00  0.00     0.012 A 
ATOM     98  C   UNL A   1      43.637  35.332  32.435  1.00  0.00     0.148 A 
ATOM     99  C   UNL A   1      44.056  37.332  30.508  1.00  0.00     0.002 A 
ATOM    100  C   UNL A   1      43.962  36.625  32.826  1.00  0.00     0.091 A 
ATOM    101  F   UNL A   1      43.463  34.346  33.327  1.00  0.00    -0.205 F 
ATOM    102  C   UNL A   1      44.183  37.624  31.864  1.00  0.00     0.022 A 
BRANCH 100 103
ATOM    103  S   UNL A   1      44.048  37.111  34.553  1.00  0.00     0.127 S 
ATOM    104  O   UNL A   1      42.707  36.769  35.027  1.00  0.00    -0.237 OA
ATOM    105  O   UNL A   1      45.114  36.250  35.067  1.00  0.00    -0.237 OA
ATOM    106  O   UNL A   1      44.368  38.532  34.554  1.00  0.00    -0.744 OA
ENDBRANCH 100 103
ENDBRANCH  73  96
ENDBRANCH  47  48
ENDBRANCH  39  42
ENDBRANCH  37  38
ENDBRANCH  36  37
ENDBRANCH   1  36
TORSDOF 19
ENDMDL
