MODEL 1
REMARK VINA RESULT:     -13.3      0.000      0.000
REMARK SMILES O=C(NCCCCNC(=O)[C@@H]1CC=CC[C@H]1C(=O)N1CC[NH+](Cc2ccc3c(c2)OCO3)CC1)c1ccc(-c2c3nc(c(-c4cccc(S(=O)(=O)[O-])c4F)c4ccc([nH]4)c(-c4cccc(S(=O)(=O)[O-])c4F)c4nc(c(-c5cccc(S(=O)(=O)[O-])c5F)c5ccc2[nH]5)C=C4)C=C3)cc1
REMARK SMILES IDX 5 1 4 2 3 3 1 4 2 5 35 7 36 8 97 9 37 10 96 11 38 12 39 13
REMARK SMILES IDX 40 14 90 15 41 16 95 17 89 18 91 19 42 20 94 21 88 22 87 23
REMARK SMILES IDX 43 25 75 26 55 27 74 28 56 29 59 30 73 31 92 32 57 33 58 34
REMARK SMILES IDX 72 36 93 37 60 38 44 39 45 40 53 41 46 42 48 43 54 44 47 45
REMARK SMILES IDX 49 46 50 47 51 48 52 49 76 50 77 51 85 52 78 53 80 54 86 55
REMARK SMILES IDX 79 56 81 57 82 58 83 59 84 60 61 61 62 62 70 63 63 64 65 65
REMARK SMILES IDX 71 66 64 67 66 68 67 69 68 70 69 71 6 72 7 73 8 74 9 75
REMARK SMILES IDX 10 77 11 78 12 79 16 80 13 81 15 82 14 83 17 84 18 85 19 86
REMARK SMILES IDX 20 87 34 88 21 89 33 90 22 91 23 93 24 94 25 95 29 96 26 97
REMARK SMILES IDX 28 98 27 99 30 100 32 101 31 102
REMARK H PARENT 3 6 91 24 59 35 8 76 22 92
REMARK Flexibility Score: inf
ROOT
ATOM      1  C   UNL A   1      34.675  21.483  26.759  1.00  0.00     0.023 C 
ENDROOT
BRANCH   1   2
ATOM      2  C   UNL A   1      36.041  22.063  26.445  1.00  0.00     0.116 C 
BRANCH   2   3
ATOM      3  N   UNL A   1      36.972  21.097  25.880  1.00  0.00    -0.352 N 
ATOM      4  O   UNL A   1      39.007  20.351  25.228  1.00  0.00    -0.269 OA
ATOM      5  C   UNL A   1      38.344  21.203  25.808  1.00  0.00     0.251 C 
ATOM      6  H   UNL A   1      36.579  20.276  25.507  1.00  0.00     0.163 HD
BRANCH   5   7
ATOM      7  C   UNL A   1      38.978  22.394  26.406  1.00  0.00     0.039 A 
ATOM      8  C   UNL A   1      38.557  23.666  26.016  1.00  0.00     0.014 A 
ATOM      9  C   UNL A   1      40.062  22.235  27.270  1.00  0.00     0.014 A 
ATOM     10  C   UNL A   1      39.325  24.769  26.354  1.00  0.00     0.010 A 
ATOM     11  C   UNL A   1      40.771  23.361  27.695  1.00  0.00     0.010 A 
ATOM     12  C   UNL A   1      40.431  24.632  27.210  1.00  0.00    -0.014 A 
BRANCH  12  13
ATOM     13  C   UNL A   1      41.149  25.859  27.633  1.00  0.00     0.031 A 
ATOM     14  C   UNL A   1      42.559  26.145  27.202  1.00  0.00     0.074 A 
ATOM     15  C   UNL A   1      40.472  26.749  28.388  1.00  0.00     0.049 A 
ATOM     16  N   UNL A   1      43.280  27.212  27.427  1.00  0.00    -0.248 NA
ATOM     17  C   UNL A   1      43.256  25.106  26.427  1.00  0.00     0.031 C 
ATOM     18  C   UNL A   1      39.118  26.541  28.910  1.00  0.00     0.029 A 
ATOM     19  N   UNL A   1      40.809  28.000  28.827  1.00  0.00    -0.354 N 
ATOM     20  C   UNL A   1      44.524  26.964  26.859  1.00  0.00     0.074 A 
ATOM     21  C   UNL A   1      44.463  25.638  26.281  1.00  0.00     0.031 C 
ATOM     22  C   UNL A   1      38.720  27.647  29.551  1.00  0.00     0.029 A 
ATOM     23  C   UNL A   1      39.806  28.619  29.535  1.00  0.00     0.049 A 
ATOM     24  H   UNL A   1      41.684  28.417  28.653  1.00  0.00     0.167 HD
ATOM     25  C   UNL A   1      45.609  27.774  26.812  1.00  0.00     0.034 A 
ATOM     26  C   UNL A   1      39.762  29.833  30.113  1.00  0.00     0.034 A 
ATOM     27  C   UNL A   1      45.645  29.107  27.358  1.00  0.00     0.049 A 
ATOM     28  C   UNL A   1      40.953  30.734  29.979  1.00  0.00     0.074 A 
ATOM     29  C   UNL A   1      46.684  30.020  27.336  1.00  0.00     0.029 A 
ATOM     30  N   UNL A   1      44.590  29.723  28.018  1.00  0.00    -0.354 N 
ATOM     31  N   UNL A   1      42.081  30.517  29.347  1.00  0.00    -0.248 NA
ATOM     32  C   UNL A   1      40.859  32.054  30.613  1.00  0.00     0.031 C 
ATOM     33  C   UNL A   1      46.260  31.186  27.984  1.00  0.00     0.029 A 
ATOM     34  C   UNL A   1      44.952  31.003  28.403  1.00  0.00     0.049 A 
ATOM     35  H   UNL A   1      43.713  29.309  28.188  1.00  0.00     0.167 HD
ATOM     36  C   UNL A   1      42.833  31.671  29.509  1.00  0.00     0.074 A 
ATOM     37  C   UNL A   1      42.010  32.605  30.254  1.00  0.00     0.031 C 
ATOM     38  C   UNL A   1      44.104  31.925  29.111  1.00  0.00     0.034 A 
BRANCH  25  39
ATOM     39  C   UNL A   1      46.837  27.273  26.098  1.00  0.00     0.023 A 
ATOM     40  C   UNL A   1      47.661  26.322  26.732  1.00  0.00     0.012 A 
ATOM     41  C   UNL A   1      47.130  27.670  24.778  1.00  0.00     0.148 A 
ATOM     42  C   UNL A   1      48.766  25.784  26.072  1.00  0.00     0.002 A 
ATOM     43  C   UNL A   1      48.215  27.105  24.114  1.00  0.00     0.091 A 
ATOM     44  F   UNL A   1      46.348  28.592  24.200  1.00  0.00    -0.205 F 
ATOM     45  C   UNL A   1      49.035  26.168  24.761  1.00  0.00     0.022 A 
BRANCH  43  46
ATOM     46  S   UNL A   1      48.606  27.481  22.400  1.00  0.00     0.127 S 
ATOM     47  O   UNL A   1      49.958  28.025  22.519  1.00  0.00    -0.237 OA
ATOM     48  O   UNL A   1      48.533  26.164  21.769  1.00  0.00    -0.237 OA
ATOM     49  O   UNL A   1      47.589  28.424  21.955  1.00  0.00    -0.744 OA
ENDBRANCH  43  46
ENDBRANCH  25  39
BRANCH  26  50
ATOM     50  C   UNL A   1      38.523  30.264  30.817  1.00  0.00     0.023 A 
ATOM     51  C   UNL A   1      38.396  30.043  32.201  1.00  0.00     0.012 A 
ATOM     52  C   UNL A   1      37.508  30.966  30.139  1.00  0.00     0.148 A 
ATOM     53  C   UNL A   1      37.274  30.499  32.893  1.00  0.00     0.002 A 
ATOM     54  C   UNL A   1      36.427  31.476  30.846  1.00  0.00     0.091 A 
ATOM     55  F   UNL A   1      37.631  31.150  28.817  1.00  0.00    -0.205 F 
ATOM     56  C   UNL A   1      36.297  31.230  32.219  1.00  0.00     0.022 A 
BRANCH  54  57
ATOM     57  S   UNL A   1      35.241  32.575  30.061  1.00  0.00     0.127 S 
ATOM     58  O   UNL A   1      34.686  31.723  29.014  1.00  0.00    -0.237 OA
ATOM     59  O   UNL A   1      34.323  32.885  31.157  1.00  0.00    -0.237 OA
ATOM     60  O   UNL A   1      36.033  33.716  29.616  1.00  0.00    -0.744 OA
ENDBRANCH  54  57
ENDBRANCH  26  50
BRANCH  38  61
ATOM     61  C   UNL A   1      44.678  33.263  29.491  1.00  0.00     0.023 A 
ATOM     62  C   UNL A   1      45.388  33.385  30.703  1.00  0.00     0.012 A 
ATOM     63  C   UNL A   1      44.548  34.380  28.647  1.00  0.00     0.148 A 
ATOM     64  C   UNL A   1      45.930  34.610  31.086  1.00  0.00     0.002 A 
ATOM     65  C   UNL A   1      45.125  35.591  29.017  1.00  0.00     0.091 A 
ATOM     66  F   UNL A   1      43.847  34.251  27.512  1.00  0.00    -0.205 F 
ATOM     67  C   UNL A   1      45.806  35.710  30.240  1.00  0.00     0.022 A 
BRANCH  65  68
ATOM     68  S   UNL A   1      45.073  37.030  27.945  1.00  0.00     0.127 S 
ATOM     69  O   UNL A   1      45.828  38.011  28.724  1.00  0.00    -0.237 OA
ATOM     70  O   UNL A   1      45.754  36.554  26.741  1.00  0.00    -0.237 OA
ATOM     71  O   UNL A   1      43.659  37.323  27.755  1.00  0.00    -0.744 OA
ENDBRANCH  65  68
ENDBRANCH  38  61
ENDBRANCH  12  13
ENDBRANCH   5   7
ENDBRANCH   2   3
ENDBRANCH   1   2
BRANCH   1  72
ATOM     72  C   UNL A   1      34.135  20.513  25.712  1.00  0.00     0.023 C 
BRANCH  72  73
ATOM     73  C   UNL A   1      32.622  20.570  25.492  1.00  0.00     0.116 C 
BRANCH  73  74
ATOM     74  N   UNL A   1      32.290  20.545  24.084  1.00  0.00    -0.356 N 
ATOM     75  C   UNL A   1      32.458  21.431  23.073  1.00  0.00     0.224 C 
ATOM     76  H   UNL A   1      31.850  19.711  23.804  1.00  0.00     0.163 HD
ATOM     77  O   UNL A   1      31.958  21.070  22.002  1.00  0.00    -0.275 OA
BRANCH  75  78
ATOM     78  C   UNL A   1      33.310  22.719  23.148  1.00  0.00     0.095 C 
ATOM     79  C   UNL A   1      34.833  22.508  23.123  1.00  0.00     0.041 C 
ATOM     80  C   UNL A   1      32.924  23.487  24.437  1.00  0.00     0.095 C 
ATOM     81  C   UNL A   1      35.674  23.668  23.545  1.00  0.00    -0.030 C 
ATOM     82  C   UNL A   1      33.761  24.766  24.671  1.00  0.00     0.041 C 
ATOM     83  C   UNL A   1      35.188  24.692  24.247  1.00  0.00    -0.030 C 
BRANCH  80  84
ATOM     84  C   UNL A   1      31.471  23.940  24.636  1.00  0.00     0.227 C 
ATOM     85  O   UNL A   1      30.744  23.322  25.419  1.00  0.00    -0.275 OA
ATOM     86  N   UNL A   1      31.165  25.236  24.241  1.00  0.00    -0.331 N 
ATOM     87  C   UNL A   1      30.389  26.029  25.184  1.00  0.00     0.181 C 
ATOM     88  C   UNL A   1      30.906  25.576  22.846  1.00  0.00     0.181 C 
ATOM     89  C   UNL A   1      30.534  27.539  24.924  1.00  0.00     0.284 C 
ATOM     90  C   UNL A   1      31.074  27.089  22.589  1.00  0.00     0.284 C 
ATOM     91  N   UNL A   1      30.381  27.986  23.530  1.00  0.00    -0.328 N 
ATOM     92  H   UNL A   1      30.873  28.877  23.470  1.00  0.00     0.348 HD
BRANCH  91  93
ATOM     93  C   UNL A   1      29.028  28.398  23.141  1.00  0.00     0.299 C 
BRANCH  93  94
ATOM     94  C   UNL A   1      28.848  29.837  22.714  1.00  0.00     0.010 A 
ATOM     95  C   UNL A   1      28.937  30.885  23.659  1.00  0.00     0.013 A 
ATOM     96  C   UNL A   1      28.515  30.135  21.382  1.00  0.00     0.060 A 
ATOM     97  C   UNL A   1      28.607  32.198  23.310  1.00  0.00     0.051 A 
ATOM     98  C   UNL A   1      28.183  31.436  21.071  1.00  0.00     0.166 A 
ATOM     99  C   UNL A   1      28.213  32.436  22.012  1.00  0.00     0.165 A 
ATOM    100  O   UNL A   1      27.751  31.873  19.859  1.00  0.00    -0.454 OA
ATOM    101  O   UNL A   1      27.799  33.630  21.510  1.00  0.00    -0.454 OA
ATOM    102  C   UNL A   1      27.403  33.237  20.179  1.00  0.00     0.468 C 
ENDBRANCH  93  94
ENDBRANCH  91  93
ENDBRANCH  80  84
ENDBRANCH  75  78
ENDBRANCH  73  74
ENDBRANCH  72  73
ENDBRANCH   1  72
TORSDOF 17
ENDMDL
MODEL 2
REMARK VINA RESULT:     -12.6      5.012     10.218
REMARK SMILES O=C(NCCCCNC(=O)[C@@H]1CC=CC[C@H]1C(=O)N1CC[NH+](Cc2ccc3c(c2)OCO3)CC1)c1ccc(-c2c3nc(c(-c4cccc(S(=O)(=O)[O-])c4F)c4ccc([nH]4)c(-c4cccc(S(=O)(=O)[O-])c4F)c4nc(c(-c5cccc(S(=O)(=O)[O-])c5F)c5ccc2[nH]5)C=C4)C=C3)cc1
REMARK SMILES IDX 5 1 4 2 3 3 1 4 2 5 35 7 36 8 97 9 37 10 96 11 38 12 39 13
REMARK SMILES IDX 40 14 90 15 41 16 95 17 89 18 91 19 42 20 94 21 88 22 87 23
REMARK SMILES IDX 43 25 75 26 55 27 74 28 56 29 59 30 73 31 92 32 57 33 58 34
REMARK SMILES IDX 72 36 93 37 60 38 44 39 45 40 53 41 46 42 48 43 54 44 47 45
REMARK SMILES IDX 49 46 50 47 51 48 52 49 76 50 77 51 85 52 78 53 80 54 86 55
REMARK SMILES IDX 79 56 81 57 82 58 83 59 84 60 61 61 62 62 70 63 63 64 65 65
REMARK SMILES IDX 71 66 64 67 66 68 67 69 68 70 69 71 6 72 7 73 8 74 9 75
REMARK SMILES IDX 10 77 11 78 12 79 16 80 13 81 15 82 14 83 17 84 18 85 19 86
REMARK SMILES IDX 20 87 34 88 21 89 33 90 22 91 23 93 24 94 25 95 29 96 26 97
REMARK SMILES IDX 28 98 27 99 30 100 32 101 31 102
REMARK H PARENT 3 6 91 24 59 35 8 76 22 92
REMARK Flexibility Score: inf
ROOT
ATOM      1  C   UNL A   1      34.521  28.440  26.255  1.00  0.00     0.023 C 
ENDROOT
BRANCH   1   2
ATOM      2  C   UNL A   1      33.927  28.979  27.542  1.00  0.00     0.116 C 
BRANCH   2   3
ATOM      3  N   UNL A   1      33.711  30.418  27.531  1.00  0.00    -0.352 N 
ATOM      4  O   UNL A   1      34.179  32.565  28.073  1.00  0.00    -0.269 OA
ATOM      5  C   UNL A   1      34.522  31.388  28.078  1.00  0.00     0.251 C 
ATOM      6  H   UNL A   1      32.894  30.734  27.084  1.00  0.00     0.163 HD
BRANCH   5   7
ATOM      7  C   UNL A   1      35.784  30.959  28.709  1.00  0.00     0.039 A 
ATOM      8  C   UNL A   1      36.973  31.613  28.384  1.00  0.00     0.014 A 
ATOM      9  C   UNL A   1      35.792  29.837  29.539  1.00  0.00     0.014 A 
ATOM     10  C   UNL A   1      38.183  31.046  28.750  1.00  0.00     0.010 A 
ATOM     11  C   UNL A   1      37.010  29.328  29.994  1.00  0.00     0.010 A 
ATOM     12  C   UNL A   1      38.216  29.906  29.572  1.00  0.00    -0.014 A 
BRANCH  12  13
ATOM     13  C   UNL A   1      39.536  29.408  30.030  1.00  0.00     0.031 A 
ATOM     14  C   UNL A   1      40.185  29.914  31.286  1.00  0.00     0.074 A 
ATOM     15  C   UNL A   1      40.123  28.436  29.302  1.00  0.00     0.049 A 
ATOM     16  N   UNL A   1      41.295  29.512  31.850  1.00  0.00    -0.248 NA
ATOM     17  C   UNL A   1      39.517  31.014  32.000  1.00  0.00     0.031 C 
ATOM     18  C   UNL A   1      39.605  27.914  28.034  1.00  0.00     0.029 A 
ATOM     19  N   UNL A   1      41.257  27.702  29.524  1.00  0.00    -0.354 N 
ATOM     20  C   UNL A   1      41.481  30.327  32.959  1.00  0.00     0.074 A 
ATOM     21  C   UNL A   1      40.370  31.255  32.988  1.00  0.00     0.031 C 
ATOM     22  C   UNL A   1      40.387  26.909  27.619  1.00  0.00     0.029 A 
ATOM     23  C   UNL A   1      41.490  26.752  28.558  1.00  0.00     0.049 A 
ATOM     24  H   UNL A   1      41.848  27.841  30.299  1.00  0.00     0.167 HD
ATOM     25  C   UNL A   1      42.478  30.293  33.876  1.00  0.00     0.034 A 
ATOM     26  C   UNL A   1      42.484  25.853  28.435  1.00  0.00     0.034 A 
ATOM     27  C   UNL A   1      43.558  29.340  33.858  1.00  0.00     0.049 A 
ATOM     28  C   UNL A   1      43.532  25.793  29.506  1.00  0.00     0.074 A 
ATOM     29  C   UNL A   1      44.601  29.202  34.757  1.00  0.00     0.029 A 
ATOM     30  N   UNL A   1      43.730  28.355  32.896  1.00  0.00    -0.354 N 
ATOM     31  N   UNL A   1      43.630  26.506  30.602  1.00  0.00    -0.248 NA
ATOM     32  C   UNL A   1      44.591  24.790  29.340  1.00  0.00     0.031 C 
ATOM     33  C   UNL A   1      45.405  28.135  34.338  1.00  0.00     0.029 A 
ATOM     34  C   UNL A   1      44.858  27.603  33.182  1.00  0.00     0.049 A 
ATOM     35  H   UNL A   1      43.138  28.211  32.123  1.00  0.00     0.167 HD
ATOM     36  C   UNL A   1      44.761  26.041  31.256  1.00  0.00     0.074 A 
ATOM     37  C   UNL A   1      45.285  24.948  30.458  1.00  0.00     0.031 C 
ATOM     38  C   UNL A   1      45.338  26.499  32.394  1.00  0.00     0.034 A 
BRANCH  25  39
ATOM     39  C   UNL A   1      42.427  31.278  35.015  1.00  0.00     0.023 A 
ATOM     40  C   UNL A   1      41.884  30.872  36.251  1.00  0.00     0.012 A 
ATOM     41  C   UNL A   1      42.987  32.565  34.896  1.00  0.00     0.148 A 
ATOM     42  C   UNL A   1      41.885  31.735  37.347  1.00  0.00     0.002 A 
ATOM     43  C   UNL A   1      43.014  33.410  36.002  1.00  0.00     0.091 A 
ATOM     44  F   UNL A   1      43.477  32.941  33.707  1.00  0.00    -0.205 F 
ATOM     45  C   UNL A   1      42.459  32.999  37.225  1.00  0.00     0.022 A 
BRANCH  43  46
ATOM     46  S   UNL A   1      43.791  35.030  35.967  1.00  0.00     0.127 S 
ATOM     47  O   UNL A   1      43.548  35.503  37.329  1.00  0.00    -0.237 OA
ATOM     48  O   UNL A   1      45.186  34.698  35.678  1.00  0.00    -0.237 OA
ATOM     49  O   UNL A   1      43.114  35.776  34.915  1.00  0.00    -0.744 OA
ENDBRANCH  43  46
ENDBRANCH  25  39
BRANCH  26  50
ATOM     50  C   UNL A   1      42.486  24.918  27.277  1.00  0.00     0.023 A 
ATOM     51  C   UNL A   1      43.166  25.271  26.097  1.00  0.00     0.012 A 
ATOM     52  C   UNL A   1      41.890  23.646  27.370  1.00  0.00     0.148 A 
ATOM     53  C   UNL A   1      43.237  24.382  25.024  1.00  0.00     0.002 A 
ATOM     54  C   UNL A   1      42.023  22.740  26.325  1.00  0.00     0.091 A 
ATOM     55  F   UNL A   1      41.226  23.330  28.491  1.00  0.00    -0.205 F 
ATOM     56  C   UNL A   1      42.680  23.110  25.144  1.00  0.00     0.022 A 
BRANCH  54  57
ATOM     57  S   UNL A   1      41.484  21.034  26.503  1.00  0.00     0.127 S 
ATOM     58  O   UNL A   1      42.150  20.388  25.376  1.00  0.00    -0.237 OA
ATOM     59  O   UNL A   1      42.009  20.673  27.820  1.00  0.00    -0.237 OA
ATOM     60  O   UNL A   1      40.029  21.098  26.447  1.00  0.00    -0.744 OA
ENDBRANCH  54  57
ENDBRANCH  26  50
BRANCH  38  61
ATOM     61  C   UNL A   1      46.611  25.822  32.827  1.00  0.00     0.023 A 
ATOM     62  C   UNL A   1      47.844  26.314  32.356  1.00  0.00     0.012 A 
ATOM     63  C   UNL A   1      46.592  24.733  33.716  1.00  0.00     0.148 A 
ATOM     64  C   UNL A   1      49.040  25.710  32.735  1.00  0.00     0.002 A 
ATOM     65  C   UNL A   1      47.792  24.159  34.123  1.00  0.00     0.091 A 
ATOM     66  F   UNL A   1      45.408  24.262  34.133  1.00  0.00    -0.205 F 
ATOM     67  C   UNL A   1      49.015  24.638  33.626  1.00  0.00     0.022 A 
BRANCH  65  68
ATOM     68  S   UNL A   1      47.843  22.825  35.324  1.00  0.00     0.127 S 
ATOM     69  O   UNL A   1      49.282  22.645  35.510  1.00  0.00    -0.237 OA
ATOM     70  O   UNL A   1      47.149  23.407  36.474  1.00  0.00    -0.237 OA
ATOM     71  O   UNL A   1      47.139  21.713  34.702  1.00  0.00    -0.744 OA
ENDBRANCH  65  68
ENDBRANCH  38  61
ENDBRANCH  12  13
ENDBRANCH   5   7
ENDBRANCH   2   3
ENDBRANCH   1   2
BRANCH   1  72
ATOM     72  C   UNL A   1      33.498  27.936  25.240  1.00  0.00     0.023 C 
BRANCH  72  73
ATOM     73  C   UNL A   1      33.590  28.575  23.853  1.00  0.00     0.116 C 
BRANCH  73  74
ATOM     74  N   UNL A   1      33.688  27.573  22.814  1.00  0.00    -0.356 N 
ATOM     75  C   UNL A   1      32.779  26.785  22.192  1.00  0.00     0.224 C 
ATOM     76  H   UNL A   1      34.608  27.437  22.492  1.00  0.00     0.163 HD
ATOM     77  O   UNL A   1      33.275  25.980  21.394  1.00  0.00    -0.275 OA
BRANCH  75  78
ATOM     78  C   UNL A   1      31.244  26.927  22.313  1.00  0.00     0.095 C 
ATOM     79  C   UNL A   1      30.713  28.369  22.332  1.00  0.00     0.041 C 
ATOM     80  C   UNL A   1      30.786  26.198  23.601  1.00  0.00     0.095 C 
ATOM     81  C   UNL A   1      29.305  28.555  22.798  1.00  0.00    -0.030 C 
ATOM     82  C   UNL A   1      29.270  26.328  23.882  1.00  0.00     0.041 C 
ATOM     83  C   UNL A   1      28.652  27.630  23.501  1.00  0.00    -0.030 C 
BRANCH  80  84
ATOM     84  C   UNL A   1      31.076  24.700  23.762  1.00  0.00     0.227 C 
ATOM     85  O   UNL A   1      30.426  23.881  23.102  1.00  0.00    -0.275 OA
ATOM     86  N   UNL A   1      32.300  24.361  24.324  1.00  0.00    -0.331 N 
ATOM     87  C   UNL A   1      33.053  23.318  23.644  1.00  0.00     0.181 C 
ATOM     88  C   UNL A   1      32.518  24.388  25.767  1.00  0.00     0.181 C 
ATOM     89  C   UNL A   1      34.550  23.363  23.998  1.00  0.00     0.284 C 
ATOM     90  C   UNL A   1      34.021  24.457  26.113  1.00  0.00     0.284 C 
ATOM     91  N   UNL A   1      34.887  23.484  25.425  1.00  0.00    -0.328 N 
ATOM     92  H   UNL A   1      35.825  23.884  25.455  1.00  0.00     0.348 HD
BRANCH  91  93
ATOM     93  C   UNL A   1      35.112  22.218  26.132  1.00  0.00     0.299 C 
BRANCH  93  94
ATOM     94  C   UNL A   1      34.425  20.992  25.576  1.00  0.00     0.010 A 
ATOM     95  C   UNL A   1      33.031  20.813  25.735  1.00  0.00     0.013 A 
ATOM     96  C   UNL A   1      35.184  19.984  24.959  1.00  0.00     0.060 A 
ATOM     97  C   UNL A   1      32.414  19.611  25.376  1.00  0.00     0.051 A 
ATOM     98  C   UNL A   1      34.550  18.806  24.626  1.00  0.00     0.166 A 
ATOM     99  C   UNL A   1      33.207  18.619  24.843  1.00  0.00     0.165 A 
ATOM    100  O   UNL A   1      35.153  17.702  24.111  1.00  0.00    -0.454 OA
ATOM    101  O   UNL A   1      32.796  17.371  24.495  1.00  0.00    -0.454 OA
ATOM    102  C   UNL A   1      34.056  16.764  24.138  1.00  0.00     0.468 C 
ENDBRANCH  93  94
ENDBRANCH  91  93
ENDBRANCH  80  84
ENDBRANCH  75  78
ENDBRANCH  73  74
ENDBRANCH  72  73
ENDBRANCH   1  72
TORSDOF 17
ENDMDL
MODEL 3
REMARK VINA RESULT:     -12.6      4.373      8.478
REMARK SMILES O=C(NCCCCNC(=O)[C@@H]1CC=CC[C@H]1C(=O)N1CC[NH+](Cc2ccc3c(c2)OCO3)CC1)c1ccc(-c2c3nc(c(-c4cccc(S(=O)(=O)[O-])c4F)c4ccc([nH]4)c(-c4cccc(S(=O)(=O)[O-])c4F)c4nc(c(-c5cccc(S(=O)(=O)[O-])c5F)c5ccc2[nH]5)C=C4)C=C3)cc1
REMARK SMILES IDX 5 1 4 2 3 3 1 4 2 5 35 7 36 8 97 9 37 10 96 11 38 12 39 13
REMARK SMILES IDX 40 14 90 15 41 16 95 17 89 18 91 19 42 20 94 21 88 22 87 23
REMARK SMILES IDX 43 25 75 26 55 27 74 28 56 29 59 30 73 31 92 32 57 33 58 34
REMARK SMILES IDX 72 36 93 37 60 38 44 39 45 40 53 41 46 42 48 43 54 44 47 45
REMARK SMILES IDX 49 46 50 47 51 48 52 49 76 50 77 51 85 52 78 53 80 54 86 55
REMARK SMILES IDX 79 56 81 57 82 58 83 59 84 60 61 61 62 62 70 63 63 64 65 65
REMARK SMILES IDX 71 66 64 67 66 68 67 69 68 70 69 71 6 72 7 73 8 74 9 75
REMARK SMILES IDX 10 77 11 78 12 79 16 80 13 81 15 82 14 83 17 84 18 85 19 86
REMARK SMILES IDX 20 87 34 88 21 89 33 90 22 91 23 93 24 94 25 95 29 96 26 97
REMARK SMILES IDX 28 98 27 99 30 100 32 101 31 102
REMARK H PARENT 3 6 91 24 59 35 8 76 22 92
REMARK Flexibility Score: inf
ROOT
ATOM      1  C   UNL A   1      32.879  28.151  26.643  1.00  0.00     0.023 C 
ENDROOT
BRANCH   1   2
ATOM      2  C   UNL A   1      34.159  28.654  27.283  1.00  0.00     0.116 C 
BRANCH   2   3
ATOM      3  N   UNL A   1      34.058  30.006  27.813  1.00  0.00    -0.352 N 
ATOM      4  O   UNL A   1      34.768  31.805  28.988  1.00  0.00    -0.269 OA
ATOM      5  C   UNL A   1      35.013  30.697  28.524  1.00  0.00     0.251 C 
ATOM      6  H   UNL A   1      33.212  30.479  27.645  1.00  0.00     0.163 HD
BRANCH   5   7
ATOM      7  C   UNL A   1      36.316  30.043  28.749  1.00  0.00     0.039 A 
ATOM      8  C   UNL A   1      36.529  29.318  29.923  1.00  0.00     0.014 A 
ATOM      9  C   UNL A   1      37.355  30.248  27.839  1.00  0.00     0.014 A 
ATOM     10  C   UNL A   1      37.818  28.944  30.266  1.00  0.00     0.010 A 
ATOM     11  C   UNL A   1      38.635  29.776  28.141  1.00  0.00     0.010 A 
ATOM     12  C   UNL A   1      38.883  29.154  29.374  1.00  0.00    -0.014 A 
BRANCH  12  13
ATOM     13  C   UNL A   1      40.221  28.631  29.741  1.00  0.00     0.031 A 
ATOM     14  C   UNL A   1      40.841  27.463  29.028  1.00  0.00     0.074 A 
ATOM     15  C   UNL A   1      40.898  29.273  30.714  1.00  0.00     0.049 A 
ATOM     16  N   UNL A   1      42.034  26.950  29.187  1.00  0.00    -0.248 NA
ATOM     17  C   UNL A   1      40.026  26.773  28.015  1.00  0.00     0.031 C 
ATOM     18  C   UNL A   1      40.363  30.383  31.509  1.00  0.00     0.029 A 
ATOM     19  N   UNL A   1      42.172  29.111  31.186  1.00  0.00    -0.354 N 
ATOM     20  C   UNL A   1      42.103  25.860  28.327  1.00  0.00     0.074 A 
ATOM     21  C   UNL A   1      40.826  25.779  27.650  1.00  0.00     0.031 C 
ATOM     22  C   UNL A   1      41.318  30.836  32.331  1.00  0.00     0.029 A 
ATOM     23  C   UNL A   1      42.512  30.017  32.163  1.00  0.00     0.049 A 
ATOM     24  H   UNL A   1      42.785  28.414  30.859  1.00  0.00     0.167 HD
ATOM     25  C   UNL A   1      43.141  25.016  28.113  1.00  0.00     0.034 A 
ATOM     26  C   UNL A   1      43.658  30.174  32.852  1.00  0.00     0.034 A 
ATOM     27  C   UNL A   1      44.421  25.130  28.766  1.00  0.00     0.049 A 
ATOM     28  C   UNL A   1      44.811  29.270  32.539  1.00  0.00     0.074 A 
ATOM     29  C   UNL A   1      45.547  24.344  28.596  1.00  0.00     0.029 A 
ATOM     30  N   UNL A   1      44.748  26.096  29.707  1.00  0.00    -0.354 N 
ATOM     31  N   UNL A   1      44.887  28.312  31.647  1.00  0.00    -0.248 NA
ATOM     32  C   UNL A   1      46.045  29.483  33.305  1.00  0.00     0.031 C 
ATOM     33  C   UNL A   1      46.555  24.833  29.436  1.00  0.00     0.029 A 
ATOM     34  C   UNL A   1      46.059  25.930  30.123  1.00  0.00     0.049 A 
ATOM     35  H   UNL A   1      44.138  26.797  30.032  1.00  0.00     0.167 HD
ATOM     36  C   UNL A   1      46.174  27.804  31.745  1.00  0.00     0.074 A 
ATOM     37  C   UNL A   1      46.860  28.597  32.747  1.00  0.00     0.031 C 
ATOM     38  C   UNL A   1      46.730  26.753  31.094  1.00  0.00     0.034 A 
BRANCH  25  39
ATOM     39  C   UNL A   1      42.966  23.924  27.091  1.00  0.00     0.023 A 
ATOM     40  C   UNL A   1      43.457  24.119  25.784  1.00  0.00     0.012 A 
ATOM     41  C   UNL A   1      42.401  22.680  27.438  1.00  0.00     0.148 A 
ATOM     42  C   UNL A   1      43.374  23.102  24.834  1.00  0.00     0.002 A 
ATOM     43  C   UNL A   1      42.351  21.659  26.494  1.00  0.00     0.091 A 
ATOM     44  F   UNL A   1      41.920  22.521  28.679  1.00  0.00    -0.205 F 
ATOM     45  C   UNL A   1      42.832  21.870  25.192  1.00  0.00     0.022 A 
BRANCH  43  46
ATOM     46  S   UNL A   1      41.735  20.015  26.875  1.00  0.00     0.127 S 
ATOM     47  O   UNL A   1      41.296  19.552  25.560  1.00  0.00    -0.237 OA
ATOM     48  O   UNL A   1      42.931  19.346  27.387  1.00  0.00    -0.237 OA
ATOM     49  O   UNL A   1      40.677  20.201  27.859  1.00  0.00    -0.744 OA
ENDBRANCH  43  46
ENDBRANCH  25  39
BRANCH  26  50
ATOM     50  C   UNL A   1      43.761  31.264  33.860  1.00  0.00     0.023 A 
ATOM     51  C   UNL A   1      44.264  32.522  33.477  1.00  0.00     0.012 A 
ATOM     52  C   UNL A   1      43.287  31.087  35.174  1.00  0.00     0.148 A 
ATOM     53  C   UNL A   1      44.307  33.577  34.389  1.00  0.00     0.002 A 
ATOM     54  C   UNL A   1      43.270  32.160  36.056  1.00  0.00     0.091 A 
ATOM     55  F   UNL A   1      42.832  29.878  35.532  1.00  0.00    -0.205 F 
ATOM     56  C   UNL A   1      43.795  33.402  35.673  1.00  0.00     0.022 A 
BRANCH  54  57
ATOM     57  S   UNL A   1      42.456  32.034  37.653  1.00  0.00     0.127 S 
ATOM     58  O   UNL A   1      41.122  31.577  37.277  1.00  0.00    -0.237 OA
ATOM     59  O   UNL A   1      43.276  31.041  38.348  1.00  0.00    -0.237 OA
ATOM     60  O   UNL A   1      42.546  33.374  38.221  1.00  0.00    -0.744 OA
ENDBRANCH  54  57
ENDBRANCH  26  50
BRANCH  38  61
ATOM     61  C   UNL A   1      48.145  26.399  31.463  1.00  0.00     0.023 A 
ATOM     62  C   UNL A   1      48.377  25.596  32.598  1.00  0.00     0.012 A 
ATOM     63  C   UNL A   1      49.232  26.826  30.680  1.00  0.00     0.148 A 
ATOM     64  C   UNL A   1      49.675  25.252  32.969  1.00  0.00     0.002 A 
ATOM     65  C   UNL A   1      50.523  26.446  31.034  1.00  0.00     0.091 A 
ATOM     66  F   UNL A   1      48.994  27.611  29.620  1.00  0.00    -0.205 F 
ATOM     67  C   UNL A   1      50.747  25.669  32.182  1.00  0.00     0.022 A 
BRANCH  65  68
ATOM     68  S   UNL A   1      51.946  26.881  30.028  1.00  0.00     0.127 S 
ATOM     69  O   UNL A   1      51.965  28.338  30.151  1.00  0.00    -0.237 OA
ATOM     70  O   UNL A   1      53.042  26.197  30.717  1.00  0.00    -0.237 OA
ATOM     71  O   UNL A   1      51.658  26.359  28.699  1.00  0.00    -0.744 OA
ENDBRANCH  65  68
ENDBRANCH  38  61
ENDBRANCH  12  13
ENDBRANCH   5   7
ENDBRANCH   2   3
ENDBRANCH   1   2
BRANCH   1  72
ATOM     72  C   UNL A   1      31.701  29.119  26.720  1.00  0.00     0.023 C 
BRANCH  72  73
ATOM     73  C   UNL A   1      31.675  30.199  25.637  1.00  0.00     0.116 C 
BRANCH  73  74
ATOM     74  N   UNL A   1      32.345  29.759  24.433  1.00  0.00    -0.356 N 
ATOM     75  C   UNL A   1      31.919  29.152  23.299  1.00  0.00     0.224 C 
ATOM     76  H   UNL A   1      33.313  29.937  24.440  1.00  0.00     0.163 HD
ATOM     77  O   UNL A   1      32.829  28.858  22.515  1.00  0.00    -0.275 OA
BRANCH  75  78
ATOM     78  C   UNL A   1      30.439  28.951  22.898  1.00  0.00     0.095 C 
ATOM     79  C   UNL A   1      29.497  30.117  23.239  1.00  0.00     0.041 C 
ATOM     80  C   UNL A   1      29.919  27.659  23.577  1.00  0.00     0.095 C 
ATOM     81  C   UNL A   1      28.032  29.824  23.196  1.00  0.00    -0.030 C 
ATOM     82  C   UNL A   1      28.421  27.381  23.314  1.00  0.00     0.041 C 
ATOM     83  C   UNL A   1      27.544  28.584  23.230  1.00  0.00    -0.030 C 
BRANCH  80  84
ATOM     84  C   UNL A   1      30.613  26.323  23.281  1.00  0.00     0.227 C 
ATOM     85  O   UNL A   1      30.891  26.027  22.114  1.00  0.00    -0.275 OA
ATOM     86  N   UNL A   1      31.245  25.701  24.351  1.00  0.00    -0.331 N 
ATOM     87  C   UNL A   1      32.589  25.203  24.100  1.00  0.00     0.181 C 
ATOM     88  C   UNL A   1      30.506  24.911  25.329  1.00  0.00     0.181 C 
ATOM     89  C   UNL A   1      33.385  25.011  25.404  1.00  0.00     0.284 C 
ATOM     90  C   UNL A   1      31.301  24.743  26.642  1.00  0.00     0.284 C 
ATOM     91  N   UNL A   1      32.700  24.304  26.498  1.00  0.00    -0.328 N 
ATOM     92  H   UNL A   1      33.168  24.600  27.354  1.00  0.00     0.348 HD
BRANCH  91  93
ATOM     93  C   UNL A   1      32.923  22.855  26.554  1.00  0.00     0.299 C 
BRANCH  93  94
ATOM     94  C   UNL A   1      34.233  22.343  26.000  1.00  0.00     0.010 A 
ATOM     95  C   UNL A   1      34.289  21.113  25.304  1.00  0.00     0.013 A 
ATOM     96  C   UNL A   1      35.420  23.055  26.239  1.00  0.00     0.060 A 
ATOM     97  C   UNL A   1      35.514  20.550  24.935  1.00  0.00     0.051 A 
ATOM     98  C   UNL A   1      36.613  22.469  25.875  1.00  0.00     0.166 A 
ATOM     99  C   UNL A   1      36.660  21.244  25.255  1.00  0.00     0.165 A 
ATOM    100  O   UNL A   1      37.850  22.977  26.117  1.00  0.00    -0.454 OA
ATOM    101  O   UNL A   1      37.934  20.825  25.033  1.00  0.00    -0.454 OA
ATOM    102  C   UNL A   1      38.678  21.877  25.682  1.00  0.00     0.468 C 
ENDBRANCH  93  94
ENDBRANCH  91  93
ENDBRANCH  80  84
ENDBRANCH  75  78
ENDBRANCH  73  74
ENDBRANCH  72  73
ENDBRANCH   1  72
TORSDOF 17
ENDMDL
