MODEL 1
REMARK VINA RESULT:     -10.9      0.000      0.000
REMARK SMILES O=C(NCCCCNC(=O)c1cc([C@@H]2C=NN=C2c2ccc(F)cc2)c2c(ccc3ccccc32)n1)c1ccc(-c2c3nc(c(-c4cccc(S(=O)(=O)[O-])c4F)c4ccc([nH]4)c(-c4cccc(S(=O)(=O)[O-])c4F)c4nc(c(-c5cccc(S(=O)(=O)[O-])c5F)c5ccc2[nH]5)C=C4)C=C3)cc1
REMARK SMILES IDX 5 1 4 2 3 3 1 4 2 5 37 7 38 8 99 9 39 10 98 11 40 12 41 13
REMARK SMILES IDX 42 14 92 15 43 16 97 17 91 18 93 19 44 20 96 21 90 22 89 23
REMARK SMILES IDX 45 25 77 26 57 27 76 28 58 29 61 30 75 31 94 32 59 33 60 34
REMARK SMILES IDX 74 36 95 37 62 38 46 39 47 40 55 41 48 42 50 43 56 44 49 45
REMARK SMILES IDX 51 46 52 47 53 48 54 49 78 50 79 51 87 52 80 53 82 54 88 55
REMARK SMILES IDX 81 56 83 57 84 58 85 59 86 60 63 61 64 62 72 63 65 64 67 65
REMARK SMILES IDX 73 66 66 67 68 68 69 69 70 70 71 71 6 72 7 73 8 74 9 75
REMARK SMILES IDX 10 77 11 78 12 79 36 80 13 81 27 82 26 83 28 84 35 85 29 86
REMARK SMILES IDX 30 87 34 88 31 89 33 90 32 91 14 92 15 93 18 94 16 95 17 96
REMARK SMILES IDX 19 97 20 98 25 99 21 100 24 101 22 102 23 103
REMARK H PARENT 3 6 93 24 61 35 8 76
REMARK Flexibility Score: inf
ROOT
ATOM      1  C   UNL A   1      34.883  32.012  31.741  1.00  0.00     0.023 C 
ENDROOT
BRANCH   1   2
ATOM      2  C   UNL A   1      34.998  33.025  30.601  1.00  0.00     0.116 C 
BRANCH   2   3
ATOM      3  N   UNL A   1      34.620  32.536  29.291  1.00  0.00    -0.352 N 
ATOM      4  O   UNL A   1      34.477  31.360  27.427  1.00  0.00    -0.269 OA
ATOM      5  C   UNL A   1      35.171  31.648  28.405  1.00  0.00     0.251 C 
ATOM      6  H   UNL A   1      33.779  32.930  28.963  1.00  0.00     0.163 HD
BRANCH   5   7
ATOM      7  C   UNL A   1      36.541  31.079  28.519  1.00  0.00     0.039 A 
ATOM      8  C   UNL A   1      37.670  31.789  28.929  1.00  0.00     0.014 A 
ATOM      9  C   UNL A   1      36.685  29.720  28.181  1.00  0.00     0.014 A 
ATOM     10  C   UNL A   1      38.925  31.193  28.911  1.00  0.00     0.010 A 
ATOM     11  C   UNL A   1      37.934  29.107  28.196  1.00  0.00     0.010 A 
ATOM     12  C   UNL A   1      39.058  29.856  28.539  1.00  0.00    -0.014 A 
BRANCH  12  13
ATOM     13  C   UNL A   1      40.367  29.237  28.731  1.00  0.00     0.031 A 
ATOM     14  C   UNL A   1      40.772  29.074  30.157  1.00  0.00     0.074 A 
ATOM     15  C   UNL A   1      41.097  28.699  27.736  1.00  0.00     0.049 A 
ATOM     16  N   UNL A   1      41.821  29.538  30.756  1.00  0.00    -0.248 NA
ATOM     17  C   UNL A   1      39.824  28.386  31.051  1.00  0.00     0.031 C 
ATOM     18  C   UNL A   1      40.675  28.493  26.349  1.00  0.00     0.029 A 
ATOM     19  N   UNL A   1      42.314  28.079  27.793  1.00  0.00    -0.354 N 
ATOM     20  C   UNL A   1      41.778  29.003  32.044  1.00  0.00     0.074 A 
ATOM     21  C   UNL A   1      40.459  28.456  32.220  1.00  0.00     0.031 C 
ATOM     22  C   UNL A   1      41.492  27.585  25.774  1.00  0.00     0.029 A 
ATOM     23  C   UNL A   1      42.554  27.244  26.706  1.00  0.00     0.049 A 
ATOM     24  H   UNL A   1      42.957  28.210  28.528  1.00  0.00     0.167 HD
ATOM     25  C   UNL A   1      42.902  28.820  32.788  1.00  0.00     0.034 A 
ATOM     26  C   UNL A   1      43.492  26.271  26.622  1.00  0.00     0.034 A 
ATOM     27  C   UNL A   1      44.004  29.608  32.311  1.00  0.00     0.049 A 
ATOM     28  C   UNL A   1      44.522  26.542  27.649  1.00  0.00     0.074 A 
ATOM     29  C   UNL A   1      44.249  30.949  32.113  1.00  0.00     0.029 A 
ATOM     30  N   UNL A   1      45.005  28.932  31.664  1.00  0.00    -0.354 N 
ATOM     31  N   UNL A   1      45.357  27.543  27.611  1.00  0.00    -0.248 NA
ATOM     32  C   UNL A   1      44.444  25.837  28.919  1.00  0.00     0.031 C 
ATOM     33  C   UNL A   1      45.142  31.004  31.005  1.00  0.00     0.029 A 
ATOM     34  C   UNL A   1      45.405  29.693  30.603  1.00  0.00     0.049 A 
ATOM     35  H   UNL A   1      45.370  28.054  31.918  1.00  0.00     0.167 HD
ATOM     36  C   UNL A   1      45.578  27.855  28.944  1.00  0.00     0.074 A 
ATOM     37  C   UNL A   1      45.125  26.687  29.688  1.00  0.00     0.031 C 
ATOM     38  C   UNL A   1      45.824  29.141  29.332  1.00  0.00     0.034 A 
BRANCH  25  39
ATOM     39  C   UNL A   1      43.127  27.644  33.717  1.00  0.00     0.023 A 
ATOM     40  C   UNL A   1      43.831  26.531  33.201  1.00  0.00     0.012 A 
ATOM     41  C   UNL A   1      42.448  27.456  34.942  1.00  0.00     0.148 A 
ATOM     42  C   UNL A   1      43.810  25.286  33.841  1.00  0.00     0.002 A 
ATOM     43  C   UNL A   1      42.513  26.245  35.622  1.00  0.00     0.091 A 
ATOM     44  F   UNL A   1      41.611  28.392  35.398  1.00  0.00    -0.205 F 
ATOM     45  C   UNL A   1      43.161  25.145  35.060  1.00  0.00     0.022 A 
BRANCH  43  46
ATOM     46  S   UNL A   1      41.760  26.055  37.243  1.00  0.00     0.127 S 
ATOM     47  O   UNL A   1      41.308  24.663  37.192  1.00  0.00    -0.237 OA
ATOM     48  O   UNL A   1      42.902  26.299  38.132  1.00  0.00    -0.237 OA
ATOM     49  O   UNL A   1      40.730  27.071  37.308  1.00  0.00    -0.744 OA
ENDBRANCH  43  46
ENDBRANCH  25  39
BRANCH  26  50
ATOM     50  C   UNL A   1      43.465  24.984  25.883  1.00  0.00     0.023 A 
ATOM     51  C   UNL A   1      44.473  24.716  24.934  1.00  0.00     0.012 A 
ATOM     52  C   UNL A   1      42.637  23.915  26.290  1.00  0.00     0.148 A 
ATOM     53  C   UNL A   1      44.680  23.421  24.443  1.00  0.00     0.002 A 
ATOM     54  C   UNL A   1      42.835  22.633  25.786  1.00  0.00     0.091 A 
ATOM     55  F   UNL A   1      41.720  24.129  27.243  1.00  0.00    -0.205 F 
ATOM     56  C   UNL A   1      43.865  22.378  24.874  1.00  0.00     0.022 A 
BRANCH  54  57
ATOM     57  S   UNL A   1      41.822  21.239  26.305  1.00  0.00     0.127 S 
ATOM     58  O   UNL A   1      42.139  21.145  27.730  1.00  0.00    -0.237 OA
ATOM     59  O   UNL A   1      40.475  21.717  26.007  1.00  0.00    -0.237 OA
ATOM     60  O   UNL A   1      42.282  20.103  25.518  1.00  0.00    -0.744 OA
ENDBRANCH  54  57
ENDBRANCH  26  50
BRANCH  38  61
ATOM     61  C   UNL A   1      46.251  30.145  28.296  1.00  0.00     0.023 A 
ATOM     62  C   UNL A   1      45.342  31.037  27.695  1.00  0.00     0.012 A 
ATOM     63  C   UNL A   1      47.631  30.338  28.099  1.00  0.00     0.148 A 
ATOM     64  C   UNL A   1      45.800  32.096  26.906  1.00  0.00     0.002 A 
ATOM     65  C   UNL A   1      48.084  31.425  27.367  1.00  0.00     0.091 A 
ATOM     66  F   UNL A   1      48.481  29.473  28.677  1.00  0.00    -0.205 F 
ATOM     67  C   UNL A   1      47.171  32.302  26.759  1.00  0.00     0.022 A 
BRANCH  65  68
ATOM     68  S   UNL A   1      49.829  31.841  27.287  1.00  0.00     0.127 S 
ATOM     69  O   UNL A   1      50.329  30.876  26.310  1.00  0.00    -0.237 OA
ATOM     70  O   UNL A   1      49.799  33.228  26.819  1.00  0.00    -0.237 OA
ATOM     71  O   UNL A   1      50.340  31.684  28.643  1.00  0.00    -0.744 OA
ENDBRANCH  65  68
ENDBRANCH  38  61
ENDBRANCH  12  13
ENDBRANCH   5   7
ENDBRANCH   2   3
ENDBRANCH   1   2
BRANCH   1  72
ATOM     72  C   UNL A   1      36.114  31.137  31.970  1.00  0.00     0.023 C 
BRANCH  72  73
ATOM     73  C   UNL A   1      36.860  31.393  33.270  1.00  0.00     0.116 C 
BRANCH  73  74
ATOM     74  N   UNL A   1      36.530  32.674  33.878  1.00  0.00    -0.351 N 
ATOM     75  C   UNL A   1      37.255  33.848  33.889  1.00  0.00     0.269 C 
ATOM     76  H   UNL A   1      35.667  32.706  34.351  1.00  0.00     0.163 HD
ATOM     77  O   UNL A   1      36.835  34.817  34.516  1.00  0.00    -0.268 OA
BRANCH  75  78
ATOM     78  C   UNL A   1      38.515  33.945  33.100  1.00  0.00     0.129 A 
ATOM     79  C   UNL A   1      39.712  33.573  33.660  1.00  0.00     0.039 A 
ATOM     80  N   UNL A   1      38.424  34.386  31.841  1.00  0.00    -0.243 NA
ATOM     81  C   UNL A   1      40.923  33.744  32.950  1.00  0.00    -0.021 A 
ATOM     82  C   UNL A   1      39.543  34.500  31.121  1.00  0.00     0.072 A 
ATOM     83  C   UNL A   1      40.872  34.221  31.575  1.00  0.00     0.012 A 
ATOM     84  C   UNL A   1      39.293  34.920  29.835  1.00  0.00     0.029 A 
ATOM     85  C   UNL A   1      41.947  34.427  30.577  1.00  0.00    -0.009 A 
ATOM     86  C   UNL A   1      40.303  35.097  28.907  1.00  0.00     0.011 A 
ATOM     87  C   UNL A   1      41.622  34.861  29.259  1.00  0.00    -0.018 A 
ATOM     88  C   UNL A   1      43.333  34.227  30.776  1.00  0.00     0.009 A 
ATOM     89  C   UNL A   1      42.601  35.062  28.268  1.00  0.00     0.009 A 
ATOM     90  C   UNL A   1      44.312  34.433  29.794  1.00  0.00     0.001 A 
ATOM     91  C   UNL A   1      43.945  34.850  28.533  1.00  0.00     0.001 A 
BRANCH  81  92
ATOM     92  C   UNL A   1      42.108  33.335  33.798  1.00  0.00     0.115 C 
ATOM     93  C   UNL A   1      41.930  32.225  34.767  1.00  0.00     0.123 C 
ATOM     94  C   UNL A   1      42.817  34.302  34.688  1.00  0.00     0.083 C 
ATOM     95  N   UNL A   1      42.541  32.443  35.887  1.00  0.00    -0.162 NA
ATOM     96  N   UNL A   1      43.114  33.762  35.837  1.00  0.00    -0.154 NA
BRANCH  94  97
ATOM     97  C   UNL A   1      43.292  35.639  34.267  1.00  0.00    -0.001 A 
ATOM     98  C   UNL A   1      44.545  35.719  33.644  1.00  0.00     0.013 A 
ATOM     99  C   UNL A   1      42.542  36.807  34.453  1.00  0.00     0.013 A 
ATOM    100  C   UNL A   1      45.025  36.948  33.186  1.00  0.00     0.040 A 
ATOM    101  C   UNL A   1      43.025  38.035  33.994  1.00  0.00     0.040 A 
ATOM    102  C   UNL A   1      44.259  38.094  33.362  1.00  0.00     0.123 A 
ATOM    103  F   UNL A   1      44.718  39.271  32.921  1.00  0.00    -0.207 F 
ENDBRANCH  94  97
ENDBRANCH  81  92
ENDBRANCH  75  78
ENDBRANCH  73  74
ENDBRANCH  72  73
ENDBRANCH   1  72
TORSDOF 16
ENDMDL
MODEL 2
REMARK VINA RESULT:     -10.9      5.201     12.880
REMARK SMILES O=C(NCCCCNC(=O)c1cc([C@@H]2C=NN=C2c2ccc(F)cc2)c2c(ccc3ccccc32)n1)c1ccc(-c2c3nc(c(-c4cccc(S(=O)(=O)[O-])c4F)c4ccc([nH]4)c(-c4cccc(S(=O)(=O)[O-])c4F)c4nc(c(-c5cccc(S(=O)(=O)[O-])c5F)c5ccc2[nH]5)C=C4)C=C3)cc1
REMARK SMILES IDX 5 1 4 2 3 3 1 4 2 5 37 7 38 8 99 9 39 10 98 11 40 12 41 13
REMARK SMILES IDX 42 14 92 15 43 16 97 17 91 18 93 19 44 20 96 21 90 22 89 23
REMARK SMILES IDX 45 25 77 26 57 27 76 28 58 29 61 30 75 31 94 32 59 33 60 34
REMARK SMILES IDX 74 36 95 37 62 38 46 39 47 40 55 41 48 42 50 43 56 44 49 45
REMARK SMILES IDX 51 46 52 47 53 48 54 49 78 50 79 51 87 52 80 53 82 54 88 55
REMARK SMILES IDX 81 56 83 57 84 58 85 59 86 60 63 61 64 62 72 63 65 64 67 65
REMARK SMILES IDX 73 66 66 67 68 68 69 69 70 70 71 71 6 72 7 73 8 74 9 75
REMARK SMILES IDX 10 77 11 78 12 79 36 80 13 81 27 82 26 83 28 84 35 85 29 86
REMARK SMILES IDX 30 87 34 88 31 89 33 90 32 91 14 92 15 93 18 94 16 95 17 96
REMARK SMILES IDX 19 97 20 98 25 99 21 100 24 101 22 102 23 103
REMARK H PARENT 3 6 93 24 61 35 8 76
REMARK Flexibility Score: inf
ROOT
ATOM      1  C   UNL A   1      42.749  23.187  25.422  1.00  0.00     0.023 C 
ENDROOT
BRANCH   1   2
ATOM      2  C   UNL A   1      43.777  23.789  26.380  1.00  0.00     0.116 C 
BRANCH   2   3
ATOM      3  N   UNL A   1      43.750  23.270  27.732  1.00  0.00    -0.352 N 
ATOM      4  O   UNL A   1      43.322  22.964  29.877  1.00  0.00    -0.269 OA
ATOM      5  C   UNL A   1      43.329  23.764  28.939  1.00  0.00     0.251 C 
ATOM      6  H   UNL A   1      44.116  22.358  27.800  1.00  0.00     0.163 HD
BRANCH   5   7
ATOM      7  C   UNL A   1      42.953  25.182  29.188  1.00  0.00     0.039 A 
ATOM      8  C   UNL A   1      43.623  26.047  30.053  1.00  0.00     0.014 A 
ATOM      9  C   UNL A   1      41.833  25.665  28.485  1.00  0.00     0.014 A 
ATOM     10  C   UNL A   1      43.137  27.327  30.291  1.00  0.00     0.010 A 
ATOM     11  C   UNL A   1      41.362  26.959  28.690  1.00  0.00     0.010 A 
ATOM     12  C   UNL A   1      42.004  27.780  29.615  1.00  0.00    -0.014 A 
BRANCH  12  13
ATOM     13  C   UNL A   1      41.663  29.193  29.758  1.00  0.00     0.031 A 
ATOM     14  C   UNL A   1      42.755  30.136  29.378  1.00  0.00     0.074 A 
ATOM     15  C   UNL A   1      40.427  29.642  30.047  1.00  0.00     0.049 A 
ATOM     16  N   UNL A   1      43.319  31.049  30.100  1.00  0.00    -0.248 NA
ATOM     17  C   UNL A   1      43.361  29.962  28.047  1.00  0.00     0.031 C 
ATOM     18  C   UNL A   1      39.199  28.849  30.116  1.00  0.00     0.029 A 
ATOM     19  N   UNL A   1      39.983  30.928  30.185  1.00  0.00    -0.354 N 
ATOM     20  C   UNL A   1      44.190  31.716  29.237  1.00  0.00     0.074 A 
ATOM     21  C   UNL A   1      44.301  30.905  28.055  1.00  0.00     0.031 C 
ATOM     22  C   UNL A   1      38.137  29.679  30.023  1.00  0.00     0.029 A 
ATOM     23  C   UNL A   1      38.608  31.053  30.011  1.00  0.00     0.049 A 
ATOM     24  H   UNL A   1      40.576  31.688  30.386  1.00  0.00     0.167 HD
ATOM     25  C   UNL A   1      44.563  33.007  29.444  1.00  0.00     0.034 A 
ATOM     26  C   UNL A   1      37.922  32.196  29.771  1.00  0.00     0.034 A 
ATOM     27  C   UNL A   1      44.340  33.428  30.799  1.00  0.00     0.049 A 
ATOM     28  C   UNL A   1      38.770  33.333  30.192  1.00  0.00     0.074 A 
ATOM     29  C   UNL A   1      44.761  33.016  32.045  1.00  0.00     0.029 A 
ATOM     30  N   UNL A   1      43.295  34.290  31.010  1.00  0.00    -0.354 N 
ATOM     31  N   UNL A   1      39.072  33.610  31.430  1.00  0.00    -0.248 NA
ATOM     32  C   UNL A   1      39.550  34.033  29.184  1.00  0.00     0.031 C 
ATOM     33  C   UNL A   1      43.680  33.319  32.922  1.00  0.00     0.029 A 
ATOM     34  C   UNL A   1      42.670  33.915  32.164  1.00  0.00     0.049 A 
ATOM     35  H   UNL A   1      43.041  35.044  30.431  1.00  0.00     0.167 HD
ATOM     36  C   UNL A   1      40.337  34.173  31.356  1.00  0.00     0.074 A 
ATOM     37  C   UNL A   1      40.506  34.548  29.958  1.00  0.00     0.031 C 
ATOM     38  C   UNL A   1      41.239  34.006  32.367  1.00  0.00     0.034 A 
BRANCH  25  39
ATOM     39  C   UNL A   1      44.775  34.021  28.338  1.00  0.00     0.023 A 
ATOM     40  C   UNL A   1      43.645  34.404  27.577  1.00  0.00     0.012 A 
ATOM     41  C   UNL A   1      46.041  34.386  27.825  1.00  0.00     0.148 A 
ATOM     42  C   UNL A   1      43.774  35.061  26.348  1.00  0.00     0.002 A 
ATOM     43  C   UNL A   1      46.157  35.126  26.653  1.00  0.00     0.091 A 
ATOM     44  F   UNL A   1      47.157  33.904  28.381  1.00  0.00    -0.205 F 
ATOM     45  C   UNL A   1      45.031  35.435  25.891  1.00  0.00     0.022 A 
BRANCH  43  46
ATOM     46  S   UNL A   1      47.760  35.703  26.081  1.00  0.00     0.127 S 
ATOM     47  O   UNL A   1      48.209  34.562  25.280  1.00  0.00    -0.237 OA
ATOM     48  O   UNL A   1      47.389  36.891  25.304  1.00  0.00    -0.237 OA
ATOM     49  O   UNL A   1      48.515  35.991  27.283  1.00  0.00    -0.744 OA
ENDBRANCH  43  46
ENDBRANCH  25  39
BRANCH  26  50
ATOM     50  C   UNL A   1      36.679  32.413  28.990  1.00  0.00     0.023 A 
ATOM     51  C   UNL A   1      36.204  31.382  28.153  1.00  0.00     0.012 A 
ATOM     52  C   UNL A   1      35.815  33.496  29.264  1.00  0.00     0.148 A 
ATOM     53  C   UNL A   1      34.900  31.405  27.645  1.00  0.00     0.002 A 
ATOM     54  C   UNL A   1      34.524  33.522  28.742  1.00  0.00     0.091 A 
ATOM     55  F   UNL A   1      36.216  34.450  30.113  1.00  0.00    -0.205 F 
ATOM     56  C   UNL A   1      34.058  32.471  27.945  1.00  0.00     0.022 A 
BRANCH  54  57
ATOM     57  S   UNL A   1      33.383  34.867  29.095  1.00  0.00     0.127 S 
ATOM     58  O   UNL A   1      34.156  36.040  28.686  1.00  0.00    -0.237 OA
ATOM     59  O   UNL A   1      32.255  34.543  28.225  1.00  0.00    -0.237 OA
ATOM     60  O   UNL A   1      33.122  34.797  30.527  1.00  0.00    -0.744 OA
ENDBRANCH  54  57
ENDBRANCH  26  50
BRANCH  38  61
ATOM     61  C   UNL A   1      40.745  33.565  33.718  1.00  0.00     0.023 A 
ATOM     62  C   UNL A   1      40.307  34.482  34.694  1.00  0.00     0.012 A 
ATOM     63  C   UNL A   1      40.508  32.192  33.914  1.00  0.00     0.148 A 
ATOM     64  C   UNL A   1      39.653  34.038  35.845  1.00  0.00     0.002 A 
ATOM     65  C   UNL A   1      39.803  31.760  35.028  1.00  0.00     0.091 A 
ATOM     66  F   UNL A   1      40.937  31.334  32.975  1.00  0.00    -0.205 F 
ATOM     67  C   UNL A   1      39.383  32.679  36.003  1.00  0.00     0.022 A 
BRANCH  65  68
ATOM     68  S   UNL A   1      39.277  30.052  35.201  1.00  0.00     0.127 S 
ATOM     69  O   UNL A   1      40.552  29.343  35.259  1.00  0.00    -0.237 OA
ATOM     70  O   UNL A   1      38.532  30.080  36.462  1.00  0.00    -0.237 OA
ATOM     71  O   UNL A   1      38.452  29.768  34.032  1.00  0.00    -0.744 OA
ENDBRANCH  65  68
ENDBRANCH  38  61
ENDBRANCH  12  13
ENDBRANCH   5   7
ENDBRANCH   2   3
ENDBRANCH   1   2
BRANCH   1  72
ATOM     72  C   UNL A   1      42.086  21.895  25.895  1.00  0.00     0.023 C 
BRANCH  72  73
ATOM     73  C   UNL A   1      40.616  22.014  26.261  1.00  0.00     0.116 C 
BRANCH  73  74
ATOM     74  N   UNL A   1      40.192  23.388  26.492  1.00  0.00    -0.351 N 
ATOM     75  C   UNL A   1      38.933  23.943  26.391  1.00  0.00     0.269 C 
ATOM     76  H   UNL A   1      40.907  24.010  26.757  1.00  0.00     0.163 HD
ATOM     77  O   UNL A   1      38.782  25.149  26.565  1.00  0.00    -0.268 OA
BRANCH  75  78
ATOM     78  C   UNL A   1      37.759  23.065  26.118  1.00  0.00     0.129 A 
ATOM     79  C   UNL A   1      36.487  23.514  26.369  1.00  0.00     0.039 A 
ATOM     80  N   UNL A   1      37.999  21.852  25.609  1.00  0.00    -0.243 NA
ATOM     81  C   UNL A   1      35.374  22.657  26.197  1.00  0.00    -0.021 A 
ATOM     82  C   UNL A   1      36.966  21.040  25.376  1.00  0.00     0.072 A 
ATOM     83  C   UNL A   1      35.588  21.327  25.645  1.00  0.00     0.012 A 
ATOM     84  C   UNL A   1      37.358  19.848  24.813  1.00  0.00     0.029 A 
ATOM     85  C   UNL A   1      34.629  20.255  25.292  1.00  0.00    -0.009 A 
ATOM     86  C   UNL A   1      36.452  18.859  24.474  1.00  0.00     0.011 A 
ATOM     87  C   UNL A   1      35.099  19.043  24.708  1.00  0.00    -0.018 A 
ATOM     88  C   UNL A   1      33.225  20.289  25.461  1.00  0.00     0.009 A 
ATOM     89  C   UNL A   1      34.232  17.996  24.342  1.00  0.00     0.009 A 
ATOM     90  C   UNL A   1      32.359  19.246  25.105  1.00  0.00     0.001 A 
ATOM     91  C   UNL A   1      32.864  18.095  24.540  1.00  0.00     0.001 A 
BRANCH  81  92
ATOM     92  C   UNL A   1      34.092  23.349  26.608  1.00  0.00     0.115 C 
ATOM     93  C   UNL A   1      33.376  22.847  27.807  1.00  0.00     0.123 C 
ATOM     94  C   UNL A   1      32.926  23.472  25.683  1.00  0.00     0.083 C 
ATOM     95  N   UNL A   1      32.091  22.848  27.653  1.00  0.00    -0.162 NA
ATOM     96  N   UNL A   1      31.800  23.253  26.303  1.00  0.00    -0.154 NA
BRANCH  94  97
ATOM     97  C   UNL A   1      33.009  23.960  24.288  1.00  0.00    -0.001 A 
ATOM     98  C   UNL A   1      33.118  23.004  23.269  1.00  0.00     0.013 A 
ATOM     99  C   UNL A   1      32.970  25.319  23.953  1.00  0.00     0.013 A 
ATOM    100  C   UNL A   1      33.155  23.403  21.931  1.00  0.00     0.040 A 
ATOM    101  C   UNL A   1      33.008  25.715  22.614  1.00  0.00     0.040 A 
ATOM    102  C   UNL A   1      33.097  24.755  21.616  1.00  0.00     0.123 A 
ATOM    103  F   UNL A   1      33.130  25.138  20.333  1.00  0.00    -0.207 F 
ENDBRANCH  94  97
ENDBRANCH  81  92
ENDBRANCH  75  78
ENDBRANCH  73  74
ENDBRANCH  72  73
ENDBRANCH   1  72
TORSDOF 16
ENDMDL
MODEL 3
REMARK VINA RESULT:     -10.8      2.779      7.425
REMARK SMILES O=C(NCCCCNC(=O)c1cc([C@@H]2C=NN=C2c2ccc(F)cc2)c2c(ccc3ccccc32)n1)c1ccc(-c2c3nc(c(-c4cccc(S(=O)(=O)[O-])c4F)c4ccc([nH]4)c(-c4cccc(S(=O)(=O)[O-])c4F)c4nc(c(-c5cccc(S(=O)(=O)[O-])c5F)c5ccc2[nH]5)C=C4)C=C3)cc1
REMARK SMILES IDX 5 1 4 2 3 3 1 4 2 5 37 7 38 8 99 9 39 10 98 11 40 12 41 13
REMARK SMILES IDX 42 14 92 15 43 16 97 17 91 18 93 19 44 20 96 21 90 22 89 23
REMARK SMILES IDX 45 25 77 26 57 27 76 28 58 29 61 30 75 31 94 32 59 33 60 34
REMARK SMILES IDX 74 36 95 37 62 38 46 39 47 40 55 41 48 42 50 43 56 44 49 45
REMARK SMILES IDX 51 46 52 47 53 48 54 49 78 50 79 51 87 52 80 53 82 54 88 55
REMARK SMILES IDX 81 56 83 57 84 58 85 59 86 60 63 61 64 62 72 63 65 64 67 65
REMARK SMILES IDX 73 66 66 67 68 68 69 69 70 70 71 71 6 72 7 73 8 74 9 75
REMARK SMILES IDX 10 77 11 78 12 79 36 80 13 81 27 82 26 83 28 84 35 85 29 86
REMARK SMILES IDX 30 87 34 88 31 89 33 90 32 91 14 92 15 93 18 94 16 95 17 96
REMARK SMILES IDX 19 97 20 98 25 99 21 100 24 101 22 102 23 103
REMARK H PARENT 3 6 93 24 61 35 8 76
REMARK Flexibility Score: inf
ROOT
ATOM      1  C   UNL A   1      35.094  32.458  30.692  1.00  0.00     0.023 C 
ENDROOT
BRANCH   1   2
ATOM      2  C   UNL A   1      35.685  32.218  29.302  1.00  0.00     0.116 C 
BRANCH   2   3
ATOM      3  N   UNL A   1      35.163  31.068  28.591  1.00  0.00    -0.352 N 
ATOM      4  O   UNL A   1      34.865  29.041  27.768  1.00  0.00    -0.269 OA
ATOM      5  C   UNL A   1      35.667  29.839  28.258  1.00  0.00     0.251 C 
ATOM      6  H   UNL A   1      34.239  31.200  28.277  1.00  0.00     0.163 HD
BRANCH   5   7
ATOM      7  C   UNL A   1      37.096  29.447  28.391  1.00  0.00     0.039 A 
ATOM      8  C   UNL A   1      38.081  29.678  27.430  1.00  0.00     0.014 A 
ATOM      9  C   UNL A   1      37.458  28.794  29.584  1.00  0.00     0.014 A 
ATOM     10  C   UNL A   1      39.370  29.187  27.606  1.00  0.00     0.010 A 
ATOM     11  C   UNL A   1      38.756  28.332  29.783  1.00  0.00     0.010 A 
ATOM     12  C   UNL A   1      39.705  28.510  28.778  1.00  0.00    -0.014 A 
BRANCH  12  13
ATOM     13  C   UNL A   1      41.116  28.197  28.987  1.00  0.00     0.031 A 
ATOM     14  C   UNL A   1      41.631  27.074  28.150  1.00  0.00     0.074 A 
ATOM     15  C   UNL A   1      41.949  28.941  29.739  1.00  0.00     0.049 A 
ATOM     16  N   UNL A   1      42.180  25.967  28.536  1.00  0.00    -0.248 NA
ATOM     17  C   UNL A   1      41.410  27.162  26.697  1.00  0.00     0.031 C 
ATOM     18  C   UNL A   1      41.658  30.243  30.341  1.00  0.00     0.029 A 
ATOM     19  N   UNL A   1      43.281  28.764  29.990  1.00  0.00    -0.354 N 
ATOM     20  C   UNL A   1      42.580  25.325  27.363  1.00  0.00     0.074 A 
ATOM     21  C   UNL A   1      41.934  26.012  26.276  1.00  0.00     0.031 C 
ATOM     22  C   UNL A   1      42.825  30.848  30.658  1.00  0.00     0.029 A 
ATOM     23  C   UNL A   1      43.921  29.932  30.393  1.00  0.00     0.049 A 
ATOM     24  H   UNL A   1      43.740  27.898  29.897  1.00  0.00     0.167 HD
ATOM     25  C   UNL A   1      43.610  24.438  27.341  1.00  0.00     0.034 A 
ATOM     26  C   UNL A   1      45.256  30.161  30.406  1.00  0.00     0.034 A 
ATOM     27  C   UNL A   1      43.915  23.926  28.648  1.00  0.00     0.049 A 
ATOM     28  C   UNL A   1      45.943  28.851  30.391  1.00  0.00     0.074 A 
ATOM     29  C   UNL A   1      43.230  23.240  29.627  1.00  0.00     0.029 A 
ATOM     30  N   UNL A   1      45.068  24.384  29.232  1.00  0.00    -0.354 N 
ATOM     31  N   UNL A   1      45.938  28.003  31.381  1.00  0.00    -0.248 NA
ATOM     32  C   UNL A   1      46.425  28.330  29.121  1.00  0.00     0.031 C 
ATOM     33  C   UNL A   1      43.799  23.679  30.857  1.00  0.00     0.029 A 
ATOM     34  C   UNL A   1      44.811  24.593  30.556  1.00  0.00     0.049 A 
ATOM     35  H   UNL A   1      45.927  24.536  28.776  1.00  0.00     0.167 HD
ATOM     36  C   UNL A   1      46.002  26.760  30.769  1.00  0.00     0.074 A 
ATOM     37  C   UNL A   1      46.456  27.029  29.411  1.00  0.00     0.031 C 
ATOM     38  C   UNL A   1      45.395  25.672  31.326  1.00  0.00     0.034 A 
BRANCH  25  39
ATOM     39  C   UNL A   1      44.601  24.309  26.202  1.00  0.00     0.023 A 
ATOM     40  C   UNL A   1      44.837  23.012  25.686  1.00  0.00     0.012 A 
ATOM     41  C   UNL A   1      45.510  25.321  25.819  1.00  0.00     0.148 A 
ATOM     42  C   UNL A   1      45.947  22.732  24.882  1.00  0.00     0.002 A 
ATOM     43  C   UNL A   1      46.555  25.056  24.940  1.00  0.00     0.091 A 
ATOM     44  F   UNL A   1      45.469  26.520  26.408  1.00  0.00    -0.205 F 
ATOM     45  C   UNL A   1      46.801  23.757  24.497  1.00  0.00     0.022 A 
BRANCH  43  46
ATOM     46  S   UNL A   1      47.623  26.375  24.352  1.00  0.00     0.127 S 
ATOM     47  O   UNL A   1      48.339  25.706  23.263  1.00  0.00    -0.237 OA
ATOM     48  O   UNL A   1      46.646  27.380  23.919  1.00  0.00    -0.237 OA
ATOM     49  O   UNL A   1      48.412  26.771  25.501  1.00  0.00    -0.744 OA
ENDBRANCH  43  46
ENDBRANCH  25  39
BRANCH  26  50
ATOM     50  C   UNL A   1      46.006  31.424  30.197  1.00  0.00     0.023 A 
ATOM     51  C   UNL A   1      46.801  31.933  31.244  1.00  0.00     0.012 A 
ATOM     52  C   UNL A   1      46.172  31.980  28.909  1.00  0.00     0.148 A 
ATOM     53  C   UNL A   1      47.759  32.927  31.011  1.00  0.00     0.002 A 
ATOM     54  C   UNL A   1      47.114  32.980  28.685  1.00  0.00     0.091 A 
ATOM     55  F   UNL A   1      45.482  31.464  27.884  1.00  0.00    -0.205 F 
ATOM     56  C   UNL A   1      47.920  33.445  29.729  1.00  0.00     0.022 A 
BRANCH  54  57
ATOM     57  S   UNL A   1      47.378  33.690  27.053  1.00  0.00     0.127 S 
ATOM     58  O   UNL A   1      46.065  34.261  26.751  1.00  0.00    -0.237 OA
ATOM     59  O   UNL A   1      48.428  34.670  27.315  1.00  0.00    -0.237 OA
ATOM     60  O   UNL A   1      47.752  32.573  26.193  1.00  0.00    -0.744 OA
ENDBRANCH  54  57
ENDBRANCH  26  50
BRANCH  38  61
ATOM     61  C   UNL A   1      45.006  25.719  32.778  1.00  0.00     0.023 A 
ATOM     62  C   UNL A   1      43.755  26.207  33.205  1.00  0.00     0.012 A 
ATOM     63  C   UNL A   1      45.829  25.048  33.700  1.00  0.00     0.148 A 
ATOM     64  C   UNL A   1      43.339  26.035  34.528  1.00  0.00     0.002 A 
ATOM     65  C   UNL A   1      45.386  24.825  34.996  1.00  0.00     0.091 A 
ATOM     66  F   UNL A   1      47.020  24.595  33.275  1.00  0.00    -0.205 F 
ATOM     67  C   UNL A   1      44.145  25.327  35.418  1.00  0.00     0.022 A 
BRANCH  65  68
ATOM     68  S   UNL A   1      46.299  23.776  36.132  1.00  0.00     0.127 S 
ATOM     69  O   UNL A   1      46.551  22.590  35.319  1.00  0.00    -0.237 OA
ATOM     70  O   UNL A   1      47.485  24.585  36.420  1.00  0.00    -0.237 OA
ATOM     71  O   UNL A   1      45.424  23.576  37.282  1.00  0.00    -0.744 OA
ENDBRANCH  65  68
ENDBRANCH  38  61
ENDBRANCH  12  13
ENDBRANCH   5   7
ENDBRANCH   2   3
ENDBRANCH   1   2
BRANCH   1  72
ATOM     72  C   UNL A   1      35.542  31.479  31.776  1.00  0.00     0.023 C 
BRANCH  72  73
ATOM     73  C   UNL A   1      35.766  32.088  33.150  1.00  0.00     0.116 C 
BRANCH  73  74
ATOM     74  N   UNL A   1      35.316  33.470  33.245  1.00  0.00    -0.351 N 
ATOM     75  C   UNL A   1      36.045  34.636  33.128  1.00  0.00     0.269 C 
ATOM     76  H   UNL A   1      34.355  33.589  33.418  1.00  0.00     0.163 HD
ATOM     77  O   UNL A   1      35.494  35.719  33.304  1.00  0.00    -0.268 OA
BRANCH  75  78
ATOM     78  C   UNL A   1      37.484  34.572  32.743  1.00  0.00     0.129 A 
ATOM     79  C   UNL A   1      38.447  34.378  33.701  1.00  0.00     0.039 A 
ATOM     80  N   UNL A   1      37.783  34.691  31.446  1.00  0.00    -0.243 NA
ATOM     81  C   UNL A   1      39.819  34.404  33.357  1.00  0.00    -0.021 A 
ATOM     82  C   UNL A   1      39.066  34.657  31.079  1.00  0.00     0.072 A 
ATOM     83  C   UNL A   1      40.192  34.531  31.956  1.00  0.00     0.012 A 
ATOM     84  C   UNL A   1      39.219  34.745  29.715  1.00  0.00     0.029 A 
ATOM     85  C   UNL A   1      41.519  34.518  31.297  1.00  0.00    -0.009 A 
ATOM     86  C   UNL A   1      40.463  34.718  29.109  1.00  0.00     0.011 A 
ATOM     87  C   UNL A   1      41.611  34.609  29.878  1.00  0.00    -0.018 A 
ATOM     88  C   UNL A   1      42.776  34.408  31.935  1.00  0.00     0.009 A 
ATOM     89  C   UNL A   1      42.843  34.589  29.199  1.00  0.00     0.009 A 
ATOM     90  C   UNL A   1      44.007  34.395  31.262  1.00  0.00     0.001 A 
ATOM     91  C   UNL A   1      44.041  34.483  29.888  1.00  0.00     0.001 A 
BRANCH  81  92
ATOM     92  C   UNL A   1      40.687  34.244  34.587  1.00  0.00     0.115 C 
ATOM     93  C   UNL A   1      41.489  35.409  35.038  1.00  0.00     0.123 C 
ATOM     94  C   UNL A   1      41.743  33.192  34.682  1.00  0.00     0.083 C 
ATOM     95  N   UNL A   1      42.668  35.068  35.451  1.00  0.00    -0.162 NA
ATOM     96  N   UNL A   1      42.830  33.656  35.233  1.00  0.00    -0.154 NA
BRANCH  94  97
ATOM     97  C   UNL A   1      41.533  31.761  34.366  1.00  0.00    -0.001 A 
ATOM     98  C   UNL A   1      40.227  31.344  34.074  1.00  0.00     0.013 A 
ATOM     99  C   UNL A   1      42.575  30.827  34.335  1.00  0.00     0.013 A 
ATOM    100  C   UNL A   1      39.974  30.015  33.726  1.00  0.00     0.040 A 
ATOM    101  C   UNL A   1      42.320  29.498  33.987  1.00  0.00     0.040 A 
ATOM    102  C   UNL A   1      41.024  29.105  33.683  1.00  0.00     0.123 A 
ATOM    103  F   UNL A   1      40.783  27.832  33.346  1.00  0.00    -0.207 F 
ENDBRANCH  94  97
ENDBRANCH  81  92
ENDBRANCH  75  78
ENDBRANCH  73  74
ENDBRANCH  72  73
ENDBRANCH   1  72
TORSDOF 16
ENDMDL
