MODEL 1
REMARK VINA RESULT:     -13.6      0.000      0.000
REMARK SMILES Cc1ccc([C@H]2CC(c3cccs3)=NN2C(=O)CCC(=O)NCCCCNC(=O)c2ccc(-c3c4nc(c(-c5cccc(S(=O)(=O)[O-])c5F)c5ccc([nH]5)c(-c5cccc(S(=O)(=O)[O-])c5F)c5nc(c(-c6cccc(S(=O)(=O)[O-])c6F)c6ccc3[nH]6)C=C5)C=C4)cc2)o1
REMARK SMILES IDX 24 1 23 2 22 3 20 4 21 5 19 7 18 8 16 9 17 10 15 11 6 12
REMARK SMILES IDX 7 13 8 14 14 15 5 16 1 17 2 18 3 19 93 20 4 21 9 22 10 23
REMARK SMILES IDX 13 24 11 25 12 26 25 27 26 28 27 29 28 30 29 32 30 33 31 34
REMARK SMILES IDX 92 35 32 36 91 37 33 38 34 39 35 40 85 41 36 42 90 43 84 44
REMARK SMILES IDX 86 45 37 46 89 47 83 48 82 49 38 51 70 52 50 53 69 54 51 55
REMARK SMILES IDX 54 56 68 57 87 58 52 59 53 60 67 62 88 63 55 64 39 65 40 66
REMARK SMILES IDX 48 67 41 68 43 69 49 70 42 71 44 72 45 73 46 74 47 75 71 76
REMARK SMILES IDX 72 77 80 78 73 79 75 80 81 81 74 82 76 83 77 84 78 85 79 86
REMARK SMILES IDX 56 87 57 88 65 89 58 90 60 91 66 92 59 93 61 94 62 95 63 96
REMARK SMILES IDX 64 97
REMARK H PARENT 22 6 27 31 86 50 54 61
REMARK Flexibility Score: inf
ROOT
ATOM      1  C   UNL A   1      33.268  28.682  26.856  1.00  0.00     0.023 C 
ENDROOT
BRANCH   1   2
ATOM      2  C   UNL A   1      31.842  27.176  26.046  1.00  0.00     0.116 C 
BRANCH   2   3
ATOM      3  N   UNL A   1      31.280  25.870  26.701  1.00  0.00    -0.356 N 
ATOM      4  C   UNL A   1      31.664  24.568  26.602  1.00  0.00     0.220 C 
ATOM      5  O   UNL A   1      31.104  23.755  27.339  1.00  0.00    -0.275 OA
ATOM      6  H   UNL A   1      30.509  26.017  27.294  1.00  0.00     0.163 HD
BRANCH   4   7
ATOM      7  C   UNL A   1      32.760  24.155  25.656  1.00  0.00     0.110 C 
BRANCH   7   8
ATOM      8  C   UNL A   1      34.179  24.408  26.152  1.00  0.00     0.112 C 
BRANCH   8   9
ATOM      9  C   UNL A   1      35.193  23.789  25.226  1.00  0.00     0.243 C 
ATOM     10  O   UNL A   1      35.297  24.198  24.069  1.00  0.00    -0.273 OA
BRANCH   9  11
ATOM     11  N   UNL A   1      35.789  22.616  25.688  1.00  0.00    -0.222 N 
ATOM     12  C   UNL A   1      35.357  20.769  25.391  1.00  0.00     0.183 C 
ATOM     13  C   UNL A   1      37.158  19.944  25.066  1.00  0.00     0.095 C 
ATOM     14  C   UNL A   1      38.465  21.468  25.582  1.00  0.00     0.081 C 
ATOM     15  N   UNL A   1      37.651  22.828  25.809  1.00  0.00    -0.173 NA
BRANCH  12  16
ATOM     16  C   UNL A   1      34.116  20.166  24.816  1.00  0.00     0.129 A 
ATOM     17  C   UNL A   1      32.991  17.161  23.242  1.00  0.00     0.087 C 
ATOM     18  C   UNL A   1      33.121  18.558  23.697  1.00  0.00     0.101 A 
ATOM     19  C   UNL A   1      32.468  19.723  23.361  1.00  0.00     0.045 A 
ATOM     20  O   UNL A   1      34.129  18.824  24.573  1.00  0.00    -0.464 OA
ATOM     21  C   UNL A   1      33.097  20.758  24.090  1.00  0.00     0.048 A 
ENDBRANCH  12  16
BRANCH  14  22
ATOM     22  C   UNL A   1      39.832  21.505  26.182  1.00  0.00     0.050 A 
ATOM     23  C   UNL A   1      40.731  22.541  26.421  1.00  0.00     0.022 A 
ATOM     24  S   UNL A   1      40.722  20.016  26.224  1.00  0.00    -0.142 S 
ATOM     25  C   UNL A   1      42.095  22.154  26.539  1.00  0.00     0.012 A 
ATOM     26  C   UNL A   1      42.236  20.802  26.384  1.00  0.00     0.065 A 
ENDBRANCH  14  22
ENDBRANCH   9  11
ENDBRANCH   8   9
ENDBRANCH   7   8
ENDBRANCH   4   7
ENDBRANCH   2   3
ENDBRANCH   1   2
BRANCH   1  27
ATOM     27  C   UNL A   1      32.958  30.374  27.461  1.00  0.00     0.023 C 
BRANCH  27  28
ATOM     28  C   UNL A   1      33.893  31.733  27.379  1.00  0.00     0.116 C 
BRANCH  28  29
ATOM     29  N   UNL A   1      33.273  33.094  27.578  1.00  0.00    -0.352 N 
ATOM     30  C   UNL A   1      33.367  34.033  28.568  1.00  0.00     0.251 C 
ATOM     31  H   UNL A   1      32.677  33.362  26.842  1.00  0.00     0.163 HD
ATOM     32  O   UNL A   1      32.646  35.020  28.583  1.00  0.00    -0.269 OA
BRANCH  30  33
ATOM     33  C   UNL A   1      34.428  33.836  29.527  1.00  0.00     0.039 A 
ATOM     34  C   UNL A   1      34.266  32.972  30.609  1.00  0.00     0.014 A 
ATOM     35  C   UNL A   1      35.646  34.398  29.160  1.00  0.00     0.014 A 
ATOM     36  C   UNL A   1      35.404  32.571  31.291  1.00  0.00     0.010 A 
ATOM     37  C   UNL A   1      36.771  33.921  29.768  1.00  0.00     0.010 A 
ATOM     38  C   UNL A   1      36.652  33.017  30.839  1.00  0.00    -0.014 A 
BRANCH  38  39
ATOM     39  C   UNL A   1      37.925  32.659  31.471  1.00  0.00     0.031 A 
ATOM     40  C   UNL A   1      38.688  31.540  30.831  1.00  0.00     0.074 A 
ATOM     41  C   UNL A   1      38.188  33.106  32.709  1.00  0.00     0.049 A 
ATOM     42  N   UNL A   1      39.573  30.745  31.355  1.00  0.00    -0.248 NA
ATOM     43  C   UNL A   1      38.304  31.204  29.444  1.00  0.00     0.031 C 
ATOM     44  C   UNL A   1      37.419  34.118  33.439  1.00  0.00     0.029 A 
ATOM     45  N   UNL A   1      39.137  32.695  33.603  1.00  0.00    -0.354 N 
ATOM     46  C   UNL A   1      39.796  29.770  30.393  1.00  0.00     0.074 A 
ATOM     47  C   UNL A   1      38.911  30.039  29.283  1.00  0.00     0.031 C 
ATOM     48  C   UNL A   1      37.915  34.229  34.683  1.00  0.00     0.029 A 
ATOM     49  C   UNL A   1      39.005  33.273  34.841  1.00  0.00     0.049 A 
ATOM     50  H   UNL A   1      39.845  32.048  33.381  1.00  0.00     0.167 HD
ATOM     51  C   UNL A   1      40.693  28.761  30.423  1.00  0.00     0.034 A 
ATOM     52  C   UNL A   1      39.689  33.030  35.975  1.00  0.00     0.034 A 
ATOM     53  C   UNL A   1      41.616  28.581  31.504  1.00  0.00     0.049 A 
ATOM     54  C   UNL A   1      40.770  31.982  35.941  1.00  0.00     0.074 A 
ATOM     55  C   UNL A   1      42.672  27.697  31.600  1.00  0.00     0.029 A 
ATOM     56  N   UNL A   1      41.597  29.323  32.677  1.00  0.00    -0.354 N 
ATOM     57  N   UNL A   1      41.103  31.172  34.963  1.00  0.00    -0.248 NA
ATOM     58  C   UNL A   1      41.594  31.841  37.146  1.00  0.00     0.031 C 
ATOM     59  C   UNL A   1      43.297  27.909  32.834  1.00  0.00     0.029 A 
ATOM     60  C   UNL A   1      42.634  28.931  33.500  1.00  0.00     0.049 A 
ATOM     61  H   UNL A   1      40.942  30.026  32.890  1.00  0.00     0.167 HD
ATOM     62  C   UNL A   1      42.210  30.464  35.415  1.00  0.00     0.074 A 
ATOM     63  C   UNL A   1      42.492  30.947  36.752  1.00  0.00     0.031 C 
ATOM     64  C   UNL A   1      42.925  29.494  34.793  1.00  0.00     0.034 A 
BRANCH  51  65
ATOM     65  C   UNL A   1      40.760  27.860  29.223  1.00  0.00     0.023 A 
ATOM     66  C   UNL A   1      39.989  26.678  29.202  1.00  0.00     0.012 A 
ATOM     67  C   UNL A   1      41.579  28.171  28.123  1.00  0.00     0.148 A 
ATOM     68  C   UNL A   1      40.071  25.793  28.128  1.00  0.00     0.002 A 
ATOM     69  C   UNL A   1      41.614  27.310  27.031  1.00  0.00     0.091 A 
ATOM     70  F   UNL A   1      42.328  29.281  28.174  1.00  0.00    -0.205 F 
ATOM     71  C   UNL A   1      40.875  26.114  27.040  1.00  0.00     0.022 A 
BRANCH  69  72
ATOM     72  S   UNL A   1      42.558  27.668  25.547  1.00  0.00     0.127 S 
ATOM     73  O   UNL A   1      43.927  27.668  26.060  1.00  0.00    -0.237 OA
ATOM     74  O   UNL A   1      42.227  26.526  24.692  1.00  0.00    -0.237 OA
ATOM     75  O   UNL A   1      42.071  28.951  25.062  1.00  0.00    -0.744 OA
ENDBRANCH  69  72
ENDBRANCH  51  65
BRANCH  52  76
ATOM     76  C   UNL A   1      39.449  33.857  37.188  1.00  0.00     0.023 A 
ATOM     77  C   UNL A   1      39.876  35.199  37.181  1.00  0.00     0.012 A 
ATOM     78  C   UNL A   1      38.794  33.349  38.324  1.00  0.00     0.148 A 
ATOM     79  C   UNL A   1      39.695  36.010  38.301  1.00  0.00     0.002 A 
ATOM     80  C   UNL A   1      38.577  34.175  39.422  1.00  0.00     0.091 A 
ATOM     81  F   UNL A   1      38.390  32.071  38.308  1.00  0.00    -0.205 F 
ATOM     82  C   UNL A   1      39.041  35.500  39.418  1.00  0.00     0.022 A 
BRANCH  80  83
ATOM     83  S   UNL A   1      37.647  33.644  40.865  1.00  0.00     0.127 S 
ATOM     84  O   UNL A   1      37.528  34.888  41.619  1.00  0.00    -0.237 OA
ATOM     85  O   UNL A   1      36.403  33.163  40.264  1.00  0.00    -0.237 OA
ATOM     86  O   UNL A   1      38.455  32.602  41.486  1.00  0.00    -0.744 OA
ENDBRANCH  80  83
ENDBRANCH  52  76
BRANCH  64  87
ATOM     87  C   UNL A   1      44.118  28.936  35.518  1.00  0.00     0.023 A 
ATOM     88  C   UNL A   1      45.370  29.566  35.392  1.00  0.00     0.012 A 
ATOM     89  C   UNL A   1      43.965  27.854  36.406  1.00  0.00     0.148 A 
ATOM     90  C   UNL A   1      46.464  29.110  36.126  1.00  0.00     0.002 A 
ATOM     91  C   UNL A   1      45.045  27.439  37.172  1.00  0.00     0.091 A 
ATOM     92  F   UNL A   1      42.766  27.260  36.492  1.00  0.00    -0.205 F 
ATOM     93  C   UNL A   1      46.298  28.058  37.026  1.00  0.00     0.022 A 
BRANCH  91  94
ATOM     94  S   UNL A   1      44.893  26.168  38.430  1.00  0.00     0.127 S 
ATOM     95  O   UNL A   1      46.287  25.959  38.814  1.00  0.00    -0.237 OA
ATOM     96  O   UNL A   1      44.073  26.832  39.445  1.00  0.00    -0.237 OA
ATOM     97  O   UNL A   1      44.244  25.037  37.780  1.00  0.00    -0.744 OA
ENDBRANCH  91  94
ENDBRANCH  64  87
ENDBRANCH  38  39
ENDBRANCH  30  33
ENDBRANCH  28  29
ENDBRANCH  27  28
ENDBRANCH   1  27
TORSDOF 19
ENDMDL
MODEL 2
REMARK VINA RESULT:     -13.0      2.509      8.712
REMARK SMILES Cc1ccc([C@H]2CC(c3cccs3)=NN2C(=O)CCC(=O)NCCCCNC(=O)c2ccc(-c3c4nc(c(-c5cccc(S(=O)(=O)[O-])c5F)c5ccc([nH]5)c(-c5cccc(S(=O)(=O)[O-])c5F)c5nc(c(-c6cccc(S(=O)(=O)[O-])c6F)c6ccc3[nH]6)C=C5)C=C4)cc2)o1
REMARK SMILES IDX 24 1 23 2 22 3 20 4 21 5 19 7 18 8 16 9 17 10 15 11 6 12
REMARK SMILES IDX 7 13 8 14 14 15 5 16 1 17 2 18 3 19 93 20 4 21 9 22 10 23
REMARK SMILES IDX 13 24 11 25 12 26 25 27 26 28 27 29 28 30 29 32 30 33 31 34
REMARK SMILES IDX 92 35 32 36 91 37 33 38 34 39 35 40 85 41 36 42 90 43 84 44
REMARK SMILES IDX 86 45 37 46 89 47 83 48 82 49 38 51 70 52 50 53 69 54 51 55
REMARK SMILES IDX 54 56 68 57 87 58 52 59 53 60 67 62 88 63 55 64 39 65 40 66
REMARK SMILES IDX 48 67 41 68 43 69 49 70 42 71 44 72 45 73 46 74 47 75 71 76
REMARK SMILES IDX 72 77 80 78 73 79 75 80 81 81 74 82 76 83 77 84 78 85 79 86
REMARK SMILES IDX 56 87 57 88 65 89 58 90 60 91 66 92 59 93 61 94 62 95 63 96
REMARK SMILES IDX 64 97
REMARK H PARENT 22 6 27 31 86 50 54 61
REMARK Flexibility Score: inf
ROOT
ATOM      1  C   UNL A   1      35.584  32.110  28.113  1.00  0.00     0.023 C 
ENDROOT
BRANCH   1   2
ATOM      2  C   UNL A   1      35.322  29.907  27.937  1.00  0.00     0.116 C 
BRANCH   2   3
ATOM      3  N   UNL A   1      35.044  29.026  26.673  1.00  0.00    -0.356 N 
ATOM      4  C   UNL A   1      33.972  28.951  25.838  1.00  0.00     0.220 C 
ATOM      5  O   UNL A   1      34.082  28.242  24.836  1.00  0.00    -0.275 OA
ATOM      6  H   UNL A   1      35.778  28.414  26.439  1.00  0.00     0.163 HD
BRANCH   4   7
ATOM      7  C   UNL A   1      32.721  29.741  26.114  1.00  0.00     0.110 C 
BRANCH   7   8
ATOM      8  C   UNL A   1      31.415  29.047  25.742  1.00  0.00     0.112 C 
BRANCH   8   9
ATOM      9  C   UNL A   1      31.124  27.905  26.679  1.00  0.00     0.243 C 
ATOM     10  O   UNL A   1      31.364  28.022  27.881  1.00  0.00    -0.273 OA
BRANCH   9  11
ATOM     11  N   UNL A   1      30.816  26.691  26.067  1.00  0.00    -0.222 N 
ATOM     12  C   UNL A   1      29.910  26.290  24.423  1.00  0.00     0.183 C 
ATOM     13  C   UNL A   1      31.052  24.841  23.633  1.00  0.00     0.095 C 
ATOM     14  C   UNL A   1      32.337  24.365  25.189  1.00  0.00     0.081 C 
ATOM     15  N   UNL A   1      32.182  25.438  26.368  1.00  0.00    -0.173 NA
BRANCH  12  16
ATOM     16  C   UNL A   1      29.084  27.182  23.554  1.00  0.00     0.129 A 
ATOM     17  C   UNL A   1      29.344  30.230  21.704  1.00  0.00     0.087 C 
ATOM     18  C   UNL A   1      28.831  29.068  22.455  1.00  0.00     0.101 A 
ATOM     19  C   UNL A   1      27.589  28.742  22.954  1.00  0.00     0.045 A 
ATOM     20  O   UNL A   1      29.744  28.128  22.824  1.00  0.00    -0.464 OA
ATOM     21  C   UNL A   1      27.746  27.522  23.650  1.00  0.00     0.048 A 
ENDBRANCH  12  16
BRANCH  14  22
ATOM     22  C   UNL A   1      33.008  23.108  25.636  1.00  0.00     0.050 A 
ATOM     23  C   UNL A   1      33.287  22.581  26.894  1.00  0.00     0.022 A 
ATOM     24  S   UNL A   1      34.036  22.307  24.489  1.00  0.00    -0.142 S 
ATOM     25  C   UNL A   1      34.351  21.638  26.942  1.00  0.00     0.012 A 
ATOM     26  C   UNL A   1      34.892  21.447  25.699  1.00  0.00     0.065 A 
ENDBRANCH  14  22
ENDBRANCH   9  11
ENDBRANCH   8   9
ENDBRANCH   7   8
ENDBRANCH   4   7
ENDBRANCH   2   3
ENDBRANCH   1   2
BRANCH   1  27
ATOM     27  C   UNL A   1      34.438  33.372  28.761  1.00  0.00     0.023 C 
BRANCH  27  28
ATOM     28  C   UNL A   1      34.579  35.017  28.832  1.00  0.00     0.116 C 
BRANCH  28  29
ATOM     29  N   UNL A   1      33.594  35.829  29.636  1.00  0.00    -0.352 N 
ATOM     30  C   UNL A   1      33.188  35.789  30.942  1.00  0.00     0.251 C 
ATOM     31  H   UNL A   1      33.151  36.534  29.112  1.00  0.00     0.163 HD
ATOM     32  O   UNL A   1      32.253  36.467  31.342  1.00  0.00    -0.269 OA
BRANCH  30  33
ATOM     33  C   UNL A   1      33.990  34.979  31.828  1.00  0.00     0.039 A 
ATOM     34  C   UNL A   1      33.474  33.819  32.405  1.00  0.00     0.014 A 
ATOM     35  C   UNL A   1      35.334  35.334  31.873  1.00  0.00     0.014 A 
ATOM     36  C   UNL A   1      34.370  32.921  32.962  1.00  0.00     0.010 A 
ATOM     37  C   UNL A   1      36.219  34.401  32.329  1.00  0.00     0.010 A 
ATOM     38  C   UNL A   1      35.740  33.200  32.883  1.00  0.00    -0.014 A 
BRANCH  38  39
ATOM     39  C   UNL A   1      36.784  32.328  33.430  1.00  0.00     0.031 A 
ATOM     40  C   UNL A   1      37.449  32.802  34.685  1.00  0.00     0.074 A 
ATOM     41  C   UNL A   1      37.292  31.355  32.657  1.00  0.00     0.049 A 
ATOM     42  N   UNL A   1      38.625  32.505  35.153  1.00  0.00    -0.248 NA
ATOM     43  C   UNL A   1      36.732  33.848  35.444  1.00  0.00     0.031 C 
ATOM     44  C   UNL A   1      36.757  30.913  31.366  1.00  0.00     0.029 A 
ATOM     45  N   UNL A   1      38.432  30.618  32.818  1.00  0.00    -0.354 N 
ATOM     46  C   UNL A   1      38.822  33.377  36.214  1.00  0.00     0.074 A 
ATOM     47  C   UNL A   1      37.674  34.251  36.281  1.00  0.00     0.031 C 
ATOM     48  C   UNL A   1      37.587  29.998  30.840  1.00  0.00     0.029 A 
ATOM     49  C   UNL A   1      38.722  29.820  31.739  1.00  0.00     0.049 A 
ATOM     50  H   UNL A   1      38.991  30.656  33.628  1.00  0.00     0.167 HD
ATOM     51  C   UNL A   1      39.858  33.413  37.080  1.00  0.00     0.034 A 
ATOM     52  C   UNL A   1      39.802  29.051  31.510  1.00  0.00     0.034 A 
ATOM     53  C   UNL A   1      40.935  32.470  37.036  1.00  0.00     0.049 A 
ATOM     54  C   UNL A   1      40.884  29.019  32.557  1.00  0.00     0.074 A 
ATOM     55  C   UNL A   1      41.968  32.295  37.934  1.00  0.00     0.029 A 
ATOM     56  N   UNL A   1      41.100  31.522  36.034  1.00  0.00    -0.354 N 
ATOM     57  N   UNL A   1      40.985  29.721  33.662  1.00  0.00    -0.248 NA
ATOM     58  C   UNL A   1      41.978  28.062  32.350  1.00  0.00     0.031 C 
ATOM     59  C   UNL A   1      42.759  31.236  37.477  1.00  0.00     0.029 A 
ATOM     60  C   UNL A   1      42.210  30.745  36.299  1.00  0.00     0.049 A 
ATOM     61  H   UNL A   1      40.512  31.418  35.252  1.00  0.00     0.167 HD
ATOM     62  C   UNL A   1      42.123  29.254  34.308  1.00  0.00     0.074 A 
ATOM     63  C   UNL A   1      42.671  28.204  33.472  1.00  0.00     0.031 C 
ATOM     64  C   UNL A   1      42.677  29.658  35.478  1.00  0.00     0.034 A 
BRANCH  51  65
ATOM     65  C   UNL A   1      39.806  34.440  38.175  1.00  0.00     0.023 A 
ATOM     66  C   UNL A   1      40.342  35.725  37.943  1.00  0.00     0.012 A 
ATOM     67  C   UNL A   1      39.239  34.144  39.427  1.00  0.00     0.148 A 
ATOM     68  C   UNL A   1      40.361  36.682  38.955  1.00  0.00     0.002 A 
ATOM     69  C   UNL A   1      39.213  35.123  40.415  1.00  0.00     0.091 A 
ATOM     70  F   UNL A   1      38.764  32.909  39.640  1.00  0.00    -0.205 F 
ATOM     71  C   UNL A   1      39.787  36.384  40.187  1.00  0.00     0.022 A 
BRANCH  69  72
ATOM     72  S   UNL A   1      38.429  34.866  42.010  1.00  0.00     0.127 S 
ATOM     73  O   UNL A   1      38.714  36.131  42.685  1.00  0.00    -0.237 OA
ATOM     74  O   UNL A   1      37.027  34.676  41.634  1.00  0.00    -0.237 OA
ATOM     75  O   UNL A   1      39.069  33.691  42.586  1.00  0.00    -0.744 OA
ENDBRANCH  69  72
ENDBRANCH  51  65
BRANCH  52  76
ATOM     76  C   UNL A   1      39.861  28.177  30.308  1.00  0.00     0.023 A 
ATOM     77  C   UNL A   1      39.031  27.041  30.261  1.00  0.00     0.012 A 
ATOM     78  C   UNL A   1      40.698  28.464  29.214  1.00  0.00     0.148 A 
ATOM     79  C   UNL A   1      39.063  26.178  29.166  1.00  0.00     0.002 A 
ATOM     80  C   UNL A   1      40.694  27.623  28.105  1.00  0.00     0.091 A 
ATOM     81  F   UNL A   1      41.476  29.553  29.275  1.00  0.00    -0.205 F 
ATOM     82  C   UNL A   1      39.891  26.472  28.087  1.00  0.00     0.022 A 
BRANCH  80  83
ATOM     83  S   UNL A   1      41.643  27.975  26.620  1.00  0.00     0.127 S 
ATOM     84  O   UNL A   1      41.212  29.334  26.306  1.00  0.00    -0.237 OA
ATOM     85  O   UNL A   1      43.018  27.860  27.106  1.00  0.00    -0.237 OA
ATOM     86  O   UNL A   1      41.258  26.950  25.660  1.00  0.00    -0.744 OA
ENDBRANCH  80  83
ENDBRANCH  52  76
BRANCH  64  87
ATOM     87  C   UNL A   1      43.898  28.925  35.959  1.00  0.00     0.023 A 
ATOM     88  C   UNL A   1      45.178  29.398  35.616  1.00  0.00     0.012 A 
ATOM     89  C   UNL A   1      43.768  27.835  36.841  1.00  0.00     0.148 A 
ATOM     90  C   UNL A   1      46.317  28.778  36.125  1.00  0.00     0.002 A 
ATOM     91  C   UNL A   1      44.906  27.256  37.385  1.00  0.00     0.091 A 
ATOM     92  F   UNL A   1      42.538  27.392  37.136  1.00  0.00    -0.205 F 
ATOM     93  C   UNL A   1      46.181  27.718  37.020  1.00  0.00     0.022 A 
BRANCH  91  94
ATOM     94  S   UNL A   1      44.819  25.961  38.626  1.00  0.00     0.127 S 
ATOM     95  O   UNL A   1      44.202  24.869  37.875  1.00  0.00    -0.237 OA
ATOM     96  O   UNL A   1      46.229  25.754  38.958  1.00  0.00    -0.237 OA
ATOM     97  O   UNL A   1      44.018  26.504  39.715  1.00  0.00    -0.744 OA
ENDBRANCH  91  94
ENDBRANCH  64  87
ENDBRANCH  38  39
ENDBRANCH  30  33
ENDBRANCH  28  29
ENDBRANCH  27  28
ENDBRANCH   1  27
TORSDOF 19
ENDMDL
MODEL 3
REMARK VINA RESULT:     -12.7      5.382      9.179
REMARK SMILES Cc1ccc([C@H]2CC(c3cccs3)=NN2C(=O)CCC(=O)NCCCCNC(=O)c2ccc(-c3c4nc(c(-c5cccc(S(=O)(=O)[O-])c5F)c5ccc([nH]5)c(-c5cccc(S(=O)(=O)[O-])c5F)c5nc(c(-c6cccc(S(=O)(=O)[O-])c6F)c6ccc3[nH]6)C=C5)C=C4)cc2)o1
REMARK SMILES IDX 24 1 23 2 22 3 20 4 21 5 19 7 18 8 16 9 17 10 15 11 6 12
REMARK SMILES IDX 7 13 8 14 14 15 5 16 1 17 2 18 3 19 93 20 4 21 9 22 10 23
REMARK SMILES IDX 13 24 11 25 12 26 25 27 26 28 27 29 28 30 29 32 30 33 31 34
REMARK SMILES IDX 92 35 32 36 91 37 33 38 34 39 35 40 85 41 36 42 90 43 84 44
REMARK SMILES IDX 86 45 37 46 89 47 83 48 82 49 38 51 70 52 50 53 69 54 51 55
REMARK SMILES IDX 54 56 68 57 87 58 52 59 53 60 67 62 88 63 55 64 39 65 40 66
REMARK SMILES IDX 48 67 41 68 43 69 49 70 42 71 44 72 45 73 46 74 47 75 71 76
REMARK SMILES IDX 72 77 80 78 73 79 75 80 81 81 74 82 76 83 77 84 78 85 79 86
REMARK SMILES IDX 56 87 57 88 65 89 58 90 60 91 66 92 59 93 61 94 62 95 63 96
REMARK SMILES IDX 64 97
REMARK H PARENT 22 6 27 31 86 50 54 61
REMARK Flexibility Score: inf
ROOT
ATOM      1  C   UNL A   1      34.112  22.284  24.204  1.00  0.00     0.023 C 
ENDROOT
BRANCH   1   2
ATOM      2  C   UNL A   1      32.570  21.479  25.593  1.00  0.00     0.116 C 
BRANCH   2   3
ATOM      3  N   UNL A   1      31.575  22.235  26.537  1.00  0.00    -0.356 N 
ATOM      4  C   UNL A   1      30.822  23.353  26.351  1.00  0.00     0.220 C 
ATOM      5  O   UNL A   1      30.026  23.654  27.242  1.00  0.00    -0.275 OA
ATOM      6  H   UNL A   1      31.476  21.827  27.426  1.00  0.00     0.163 HD
BRANCH   4   7
ATOM      7  C   UNL A   1      30.935  24.160  25.086  1.00  0.00     0.110 C 
BRANCH   7   8
ATOM      8  C   UNL A   1      31.119  25.661  25.283  1.00  0.00     0.112 C 
BRANCH   8   9
ATOM      9  C   UNL A   1      31.922  26.259  24.159  1.00  0.00     0.243 C 
ATOM     10  O   UNL A   1      32.519  25.523  23.372  1.00  0.00    -0.273 OA
BRANCH   9  11
ATOM     11  N   UNL A   1      32.125  27.637  24.235  1.00  0.00    -0.222 N 
ATOM     12  C   UNL A   1      31.004  29.116  23.746  1.00  0.00     0.183 C 
ATOM     13  C   UNL A   1      31.230  30.371  25.296  1.00  0.00     0.095 C 
ATOM     14  C   UNL A   1      32.799  29.521  26.353  1.00  0.00     0.081 C 
ATOM     15  N   UNL A   1      33.129  28.070  25.762  1.00  0.00    -0.173 NA
BRANCH  12  16
ATOM     16  C   UNL A   1      29.761  29.130  22.917  1.00  0.00     0.129 A 
ATOM     17  C   UNL A   1      27.934  31.291  20.732  1.00  0.00     0.087 C 
ATOM     18  C   UNL A   1      28.313  30.217  21.671  1.00  0.00     0.101 A 
ATOM     19  C   UNL A   1      27.589  29.284  22.379  1.00  0.00     0.045 A 
ATOM     20  O   UNL A   1      29.631  30.134  22.001  1.00  0.00    -0.464 OA
ATOM     21  C   UNL A   1      28.519  28.573  23.171  1.00  0.00     0.048 A 
ENDBRANCH  12  16
BRANCH  14  22
ATOM     22  C   UNL A   1      33.908  30.072  27.188  1.00  0.00     0.050 A 
ATOM     23  C   UNL A   1      34.201  31.354  27.643  1.00  0.00     0.022 A 
ATOM     24  S   UNL A   1      35.360  29.127  27.301  1.00  0.00    -0.142 S 
ATOM     25  C   UNL A   1      35.564  31.589  27.980  1.00  0.00     0.012 A 
ATOM     26  C   UNL A   1      36.320  30.466  27.774  1.00  0.00     0.065 A 
ENDBRANCH  14  22
ENDBRANCH   9  11
ENDBRANCH   8   9
ENDBRANCH   7   8
ENDBRANCH   4   7
ENDBRANCH   2   3
ENDBRANCH   1   2
BRANCH   1  27
ATOM     27  C   UNL A   1      35.931  22.234  24.327  1.00  0.00     0.023 C 
BRANCH  27  28
ATOM     28  C   UNL A   1      36.926  22.450  25.627  1.00  0.00     0.116 C 
BRANCH  28  29
ATOM     29  N   UNL A   1      38.045  21.474  25.898  1.00  0.00    -0.352 N 
ATOM     30  C   UNL A   1      39.334  21.621  26.334  1.00  0.00     0.251 C 
ATOM     31  H   UNL A   1      37.796  20.538  25.724  1.00  0.00     0.163 HD
ATOM     32  O   UNL A   1      40.116  20.682  26.340  1.00  0.00    -0.269 OA
BRANCH  30  33
ATOM     33  C   UNL A   1      39.676  22.915  26.873  1.00  0.00     0.039 A 
ATOM     34  C   UNL A   1      40.637  23.045  27.874  1.00  0.00     0.014 A 
ATOM     35  C   UNL A   1      39.136  23.990  26.173  1.00  0.00     0.014 A 
ATOM     36  C   UNL A   1      41.157  24.308  28.111  1.00  0.00     0.010 A 
ATOM     37  C   UNL A   1      39.724  25.210  26.338  1.00  0.00     0.010 A 
ATOM     38  C   UNL A   1      40.726  25.374  27.312  1.00  0.00    -0.014 A 
BRANCH  38  39
ATOM     39  C   UNL A   1      41.204  26.751  27.461  1.00  0.00     0.031 A 
ATOM     40  C   UNL A   1      42.614  27.010  27.026  1.00  0.00     0.074 A 
ATOM     41  C   UNL A   1      40.509  27.605  28.229  1.00  0.00     0.049 A 
ATOM     42  N   UNL A   1      43.428  27.952  27.401  1.00  0.00    -0.248 NA
ATOM     43  C   UNL A   1      43.218  25.992  26.142  1.00  0.00     0.031 C 
ATOM     44  C   UNL A   1      39.170  27.372  28.779  1.00  0.00     0.029 A 
ATOM     45  N   UNL A   1      40.880  28.814  28.747  1.00  0.00    -0.354 N 
ATOM     46  C   UNL A   1      44.658  27.601  26.863  1.00  0.00     0.074 A 
ATOM     47  C   UNL A   1      44.495  26.333  26.190  1.00  0.00     0.031 C 
ATOM     48  C   UNL A   1      38.844  28.398  29.582  1.00  0.00     0.029 A 
ATOM     49  C   UNL A   1      39.962  29.334  29.626  1.00  0.00     0.049 A 
ATOM     50  H   UNL A   1      41.722  29.267  28.513  1.00  0.00     0.167 HD
ATOM     51  C   UNL A   1      45.812  28.302  26.898  1.00  0.00     0.034 A 
ATOM     52  C   UNL A   1      40.043  30.439  30.391  1.00  0.00     0.034 A 
ATOM     53  C   UNL A   1      45.910  29.599  27.498  1.00  0.00     0.049 A 
ATOM     54  C   UNL A   1      41.298  31.267  30.311  1.00  0.00     0.074 A 
ATOM     55  C   UNL A   1      46.970  30.483  27.477  1.00  0.00     0.029 A 
ATOM     56  N   UNL A   1      44.888  30.204  28.217  1.00  0.00    -0.354 N 
ATOM     57  N   UNL A   1      42.407  31.023  29.654  1.00  0.00    -0.248 NA
ATOM     58  C   UNL A   1      41.299  32.539  31.042  1.00  0.00     0.031 C 
ATOM     59  C   UNL A   1      46.586  31.628  28.182  1.00  0.00     0.029 A 
ATOM     60  C   UNL A   1      45.284  31.460  28.633  1.00  0.00     0.049 A 
ATOM     61  H   UNL A   1      44.010  29.798  28.402  1.00  0.00     0.167 HD
ATOM     62  C   UNL A   1      43.218  32.135  29.848  1.00  0.00     0.074 A 
ATOM     63  C   UNL A   1      42.466  33.054  30.678  1.00  0.00     0.031 C 
ATOM     64  C   UNL A   1      44.474  32.375  29.394  1.00  0.00     0.034 A 
BRANCH  51  65
ATOM     65  C   UNL A   1      47.000  27.710  26.194  1.00  0.00     0.023 A 
ATOM     66  C   UNL A   1      47.154  27.916  24.806  1.00  0.00     0.012 A 
ATOM     67  C   UNL A   1      47.957  26.952  26.891  1.00  0.00     0.148 A 
ATOM     68  C   UNL A   1      48.214  27.334  24.114  1.00  0.00     0.002 A 
ATOM     69  C   UNL A   1      49.042  26.420  26.202  1.00  0.00     0.091 A 
ATOM     70  F   UNL A   1      47.777  26.740  28.202  1.00  0.00    -0.205 F 
ATOM     71  C   UNL A   1      49.163  26.596  24.813  1.00  0.00     0.022 A 
BRANCH  69  72
ATOM     72  S   UNL A   1      50.359  25.517  27.022  1.00  0.00     0.127 S 
ATOM     73  O   UNL A   1      51.270  25.250  25.910  1.00  0.00    -0.237 OA
ATOM     74  O   UNL A   1      50.848  26.501  27.989  1.00  0.00    -0.237 OA
ATOM     75  O   UNL A   1      49.733  24.343  27.613  1.00  0.00    -0.744 OA
ENDBRANCH  69  72
ENDBRANCH  51  65
BRANCH  52  76
ATOM     76  C   UNL A   1      38.875  30.877  31.201  1.00  0.00     0.023 A 
ATOM     77  C   UNL A   1      38.651  30.260  32.447  1.00  0.00     0.012 A 
ATOM     78  C   UNL A   1      38.008  31.900  30.774  1.00  0.00     0.148 A 
ATOM     79  C   UNL A   1      37.559  30.620  33.235  1.00  0.00     0.002 A 
ATOM     80  C   UNL A   1      36.945  32.285  31.584  1.00  0.00     0.091 A 
ATOM     81  F   UNL A   1      38.242  32.479  29.588  1.00  0.00    -0.205 F 
ATOM     82  C   UNL A   1      36.709  31.635  32.807  1.00  0.00     0.022 A 
BRANCH  80  83
ATOM     83  S   UNL A   1      35.860  33.657  31.171  1.00  0.00     0.127 S 
ATOM     84  O   UNL A   1      36.163  34.609  32.235  1.00  0.00    -0.237 OA
ATOM     85  O   UNL A   1      36.345  34.037  29.844  1.00  0.00    -0.237 OA
ATOM     86  O   UNL A   1      34.512  33.104  31.180  1.00  0.00    -0.744 OA
ENDBRANCH  80  83
ENDBRANCH  52  76
BRANCH  64  87
ATOM     87  C   UNL A   1      45.090  33.705  29.726  1.00  0.00     0.023 A 
ATOM     88  C   UNL A   1      45.879  33.840  30.884  1.00  0.00     0.012 A 
ATOM     89  C   UNL A   1      44.972  34.784  28.830  1.00  0.00     0.148 A 
ATOM     90  C   UNL A   1      46.525  35.044  31.158  1.00  0.00     0.002 A 
ATOM     91  C   UNL A   1      45.660  35.963  29.083  1.00  0.00     0.091 A 
ATOM     92  F   UNL A   1      44.199  34.635  27.745  1.00  0.00    -0.205 F 
ATOM     93  C   UNL A   1      46.428  36.098  30.252  1.00  0.00     0.022 A 
BRANCH  91  94
ATOM     94  S   UNL A   1      45.678  37.328  27.918  1.00  0.00     0.127 S 
ATOM     95  O   UNL A   1      44.328  37.867  28.068  1.00  0.00    -0.237 OA
ATOM     96  O   UNL A   1      46.739  38.181  28.455  1.00  0.00    -0.237 OA
ATOM     97  O   UNL A   1      45.979  36.741  26.619  1.00  0.00    -0.744 OA
ENDBRANCH  91  94
ENDBRANCH  64  87
ENDBRANCH  38  39
ENDBRANCH  30  33
ENDBRANCH  28  29
ENDBRANCH  27  28
ENDBRANCH   1  27
TORSDOF 19
ENDMDL
