MODEL 1
REMARK VINA RESULT:     -13.6      0.000      0.000
REMARK SMILES CC(C)=C1[C@H]2CC[C@@H]1[C@@H](C(=O)Nc1cc(C)cc(C)c1)[C@@H]2C(=O)NCCCCNC(=O)c1ccc(-c2c3nc(c(-c4cccc(S(=O)(=O)[O-])c4F)c4ccc([nH]4)c(-c4cccc(S(=O)(=O)[O-])c4F)c4nc(c(-c5cccc(S(=O)(=O)[O-])c5F)c5ccc2[nH]5)C=C4)C=C3)cc1
REMARK SMILES IDX 27 1 26 2 25 3 24 4 22 5 23 6 21 8 1 9 2 10 3 11 4 12 5 13
REMARK SMILES IDX 8 14 6 15 7 16 9 17 10 18 11 19 12 20 13 22 14 23 20 24
REMARK SMILES IDX 15 25 18 26 16 27 17 28 19 29 28 30 29 31 30 32 31 34 32 35
REMARK SMILES IDX 33 36 94 37 34 38 93 39 35 40 36 41 37 42 87 43 38 44 92 45
REMARK SMILES IDX 86 46 88 47 39 48 91 49 85 50 84 51 40 53 72 54 52 55 71 56
REMARK SMILES IDX 53 57 56 58 70 59 89 60 54 61 55 62 69 64 90 65 57 66 41 67
REMARK SMILES IDX 42 68 50 69 43 70 45 71 51 72 44 73 46 74 47 75 48 76 49 77
REMARK SMILES IDX 73 78 74 79 82 80 75 81 77 82 83 83 76 84 78 85 79 86 80 87
REMARK SMILES IDX 81 88 58 89 59 90 67 91 60 92 62 93 68 94 61 95 63 96 64 97
REMARK SMILES IDX 65 98 66 99
REMARK H PARENT 24 7 12 21 29 33 88 52 56 63
REMARK Flexibility Score: inf
ROOT
ATOM      1  C   UNL A   1      36.220  21.788  24.358  1.00  0.00     0.023 C 
ENDROOT
BRANCH   1   2
ATOM      2  C   UNL A   1      36.135  23.104  23.587  1.00  0.00     0.023 C 
BRANCH   2   3
ATOM      3  C   UNL A   1      35.250  24.164  24.242  1.00  0.00     0.116 C 
BRANCH   3   4
ATOM      4  N   UNL A   1      33.860  23.995  23.872  1.00  0.00    -0.356 N 
ATOM      5  C   UNL A   1      32.854  24.916  23.864  1.00  0.00     0.224 C 
ATOM      6  O   UNL A   1      31.729  24.538  23.538  1.00  0.00    -0.275 OA
ATOM      7  H   UNL A   1      33.605  23.088  23.587  1.00  0.00     0.163 HD
BRANCH   5   8
ATOM      8  C   UNL A   1      33.175  26.370  24.206  1.00  0.00     0.098 C 
ATOM      9  C   UNL A   1      33.026  30.496  26.527  1.00  0.00     0.039 C 
ATOM     10  C   UNL A   1      33.596  29.106  26.480  1.00  0.00    -0.077 C 
ATOM     11  C   UNL A   1      34.858  28.899  27.274  1.00  0.00     0.039 C 
ATOM     12  C   UNL A   1      32.993  28.099  25.828  1.00  0.00    -0.064 C 
ATOM     13  C   UNL A   1      33.347  26.640  25.719  1.00  0.00     0.028 C 
ATOM     14  C   UNL A   1      31.673  28.032  25.122  1.00  0.00     0.028 C 
ATOM     15  C   UNL A   1      32.155  26.089  26.507  1.00  0.00     0.009 C 
ATOM     16  C   UNL A   1      30.994  26.995  26.049  1.00  0.00     0.009 C 
ATOM     17  C   UNL A   1      32.069  27.354  23.792  1.00  0.00     0.099 C 
BRANCH  17  18
ATOM     18  C   UNL A   1      32.304  28.376  22.667  1.00  0.00     0.228 C 
ATOM     19  O   UNL A   1      33.433  28.410  22.148  1.00  0.00    -0.274 OA
ATOM     20  N   UNL A   1      31.369  29.119  22.016  1.00  0.00    -0.326 N 
ATOM     21  H   UNL A   1      31.691  29.453  21.148  1.00  0.00     0.169 HD
BRANCH  20  22
ATOM     22  C   UNL A   1      30.059  29.521  22.289  1.00  0.00     0.041 A 
ATOM     23  C   UNL A   1      29.114  28.699  22.895  1.00  0.00     0.029 A 
ATOM     24  C   UNL A   1      29.728  30.854  22.035  1.00  0.00     0.029 A 
ATOM     25  C   UNL A   1      27.791  29.125  23.067  1.00  0.00    -0.049 A 
ATOM     26  C   UNL A   1      28.419  31.319  22.230  1.00  0.00    -0.049 A 
ATOM     27  C   UNL A   1      26.732  28.156  23.505  1.00  0.00     0.044 C 
ATOM     28  C   UNL A   1      27.448  30.436  22.719  1.00  0.00     0.007 A 
ATOM     29  C   UNL A   1      28.029  32.703  21.807  1.00  0.00     0.044 C 
ENDBRANCH  20  22
ENDBRANCH  17  18
ENDBRANCH   5   8
ENDBRANCH   3   4
ENDBRANCH   2   3
ENDBRANCH   1   2
BRANCH   1  30
ATOM     30  C   UNL A   1      36.970  21.877  25.677  1.00  0.00     0.116 C 
BRANCH  30  31
ATOM     31  N   UNL A   1      38.006  20.861  25.808  1.00  0.00    -0.352 N 
ATOM     32  C   UNL A   1      39.314  21.029  26.192  1.00  0.00     0.251 C 
ATOM     33  H   UNL A   1      37.734  19.939  25.596  1.00  0.00     0.163 HD
ATOM     34  O   UNL A   1      40.106  20.093  26.132  1.00  0.00    -0.269 OA
BRANCH  32  35
ATOM     35  C   UNL A   1      39.755  22.361  26.647  1.00  0.00     0.039 A 
ATOM     36  C   UNL A   1      40.757  22.453  27.614  1.00  0.00     0.014 A 
ATOM     37  C   UNL A   1      39.217  23.512  26.064  1.00  0.00     0.014 A 
ATOM     38  C   UNL A   1      41.266  23.707  27.956  1.00  0.00     0.010 A 
ATOM     39  C   UNL A   1      39.781  24.749  26.348  1.00  0.00     0.010 A 
ATOM     40  C   UNL A   1      40.803  24.861  27.302  1.00  0.00    -0.014 A 
BRANCH  40  41
ATOM     41  C   UNL A   1      41.361  26.201  27.602  1.00  0.00     0.031 A 
ATOM     42  C   UNL A   1      42.767  26.534  27.185  1.00  0.00     0.074 A 
ATOM     43  C   UNL A   1      40.644  27.076  28.337  1.00  0.00     0.049 A 
ATOM     44  N   UNL A   1      43.467  27.610  27.428  1.00  0.00    -0.248 NA
ATOM     45  C   UNL A   1      43.496  25.506  26.421  1.00  0.00     0.031 C 
ATOM     46  C   UNL A   1      39.303  26.833  28.873  1.00  0.00     0.029 A 
ATOM     47  N   UNL A   1      40.957  28.334  28.785  1.00  0.00    -0.354 N 
ATOM     48  C   UNL A   1      44.726  27.372  26.891  1.00  0.00     0.074 A 
ATOM     49  C   UNL A   1      44.707  26.035  26.340  1.00  0.00     0.031 C 
ATOM     50  C   UNL A   1      38.908  27.909  29.573  1.00  0.00     0.029 A 
ATOM     51  C   UNL A   1      39.973  28.906  29.558  1.00  0.00     0.049 A 
ATOM     52  H   UNL A   1      41.806  28.785  28.573  1.00  0.00     0.167 HD
ATOM     53  C   UNL A   1      45.792  28.204  26.827  1.00  0.00     0.034 A 
ATOM     54  C   UNL A   1      39.937  30.100  30.183  1.00  0.00     0.034 A 
ATOM     55  C   UNL A   1      45.783  29.554  27.319  1.00  0.00     0.049 A 
ATOM     56  C   UNL A   1      41.111  31.031  30.039  1.00  0.00     0.074 A 
ATOM     57  C   UNL A   1      46.777  30.512  27.219  1.00  0.00     0.029 A 
ATOM     58  N   UNL A   1      44.727  30.139  27.999  1.00  0.00    -0.354 N 
ATOM     59  N   UNL A   1      42.233  30.849  29.386  1.00  0.00    -0.248 NA
ATOM     60  C   UNL A   1      40.998  32.347  30.684  1.00  0.00     0.031 C 
ATOM     61  C   UNL A   1      46.322  31.676  27.849  1.00  0.00     0.029 A 
ATOM     62  C   UNL A   1      45.041  31.445  28.326  1.00  0.00     0.049 A 
ATOM     63  H   UNL A   1      43.878  29.690  28.218  1.00  0.00     0.167 HD
ATOM     64  C   UNL A   1      42.944  32.037  29.510  1.00  0.00     0.074 A 
ATOM     65  C   UNL A   1      42.116  32.939  30.284  1.00  0.00     0.031 C 
ATOM     66  C   UNL A   1      44.177  32.349  29.041  1.00  0.00     0.034 A 
BRANCH  53  67
ATOM     67  C   UNL A   1      47.032  27.697  26.138  1.00  0.00     0.023 A 
ATOM     68  C   UNL A   1      47.995  26.985  26.884  1.00  0.00     0.012 A 
ATOM     69  C   UNL A   1      47.225  27.880  24.756  1.00  0.00     0.148 A 
ATOM     70  C   UNL A   1      49.147  26.496  26.273  1.00  0.00     0.002 A 
ATOM     71  C   UNL A   1      48.356  27.350  24.145  1.00  0.00     0.091 A 
ATOM     72  F   UNL A   1      46.312  28.580  24.068  1.00  0.00    -0.205 F 
ATOM     73  C   UNL A   1      49.323  26.669  24.903  1.00  0.00     0.022 A 
BRANCH  71  74
ATOM     74  S   UNL A   1      48.638  27.453  22.374  1.00  0.00     0.127 S 
ATOM     75  O   UNL A   1      49.941  28.116  22.321  1.00  0.00    -0.237 OA
ATOM     76  O   UNL A   1      48.655  26.044  21.982  1.00  0.00    -0.237 OA
ATOM     77  O   UNL A   1      47.522  28.219  21.836  1.00  0.00    -0.744 OA
ENDBRANCH  71  74
ENDBRANCH  53  67
BRANCH  54  78
ATOM     78  C   UNL A   1      38.714  30.515  30.925  1.00  0.00     0.023 A 
ATOM     79  C   UNL A   1      38.615  30.226  32.300  1.00  0.00     0.012 A 
ATOM     80  C   UNL A   1      37.669  31.217  30.295  1.00  0.00     0.148 A 
ATOM     81  C   UNL A   1      37.484  30.598  33.028  1.00  0.00     0.002 A 
ATOM     82  C   UNL A   1      36.567  31.631  31.036  1.00  0.00     0.091 A 
ATOM     83  F   UNL A   1      37.775  31.473  28.983  1.00  0.00    -0.205 F 
ATOM     84  C   UNL A   1      36.465  31.309  32.398  1.00  0.00     0.022 A 
BRANCH  82  85
ATOM     85  S   UNL A   1      35.272  32.663  30.339  1.00  0.00     0.127 S 
ATOM     86  O   UNL A   1      34.344  32.777  31.460  1.00  0.00    -0.237 OA
ATOM     87  O   UNL A   1      36.001  33.890  30.014  1.00  0.00    -0.237 OA
ATOM     88  O   UNL A   1      34.781  31.935  29.176  1.00  0.00    -0.744 OA
ENDBRANCH  82  85
ENDBRANCH  54  78
BRANCH  66  89
ATOM     89  C   UNL A   1      44.698  33.734  29.313  1.00  0.00     0.023 A 
ATOM     90  C   UNL A   1      45.352  34.008  30.529  1.00  0.00     0.012 A 
ATOM     91  C   UNL A   1      44.617  34.739  28.327  1.00  0.00     0.148 A 
ATOM     92  C   UNL A   1      45.895  35.269  30.772  1.00  0.00     0.002 A 
ATOM     93  C   UNL A   1      45.201  35.978  28.558  1.00  0.00     0.091 A 
ATOM     94  F   UNL A   1      43.973  34.462  27.184  1.00  0.00    -0.205 F 
ATOM     95  C   UNL A   1      45.830  36.249  29.784  1.00  0.00     0.022 A 
BRANCH  93  96
ATOM     96  S   UNL A   1      45.250  37.263  27.304  1.00  0.00     0.127 S 
ATOM     97  O   UNL A   1      43.829  37.463  27.026  1.00  0.00    -0.237 OA
ATOM     98  O   UNL A   1      45.893  38.369  28.015  1.00  0.00    -0.237 OA
ATOM     99  O   UNL A   1      46.034  36.718  26.205  1.00  0.00    -0.744 OA
ENDBRANCH  93  96
ENDBRANCH  66  89
ENDBRANCH  40  41
ENDBRANCH  32  35
ENDBRANCH  30  31
ENDBRANCH   1  30
TORSDOF 16
ENDMDL
MODEL 2
REMARK VINA RESULT:     -13.5      5.210     10.785
REMARK SMILES CC(C)=C1[C@H]2CC[C@@H]1[C@@H](C(=O)Nc1cc(C)cc(C)c1)[C@@H]2C(=O)NCCCCNC(=O)c1ccc(-c2c3nc(c(-c4cccc(S(=O)(=O)[O-])c4F)c4ccc([nH]4)c(-c4cccc(S(=O)(=O)[O-])c4F)c4nc(c(-c5cccc(S(=O)(=O)[O-])c5F)c5ccc2[nH]5)C=C4)C=C3)cc1
REMARK SMILES IDX 27 1 26 2 25 3 24 4 22 5 23 6 21 8 1 9 2 10 3 11 4 12 5 13
REMARK SMILES IDX 8 14 6 15 7 16 9 17 10 18 11 19 12 20 13 22 14 23 20 24
REMARK SMILES IDX 15 25 18 26 16 27 17 28 19 29 28 30 29 31 30 32 31 34 32 35
REMARK SMILES IDX 33 36 94 37 34 38 93 39 35 40 36 41 37 42 87 43 38 44 92 45
REMARK SMILES IDX 86 46 88 47 39 48 91 49 85 50 84 51 40 53 72 54 52 55 71 56
REMARK SMILES IDX 53 57 56 58 70 59 89 60 54 61 55 62 69 64 90 65 57 66 41 67
REMARK SMILES IDX 42 68 50 69 43 70 45 71 51 72 44 73 46 74 47 75 48 76 49 77
REMARK SMILES IDX 73 78 74 79 82 80 75 81 77 82 83 83 76 84 78 85 79 86 80 87
REMARK SMILES IDX 81 88 58 89 59 90 67 91 60 92 62 93 68 94 61 95 63 96 64 97
REMARK SMILES IDX 65 98 66 99
REMARK H PARENT 24 7 12 21 29 33 88 52 56 63
REMARK Flexibility Score: inf
ROOT
ATOM      1  C   UNL A   1      31.725  28.949  26.891  1.00  0.00     0.023 C 
ENDROOT
BRANCH   1   2
ATOM      2  C   UNL A   1      32.127  27.521  27.252  1.00  0.00     0.023 C 
BRANCH   2   3
ATOM      3  C   UNL A   1      32.958  26.809  26.185  1.00  0.00     0.116 C 
BRANCH   3   4
ATOM      4  N   UNL A   1      32.136  25.947  25.361  1.00  0.00    -0.356 N 
ATOM      5  C   UNL A   1      32.334  24.643  25.013  1.00  0.00     0.224 C 
ATOM      6  O   UNL A   1      31.510  24.113  24.270  1.00  0.00    -0.275 OA
ATOM      7  H   UNL A   1      31.318  26.361  25.001  1.00  0.00     0.163 HD
BRANCH   5   8
ATOM      8  C   UNL A   1      33.529  23.893  25.598  1.00  0.00     0.098 C 
ATOM      9  C   UNL A   1      37.670  21.597  25.721  1.00  0.00     0.039 C 
ATOM     10  C   UNL A   1      36.980  22.931  25.676  1.00  0.00    -0.077 C 
ATOM     11  C   UNL A   1      37.809  24.103  26.126  1.00  0.00     0.039 C 
ATOM     12  C   UNL A   1      35.730  23.083  25.207  1.00  0.00    -0.064 C 
ATOM     13  C   UNL A   1      34.894  24.317  25.006  1.00  0.00     0.028 C 
ATOM     14  C   UNL A   1      34.792  22.106  24.566  1.00  0.00     0.028 C 
ATOM     15  C   UNL A   1      34.854  24.282  23.475  1.00  0.00     0.009 C 
ATOM     16  C   UNL A   1      34.717  22.776  23.172  1.00  0.00     0.009 C 
ATOM     17  C   UNL A   1      33.485  22.378  25.342  1.00  0.00     0.099 C 
BRANCH  17  18
ATOM     18  C   UNL A   1      33.281  21.387  26.500  1.00  0.00     0.228 C 
ATOM     19  O   UNL A   1      33.276  21.846  27.655  1.00  0.00    -0.274 OA
ATOM     20  N   UNL A   1      32.896  20.085  26.417  1.00  0.00    -0.326 N 
ATOM     21  H   UNL A   1      32.529  19.746  27.265  1.00  0.00     0.169 HD
BRANCH  20  22
ATOM     22  C   UNL A   1      32.898  19.115  25.411  1.00  0.00     0.041 A 
ATOM     23  C   UNL A   1      32.685  19.402  24.067  1.00  0.00     0.029 A 
ATOM     24  C   UNL A   1      33.243  17.811  25.775  1.00  0.00     0.029 A 
ATOM     25  C   UNL A   1      32.613  18.379  23.113  1.00  0.00    -0.049 A 
ATOM     26  C   UNL A   1      33.214  16.772  24.834  1.00  0.00    -0.049 A 
ATOM     27  C   UNL A   1      32.155  18.674  21.715  1.00  0.00     0.044 C 
ATOM     28  C   UNL A   1      32.867  17.062  23.509  1.00  0.00     0.007 A 
ATOM     29  C   UNL A   1      33.428  15.351  25.260  1.00  0.00     0.044 C 
ENDBRANCH  20  22
ENDBRANCH  17  18
ENDBRANCH   5   8
ENDBRANCH   3   4
ENDBRANCH   2   3
ENDBRANCH   1   2
BRANCH   1  30
ATOM     30  C   UNL A   1      32.851  29.797  26.321  1.00  0.00     0.116 C 
BRANCH  30  31
ATOM     31  N   UNL A   1      32.695  31.216  26.615  1.00  0.00    -0.352 N 
ATOM     32  C   UNL A   1      33.507  32.017  27.380  1.00  0.00     0.251 C 
ATOM     33  H   UNL A   1      31.910  31.654  26.215  1.00  0.00     0.163 HD
ATOM     34  O   UNL A   1      33.176  33.169  27.644  1.00  0.00    -0.269 OA
BRANCH  32  35
ATOM     35  C   UNL A   1      34.767  31.456  27.903  1.00  0.00     0.039 A 
ATOM     36  C   UNL A   1      35.893  32.277  27.993  1.00  0.00     0.014 A 
ATOM     37  C   UNL A   1      34.808  30.137  28.363  1.00  0.00     0.014 A 
ATOM     38  C   UNL A   1      37.049  31.790  28.603  1.00  0.00     0.010 A 
ATOM     39  C   UNL A   1      35.932  29.683  29.039  1.00  0.00     0.010 A 
ATOM     40  C   UNL A   1      37.066  30.499  29.158  1.00  0.00    -0.014 A 
BRANCH  40  41
ATOM     41  C   UNL A   1      38.260  29.972  29.861  1.00  0.00     0.031 A 
ATOM     42  C   UNL A   1      38.576  30.447  31.253  1.00  0.00     0.074 A 
ATOM     43  C   UNL A   1      39.110  29.151  29.212  1.00  0.00     0.049 A 
ATOM     44  N   UNL A   1      39.614  30.177  32.001  1.00  0.00    -0.248 NA
ATOM     45  C   UNL A   1      37.616  31.376  31.874  1.00  0.00     0.031 C 
ATOM     46  C   UNL A   1      38.955  28.690  27.831  1.00  0.00     0.029 A 
ATOM     47  N   UNL A   1      40.290  28.583  29.620  1.00  0.00    -0.354 N 
ATOM     48  C   UNL A   1      39.455  30.934  33.155  1.00  0.00     0.074 A 
ATOM     49  C   UNL A   1      38.241  31.703  32.995  1.00  0.00     0.031 C 
ATOM     50  C   UNL A   1      39.998  27.907  27.509  1.00  0.00     0.029 A 
ATOM     51  C   UNL A   1      40.907  27.830  28.648  1.00  0.00     0.049 A 
ATOM     52  H   UNL A   1      40.661  28.702  30.525  1.00  0.00     0.167 HD
ATOM     53  C   UNL A   1      40.229  30.960  34.265  1.00  0.00     0.034 A 
ATOM     54  C   UNL A   1      42.074  27.155  28.674  1.00  0.00     0.034 A 
ATOM     55  C   UNL A   1      41.399  30.146  34.443  1.00  0.00     0.049 A 
ATOM     56  C   UNL A   1      42.881  27.149  29.945  1.00  0.00     0.074 A 
ATOM     57  C   UNL A   1      42.200  30.024  35.565  1.00  0.00     0.029 A 
ATOM     58  N   UNL A   1      41.933  29.308  33.476  1.00  0.00    -0.354 N 
ATOM     59  N   UNL A   1      42.629  27.744  31.085  1.00  0.00    -0.248 NA
ATOM     60  C   UNL A   1      44.112  26.347  29.946  1.00  0.00     0.031 C 
ATOM     61  C   UNL A   1      43.225  29.119  35.271  1.00  0.00     0.029 A 
ATOM     62  C   UNL A   1      43.052  28.666  33.972  1.00  0.00     0.049 A 
ATOM     63  H   UNL A   1      41.568  29.189  32.569  1.00  0.00     0.167 HD
ATOM     64  C   UNL A   1      43.647  27.360  31.950  1.00  0.00     0.074 A 
ATOM     65  C   UNL A   1      44.509  26.464  31.207  1.00  0.00     0.031 C 
ATOM     66  C   UNL A   1      43.860  27.727  33.238  1.00  0.00     0.034 A 
BRANCH  53  67
ATOM     67  C   UNL A   1      39.792  31.849  35.399  1.00  0.00     0.023 A 
ATOM     68  C   UNL A   1      40.214  33.195  35.426  1.00  0.00     0.012 A 
ATOM     69  C   UNL A   1      38.931  31.375  36.408  1.00  0.00     0.148 A 
ATOM     70  C   UNL A   1      39.818  34.044  36.457  1.00  0.00     0.002 A 
ATOM     71  C   UNL A   1      38.505  32.241  37.409  1.00  0.00     0.091 A 
ATOM     72  F   UNL A   1      38.560  30.088  36.380  1.00  0.00    -0.205 F 
ATOM     73  C   UNL A   1      38.956  33.571  37.442  1.00  0.00     0.022 A 
BRANCH  71  74
ATOM     74  S   UNL A   1      37.335  31.749  38.680  1.00  0.00     0.127 S 
ATOM     75  O   UNL A   1      38.107  31.990  39.900  1.00  0.00    -0.237 OA
ATOM     76  O   UNL A   1      36.232  32.685  38.463  1.00  0.00    -0.237 OA
ATOM     77  O   UNL A   1      37.011  30.356  38.408  1.00  0.00    -0.744 OA
ENDBRANCH  71  74
ENDBRANCH  53  67
BRANCH  54  78
ATOM     78  C   UNL A   1      42.502  26.361  27.489  1.00  0.00     0.023 A 
ATOM     79  C   UNL A   1      43.290  26.976  26.498  1.00  0.00     0.012 A 
ATOM     80  C   UNL A   1      42.165  25.000  27.351  1.00  0.00     0.148 A 
ATOM     81  C   UNL A   1      43.707  26.264  25.373  1.00  0.00     0.002 A 
ATOM     82  C   UNL A   1      42.628  24.281  26.254  1.00  0.00     0.091 A 
ATOM     83  F   UNL A   1      41.405  24.433  28.298  1.00  0.00    -0.205 F 
ATOM     84  C   UNL A   1      43.385  24.915  25.256  1.00  0.00     0.022 A 
BRANCH  82  85
ATOM     85  S   UNL A   1      42.372  22.511  26.088  1.00  0.00     0.127 S 
ATOM     86  O   UNL A   1      43.033  22.231  24.817  1.00  0.00    -0.237 OA
ATOM     87  O   UNL A   1      43.061  21.991  27.270  1.00  0.00    -0.237 OA
ATOM     88  O   UNL A   1      40.927  22.325  26.109  1.00  0.00    -0.744 OA
ENDBRANCH  82  85
ENDBRANCH  54  78
BRANCH  66  89
ATOM     89  C   UNL A   1      45.049  27.136  33.945  1.00  0.00     0.023 A 
ATOM     90  C   UNL A   1      46.281  27.816  33.930  1.00  0.00     0.012 A 
ATOM     91  C   UNL A   1      44.920  25.951  34.699  1.00  0.00     0.148 A 
ATOM     92  C   UNL A   1      47.376  27.313  34.631  1.00  0.00     0.002 A 
ATOM     93  C   UNL A   1      46.002  25.481  35.432  1.00  0.00     0.091 A 
ATOM     94  F   UNL A   1      43.743  25.309  34.684  1.00  0.00    -0.205 F 
ATOM     95  C   UNL A   1      47.234  26.154  35.391  1.00  0.00     0.022 A 
BRANCH  93  96
ATOM     96  S   UNL A   1      45.879  24.053  36.514  1.00  0.00     0.127 S 
ATOM     97  O   UNL A   1      45.702  22.965  35.554  1.00  0.00    -0.237 OA
ATOM     98  O   UNL A   1      47.175  24.062  37.193  1.00  0.00    -0.237 OA
ATOM     99  O   UNL A   1      44.742  24.310  37.387  1.00  0.00    -0.744 OA
ENDBRANCH  93  96
ENDBRANCH  66  89
ENDBRANCH  40  41
ENDBRANCH  32  35
ENDBRANCH  30  31
ENDBRANCH   1  30
TORSDOF 16
ENDMDL
MODEL 3
REMARK VINA RESULT:     -13.3      1.623      2.798
REMARK SMILES CC(C)=C1[C@H]2CC[C@@H]1[C@@H](C(=O)Nc1cc(C)cc(C)c1)[C@@H]2C(=O)NCCCCNC(=O)c1ccc(-c2c3nc(c(-c4cccc(S(=O)(=O)[O-])c4F)c4ccc([nH]4)c(-c4cccc(S(=O)(=O)[O-])c4F)c4nc(c(-c5cccc(S(=O)(=O)[O-])c5F)c5ccc2[nH]5)C=C4)C=C3)cc1
REMARK SMILES IDX 27 1 26 2 25 3 24 4 22 5 23 6 21 8 1 9 2 10 3 11 4 12 5 13
REMARK SMILES IDX 8 14 6 15 7 16 9 17 10 18 11 19 12 20 13 22 14 23 20 24
REMARK SMILES IDX 15 25 18 26 16 27 17 28 19 29 28 30 29 31 30 32 31 34 32 35
REMARK SMILES IDX 33 36 94 37 34 38 93 39 35 40 36 41 37 42 87 43 38 44 92 45
REMARK SMILES IDX 86 46 88 47 39 48 91 49 85 50 84 51 40 53 72 54 52 55 71 56
REMARK SMILES IDX 53 57 56 58 70 59 89 60 54 61 55 62 69 64 90 65 57 66 41 67
REMARK SMILES IDX 42 68 50 69 43 70 45 71 51 72 44 73 46 74 47 75 48 76 49 77
REMARK SMILES IDX 73 78 74 79 82 80 75 81 77 82 83 83 76 84 78 85 79 86 80 87
REMARK SMILES IDX 81 88 58 89 59 90 67 91 60 92 62 93 68 94 61 95 63 96 64 97
REMARK SMILES IDX 65 98 66 99
REMARK H PARENT 24 7 12 21 29 33 88 52 56 63
REMARK Flexibility Score: inf
ROOT
ATOM      1  C   UNL A   1      37.236  20.910  24.552  1.00  0.00     0.023 C 
ENDROOT
BRANCH   1   2
ATOM      2  C   UNL A   1      36.283  19.801  24.989  1.00  0.00     0.023 C 
BRANCH   2   3
ATOM      3  C   UNL A   1      34.844  20.259  25.222  1.00  0.00     0.116 C 
BRANCH   3   4
ATOM      4  N   UNL A   1      34.707  20.955  26.485  1.00  0.00    -0.356 N 
ATOM      5  C   UNL A   1      34.049  22.117  26.760  1.00  0.00     0.224 C 
ATOM      6  O   UNL A   1      34.092  22.544  27.913  1.00  0.00    -0.275 OA
ATOM      7  H   UNL A   1      35.153  20.529  27.253  1.00  0.00     0.163 HD
BRANCH   5   8
ATOM      8  C   UNL A   1      33.255  22.802  25.650  1.00  0.00     0.098 C 
ATOM      9  C   UNL A   1      32.275  25.843  22.153  1.00  0.00     0.039 C 
ATOM     10  C   UNL A   1      32.958  24.562  22.543  1.00  0.00    -0.077 C 
ATOM     11  C   UNL A   1      33.257  23.618  21.410  1.00  0.00     0.039 C 
ATOM     12  C   UNL A   1      33.336  24.300  23.805  1.00  0.00    -0.064 C 
ATOM     13  C   UNL A   1      34.088  23.135  24.389  1.00  0.00     0.028 C 
ATOM     14  C   UNL A   1      33.292  25.144  25.043  1.00  0.00     0.028 C 
ATOM     15  C   UNL A   1      35.363  23.893  24.769  1.00  0.00     0.009 C 
ATOM     16  C   UNL A   1      34.819  25.243  25.279  1.00  0.00     0.009 C 
ATOM     17  C   UNL A   1      32.674  24.163  26.063  1.00  0.00     0.099 C 
BRANCH  17  18
ATOM     18  C   UNL A   1      31.156  24.361  26.212  1.00  0.00     0.228 C 
ATOM     19  O   UNL A   1      30.478  23.376  26.551  1.00  0.00    -0.274 OA
ATOM     20  N   UNL A   1      30.472  25.537  26.218  1.00  0.00    -0.326 N 
ATOM     21  H   UNL A   1      29.584  25.453  26.634  1.00  0.00     0.169 HD
BRANCH  20  22
ATOM     22  C   UNL A   1      30.732  26.836  25.774  1.00  0.00     0.041 A 
ATOM     23  C   UNL A   1      30.278  27.336  24.558  1.00  0.00     0.029 A 
ATOM     24  C   UNL A   1      31.388  27.699  26.655  1.00  0.00     0.029 A 
ATOM     25  C   UNL A   1      30.640  28.618  24.124  1.00  0.00    -0.049 A 
ATOM     26  C   UNL A   1      31.734  28.999  26.261  1.00  0.00    -0.049 A 
ATOM     27  C   UNL A   1      30.342  29.058  22.721  1.00  0.00     0.044 C 
ATOM     28  C   UNL A   1      31.382  29.440  24.980  1.00  0.00     0.007 A 
ATOM     29  C   UNL A   1      32.576  29.866  27.147  1.00  0.00     0.044 C 
ENDBRANCH  20  22
ENDBRANCH  17  18
ENDBRANCH   5   8
ENDBRANCH   3   4
ENDBRANCH   2   3
ENDBRANCH   1   2
BRANCH   1  30
ATOM     30  C   UNL A   1      38.125  21.451  25.660  1.00  0.00     0.116 C 
BRANCH  30  31
ATOM     31  N   UNL A   1      39.180  20.522  26.043  1.00  0.00    -0.352 N 
ATOM     32  C   UNL A   1      40.395  20.808  26.618  1.00  0.00     0.251 C 
ATOM     33  H   UNL A   1      39.000  19.570  25.868  1.00  0.00     0.163 HD
ATOM     34  O   UNL A   1      41.237  19.928  26.766  1.00  0.00    -0.269 OA
BRANCH  32  35
ATOM     35  C   UNL A   1      40.677  22.198  27.024  1.00  0.00     0.039 A 
ATOM     36  C   UNL A   1      41.475  22.431  28.146  1.00  0.00     0.014 A 
ATOM     37  C   UNL A   1      40.202  23.262  26.253  1.00  0.00     0.014 A 
ATOM     38  C   UNL A   1      41.850  23.737  28.460  1.00  0.00     0.010 A 
ATOM     39  C   UNL A   1      40.641  24.552  26.523  1.00  0.00     0.010 A 
ATOM     40  C   UNL A   1      41.461  24.804  27.632  1.00  0.00    -0.014 A 
BRANCH  40  41
ATOM     41  C   UNL A   1      41.887  26.197  27.908  1.00  0.00     0.031 A 
ATOM     42  C   UNL A   1      43.284  26.632  27.560  1.00  0.00     0.074 A 
ATOM     43  C   UNL A   1      41.056  27.034  28.562  1.00  0.00     0.049 A 
ATOM     44  N   UNL A   1      43.877  27.772  27.798  1.00  0.00    -0.248 NA
ATOM     45  C   UNL A   1      44.141  25.641  26.884  1.00  0.00     0.031 C 
ATOM     46  C   UNL A   1      39.709  26.699  29.028  1.00  0.00     0.029 A 
ATOM     47  N   UNL A   1      41.236  28.330  28.974  1.00  0.00    -0.354 N 
ATOM     48  C   UNL A   1      45.182  27.622  27.347  1.00  0.00     0.074 A 
ATOM     49  C   UNL A   1      45.307  26.268  26.852  1.00  0.00     0.031 C 
ATOM     50  C   UNL A   1      39.184  27.763  29.657  1.00  0.00     0.029 A 
ATOM     51  C   UNL A   1      40.163  28.845  29.662  1.00  0.00     0.049 A 
ATOM     52  H   UNL A   1      42.057  28.843  28.793  1.00  0.00     0.167 HD
ATOM     53  C   UNL A   1      46.178  28.538  27.310  1.00  0.00     0.034 A 
ATOM     54  C   UNL A   1      39.990  30.054  30.233  1.00  0.00     0.034 A 
ATOM     55  C   UNL A   1      46.028  29.899  27.744  1.00  0.00     0.049 A 
ATOM     56  C   UNL A   1      41.090  31.076  30.119  1.00  0.00     0.074 A 
ATOM     57  C   UNL A   1      46.943  30.934  27.662  1.00  0.00     0.029 A 
ATOM     58  N   UNL A   1      44.886  30.418  28.335  1.00  0.00    -0.354 N 
ATOM     59  N   UNL A   1      42.261  30.965  29.542  1.00  0.00    -0.248 NA
ATOM     60  C   UNL A   1      40.829  32.400  30.701  1.00  0.00     0.031 C 
ATOM     61  C   UNL A   1      46.356  32.078  28.214  1.00  0.00     0.029 A 
ATOM     62  C   UNL A   1      45.070  31.758  28.624  1.00  0.00     0.049 A 
ATOM     63  H   UNL A   1      44.065  29.907  28.522  1.00  0.00     0.167 HD
ATOM     64  C   UNL A   1      42.863  32.213  29.657  1.00  0.00     0.074 A 
ATOM     65  C   UNL A   1      41.917  33.070  30.342  1.00  0.00     0.031 C 
ATOM     66  C   UNL A   1      44.092  32.611  29.248  1.00  0.00     0.034 A 
BRANCH  53  67
ATOM     67  C   UNL A   1      47.495  28.113  26.718  1.00  0.00     0.023 A 
ATOM     68  C   UNL A   1      48.584  27.845  27.574  1.00  0.00     0.012 A 
ATOM     69  C   UNL A   1      47.647  27.933  25.329  1.00  0.00     0.148 A 
ATOM     70  C   UNL A   1      49.813  27.441  27.056  1.00  0.00     0.002 A 
ATOM     71  C   UNL A   1      48.864  27.486  24.824  1.00  0.00     0.091 A 
ATOM     72  F   UNL A   1      46.610  28.215  24.530  1.00  0.00    -0.205 F 
ATOM     73  C   UNL A   1      49.950  27.252  25.684  1.00  0.00     0.022 A 
BRANCH  71  74
ATOM     74  S   UNL A   1      49.118  27.139  23.080  1.00  0.00     0.127 S 
ATOM     75  O   UNL A   1      48.611  28.363  22.460  1.00  0.00    -0.237 OA
ATOM     76  O   UNL A   1      50.570  26.976  23.007  1.00  0.00    -0.237 OA
ATOM     77  O   UNL A   1      48.357  25.931  22.798  1.00  0.00    -0.744 OA
ENDBRANCH  71  74
ENDBRANCH  53  67
BRANCH  54  78
ATOM     78  C   UNL A   1      38.693  30.392  30.885  1.00  0.00     0.023 A 
ATOM     79  C   UNL A   1      38.467  29.988  32.215  1.00  0.00     0.012 A 
ATOM     80  C   UNL A   1      37.700  31.133  30.215  1.00  0.00     0.148 A 
ATOM     81  C   UNL A   1      37.264  30.284  32.856  1.00  0.00     0.002 A 
ATOM     82  C   UNL A   1      36.524  31.470  30.877  1.00  0.00     0.091 A 
ATOM     83  F   UNL A   1      37.927  31.499  28.945  1.00  0.00    -0.205 F 
ATOM     84  C   UNL A   1      36.297  31.033  32.191  1.00  0.00     0.022 A 
BRANCH  82  85
ATOM     85  S   UNL A   1      35.283  32.542  30.143  1.00  0.00     0.127 S 
ATOM     86  O   UNL A   1      34.809  31.730  29.026  1.00  0.00    -0.237 OA
ATOM     87  O   UNL A   1      34.327  32.698  31.241  1.00  0.00    -0.237 OA
ATOM     88  O   UNL A   1      35.988  33.766  29.788  1.00  0.00    -0.744 OA
ENDBRANCH  82  85
ENDBRANCH  54  78
BRANCH  66  89
ATOM     89  C   UNL A   1      44.480  34.044  29.491  1.00  0.00     0.023 A 
ATOM     90  C   UNL A   1      45.106  34.403  30.700  1.00  0.00     0.012 A 
ATOM     91  C   UNL A   1      44.304  35.017  28.486  1.00  0.00     0.148 A 
ATOM     92  C   UNL A   1      45.527  35.715  30.917  1.00  0.00     0.002 A 
ATOM     93  C   UNL A   1      44.767  36.310  28.691  1.00  0.00     0.091 A 
ATOM     94  F   UNL A   1      43.688  34.658  27.350  1.00  0.00    -0.205 F 
ATOM     95  C   UNL A   1      45.369  36.664  29.910  1.00  0.00     0.022 A 
BRANCH  93  96
ATOM     96  S   UNL A   1      44.693  37.569  27.412  1.00  0.00     0.127 S 
ATOM     97  O   UNL A   1      45.086  38.768  28.151  1.00  0.00    -0.237 OA
ATOM     98  O   UNL A   1      45.687  37.094  26.448  1.00  0.00    -0.237 OA
ATOM     99  O   UNL A   1      43.323  37.557  26.919  1.00  0.00    -0.744 OA
ENDBRANCH  93  96
ENDBRANCH  66  89
ENDBRANCH  40  41
ENDBRANCH  32  35
ENDBRANCH  30  31
ENDBRANCH   1  30
TORSDOF 16
ENDMDL
