MODEL 1
REMARK VINA RESULT:     -12.6      0.000      0.000
REMARK SMILES O=C(NCCCCNC(=O)c1cc(Cl)cc(Cl)c1NC(=S)NC(=O)c1cccc2ccccc12)c1ccc(-c2c3nc(c(-c4cccc(S(=O)(=O)[O-])c4F)c4ccc([nH]4)c(-c4cccc(S(=O)(=O)[O-])c4F)c4nc(c(-c5cccc(S(=O)(=O)[O-])c5F)c5ccc2[nH]5)C=C4)C=C3)cc1
REMARK SMILES IDX 6 1 5 2 4 3 3 4 1 5 2 6 35 8 36 9 97 10 37 11 96 12 38 13
REMARK SMILES IDX 39 14 40 15 90 16 41 17 95 18 89 19 91 20 42 21 94 22 88 23
REMARK SMILES IDX 87 24 43 26 75 27 55 28 74 29 56 30 59 31 73 32 92 33 57 34
REMARK SMILES IDX 58 35 72 37 93 38 60 39 44 40 45 41 53 42 46 43 48 44 54 45
REMARK SMILES IDX 47 46 49 47 50 48 51 49 52 50 76 51 77 52 85 53 78 54 80 55
REMARK SMILES IDX 86 56 79 57 81 58 82 59 83 60 84 61 61 62 62 63 70 64 63 65
REMARK SMILES IDX 65 66 71 67 64 68 66 69 67 70 68 71 69 72 7 73 8 74 9 75
REMARK SMILES IDX 10 77 11 78 12 79 18 80 13 81 16 82 14 83 15 84 17 85 19 86
REMARK SMILES IDX 20 88 21 89 22 90 23 91 24 93 25 94 26 95 34 96 27 97 29 98
REMARK SMILES IDX 33 99 28 100 30 101 32 102 31 103
REMARK H PARENT 3 7 91 25 59 36 8 76 19 87 22 92
REMARK Flexibility Score: inf
ROOT
ATOM      1  C   UNL A   1      36.630  20.328  25.034  1.00  0.00     0.023 C 
ENDROOT
BRANCH   1   2
ATOM      2  C   UNL A   1      38.077  19.985  24.715  1.00  0.00     0.023 C 
BRANCH   2   3
ATOM      3  C   UNL A   1      39.029  20.190  25.881  1.00  0.00     0.116 C 
BRANCH   3   4
ATOM      4  N   UNL A   1      40.117  19.222  25.891  1.00  0.00    -0.352 N 
ATOM      5  O   UNL A   1      42.289  18.601  25.877  1.00  0.00    -0.269 OA
ATOM      6  C   UNL A   1      41.456  19.478  26.069  1.00  0.00     0.251 C 
ATOM      7  H   UNL A   1      39.864  18.281  25.753  1.00  0.00     0.163 HD
BRANCH   6   8
ATOM      8  C   UNL A   1      41.851  20.842  26.473  1.00  0.00     0.039 A 
ATOM      9  C   UNL A   1      41.969  21.836  25.497  1.00  0.00     0.014 A 
ATOM     10  C   UNL A   1      42.180  21.102  27.802  1.00  0.00     0.014 A 
ATOM     11  C   UNL A   1      42.546  23.053  25.825  1.00  0.00     0.010 A 
ATOM     12  C   UNL A   1      42.664  22.366  28.149  1.00  0.00     0.010 A 
ATOM     13  C   UNL A   1      42.863  23.343  27.162  1.00  0.00    -0.014 A 
BRANCH  13  14
ATOM     14  C   UNL A   1      43.258  24.726  27.521  1.00  0.00     0.031 A 
ATOM     15  C   UNL A   1      42.300  25.680  28.171  1.00  0.00     0.074 A 
ATOM     16  C   UNL A   1      44.508  25.120  27.202  1.00  0.00     0.049 A 
ATOM     17  N   UNL A   1      42.491  26.932  28.497  1.00  0.00    -0.248 NA
ATOM     18  C   UNL A   1      40.954  25.177  28.493  1.00  0.00     0.031 C 
ATOM     19  C   UNL A   1      45.505  24.281  26.526  1.00  0.00     0.029 A 
ATOM     20  N   UNL A   1      45.149  26.318  27.376  1.00  0.00    -0.354 N 
ATOM     21  C   UNL A   1      41.283  27.384  29.011  1.00  0.00     0.074 A 
ATOM     22  C   UNL A   1      40.364  26.267  28.971  1.00  0.00     0.031 C 
ATOM     23  C   UNL A   1      46.628  24.988  26.344  1.00  0.00     0.029 A 
ATOM     24  C   UNL A   1      46.407  26.346  26.819  1.00  0.00     0.049 A 
ATOM     25  H   UNL A   1      44.750  27.082  27.851  1.00  0.00     0.167 HD
ATOM     26  C   UNL A   1      40.976  28.620  29.471  1.00  0.00     0.034 A 
ATOM     27  C   UNL A   1      47.270  27.364  26.655  1.00  0.00     0.034 A 
ATOM     28  C   UNL A   1      41.912  29.713  29.532  1.00  0.00     0.049 A 
ATOM     29  C   UNL A   1      46.894  28.719  27.174  1.00  0.00     0.074 A 
ATOM     30  C   UNL A   1      41.726  30.972  30.078  1.00  0.00     0.029 A 
ATOM     31  N   UNL A   1      43.193  29.693  29.003  1.00  0.00    -0.354 N 
ATOM     32  N   UNL A   1      45.806  29.083  27.810  1.00  0.00    -0.248 NA
ATOM     33  C   UNL A   1      47.866  29.801  26.973  1.00  0.00     0.031 C 
ATOM     34  C   UNL A   1      42.875  31.728  29.834  1.00  0.00     0.029 A 
ATOM     35  C   UNL A   1      43.794  30.930  29.173  1.00  0.00     0.049 A 
ATOM     36  H   UNL A   1      43.613  28.916  28.569  1.00  0.00     0.167 HD
ATOM     37  C   UNL A   1      45.972  30.429  28.102  1.00  0.00     0.074 A 
ATOM     38  C   UNL A   1      47.278  30.808  27.605  1.00  0.00     0.031 C 
ATOM     39  C   UNL A   1      45.111  31.281  28.709  1.00  0.00     0.034 A 
BRANCH  26  40
ATOM     40  C   UNL A   1      39.575  28.880  29.959  1.00  0.00     0.023 A 
ATOM     41  C   UNL A   1      39.155  28.370  31.203  1.00  0.00     0.012 A 
ATOM     42  C   UNL A   1      38.718  29.736  29.236  1.00  0.00     0.148 A 
ATOM     43  C   UNL A   1      37.896  28.692  31.712  1.00  0.00     0.002 A 
ATOM     44  C   UNL A   1      37.483  30.086  29.769  1.00  0.00     0.091 A 
ATOM     45  F   UNL A   1      39.132  30.197  28.048  1.00  0.00    -0.205 F 
ATOM     46  C   UNL A   1      37.067  29.559  31.002  1.00  0.00     0.022 A 
BRANCH  44  47
ATOM     47  S   UNL A   1      36.379  31.259  28.974  1.00  0.00     0.127 S 
ATOM     48  O   UNL A   1      36.258  30.686  27.634  1.00  0.00    -0.237 OA
ATOM     49  O   UNL A   1      35.174  31.151  29.795  1.00  0.00    -0.237 OA
ATOM     50  O   UNL A   1      37.047  32.551  29.038  1.00  0.00    -0.744 OA
ENDBRANCH  44  47
ENDBRANCH  26  40
BRANCH  27  51
ATOM     51  C   UNL A   1      48.562  27.136  25.952  1.00  0.00     0.023 A 
ATOM     52  C   UNL A   1      49.669  26.639  26.667  1.00  0.00     0.012 A 
ATOM     53  C   UNL A   1      48.691  27.384  24.571  1.00  0.00     0.148 A 
ATOM     54  C   UNL A   1      50.891  26.433  26.027  1.00  0.00     0.002 A 
ATOM     55  C   UNL A   1      49.890  27.114  23.927  1.00  0.00     0.091 A 
ATOM     56  F   UNL A   1      47.629  27.866  23.910  1.00  0.00    -0.205 F 
ATOM     57  C   UNL A   1      50.999  26.659  24.656  1.00  0.00     0.022 A 
BRANCH  55  58
ATOM     58  S   UNL A   1      50.067  27.237  22.144  1.00  0.00     0.127 S 
ATOM     59  O   UNL A   1      49.892  28.670  21.925  1.00  0.00    -0.237 OA
ATOM     60  O   UNL A   1      51.430  26.743  21.940  1.00  0.00    -0.237 OA
ATOM     61  O   UNL A   1      49.032  26.377  21.589  1.00  0.00    -0.744 OA
ENDBRANCH  55  58
ENDBRANCH  27  51
BRANCH  39  62
ATOM     62  C   UNL A   1      45.559  32.706  28.891  1.00  0.00     0.023 A 
ATOM     63  C   UNL A   1      46.343  33.054  30.008  1.00  0.00     0.012 A 
ATOM     64  C   UNL A   1      45.268  33.680  27.916  1.00  0.00     0.148 A 
ATOM     65  C   UNL A   1      46.808  34.359  30.167  1.00  0.00     0.002 A 
ATOM     66  C   UNL A   1      45.778  34.963  28.054  1.00  0.00     0.091 A 
ATOM     67  F   UNL A   1      44.506  33.328  26.870  1.00  0.00    -0.205 F 
ATOM     68  C   UNL A   1      46.537  35.309  29.184  1.00  0.00     0.022 A 
BRANCH  66  69
ATOM     69  S   UNL A   1      45.563  36.228  26.798  1.00  0.00     0.127 S 
ATOM     70  O   UNL A   1      46.308  37.348  27.373  1.00  0.00    -0.237 OA
ATOM     71  O   UNL A   1      46.192  35.611  25.630  1.00  0.00    -0.237 OA
ATOM     72  O   UNL A   1      44.127  36.439  26.676  1.00  0.00    -0.744 OA
ENDBRANCH  66  69
ENDBRANCH  39  62
ENDBRANCH  13  14
ENDBRANCH   6   8
ENDBRANCH   3   4
ENDBRANCH   2   3
ENDBRANCH   1   2
BRANCH   1  73
ATOM     73  C   UNL A   1      36.466  21.670  25.737  1.00  0.00     0.116 C 
BRANCH  73  74
ATOM     74  N   UNL A   1      35.513  21.605  26.848  1.00  0.00    -0.352 N 
ATOM     75  C   UNL A   1      34.219  22.077  26.907  1.00  0.00     0.253 C 
ATOM     76  H   UNL A   1      35.841  21.164  27.665  1.00  0.00     0.163 HD
ATOM     77  O   UNL A   1      33.588  22.155  27.953  1.00  0.00    -0.269 OA
BRANCH  75  78
ATOM     78  C   UNL A   1      33.597  22.485  25.648  1.00  0.00     0.066 A 
ATOM     79  C   UNL A   1      33.409  21.544  24.640  1.00  0.00     0.036 A 
ATOM     80  C   UNL A   1      33.289  23.789  25.354  1.00  0.00     0.072 A 
ATOM     81  C   UNL A   1      33.075  21.946  23.278  1.00  0.00     0.043 A 
ATOM     82  C   UNL A   1      33.746  24.205  24.141  1.00  0.00     0.066 A 
ATOM     83  Cl  UNL A   1      31.438  20.937  21.733  1.00  0.00    -0.084 Cl
ATOM     84  C   UNL A   1      33.804  23.245  23.141  1.00  0.00     0.043 A 
ATOM     85  Cl  UNL A   1      34.078  25.854  23.802  1.00  0.00    -0.082 Cl
BRANCH  80  86
ATOM     86  N   UNL A   1      32.136  24.333  25.949  1.00  0.00    -0.330 N 
ATOM     87  H   UNL A   1      32.312  25.027  26.624  1.00  0.00     0.169 HD
BRANCH  86  88
ATOM     88  C   UNL A   1      30.827  24.060  25.747  1.00  0.00     0.177 C 
ATOM     89  S   UNL A   1      30.199  22.693  26.491  1.00  0.00    -0.040 S 
BRANCH  88  90
ATOM     90  N   UNL A   1      29.953  24.777  24.936  1.00  0.00    -0.299 N 
ATOM     91  C   UNL A   1      29.620  25.995  24.276  1.00  0.00     0.258 C 
ATOM     92  H   UNL A   1      29.227  24.150  24.713  1.00  0.00     0.172 HD
ATOM     93  O   UNL A   1      28.468  26.161  23.879  1.00  0.00    -0.269 OA
BRANCH  91  94
ATOM     94  C   UNL A   1      30.591  27.073  24.040  1.00  0.00     0.048 A 
ATOM     95  C   UNL A   1      31.073  27.474  22.343  1.00  0.00     0.014 A 
ATOM     96  C   UNL A   1      31.461  27.808  25.502  1.00  0.00    -0.006 A 
ATOM     97  C   UNL A   1      32.468  28.592  22.040  1.00  0.00     0.001 A 
ATOM     98  C   UNL A   1      32.983  28.783  25.185  1.00  0.00    -0.018 A 
ATOM     99  C   UNL A   1      31.137  27.678  26.858  1.00  0.00     0.009 A 
ATOM    100  C   UNL A   1      33.465  29.166  23.458  1.00  0.00     0.009 A 
ATOM    101  C   UNL A   1      33.707  29.172  26.301  1.00  0.00     0.009 A 
ATOM    102  C   UNL A   1      32.011  28.174  27.844  1.00  0.00     0.001 A 
ATOM    103  C   UNL A   1      33.234  28.851  27.581  1.00  0.00     0.001 A 
ENDBRANCH  91  94
ENDBRANCH  88  90
ENDBRANCH  86  88
ENDBRANCH  80  86
ENDBRANCH  75  78
ENDBRANCH  73  74
ENDBRANCH   1  73
TORSDOF 18
ENDMDL
MODEL 2
REMARK VINA RESULT:     -12.1      1.793      2.594
REMARK SMILES O=C(NCCCCNC(=O)c1cc(Cl)cc(Cl)c1NC(=S)NC(=O)c1cccc2ccccc12)c1ccc(-c2c3nc(c(-c4cccc(S(=O)(=O)[O-])c4F)c4ccc([nH]4)c(-c4cccc(S(=O)(=O)[O-])c4F)c4nc(c(-c5cccc(S(=O)(=O)[O-])c5F)c5ccc2[nH]5)C=C4)C=C3)cc1
REMARK SMILES IDX 6 1 5 2 4 3 3 4 1 5 2 6 35 8 36 9 97 10 37 11 96 12 38 13
REMARK SMILES IDX 39 14 40 15 90 16 41 17 95 18 89 19 91 20 42 21 94 22 88 23
REMARK SMILES IDX 87 24 43 26 75 27 55 28 74 29 56 30 59 31 73 32 92 33 57 34
REMARK SMILES IDX 58 35 72 37 93 38 60 39 44 40 45 41 53 42 46 43 48 44 54 45
REMARK SMILES IDX 47 46 49 47 50 48 51 49 52 50 76 51 77 52 85 53 78 54 80 55
REMARK SMILES IDX 86 56 79 57 81 58 82 59 83 60 84 61 61 62 62 63 70 64 63 65
REMARK SMILES IDX 65 66 71 67 64 68 66 69 67 70 68 71 69 72 7 73 8 74 9 75
REMARK SMILES IDX 10 77 11 78 12 79 18 80 13 81 16 82 14 83 15 84 17 85 19 86
REMARK SMILES IDX 20 88 21 89 22 90 23 91 24 93 25 94 26 95 34 96 27 97 29 98
REMARK SMILES IDX 33 99 28 100 30 101 32 102 31 103
REMARK H PARENT 3 7 91 25 59 36 8 76 19 87 22 92
REMARK Flexibility Score: inf
ROOT
ATOM      1  C   UNL A   1      35.705  21.446  25.042  1.00  0.00     0.023 C 
ENDROOT
BRANCH   1   2
ATOM      2  C   UNL A   1      36.774  20.363  25.038  1.00  0.00     0.023 C 
BRANCH   2   3
ATOM      3  C   UNL A   1      38.168  20.875  25.364  1.00  0.00     0.116 C 
BRANCH   3   4
ATOM      4  N   UNL A   1      39.099  19.800  25.673  1.00  0.00    -0.352 N 
ATOM      5  O   UNL A   1      41.126  18.950  26.195  1.00  0.00    -0.269 OA
ATOM      6  C   UNL A   1      40.384  19.922  26.146  1.00  0.00     0.251 C 
ATOM      7  H   UNL A   1      38.772  18.884  25.525  1.00  0.00     0.163 HD
BRANCH   6   8
ATOM      8  C   UNL A   1      40.840  21.262  26.565  1.00  0.00     0.039 A 
ATOM      9  C   UNL A   1      40.973  22.271  25.606  1.00  0.00     0.014 A 
ATOM     10  C   UNL A   1      41.211  21.484  27.891  1.00  0.00     0.014 A 
ATOM     11  C   UNL A   1      41.604  23.458  25.943  1.00  0.00     0.010 A 
ATOM     12  C   UNL A   1      41.750  22.721  28.250  1.00  0.00     0.010 A 
ATOM     13  C   UNL A   1      41.964  23.710  27.277  1.00  0.00    -0.014 A 
BRANCH  13  14
ATOM     14  C   UNL A   1      42.420  25.069  27.653  1.00  0.00     0.031 A 
ATOM     15  C   UNL A   1      41.496  26.067  28.286  1.00  0.00     0.074 A 
ATOM     16  C   UNL A   1      43.695  25.401  27.363  1.00  0.00     0.049 A 
ATOM     17  N   UNL A   1      41.743  27.307  28.624  1.00  0.00    -0.248 NA
ATOM     18  C   UNL A   1      40.120  25.631  28.576  1.00  0.00     0.031 C 
ATOM     19  C   UNL A   1      44.663  24.516  26.704  1.00  0.00     0.029 A 
ATOM     20  N   UNL A   1      44.391  26.564  27.557  1.00  0.00    -0.354 N 
ATOM     21  C   UNL A   1      40.548  27.817  29.114  1.00  0.00     0.074 A 
ATOM     22  C   UNL A   1      39.575  26.748  29.047  1.00  0.00     0.031 C 
ATOM     23  C   UNL A   1      45.823  25.166  26.551  1.00  0.00     0.029 A 
ATOM     24  C   UNL A   1      45.661  26.532  27.028  1.00  0.00     0.049 A 
ATOM     25  H   UNL A   1      44.020  27.345  28.028  1.00  0.00     0.167 HD
ATOM     26  C   UNL A   1      40.294  29.065  29.574  1.00  0.00     0.034 A 
ATOM     27  C   UNL A   1      46.578  27.505  26.889  1.00  0.00     0.034 A 
ATOM     28  C   UNL A   1      41.282  30.108  29.661  1.00  0.00     0.049 A 
ATOM     29  C   UNL A   1      46.258  28.875  27.408  1.00  0.00     0.074 A 
ATOM     30  C   UNL A   1      41.147  31.373  30.210  1.00  0.00     0.029 A 
ATOM     31  N   UNL A   1      42.572  30.027  29.160  1.00  0.00    -0.354 N 
ATOM     32  N   UNL A   1      45.177  29.290  28.022  1.00  0.00    -0.248 NA
ATOM     33  C   UNL A   1      47.288  29.907  27.234  1.00  0.00     0.031 C 
ATOM     34  C   UNL A   1      42.338  32.071  29.996  1.00  0.00     0.029 A 
ATOM     35  C   UNL A   1      43.230  31.230  29.351  1.00  0.00     0.049 A 
ATOM     36  H   UNL A   1      42.962  29.231  28.731  1.00  0.00     0.167 HD
ATOM     37  C   UNL A   1      45.404  30.626  28.325  1.00  0.00     0.074 A 
ATOM     38  C   UNL A   1      46.738  30.940  27.858  1.00  0.00     0.031 C 
ATOM     39  C   UNL A   1      44.573  31.516  28.917  1.00  0.00     0.034 A 
BRANCH  26  40
ATOM     40  C   UNL A   1      38.897  29.393  30.032  1.00  0.00     0.023 A 
ATOM     41  C   UNL A   1      38.498  29.094  31.349  1.00  0.00     0.012 A 
ATOM     42  C   UNL A   1      38.023  30.110  29.189  1.00  0.00     0.148 A 
ATOM     43  C   UNL A   1      37.243  29.488  31.816  1.00  0.00     0.002 A 
ATOM     44  C   UNL A   1      36.792  30.536  29.675  1.00  0.00     0.091 A 
ATOM     45  F   UNL A   1      38.417  30.371  27.935  1.00  0.00    -0.205 F 
ATOM     46  C   UNL A   1      36.398  30.219  30.985  1.00  0.00     0.022 A 
BRANCH  44  47
ATOM     47  S   UNL A   1      35.667  31.553  28.712  1.00  0.00     0.127 S 
ATOM     48  O   UNL A   1      36.551  32.630  28.268  1.00  0.00    -0.237 OA
ATOM     49  O   UNL A   1      35.249  30.633  27.656  1.00  0.00    -0.237 OA
ATOM     50  O   UNL A   1      34.607  31.958  29.624  1.00  0.00    -0.744 OA
ENDBRANCH  44  47
ENDBRANCH  26  40
BRANCH  27  51
ATOM     51  C   UNL A   1      47.872  27.215  26.214  1.00  0.00     0.023 A 
ATOM     52  C   UNL A   1      48.945  26.687  26.956  1.00  0.00     0.012 A 
ATOM     53  C   UNL A   1      48.034  27.436  24.832  1.00  0.00     0.148 A 
ATOM     54  C   UNL A   1      50.169  26.423  26.341  1.00  0.00     0.002 A 
ATOM     55  C   UNL A   1      49.234  27.109  24.214  1.00  0.00     0.091 A 
ATOM     56  F   UNL A   1      47.004  27.948  24.144  1.00  0.00    -0.205 F 
ATOM     57  C   UNL A   1      50.310  26.623  24.970  1.00  0.00     0.022 A 
BRANCH  55  58
ATOM     58  S   UNL A   1      49.447  27.196  22.433  1.00  0.00     0.127 S 
ATOM     59  O   UNL A   1      48.615  26.084  21.978  1.00  0.00    -0.237 OA
ATOM     60  O   UNL A   1      48.919  28.527  22.129  1.00  0.00    -0.237 OA
ATOM     61  O   UNL A   1      50.877  27.055  22.203  1.00  0.00    -0.744 OA
ENDBRANCH  55  58
ENDBRANCH  27  51
BRANCH  39  62
ATOM     62  C   UNL A   1      45.089  32.917  29.117  1.00  0.00     0.023 A 
ATOM     63  C   UNL A   1      45.833  33.229  30.271  1.00  0.00     0.012 A 
ATOM     64  C   UNL A   1      44.900  33.899  28.126  1.00  0.00     0.148 A 
ATOM     65  C   UNL A   1      46.360  34.507  30.449  1.00  0.00     0.002 A 
ATOM     66  C   UNL A   1      45.471  35.154  28.284  1.00  0.00     0.091 A 
ATOM     67  F   UNL A   1      44.173  33.582  27.043  1.00  0.00    -0.205 F 
ATOM     68  C   UNL A   1      46.190  35.464  29.451  1.00  0.00     0.022 A 
BRANCH  66  69
ATOM     69  S   UNL A   1      45.389  36.421  27.015  1.00  0.00     0.127 S 
ATOM     70  O   UNL A   1      46.192  37.489  27.608  1.00  0.00    -0.237 OA
ATOM     71  O   UNL A   1      46.010  35.752  25.872  1.00  0.00    -0.237 OA
ATOM     72  O   UNL A   1      43.976  36.732  26.844  1.00  0.00    -0.744 OA
ENDBRANCH  66  69
ENDBRANCH  39  62
ENDBRANCH  13  14
ENDBRANCH   6   8
ENDBRANCH   3   4
ENDBRANCH   2   3
ENDBRANCH   1   2
BRANCH   1  73
ATOM     73  C   UNL A   1      34.285  20.895  25.074  1.00  0.00     0.116 C 
BRANCH  73  74
ATOM     74  N   UNL A   1      33.590  21.069  23.796  1.00  0.00    -0.352 N 
ATOM     75  C   UNL A   1      32.614  21.983  23.458  1.00  0.00     0.253 C 
ATOM     76  H   UNL A   1      33.856  20.449  23.079  1.00  0.00     0.163 HD
ATOM     77  O   UNL A   1      31.957  21.902  22.430  1.00  0.00    -0.269 OA
BRANCH  75  78
ATOM     78  C   UNL A   1      32.385  23.091  24.385  1.00  0.00     0.066 A 
ATOM     79  C   UNL A   1      33.473  23.791  24.900  1.00  0.00     0.036 A 
ATOM     80  C   UNL A   1      31.145  23.410  24.877  1.00  0.00     0.072 A 
ATOM     81  C   UNL A   1      33.327  24.693  26.036  1.00  0.00     0.043 A 
ATOM     82  C   UNL A   1      31.104  23.544  26.231  1.00  0.00     0.066 A 
ATOM     83  Cl  UNL A   1      34.322  26.926  26.367  1.00  0.00    -0.084 Cl
ATOM     84  C   UNL A   1      32.256  24.025  26.838  1.00  0.00     0.043 A 
ATOM     85  Cl  UNL A   1      29.667  23.297  27.136  1.00  0.00    -0.082 Cl
BRANCH  80  86
ATOM     86  N   UNL A   1      30.272  24.112  24.026  1.00  0.00    -0.330 N 
ATOM     87  H   UNL A   1      29.554  23.566  23.634  1.00  0.00     0.169 HD
BRANCH  86  88
ATOM     88  C   UNL A   1      30.255  25.414  23.660  1.00  0.00     0.177 C 
ATOM     89  S   UNL A   1      28.875  26.299  24.015  1.00  0.00    -0.040 S 
BRANCH  88  90
ATOM     90  N   UNL A   1      31.257  26.086  22.965  1.00  0.00    -0.299 N 
ATOM     91  C   UNL A   1      31.876  27.317  22.602  1.00  0.00     0.258 C 
ATOM     92  H   UNL A   1      31.782  25.385  22.517  1.00  0.00     0.172 HD
ATOM     93  O   UNL A   1      32.643  27.336  21.640  1.00  0.00    -0.269 OA
BRANCH  91  94
ATOM     94  C   UNL A   1      31.647  28.576  23.324  1.00  0.00     0.048 A 
ATOM     95  C   UNL A   1      32.655  28.960  24.777  1.00  0.00     0.014 A 
ATOM     96  C   UNL A   1      30.173  29.601  22.860  1.00  0.00    -0.006 A 
ATOM     97  C   UNL A   1      32.208  30.356  25.845  1.00  0.00     0.001 A 
ATOM     98  C   UNL A   1      29.622  30.886  24.048  1.00  0.00    -0.018 A 
ATOM     99  C   UNL A   1      29.368  29.492  21.720  1.00  0.00     0.009 A 
ATOM    100  C   UNL A   1      30.649  31.250  25.523  1.00  0.00     0.009 A 
ATOM    101  C   UNL A   1      28.422  31.515  23.759  1.00  0.00     0.009 A 
ATOM    102  C   UNL A   1      28.187  30.252  21.614  1.00  0.00     0.001 A 
ATOM    103  C   UNL A   1      27.728  31.182  22.587  1.00  0.00     0.001 A 
ENDBRANCH  91  94
ENDBRANCH  88  90
ENDBRANCH  86  88
ENDBRANCH  80  86
ENDBRANCH  75  78
ENDBRANCH  73  74
ENDBRANCH   1  73
TORSDOF 18
ENDMDL
MODEL 3
REMARK VINA RESULT:     -11.7      1.621      2.079
REMARK SMILES O=C(NCCCCNC(=O)c1cc(Cl)cc(Cl)c1NC(=S)NC(=O)c1cccc2ccccc12)c1ccc(-c2c3nc(c(-c4cccc(S(=O)(=O)[O-])c4F)c4ccc([nH]4)c(-c4cccc(S(=O)(=O)[O-])c4F)c4nc(c(-c5cccc(S(=O)(=O)[O-])c5F)c5ccc2[nH]5)C=C4)C=C3)cc1
REMARK SMILES IDX 6 1 5 2 4 3 3 4 1 5 2 6 35 8 36 9 97 10 37 11 96 12 38 13
REMARK SMILES IDX 39 14 40 15 90 16 41 17 95 18 89 19 91 20 42 21 94 22 88 23
REMARK SMILES IDX 87 24 43 26 75 27 55 28 74 29 56 30 59 31 73 32 92 33 57 34
REMARK SMILES IDX 58 35 72 37 93 38 60 39 44 40 45 41 53 42 46 43 48 44 54 45
REMARK SMILES IDX 47 46 49 47 50 48 51 49 52 50 76 51 77 52 85 53 78 54 80 55
REMARK SMILES IDX 86 56 79 57 81 58 82 59 83 60 84 61 61 62 62 63 70 64 63 65
REMARK SMILES IDX 65 66 71 67 64 68 66 69 67 70 68 71 69 72 7 73 8 74 9 75
REMARK SMILES IDX 10 77 11 78 12 79 18 80 13 81 16 82 14 83 15 84 17 85 19 86
REMARK SMILES IDX 20 88 21 89 22 90 23 91 24 93 25 94 26 95 34 96 27 97 29 98
REMARK SMILES IDX 33 99 28 100 30 101 32 102 31 103
REMARK H PARENT 3 7 91 25 59 36 8 76 19 87 22 92
REMARK Flexibility Score: inf
ROOT
ATOM      1  C   UNL A   1      38.776  22.419  26.346  1.00  0.00     0.023 C 
ENDROOT
BRANCH   1   2
ATOM      2  C   UNL A   1      38.756  20.900  26.412  1.00  0.00     0.023 C 
BRANCH   2   3
ATOM      3  C   UNL A   1      39.442  20.225  25.236  1.00  0.00     0.116 C 
BRANCH   3   4
ATOM      4  N   UNL A   1      40.383  19.196  25.654  1.00  0.00    -0.352 N 
ATOM      5  O   UNL A   1      42.409  18.430  26.297  1.00  0.00    -0.269 OA
ATOM      6  C   UNL A   1      41.652  19.381  26.151  1.00  0.00     0.251 C 
ATOM      7  H   UNL A   1      40.076  18.265  25.571  1.00  0.00     0.163 HD
BRANCH   6   8
ATOM      8  C   UNL A   1      42.073  20.758  26.474  1.00  0.00     0.039 A 
ATOM      9  C   UNL A   1      42.101  21.169  27.810  1.00  0.00     0.014 A 
ATOM     10  C   UNL A   1      42.356  21.655  25.444  1.00  0.00     0.014 A 
ATOM     11  C   UNL A   1      42.280  22.511  28.110  1.00  0.00     0.010 A 
ATOM     12  C   UNL A   1      42.640  22.986  25.758  1.00  0.00     0.010 A 
ATOM     13  C   UNL A   1      42.589  23.425  27.091  1.00  0.00    -0.014 A 
BRANCH  13  14
ATOM     14  C   UNL A   1      43.004  24.799  27.461  1.00  0.00     0.031 A 
ATOM     15  C   UNL A   1      42.052  25.770  28.095  1.00  0.00     0.074 A 
ATOM     16  C   UNL A   1      44.267  25.170  27.166  1.00  0.00     0.049 A 
ATOM     17  N   UNL A   1      42.261  27.018  28.428  1.00  0.00    -0.248 NA
ATOM     18  C   UNL A   1      40.691  25.292  28.391  1.00  0.00     0.031 C 
ATOM     19  C   UNL A   1      45.260  24.313  26.506  1.00  0.00     0.029 A 
ATOM     20  N   UNL A   1      44.926  26.355  27.354  1.00  0.00    -0.354 N 
ATOM     21  C   UNL A   1      41.052  27.492  28.920  1.00  0.00     0.074 A 
ATOM     22  C   UNL A   1      40.113  26.392  28.860  1.00  0.00     0.031 C 
ATOM     23  C   UNL A   1      46.399  24.999  26.347  1.00  0.00     0.029 A 
ATOM     24  C   UNL A   1      46.195  26.360  26.821  1.00  0.00     0.049 A 
ATOM     25  H   UNL A   1      44.533  27.126  27.823  1.00  0.00     0.167 HD
ATOM     26  C   UNL A   1      40.760  28.733  29.377  1.00  0.00     0.034 A 
ATOM     27  C   UNL A   1      47.081  27.362  26.675  1.00  0.00     0.034 A 
ATOM     28  C   UNL A   1      41.716  29.807  29.458  1.00  0.00     0.049 A 
ATOM     29  C   UNL A   1      46.721  28.722  27.190  1.00  0.00     0.074 A 
ATOM     30  C   UNL A   1      41.544  31.068  30.004  1.00  0.00     0.029 A 
ATOM     31  N   UNL A   1      43.006  29.764  28.952  1.00  0.00    -0.354 N 
ATOM     32  N   UNL A   1      45.629  29.106  27.807  1.00  0.00    -0.248 NA
ATOM     33  C   UNL A   1      47.717  29.786  27.010  1.00  0.00     0.031 C 
ATOM     34  C   UNL A   1      42.711  31.803  29.782  1.00  0.00     0.029 A 
ATOM     35  C   UNL A   1      43.627  30.988  29.137  1.00  0.00     0.049 A 
ATOM     36  H   UNL A   1      43.419  28.979  28.524  1.00  0.00     0.167 HD
ATOM     37  C   UNL A   1      45.815  30.449  28.105  1.00  0.00     0.074 A 
ATOM     38  C   UNL A   1      47.137  30.803  27.633  1.00  0.00     0.031 C 
ATOM     39  C   UNL A   1      44.959  31.315  28.698  1.00  0.00     0.034 A 
BRANCH  26  40
ATOM     40  C   UNL A   1      39.356  29.018  29.840  1.00  0.00     0.023 A 
ATOM     41  C   UNL A   1      38.959  28.673  31.146  1.00  0.00     0.012 A 
ATOM     42  C   UNL A   1      38.469  29.742  29.015  1.00  0.00     0.148 A 
ATOM     43  C   UNL A   1      37.695  29.027  31.619  1.00  0.00     0.002 A 
ATOM     44  C   UNL A   1      37.229  30.128  29.508  1.00  0.00     0.091 A 
ATOM     45  F   UNL A   1      38.862  30.047  27.770  1.00  0.00    -0.205 F 
ATOM     46  C   UNL A   1      36.837  29.765  30.806  1.00  0.00     0.022 A 
BRANCH  44  47
ATOM     47  S   UNL A   1      36.086  31.149  28.571  1.00  0.00     0.127 S 
ATOM     48  O   UNL A   1      34.927  31.186  29.462  1.00  0.00    -0.237 OA
ATOM     49  O   UNL A   1      36.817  32.412  28.468  1.00  0.00    -0.237 OA
ATOM     50  O   UNL A   1      35.874  30.462  27.305  1.00  0.00    -0.744 OA
ENDBRANCH  44  47
ENDBRANCH  26  40
BRANCH  27  51
ATOM     51  C   UNL A   1      48.381  27.110  25.996  1.00  0.00     0.023 A 
ATOM     52  C   UNL A   1      49.454  26.560  26.722  1.00  0.00     0.012 A 
ATOM     53  C   UNL A   1      48.550  27.390  24.625  1.00  0.00     0.148 A 
ATOM     54  C   UNL A   1      50.684  26.331  26.104  1.00  0.00     0.002 A 
ATOM     55  C   UNL A   1      49.755  27.098  24.002  1.00  0.00     0.091 A 
ATOM     56  F   UNL A   1      47.519  27.922  23.953  1.00  0.00    -0.205 F 
ATOM     57  C   UNL A   1      50.831  26.589  24.743  1.00  0.00     0.022 A 
BRANCH  55  58
ATOM     58  S   UNL A   1      49.977  27.261  22.227  1.00  0.00     0.127 S 
ATOM     59  O   UNL A   1      49.782  28.695  22.032  1.00  0.00    -0.237 OA
ATOM     60  O   UNL A   1      51.354  26.795  22.050  1.00  0.00    -0.237 OA
ATOM     61  O   UNL A   1      48.972  26.395  21.627  1.00  0.00    -0.744 OA
ENDBRANCH  55  58
ENDBRANCH  27  51
BRANCH  39  62
ATOM     62  C   UNL A   1      45.431  32.731  28.891  1.00  0.00     0.023 A 
ATOM     63  C   UNL A   1      46.206  33.061  30.020  1.00  0.00     0.012 A 
ATOM     64  C   UNL A   1      45.170  33.714  27.917  1.00  0.00     0.148 A 
ATOM     65  C   UNL A   1      46.692  34.356  30.190  1.00  0.00     0.002 A 
ATOM     66  C   UNL A   1      45.702  34.987  28.066  1.00  0.00     0.091 A 
ATOM     67  F   UNL A   1      44.416  33.379  26.859  1.00  0.00    -0.205 F 
ATOM     68  C   UNL A   1      46.452  35.314  29.208  1.00  0.00     0.022 A 
BRANCH  66  69
ATOM     69  S   UNL A   1      45.528  36.260  26.812  1.00  0.00     0.127 S 
ATOM     70  O   UNL A   1      46.188  35.640  25.664  1.00  0.00    -0.237 OA
ATOM     71  O   UNL A   1      44.074  36.376  26.692  1.00  0.00    -0.237 OA
ATOM     72  O   UNL A   1      46.191  37.444  27.342  1.00  0.00    -0.744 OA
ENDBRANCH  66  69
ENDBRANCH  39  62
ENDBRANCH  13  14
ENDBRANCH   6   8
ENDBRANCH   3   4
ENDBRANCH   2   3
ENDBRANCH   1   2
BRANCH   1  73
ATOM     73  C   UNL A   1      37.452  23.024  25.896  1.00  0.00     0.116 C 
BRANCH  73  74
ATOM     74  N   UNL A   1      37.414  23.272  24.452  1.00  0.00    -0.352 N 
ATOM     75  C   UNL A   1      36.436  22.934  23.541  1.00  0.00     0.253 C 
ATOM     76  H   UNL A   1      38.194  23.745  24.081  1.00  0.00     0.163 HD
ATOM     77  O   UNL A   1      36.604  23.004  22.331  1.00  0.00    -0.269 OA
BRANCH  75  78
ATOM     78  C   UNL A   1      35.150  22.486  24.074  1.00  0.00     0.066 A 
ATOM     79  C   UNL A   1      34.973  21.144  24.397  1.00  0.00     0.036 A 
ATOM     80  C   UNL A   1      34.053  23.303  24.165  1.00  0.00     0.072 A 
ATOM     81  C   UNL A   1      33.646  20.591  24.646  1.00  0.00     0.043 A 
ATOM     82  C   UNL A   1      32.919  22.769  23.632  1.00  0.00     0.066 A 
ATOM     83  Cl  UNL A   1      32.941  19.011  26.404  1.00  0.00    -0.084 Cl
ATOM     84  C   UNL A   1      32.789  21.390  23.716  1.00  0.00     0.043 A 
ATOM     85  Cl  UNL A   1      31.638  23.742  23.036  1.00  0.00    -0.082 Cl
BRANCH  80  86
ATOM     86  N   UNL A   1      34.021  24.230  25.223  1.00  0.00    -0.330 N 
ATOM     87  H   UNL A   1      34.446  23.918  26.054  1.00  0.00     0.169 HD
BRANCH  86  88
ATOM     88  C   UNL A   1      33.503  25.478  25.287  1.00  0.00     0.177 C 
ATOM     89  S   UNL A   1      32.201  25.722  26.316  1.00  0.00    -0.040 S 
BRANCH  88  90
ATOM     90  N   UNL A   1      33.914  26.578  24.540  1.00  0.00    -0.299 N 
ATOM     91  C   UNL A   1      33.572  27.730  23.774  1.00  0.00     0.258 C 
ATOM     92  H   UNL A   1      34.897  26.546  24.543  1.00  0.00     0.172 HD
ATOM     93  O   UNL A   1      34.425  28.233  23.044  1.00  0.00    -0.269 OA
BRANCH  91  94
ATOM     94  C   UNL A   1      32.244  28.357  23.813  1.00  0.00     0.048 A 
ATOM     95  C   UNL A   1      31.040  27.963  22.520  1.00  0.00     0.014 A 
ATOM     96  C   UNL A   1      31.945  29.709  25.045  1.00  0.00    -0.006 A 
ATOM     97  C   UNL A   1      29.512  28.930  22.383  1.00  0.00     0.001 A 
ATOM     98  C   UNL A   1      30.492  30.798  24.779  1.00  0.00    -0.018 A 
ATOM     99  C   UNL A   1      32.726  30.057  26.155  1.00  0.00     0.009 A 
ATOM    100  C   UNL A   1      29.293  30.391  23.454  1.00  0.00     0.009 A 
ATOM    101  C   UNL A   1      30.392  31.902  25.611  1.00  0.00     0.009 A 
ATOM    102  C   UNL A   1      32.432  31.222  26.888  1.00  0.00     0.001 A 
ATOM    103  C   UNL A   1      31.351  32.105  26.613  1.00  0.00     0.001 A 
ENDBRANCH  91  94
ENDBRANCH  88  90
ENDBRANCH  86  88
ENDBRANCH  80  86
ENDBRANCH  75  78
ENDBRANCH  73  74
ENDBRANCH   1  73
TORSDOF 18
ENDMDL
