MODEL 1
REMARK VINA RESULT:     -12.9      0.000      0.000
REMARK SMILES CN1C(=O)C[C@H](C(=O)NCCCCNC(=O)c2ccc(-c3c4nc(c(-c5cccc(S(=O)(=O)[O-])c5F)c5ccc([nH]5)c(-c5cccc(S(=O)(=O)[O-])c5F)c5nc(c(-c6cccc(S(=O)(=O)[O-])c6F)c6ccc3[nH]6)C=C5)C=C4)cc2)c2cccc(Cl)c21
REMARK SMILES IDX 13 1 12 2 11 3 10 4 9 5 7 6 8 7 6 9 1 10 2 11 3 12 86 13
REMARK SMILES IDX 4 14 5 15 80 16 84 17 81 18 83 19 85 20 82 21 14 22 15 23
REMARK SMILES IDX 16 25 17 26 18 27 79 28 19 29 78 30 20 31 21 32 22 33 72 34
REMARK SMILES IDX 23 35 77 36 71 37 73 38 24 39 76 40 70 41 69 42 25 44 57 45
REMARK SMILES IDX 37 46 56 47 38 48 41 49 55 50 74 51 39 52 40 53 54 55 75 56
REMARK SMILES IDX 42 57 26 58 27 59 35 60 28 61 30 62 36 63 29 64 31 65 32 66
REMARK SMILES IDX 33 67 34 68 58 69 59 70 67 71 60 72 62 73 68 74 61 75 63 76
REMARK SMILES IDX 64 77 65 78 66 79 43 80 44 81 52 82 45 83 47 84 53 85 46 86
REMARK SMILES IDX 48 87 49 88 50 89 51 90
REMARK H PARENT 9 8 14 24 73 43 41 54
REMARK Flexibility Score: inf
ROOT
ATOM      1  C   UNL A   1      37.284  21.564  25.195  1.00  0.00     0.116 C 
ENDROOT
BRANCH   1   2
ATOM      2  C   UNL A   1      35.843  21.213  25.550  1.00  0.00     0.023 C 
BRANCH   2   3
ATOM      3  C   UNL A   1      35.214  22.085  26.637  1.00  0.00     0.023 C 
BRANCH   3   4
ATOM      4  C   UNL A   1      33.865  21.594  27.149  1.00  0.00     0.116 C 
BRANCH   4   5
ATOM      5  N   UNL A   1      33.336  20.498  26.357  1.00  0.00    -0.356 N 
ATOM      6  C   UNL A   1      32.387  20.504  25.376  1.00  0.00     0.228 C 
ATOM      7  O   UNL A   1      32.153  19.445  24.788  1.00  0.00    -0.274 OA
ATOM      8  H   UNL A   1      33.722  19.615  26.559  1.00  0.00     0.163 HD
BRANCH   6   9
ATOM      9  C   UNL A   1      31.618  21.778  25.008  1.00  0.00     0.120 C 
ATOM     10  C   UNL A   1      31.658  25.859  26.501  1.00  0.00     0.153 C 
ATOM     11  N   UNL A   1      31.631  24.533  25.906  1.00  0.00    -0.314 N 
ATOM     12  C   UNL A   1      30.669  23.678  26.429  1.00  0.00     0.227 C 
ATOM     13  C   UNL A   1      32.522  24.171  24.830  1.00  0.00     0.066 A 
ATOM     14  O   UNL A   1      29.762  24.070  27.171  1.00  0.00    -0.274 OA
ATOM     15  C   UNL A   1      30.786  22.206  26.191  1.00  0.00     0.119 C 
ATOM     16  C   UNL A   1      32.502  22.831  24.382  1.00  0.00    -0.010 A 
ATOM     17  C   UNL A   1      33.423  25.050  24.162  1.00  0.00     0.065 A 
ATOM     18  C   UNL A   1      33.327  22.409  23.311  1.00  0.00     0.007 A 
ATOM     19  C   UNL A   1      34.256  24.594  23.125  1.00  0.00     0.023 A 
ATOM     20  Cl  UNL A   1      33.604  26.751  24.455  1.00  0.00    -0.082 Cl
ATOM     21  C   UNL A   1      34.209  23.279  22.697  1.00  0.00     0.002 A 
ENDBRANCH   6   9
ENDBRANCH   4   5
ENDBRANCH   3   4
ENDBRANCH   2   3
ENDBRANCH   1   2
BRANCH   1  22
ATOM     22  N   UNL A   1      38.225  20.509  25.551  1.00  0.00    -0.352 N 
ATOM     23  C   UNL A   1      39.466  20.635  26.126  1.00  0.00     0.251 C 
ATOM     24  H   UNL A   1      37.933  19.591  25.354  1.00  0.00     0.163 HD
ATOM     25  O   UNL A   1      40.201  19.660  26.245  1.00  0.00    -0.269 OA
BRANCH  23  26
ATOM     26  C   UNL A   1      39.909  21.967  26.578  1.00  0.00     0.039 A 
ATOM     27  C   UNL A   1      40.997  22.061  27.448  1.00  0.00     0.014 A 
ATOM     28  C   UNL A   1      39.277  23.116  26.091  1.00  0.00     0.014 A 
ATOM     29  C   UNL A   1      41.495  23.321  27.786  1.00  0.00     0.010 A 
ATOM     30  C   UNL A   1      39.805  24.367  26.392  1.00  0.00     0.010 A 
ATOM     31  C   UNL A   1      40.917  24.478  27.241  1.00  0.00    -0.014 A 
BRANCH  31  32
ATOM     32  C   UNL A   1      41.454  25.822  27.554  1.00  0.00     0.031 A 
ATOM     33  C   UNL A   1      42.844  26.188  27.117  1.00  0.00     0.074 A 
ATOM     34  C   UNL A   1      40.720  26.684  28.284  1.00  0.00     0.049 A 
ATOM     35  N   UNL A   1      43.504  27.295  27.328  1.00  0.00    -0.248 NA
ATOM     36  C   UNL A   1      43.596  25.173  26.361  1.00  0.00     0.031 C 
ATOM     37  C   UNL A   1      39.378  26.420  28.810  1.00  0.00     0.029 A 
ATOM     38  N   UNL A   1      41.006  27.952  28.724  1.00  0.00    -0.354 N 
ATOM     39  C   UNL A   1      44.755  27.102  26.758  1.00  0.00     0.074 A 
ATOM     40  C   UNL A   1      44.773  25.764  26.209  1.00  0.00     0.031 C 
ATOM     41  C   UNL A   1      38.953  27.500  29.489  1.00  0.00     0.029 A 
ATOM     42  C   UNL A   1      39.996  28.521  29.462  1.00  0.00     0.049 A 
ATOM     43  H   UNL A   1      41.855  28.409  28.530  1.00  0.00     0.167 HD
ATOM     44  C   UNL A   1      45.785  27.973  26.670  1.00  0.00     0.034 A 
ATOM     45  C   UNL A   1      39.915  29.737  30.040  1.00  0.00     0.034 A 
ATOM     46  C   UNL A   1      45.746  29.322  27.158  1.00  0.00     0.049 A 
ATOM     47  C   UNL A   1      41.066  30.695  29.901  1.00  0.00     0.074 A 
ATOM     48  C   UNL A   1      46.710  30.305  27.038  1.00  0.00     0.029 A 
ATOM     49  N   UNL A   1      44.684  29.879  27.853  1.00  0.00    -0.354 N 
ATOM     50  N   UNL A   1      42.190  30.539  29.247  1.00  0.00    -0.248 NA
ATOM     51  C   UNL A   1      40.927  32.006  30.556  1.00  0.00     0.031 C 
ATOM     52  C   UNL A   1      46.231  31.462  27.659  1.00  0.00     0.029 A 
ATOM     53  C   UNL A   1      44.970  31.194  28.168  1.00  0.00     0.049 A 
ATOM     54  H   UNL A   1      43.852  29.408  28.087  1.00  0.00     0.167 HD
ATOM     55  C   UNL A   1      42.880  31.737  29.384  1.00  0.00     0.074 A 
ATOM     56  C   UNL A   1      42.046  32.614  30.179  1.00  0.00     0.031 C 
ATOM     57  C   UNL A   1      44.103  32.073  28.908  1.00  0.00     0.034 A 
BRANCH  44  58
ATOM     58  C   UNL A   1      47.022  27.524  25.948  1.00  0.00     0.023 A 
ATOM     59  C   UNL A   1      47.980  26.764  26.649  1.00  0.00     0.012 A 
ATOM     60  C   UNL A   1      47.197  27.773  24.575  1.00  0.00     0.148 A 
ATOM     61  C   UNL A   1      49.101  26.262  25.993  1.00  0.00     0.002 A 
ATOM     62  C   UNL A   1      48.305  27.248  23.921  1.00  0.00     0.091 A 
ATOM     63  F   UNL A   1      46.276  28.512  23.938  1.00  0.00    -0.205 F 
ATOM     64  C   UNL A   1      49.258  26.496  24.630  1.00  0.00     0.022 A 
BRANCH  62  65
ATOM     65  S   UNL A   1      48.586  27.453  22.159  1.00  0.00     0.127 S 
ATOM     66  O   UNL A   1      47.411  28.229  21.763  1.00  0.00    -0.237 OA
ATOM     67  O   UNL A   1      49.845  28.197  22.137  1.00  0.00    -0.237 OA
ATOM     68  O   UNL A   1      48.654  26.110  21.601  1.00  0.00    -0.744 OA
ENDBRANCH  62  65
ENDBRANCH  44  58
BRANCH  45  69
ATOM     69  C   UNL A   1      38.657  30.149  30.719  1.00  0.00     0.023 A 
ATOM     70  C   UNL A   1      38.467  29.788  32.067  1.00  0.00     0.012 A 
ATOM     71  C   UNL A   1      37.681  30.924  30.066  1.00  0.00     0.148 A 
ATOM     72  C   UNL A   1      37.317  30.179  32.752  1.00  0.00     0.002 A 
ATOM     73  C   UNL A   1      36.552  31.340  30.765  1.00  0.00     0.091 A 
ATOM     74  F   UNL A   1      37.884  31.248  28.782  1.00  0.00    -0.205 F 
ATOM     75  C   UNL A   1      36.364  30.960  32.104  1.00  0.00     0.022 A 
BRANCH  73  76
ATOM     76  S   UNL A   1      35.310  32.422  30.048  1.00  0.00     0.127 S 
ATOM     77  O   UNL A   1      34.776  31.592  28.972  1.00  0.00    -0.237 OA
ATOM     78  O   UNL A   1      34.403  32.624  31.179  1.00  0.00    -0.237 OA
ATOM     79  O   UNL A   1      36.025  33.618  29.625  1.00  0.00    -0.744 OA
ENDBRANCH  73  76
ENDBRANCH  45  69
BRANCH  57  80
ATOM     80  C   UNL A   1      44.628  33.447  29.206  1.00  0.00     0.023 A 
ATOM     81  C   UNL A   1      45.326  33.669  30.409  1.00  0.00     0.012 A 
ATOM     82  C   UNL A   1      44.561  34.469  28.239  1.00  0.00     0.148 A 
ATOM     83  C   UNL A   1      45.948  34.892  30.647  1.00  0.00     0.002 A 
ATOM     84  C   UNL A   1      45.212  35.674  28.470  1.00  0.00     0.091 A 
ATOM     85  F   UNL A   1      43.882  34.233  27.107  1.00  0.00    -0.205 F 
ATOM     86  C   UNL A   1      45.903  35.888  29.674  1.00  0.00     0.022 A 
BRANCH  84  87
ATOM     87  S   UNL A   1      45.279  36.987  27.245  1.00  0.00     0.127 S 
ATOM     88  O   UNL A   1      46.008  36.341  26.156  1.00  0.00    -0.237 OA
ATOM     89  O   UNL A   1      43.862  37.229  26.974  1.00  0.00    -0.237 OA
ATOM     90  O   UNL A   1      45.972  38.099  27.883  1.00  0.00    -0.744 OA
ENDBRANCH  84  87
ENDBRANCH  57  80
ENDBRANCH  31  32
ENDBRANCH  23  26
ENDBRANCH   1  22
TORSDOF 14
ENDMDL
MODEL 2
REMARK VINA RESULT:     -12.9      5.421     10.469
REMARK SMILES CN1C(=O)C[C@H](C(=O)NCCCCNC(=O)c2ccc(-c3c4nc(c(-c5cccc(S(=O)(=O)[O-])c5F)c5ccc([nH]5)c(-c5cccc(S(=O)(=O)[O-])c5F)c5nc(c(-c6cccc(S(=O)(=O)[O-])c6F)c6ccc3[nH]6)C=C5)C=C4)cc2)c2cccc(Cl)c21
REMARK SMILES IDX 13 1 12 2 11 3 10 4 9 5 7 6 8 7 6 9 1 10 2 11 3 12 86 13
REMARK SMILES IDX 4 14 5 15 80 16 84 17 81 18 83 19 85 20 82 21 14 22 15 23
REMARK SMILES IDX 16 25 17 26 18 27 79 28 19 29 78 30 20 31 21 32 22 33 72 34
REMARK SMILES IDX 23 35 77 36 71 37 73 38 24 39 76 40 70 41 69 42 25 44 57 45
REMARK SMILES IDX 37 46 56 47 38 48 41 49 55 50 74 51 39 52 40 53 54 55 75 56
REMARK SMILES IDX 42 57 26 58 27 59 35 60 28 61 30 62 36 63 29 64 31 65 32 66
REMARK SMILES IDX 33 67 34 68 58 69 59 70 67 71 60 72 62 73 68 74 61 75 63 76
REMARK SMILES IDX 64 77 65 78 66 79 43 80 44 81 52 82 45 83 47 84 53 85 46 86
REMARK SMILES IDX 48 87 49 88 50 89 51 90
REMARK H PARENT 9 8 14 24 73 43 41 54
REMARK Flexibility Score: inf
ROOT
ATOM      1  C   UNL A   1      32.874  30.064  26.602  1.00  0.00     0.116 C 
ENDROOT
BRANCH   1   2
ATOM      2  C   UNL A   1      32.468  29.701  25.177  1.00  0.00     0.023 C 
BRANCH   2   3
ATOM      3  C   UNL A   1      33.471  28.829  24.421  1.00  0.00     0.023 C 
BRANCH   3   4
ATOM      4  C   UNL A   1      33.259  28.772  22.913  1.00  0.00     0.116 C 
BRANCH   4   5
ATOM      5  N   UNL A   1      31.895  29.090  22.532  1.00  0.00    -0.356 N 
ATOM      6  C   UNL A   1      30.822  28.267  22.350  1.00  0.00     0.228 C 
ATOM      7  O   UNL A   1      29.731  28.783  22.095  1.00  0.00    -0.274 OA
ATOM      8  H   UNL A   1      31.717  30.047  22.383  1.00  0.00     0.163 HD
BRANCH   6   9
ATOM      9  C   UNL A   1      30.950  26.743  22.447  1.00  0.00     0.120 C 
ATOM     10  C   UNL A   1      34.267  24.043  23.225  1.00  0.00     0.153 C 
ATOM     11  N   UNL A   1      33.096  24.882  23.020  1.00  0.00    -0.314 N 
ATOM     12  C   UNL A   1      32.779  25.126  21.689  1.00  0.00     0.227 C 
ATOM     13  C   UNL A   1      32.321  25.378  24.131  1.00  0.00     0.066 A 
ATOM     14  O   UNL A   1      33.298  24.504  20.756  1.00  0.00    -0.274 OA
ATOM     15  C   UNL A   1      31.864  26.258  21.348  1.00  0.00     0.119 C 
ATOM     16  C   UNL A   1      31.264  26.272  23.848  1.00  0.00    -0.010 A 
ATOM     17  C   UNL A   1      32.516  25.041  25.501  1.00  0.00     0.065 A 
ATOM     18  C   UNL A   1      30.442  26.778  24.883  1.00  0.00     0.007 A 
ATOM     19  C   UNL A   1      31.706  25.587  26.512  1.00  0.00     0.023 A 
ATOM     20  Cl  UNL A   1      33.685  23.920  26.125  1.00  0.00    -0.082 Cl
ATOM     21  C   UNL A   1      30.669  26.451  26.207  1.00  0.00     0.002 A 
ENDBRANCH   6   9
ENDBRANCH   4   5
ENDBRANCH   3   4
ENDBRANCH   2   3
ENDBRANCH   1   2
BRANCH   1  22
ATOM     22  N   UNL A   1      32.784  31.495  26.865  1.00  0.00    -0.352 N 
ATOM     23  C   UNL A   1      33.644  32.283  27.592  1.00  0.00     0.251 C 
ATOM     24  H   UNL A   1      32.008  31.955  26.472  1.00  0.00     0.163 HD
ATOM     25  O   UNL A   1      33.364  33.451  27.838  1.00  0.00    -0.269 OA
BRANCH  23  26
ATOM     26  C   UNL A   1      34.900  31.692  28.089  1.00  0.00     0.039 A 
ATOM     27  C   UNL A   1      36.056  32.474  28.111  1.00  0.00     0.014 A 
ATOM     28  C   UNL A   1      34.909  30.383  28.584  1.00  0.00     0.014 A 
ATOM     29  C   UNL A   1      37.218  31.961  28.689  1.00  0.00     0.010 A 
ATOM     30  C   UNL A   1      36.055  29.893  29.202  1.00  0.00     0.010 A 
ATOM     31  C   UNL A   1      37.217  30.678  29.259  1.00  0.00    -0.014 A 
BRANCH  31  32
ATOM     32  C   UNL A   1      38.427  30.129  29.913  1.00  0.00     0.031 A 
ATOM     33  C   UNL A   1      38.807  30.600  31.288  1.00  0.00     0.074 A 
ATOM     34  C   UNL A   1      39.214  29.263  29.247  1.00  0.00     0.049 A 
ATOM     35  N   UNL A   1      39.845  30.270  32.009  1.00  0.00    -0.248 NA
ATOM     36  C   UNL A   1      37.916  31.582  31.929  1.00  0.00     0.031 C 
ATOM     37  C   UNL A   1      38.975  28.774  27.886  1.00  0.00     0.029 A 
ATOM     38  N   UNL A   1      40.384  28.651  29.619  1.00  0.00    -0.354 N 
ATOM     39  C   UNL A   1      39.749  31.020  33.173  1.00  0.00     0.074 A 
ATOM     40  C   UNL A   1      38.564  31.840  33.057  1.00  0.00     0.031 C 
ATOM     41  C   UNL A   1      39.962  27.927  27.545  1.00  0.00     0.029 A 
ATOM     42  C   UNL A   1      40.908  27.826  28.652  1.00  0.00     0.049 A 
ATOM     43  H   UNL A   1      40.809  28.789  30.496  1.00  0.00     0.167 HD
ATOM     44  C   UNL A   1      40.558  31.003  34.255  1.00  0.00     0.034 A 
ATOM     45  C   UNL A   1      42.021  27.065  28.663  1.00  0.00     0.034 A 
ATOM     46  C   UNL A   1      41.699  30.144  34.398  1.00  0.00     0.049 A 
ATOM     47  C   UNL A   1      42.886  27.044  29.893  1.00  0.00     0.074 A 
ATOM     48  C   UNL A   1      42.528  29.995  35.495  1.00  0.00     0.029 A 
ATOM     49  N   UNL A   1      42.166  29.284  33.417  1.00  0.00    -0.354 N 
ATOM     50  N   UNL A   1      42.707  27.664  31.033  1.00  0.00    -0.248 NA
ATOM     51  C   UNL A   1      44.091  26.200  29.849  1.00  0.00     0.031 C 
ATOM     52  C   UNL A   1      43.499  29.041  35.179  1.00  0.00     0.029 A 
ATOM     53  C   UNL A   1      43.274  28.601  33.884  1.00  0.00     0.049 A 
ATOM     54  H   UNL A   1      41.770  29.177  32.523  1.00  0.00     0.167 HD
ATOM     55  C   UNL A   1      43.756  27.265  31.853  1.00  0.00     0.074 A 
ATOM     56  C   UNL A   1      44.565  26.343  31.081  1.00  0.00     0.031 C 
ATOM     57  C   UNL A   1      44.032  27.642  33.124  1.00  0.00     0.034 A 
BRANCH  44  58
ATOM     58  C   UNL A   1      40.196  31.886  35.415  1.00  0.00     0.023 A 
ATOM     59  C   UNL A   1      40.864  33.117  35.566  1.00  0.00     0.012 A 
ATOM     60  C   UNL A   1      39.150  31.546  36.291  1.00  0.00     0.148 A 
ATOM     61  C   UNL A   1      40.500  33.997  36.581  1.00  0.00     0.002 A 
ATOM     62  C   UNL A   1      38.776  32.441  37.286  1.00  0.00     0.091 A 
ATOM     63  F   UNL A   1      38.542  30.361  36.131  1.00  0.00    -0.205 F 
ATOM     64  C   UNL A   1      39.452  33.664  37.434  1.00  0.00     0.022 A 
BRANCH  62  65
ATOM     65  S   UNL A   1      37.412  32.132  38.415  1.00  0.00     0.127 S 
ATOM     66  O   UNL A   1      37.945  32.658  39.671  1.00  0.00    -0.237 OA
ATOM     67  O   UNL A   1      36.340  32.931  37.822  1.00  0.00    -0.237 OA
ATOM     68  O   UNL A   1      37.190  30.693  38.395  1.00  0.00    -0.744 OA
ENDBRANCH  62  65
ENDBRANCH  44  58
BRANCH  45  69
ATOM     69  C   UNL A   1      42.323  26.183  27.504  1.00  0.00     0.023 A 
ATOM     70  C   UNL A   1      43.040  26.719  26.417  1.00  0.00     0.012 A 
ATOM     71  C   UNL A   1      41.953  24.826  27.486  1.00  0.00     0.148 A 
ATOM     72  C   UNL A   1      43.373  25.921  25.322  1.00  0.00     0.002 A 
ATOM     73  C   UNL A   1      42.316  24.026  26.407  1.00  0.00     0.091 A 
ATOM     74  F   UNL A   1      41.266  24.343  28.531  1.00  0.00    -0.205 F 
ATOM     75  C   UNL A   1      43.018  24.575  25.321  1.00  0.00     0.022 A 
BRANCH  73  76
ATOM     76  S   UNL A   1      41.985  22.262  26.350  1.00  0.00     0.127 S 
ATOM     77  O   UNL A   1      40.529  22.235  26.237  1.00  0.00    -0.237 OA
ATOM     78  O   UNL A   1      42.706  21.863  25.140  1.00  0.00    -0.237 OA
ATOM     79  O   UNL A   1      42.530  21.717  27.586  1.00  0.00    -0.744 OA
ENDBRANCH  73  76
ENDBRANCH  45  69
BRANCH  57  80
ATOM     80  C   UNL A   1      45.245  27.059  33.790  1.00  0.00     0.023 A 
ATOM     81  C   UNL A   1      46.473  27.742  33.696  1.00  0.00     0.012 A 
ATOM     82  C   UNL A   1      45.137  25.928  34.621  1.00  0.00     0.148 A 
ATOM     83  C   UNL A   1      47.579  27.304  34.421  1.00  0.00     0.002 A 
ATOM     84  C   UNL A   1      46.235  25.517  35.366  1.00  0.00     0.091 A 
ATOM     85  F   UNL A   1      43.957  25.292  34.683  1.00  0.00    -0.205 F 
ATOM     86  C   UNL A   1      47.457  26.203  35.265  1.00  0.00     0.022 A 
BRANCH  84  87
ATOM     87  S   UNL A   1      46.154  24.160  36.541  1.00  0.00     0.127 S 
ATOM     88  O   UNL A   1      46.035  23.005  35.653  1.00  0.00    -0.237 OA
ATOM     89  O   UNL A   1      47.440  24.271  37.230  1.00  0.00    -0.237 OA
ATOM     90  O   UNL A   1      44.993  24.421  37.380  1.00  0.00    -0.744 OA
ENDBRANCH  84  87
ENDBRANCH  57  80
ENDBRANCH  31  32
ENDBRANCH  23  26
ENDBRANCH   1  22
TORSDOF 14
ENDMDL
MODEL 3
REMARK VINA RESULT:     -12.9      5.317      7.764
REMARK SMILES CN1C(=O)C[C@H](C(=O)NCCCCNC(=O)c2ccc(-c3c4nc(c(-c5cccc(S(=O)(=O)[O-])c5F)c5ccc([nH]5)c(-c5cccc(S(=O)(=O)[O-])c5F)c5nc(c(-c6cccc(S(=O)(=O)[O-])c6F)c6ccc3[nH]6)C=C5)C=C4)cc2)c2cccc(Cl)c21
REMARK SMILES IDX 13 1 12 2 11 3 10 4 9 5 7 6 8 7 6 9 1 10 2 11 3 12 86 13
REMARK SMILES IDX 4 14 5 15 80 16 84 17 81 18 83 19 85 20 82 21 14 22 15 23
REMARK SMILES IDX 16 25 17 26 18 27 79 28 19 29 78 30 20 31 21 32 22 33 72 34
REMARK SMILES IDX 23 35 77 36 71 37 73 38 24 39 76 40 70 41 69 42 25 44 57 45
REMARK SMILES IDX 37 46 56 47 38 48 41 49 55 50 74 51 39 52 40 53 54 55 75 56
REMARK SMILES IDX 42 57 26 58 27 59 35 60 28 61 30 62 36 63 29 64 31 65 32 66
REMARK SMILES IDX 33 67 34 68 58 69 59 70 67 71 60 72 62 73 68 74 61 75 63 76
REMARK SMILES IDX 64 77 65 78 66 79 43 80 44 81 52 82 45 83 47 84 53 85 46 86
REMARK SMILES IDX 48 87 49 88 50 89 51 90
REMARK H PARENT 9 8 14 24 73 43 41 54
REMARK Flexibility Score: inf
ROOT
ATOM      1  C   UNL A   1      32.895  29.447  25.290  1.00  0.00     0.116 C 
ENDROOT
BRANCH   1   2
ATOM      2  C   UNL A   1      31.856  28.334  25.193  1.00  0.00     0.023 C 
BRANCH   2   3
ATOM      3  C   UNL A   1      32.212  27.050  25.943  1.00  0.00     0.023 C 
BRANCH   3   4
ATOM      4  C   UNL A   1      33.634  26.549  25.715  1.00  0.00     0.116 C 
BRANCH   4   5
ATOM      5  N   UNL A   1      33.821  25.998  24.385  1.00  0.00    -0.356 N 
ATOM      6  C   UNL A   1      33.892  24.697  23.977  1.00  0.00     0.228 C 
ATOM      7  O   UNL A   1      33.983  24.471  22.768  1.00  0.00    -0.274 OA
ATOM      8  H   UNL A   1      33.910  26.665  23.666  1.00  0.00     0.163 HD
BRANCH   6   9
ATOM      9  C   UNL A   1      33.869  23.537  24.979  1.00  0.00     0.120 C 
ATOM     10  C   UNL A   1      34.087  19.214  24.588  1.00  0.00     0.153 C 
ATOM     11  N   UNL A   1      34.071  20.652  24.806  1.00  0.00    -0.314 N 
ATOM     12  C   UNL A   1      32.804  21.216  24.889  1.00  0.00     0.227 C 
ATOM     13  C   UNL A   1      35.292  21.405  24.958  1.00  0.00     0.066 A 
ATOM     14  O   UNL A   1      31.778  20.536  25.001  1.00  0.00    -0.274 OA
ATOM     15  C   UNL A   1      32.645  22.693  24.722  1.00  0.00     0.119 C 
ATOM     16  C   UNL A   1      35.191  22.810  25.059  1.00  0.00    -0.010 A 
ATOM     17  C   UNL A   1      36.606  20.857  25.025  1.00  0.00     0.065 A 
ATOM     18  C   UNL A   1      36.343  23.612  25.238  1.00  0.00     0.007 A 
ATOM     19  C   UNL A   1      37.736  21.682  25.168  1.00  0.00     0.023 A 
ATOM     20  Cl  UNL A   1      37.018  19.172  24.999  1.00  0.00    -0.082 Cl
ATOM     21  C   UNL A   1      37.608  23.055  25.277  1.00  0.00     0.002 A 
ENDBRANCH   6   9
ENDBRANCH   4   5
ENDBRANCH   3   4
ENDBRANCH   2   3
ENDBRANCH   1   2
BRANCH   1  22
ATOM     22  N   UNL A   1      32.338  30.692  25.804  1.00  0.00    -0.352 N 
ATOM     23  C   UNL A   1      32.799  31.466  26.842  1.00  0.00     0.251 C 
ATOM     24  H   UNL A   1      31.529  31.019  25.350  1.00  0.00     0.163 HD
ATOM     25  O   UNL A   1      32.145  32.421  27.247  1.00  0.00    -0.269 OA
BRANCH  23  26
ATOM     26  C   UNL A   1      34.083  31.114  27.475  1.00  0.00     0.039 A 
ATOM     27  C   UNL A   1      35.035  32.114  27.682  1.00  0.00     0.014 A 
ATOM     28  C   UNL A   1      34.311  29.804  27.911  1.00  0.00     0.014 A 
ATOM     29  C   UNL A   1      36.201  31.813  28.386  1.00  0.00     0.010 A 
ATOM     30  C   UNL A   1      35.453  29.519  28.653  1.00  0.00     0.010 A 
ATOM     31  C   UNL A   1      36.406  30.521  28.896  1.00  0.00    -0.014 A 
BRANCH  31  32
ATOM     32  C   UNL A   1      37.617  30.190  29.680  1.00  0.00     0.031 A 
ATOM     33  C   UNL A   1      38.660  29.284  29.090  1.00  0.00     0.074 A 
ATOM     34  C   UNL A   1      37.746  30.648  30.940  1.00  0.00     0.049 A 
ATOM     35  N   UNL A   1      39.767  28.848  29.630  1.00  0.00    -0.248 NA
ATOM     36  C   UNL A   1      38.423  28.791  27.723  1.00  0.00     0.031 C 
ATOM     37  C   UNL A   1      36.772  31.492  31.638  1.00  0.00     0.029 A 
ATOM     38  N   UNL A   1      38.742  30.456  31.863  1.00  0.00    -0.354 N 
ATOM     39  C   UNL A   1      40.342  28.009  28.686  1.00  0.00     0.074 A 
ATOM     40  C   UNL A   1      39.455  27.979  27.544  1.00  0.00     0.031 C 
ATOM     41  C   UNL A   1      37.228  31.755  32.876  1.00  0.00     0.029 A 
ATOM     42  C   UNL A   1      38.513  31.087  33.063  1.00  0.00     0.049 A 
ATOM     43  H   UNL A   1      39.546  29.917  31.684  1.00  0.00     0.167 HD
ATOM     44  C   UNL A   1      41.520  27.350  28.750  1.00  0.00     0.034 A 
ATOM     45  C   UNL A   1      39.262  31.132  34.183  1.00  0.00     0.034 A 
ATOM     46  C   UNL A   1      42.431  27.430  29.856  1.00  0.00     0.049 A 
ATOM     47  C   UNL A   1      40.582  30.412  34.215  1.00  0.00     0.074 A 
ATOM     48  C   UNL A   1      43.688  26.865  29.974  1.00  0.00     0.029 A 
ATOM     49  N   UNL A   1      42.187  28.123  31.031  1.00  0.00    -0.354 N 
ATOM     50  N   UNL A   1      41.168  29.729  33.262  1.00  0.00    -0.248 NA
ATOM     51  C   UNL A   1      41.356  30.490  35.464  1.00  0.00     0.031 C 
ATOM     52  C   UNL A   1      44.207  27.218  31.222  1.00  0.00     0.029 A 
ATOM     53  C   UNL A   1      43.271  27.999  31.880  1.00  0.00     0.049 A 
ATOM     54  H   UNL A   1      41.365  28.626  31.230  1.00  0.00     0.167 HD
ATOM     55  C   UNL A   1      42.390  29.321  33.783  1.00  0.00     0.074 A 
ATOM     56  C   UNL A   1      42.465  29.838  35.134  1.00  0.00     0.031 C 
ATOM     57  C   UNL A   1      43.354  28.571  33.199  1.00  0.00     0.034 A 
BRANCH  44  58
ATOM     58  C   UNL A   1      41.938  26.542  27.555  1.00  0.00     0.023 A 
ATOM     59  C   UNL A   1      42.572  27.197  26.481  1.00  0.00     0.012 A 
ATOM     60  C   UNL A   1      41.787  25.144  27.531  1.00  0.00     0.148 A 
ATOM     61  C   UNL A   1      43.045  26.470  25.392  1.00  0.00     0.002 A 
ATOM     62  C   UNL A   1      42.284  24.423  26.452  1.00  0.00     0.091 A 
ATOM     63  F   UNL A   1      41.167  24.551  28.562  1.00  0.00    -0.205 F 
ATOM     64  C   UNL A   1      42.909  25.085  25.381  1.00  0.00     0.022 A 
BRANCH  62  65
ATOM     65  S   UNL A   1      42.201  22.631  26.355  1.00  0.00     0.127 S 
ATOM     66  O   UNL A   1      43.064  22.236  27.467  1.00  0.00    -0.237 OA
ATOM     67  O   UNL A   1      40.775  22.381  26.570  1.00  0.00    -0.237 OA
ATOM     68  O   UNL A   1      42.696  22.274  25.034  1.00  0.00    -0.744 OA
ENDBRANCH  62  65
ENDBRANCH  44  58
BRANCH  45  69
ATOM     69  C   UNL A   1      38.823  31.970  35.331  1.00  0.00     0.023 A 
ATOM     70  C   UNL A   1      38.943  33.369  35.231  1.00  0.00     0.012 A 
ATOM     71  C   UNL A   1      38.252  31.406  36.487  1.00  0.00     0.148 A 
ATOM     72  C   UNL A   1      38.516  34.196  36.270  1.00  0.00     0.002 A 
ATOM     73  C   UNL A   1      37.797  32.236  37.506  1.00  0.00     0.091 A 
ATOM     74  F   UNL A   1      38.155  30.072  36.559  1.00  0.00    -0.205 F 
ATOM     75  C   UNL A   1      37.937  33.631  37.403  1.00  0.00     0.022 A 
BRANCH  73  76
ATOM     76  S   UNL A   1      36.956  31.613  38.965  1.00  0.00     0.127 S 
ATOM     77  O   UNL A   1      37.949  31.854  40.008  1.00  0.00    -0.237 OA
ATOM     78  O   UNL A   1      35.777  32.479  39.023  1.00  0.00    -0.237 OA
ATOM     79  O   UNL A   1      36.664  30.214  38.685  1.00  0.00    -0.744 OA
ENDBRANCH  73  76
ENDBRANCH  45  69
BRANCH  57  80
ATOM     80  C   UNL A   1      44.592  28.264  33.991  1.00  0.00     0.023 A 
ATOM     81  C   UNL A   1      45.658  29.184  33.981  1.00  0.00     0.012 A 
ATOM     82  C   UNL A   1      44.639  27.150  34.851  1.00  0.00     0.148 A 
ATOM     83  C   UNL A   1      46.757  28.998  34.816  1.00  0.00     0.002 A 
ATOM     84  C   UNL A   1      45.723  26.989  35.705  1.00  0.00     0.091 A 
ATOM     85  F   UNL A   1      43.614  26.286  34.832  1.00  0.00    -0.205 F 
ATOM     86  C   UNL A   1      46.784  27.911  35.687  1.00  0.00     0.022 A 
BRANCH  84  87
ATOM     87  S   UNL A   1      45.811  25.667  36.917  1.00  0.00     0.127 S 
ATOM     88  O   UNL A   1      45.944  24.488  36.063  1.00  0.00    -0.237 OA
ATOM     89  O   UNL A   1      47.017  26.015  37.669  1.00  0.00    -0.237 OA
ATOM     90  O   UNL A   1      44.576  25.741  37.686  1.00  0.00    -0.744 OA
ENDBRANCH  84  87
ENDBRANCH  57  80
ENDBRANCH  31  32
ENDBRANCH  23  26
ENDBRANCH   1  22
TORSDOF 14
ENDMDL
