MODEL 1
REMARK VINA RESULT:     -12.8      0.000      0.000
REMARK SMILES C[C@@H]1[C@H](C(=O)NCCCCNC(=O)c2ccc(-c3c4nc(c(-c5cccc(S(=O)(=O)[O-])c5F)c5ccc([nH]5)c(-c5cccc(S(=O)(=O)[O-])c5F)c5nc(c(-c6cccc(S(=O)(=O)[O-])c6F)c6ccc3[nH]6)C=C5)C=C4)cc2)CCN1S(=O)(=O)c1cc(F)cc(F)c1
REMARK SMILES IDX 9 1 8 2 7 3 6 4 4 5 5 6 3 8 1 9 2 10 79 11 77 12 78 13 80 14
REMARK SMILES IDX 81 15 82 16 83 17 84 18 90 19 85 20 88 21 86 22 87 23 89 24
REMARK SMILES IDX 10 25 11 26 12 27 13 29 14 30 15 31 76 32 16 33 75 34 17 35
REMARK SMILES IDX 18 36 19 37 69 38 20 39 74 40 68 41 70 42 21 43 73 44 67 45
REMARK SMILES IDX 66 46 22 48 54 49 34 50 53 51 35 52 38 53 52 54 71 55 36 56
REMARK SMILES IDX 37 57 51 59 72 60 39 61 23 62 24 63 32 64 25 65 27 66 33 67
REMARK SMILES IDX 26 68 28 69 29 70 30 71 31 72 55 73 56 74 64 75 57 76 59 77
REMARK SMILES IDX 65 78 58 79 60 80 61 81 62 82 63 83 40 84 41 85 49 86 42 87
REMARK SMILES IDX 44 88 50 89 43 90 45 91 46 92 47 93 48 94
REMARK H PARENT 6 7 11 28 70 47 38 58
REMARK Flexibility Score: inf
ROOT
ATOM      1  C   UNL A   1      31.761  29.359  25.697  1.00  0.00     0.023 C 
ENDROOT
BRANCH   1   2
ATOM      2  C   UNL A   1      31.852  29.009  24.227  1.00  0.00     0.023 C 
BRANCH   2   3
ATOM      3  C   UNL A   1      33.251  28.985  23.599  1.00  0.00     0.116 C 
BRANCH   3   4
ATOM      4  N   UNL A   1      33.440  27.862  22.691  1.00  0.00    -0.356 N 
ATOM      5  C   UNL A   1      33.677  26.536  22.847  1.00  0.00     0.224 C 
ATOM      6  O   UNL A   1      33.799  25.889  21.798  1.00  0.00    -0.275 OA
ATOM      7  H   UNL A   1      33.382  28.127  21.744  1.00  0.00     0.163 HD
BRANCH   5   8
ATOM      8  C   UNL A   1      33.835  25.783  24.170  1.00  0.00     0.098 C 
ATOM      9  C   UNL A   1      31.369  25.148  24.182  1.00  0.00     0.026 C 
ATOM     10  C   UNL A   1      32.576  25.489  25.009  1.00  0.00     0.082 C 
ATOM     11  N   UNL A   1      32.992  24.426  26.000  1.00  0.00    -0.194 NA
ATOM     12  C   UNL A   1      34.614  24.490  24.198  1.00  0.00     0.032 C 
ATOM     13  C   UNL A   1      34.403  24.028  25.633  1.00  0.00     0.104 C 
BRANCH  11  14
ATOM     14  S   UNL A   1      32.055  23.070  26.420  1.00  0.00     0.243 S 
ATOM     15  O   UNL A   1      32.408  22.714  27.779  1.00  0.00    -0.207 OA
ATOM     16  O   UNL A   1      30.683  23.407  26.090  1.00  0.00    -0.207 OA
BRANCH  14  17
ATOM     17  C   UNL A   1      32.443  21.660  25.413  1.00  0.00     0.088 A 
ATOM     18  C   UNL A   1      32.146  21.791  24.048  1.00  0.00     0.061 A 
ATOM     19  C   UNL A   1      32.904  20.442  25.906  1.00  0.00     0.061 A 
ATOM     20  C   UNL A   1      32.230  20.682  23.215  1.00  0.00     0.127 A 
ATOM     21  C   UNL A   1      32.916  19.334  25.059  1.00  0.00     0.127 A 
ATOM     22  F   UNL A   1      31.941  20.813  21.914  1.00  0.00    -0.207 F 
ATOM     23  C   UNL A   1      32.577  19.438  23.717  1.00  0.00     0.078 A 
ATOM     24  F   UNL A   1      33.224  18.132  25.564  1.00  0.00    -0.207 F 
ENDBRANCH  14  17
ENDBRANCH  11  14
ENDBRANCH   5   8
ENDBRANCH   3   4
ENDBRANCH   2   3
ENDBRANCH   1   2
BRANCH   1  25
ATOM     25  C   UNL A   1      32.997  30.020  26.263  1.00  0.00     0.116 C 
BRANCH  25  26
ATOM     26  N   UNL A   1      32.782  31.372  26.767  1.00  0.00    -0.352 N 
ATOM     27  C   UNL A   1      33.630  32.130  27.554  1.00  0.00     0.251 C 
ATOM     28  H   UNL A   1      31.929  31.796  26.518  1.00  0.00     0.163 HD
ATOM     29  O   UNL A   1      33.306  33.229  27.953  1.00  0.00    -0.269 OA
BRANCH  27  30
ATOM     30  C   UNL A   1      34.927  31.529  27.935  1.00  0.00     0.039 A 
ATOM     31  C   UNL A   1      36.055  32.346  28.027  1.00  0.00     0.014 A 
ATOM     32  C   UNL A   1      34.975  30.195  28.343  1.00  0.00     0.014 A 
ATOM     33  C   UNL A   1      37.215  31.840  28.614  1.00  0.00     0.010 A 
ATOM     34  C   UNL A   1      36.081  29.740  29.041  1.00  0.00     0.010 A 
ATOM     35  C   UNL A   1      37.221  30.549  29.167  1.00  0.00    -0.014 A 
BRANCH  35  36
ATOM     36  C   UNL A   1      38.411  29.988  29.849  1.00  0.00     0.031 A 
ATOM     37  C   UNL A   1      38.743  30.455  31.240  1.00  0.00     0.074 A 
ATOM     38  C   UNL A   1      39.249  29.164  29.187  1.00  0.00     0.049 A 
ATOM     39  N   UNL A   1      39.797  30.198  31.970  1.00  0.00    -0.248 NA
ATOM     40  C   UNL A   1      37.789  31.383  31.877  1.00  0.00     0.031 C 
ATOM     41  C   UNL A   1      39.092  28.723  27.799  1.00  0.00     0.029 A 
ATOM     42  N   UNL A   1      40.418  28.570  29.590  1.00  0.00    -0.354 N 
ATOM     43  C   UNL A   1      39.661  30.977  33.112  1.00  0.00     0.074 A 
ATOM     44  C   UNL A   1      38.454  31.756  32.958  1.00  0.00     0.031 C 
ATOM     45  C   UNL A   1      40.114  27.915  27.474  1.00  0.00     0.029 A 
ATOM     46  C   UNL A   1      41.010  27.796  28.620  1.00  0.00     0.049 A 
ATOM     47  H   UNL A   1      40.797  28.687  30.492  1.00  0.00     0.167 HD
ATOM     48  C   UNL A   1      40.443  31.008  34.216  1.00  0.00     0.034 A 
ATOM     49  C   UNL A   1      42.141  27.065  28.660  1.00  0.00     0.034 A 
ATOM     50  C   UNL A   1      41.579  30.151  34.405  1.00  0.00     0.049 A 
ATOM     51  C   UNL A   1      42.925  27.016  29.944  1.00  0.00     0.074 A 
ATOM     52  C   UNL A   1      42.377  30.015  35.526  1.00  0.00     0.029 A 
ATOM     53  N   UNL A   1      42.061  29.268  33.453  1.00  0.00    -0.354 N 
ATOM     54  N   UNL A   1      42.695  27.641  31.075  1.00  0.00    -0.248 NA
ATOM     55  C   UNL A   1      44.097  26.130  29.978  1.00  0.00     0.031 C 
ATOM     56  C   UNL A   1      43.340  29.037  35.252  1.00  0.00     0.029 A 
ATOM     57  C   UNL A   1      43.138  28.567  33.963  1.00  0.00     0.049 A 
ATOM     58  H   UNL A   1      41.693  29.156  32.548  1.00  0.00     0.167 HD
ATOM     59  C   UNL A   1      43.666  27.196  31.962  1.00  0.00     0.074 A 
ATOM     60  C   UNL A   1      44.478  26.234  31.244  1.00  0.00     0.031 C 
ATOM     61  C   UNL A   1      43.881  27.561  33.251  1.00  0.00     0.034 A 
BRANCH  48  62
ATOM     62  C   UNL A   1      40.032  31.932  35.329  1.00  0.00     0.023 A 
ATOM     63  C   UNL A   1      40.625  33.209  35.423  1.00  0.00     0.012 A 
ATOM     64  C   UNL A   1      39.055  31.554  36.269  1.00  0.00     0.148 A 
ATOM     65  C   UNL A   1      40.286  34.077  36.459  1.00  0.00     0.002 A 
ATOM     66  C   UNL A   1      38.689  32.443  37.274  1.00  0.00     0.091 A 
ATOM     67  F   UNL A   1      38.523  30.327  36.183  1.00  0.00    -0.205 F 
ATOM     68  C   UNL A   1      39.312  33.698  37.378  1.00  0.00     0.022 A 
BRANCH  66  69
ATOM     69  S   UNL A   1      37.389  32.075  38.458  1.00  0.00     0.127 S 
ATOM     70  O   UNL A   1      36.299  32.920  37.974  1.00  0.00    -0.237 OA
ATOM     71  O   UNL A   1      37.183  30.640  38.259  1.00  0.00    -0.237 OA
ATOM     72  O   UNL A   1      37.931  32.430  39.763  1.00  0.00    -0.744 OA
ENDBRANCH  66  69
ENDBRANCH  48  62
BRANCH  49  73
ATOM     73  C   UNL A   1      42.530  26.227  27.489  1.00  0.00     0.023 A 
ATOM     74  C   UNL A   1      43.348  26.790  26.490  1.00  0.00     0.012 A 
ATOM     75  C   UNL A   1      42.135  24.881  27.373  1.00  0.00     0.148 A 
ATOM     76  C   UNL A   1      43.743  26.040  25.382  1.00  0.00     0.002 A 
ATOM     77  C   UNL A   1      42.572  24.123  26.291  1.00  0.00     0.091 A 
ATOM     78  F   UNL A   1      41.348  24.365  28.326  1.00  0.00    -0.205 F 
ATOM     79  C   UNL A   1      43.364  24.704  25.288  1.00  0.00     0.022 A 
BRANCH  77  80
ATOM     80  S   UNL A   1      42.236  22.363  26.154  1.00  0.00     0.127 S 
ATOM     81  O   UNL A   1      42.966  22.012  24.939  1.00  0.00    -0.237 OA
ATOM     82  O   UNL A   1      42.815  21.842  27.393  1.00  0.00    -0.237 OA
ATOM     83  O   UNL A   1      40.785  22.250  26.082  1.00  0.00    -0.744 OA
ENDBRANCH  77  80
ENDBRANCH  49  73
BRANCH  61  84
ATOM     84  C   UNL A   1      45.011  26.895  33.987  1.00  0.00     0.023 A 
ATOM     85  C   UNL A   1      46.301  27.458  33.936  1.00  0.00     0.012 A 
ATOM     86  C   UNL A   1      44.772  25.773  34.804  1.00  0.00     0.148 A 
ATOM     87  C   UNL A   1      47.343  26.899  34.673  1.00  0.00     0.002 A 
ATOM     88  C   UNL A   1      45.806  25.248  35.569  1.00  0.00     0.091 A 
ATOM     89  F   UNL A   1      43.541  25.240  34.820  1.00  0.00    -0.205 F 
ATOM     90  C   UNL A   1      47.094  25.805  35.499  1.00  0.00     0.022 A 
BRANCH  88  91
ATOM     91  S   UNL A   1      45.543  23.901  36.728  1.00  0.00     0.127 S 
ATOM     92  O   UNL A   1      46.893  23.685  37.246  1.00  0.00    -0.237 OA
ATOM     93  O   UNL A   1      44.608  24.489  37.688  1.00  0.00    -0.237 OA
ATOM     94  O   UNL A   1      44.986  22.809  35.942  1.00  0.00    -0.744 OA
ENDBRANCH  88  91
ENDBRANCH  61  84
ENDBRANCH  35  36
ENDBRANCH  27  30
ENDBRANCH  25  26
ENDBRANCH   1  25
TORSDOF 16
ENDMDL
MODEL 2
REMARK VINA RESULT:     -12.7      1.354      2.135
REMARK SMILES C[C@@H]1[C@H](C(=O)NCCCCNC(=O)c2ccc(-c3c4nc(c(-c5cccc(S(=O)(=O)[O-])c5F)c5ccc([nH]5)c(-c5cccc(S(=O)(=O)[O-])c5F)c5nc(c(-c6cccc(S(=O)(=O)[O-])c6F)c6ccc3[nH]6)C=C5)C=C4)cc2)CCN1S(=O)(=O)c1cc(F)cc(F)c1
REMARK SMILES IDX 9 1 8 2 7 3 6 4 4 5 5 6 3 8 1 9 2 10 79 11 77 12 78 13 80 14
REMARK SMILES IDX 81 15 82 16 83 17 84 18 90 19 85 20 88 21 86 22 87 23 89 24
REMARK SMILES IDX 10 25 11 26 12 27 13 29 14 30 15 31 76 32 16 33 75 34 17 35
REMARK SMILES IDX 18 36 19 37 69 38 20 39 74 40 68 41 70 42 21 43 73 44 67 45
REMARK SMILES IDX 66 46 22 48 54 49 34 50 53 51 35 52 38 53 52 54 71 55 36 56
REMARK SMILES IDX 37 57 51 59 72 60 39 61 23 62 24 63 32 64 25 65 27 66 33 67
REMARK SMILES IDX 26 68 28 69 29 70 30 71 31 72 55 73 56 74 64 75 57 76 59 77
REMARK SMILES IDX 65 78 58 79 60 80 61 81 62 82 63 83 40 84 41 85 49 86 42 87
REMARK SMILES IDX 44 88 50 89 43 90 45 91 46 92 47 93 48 94
REMARK H PARENT 6 7 11 28 70 47 38 58
REMARK Flexibility Score: inf
ROOT
ATOM      1  C   UNL A   1      32.151  29.299  24.648  1.00  0.00     0.023 C 
ENDROOT
BRANCH   1   2
ATOM      2  C   UNL A   1      31.255  28.095  24.842  1.00  0.00     0.023 C 
BRANCH   2   3
ATOM      3  C   UNL A   1      30.186  27.839  23.772  1.00  0.00     0.116 C 
BRANCH   3   4
ATOM      4  N   UNL A   1      30.755  27.410  22.502  1.00  0.00    -0.356 N 
ATOM      5  C   UNL A   1      31.264  26.246  22.027  1.00  0.00     0.224 C 
ATOM      6  O   UNL A   1      31.681  26.283  20.862  1.00  0.00    -0.275 OA
ATOM      7  H   UNL A   1      30.775  28.133  21.832  1.00  0.00     0.163 HD
BRANCH   5   8
ATOM      8  C   UNL A   1      31.398  24.927  22.789  1.00  0.00     0.098 C 
ATOM      9  C   UNL A   1      33.681  25.603  23.695  1.00  0.00     0.026 C 
ATOM     10  C   UNL A   1      32.800  24.472  23.242  1.00  0.00     0.082 C 
ATOM     11  N   UNL A   1      32.560  23.396  24.275  1.00  0.00    -0.194 NA
ATOM     12  C   UNL A   1      30.517  24.671  23.988  1.00  0.00     0.032 C 
ATOM     13  C   UNL A   1      31.068  23.348  24.505  1.00  0.00     0.104 C 
BRANCH  11  14
ATOM     14  S   UNL A   1      33.417  23.245  25.738  1.00  0.00     0.243 S 
ATOM     15  O   UNL A   1      33.348  24.529  26.405  1.00  0.00    -0.207 OA
ATOM     16  O   UNL A   1      32.900  22.057  26.390  1.00  0.00    -0.207 OA
BRANCH  14  17
ATOM     17  C   UNL A   1      35.140  22.913  25.463  1.00  0.00     0.088 A 
ATOM     18  C   UNL A   1      35.455  21.586  25.129  1.00  0.00     0.061 A 
ATOM     19  C   UNL A   1      36.163  23.835  25.662  1.00  0.00     0.061 A 
ATOM     20  C   UNL A   1      36.783  21.183  25.086  1.00  0.00     0.127 A 
ATOM     21  C   UNL A   1      37.483  23.386  25.676  1.00  0.00     0.127 A 
ATOM     22  F   UNL A   1      37.077  19.915  24.771  1.00  0.00    -0.207 F 
ATOM     23  C   UNL A   1      37.807  22.065  25.395  1.00  0.00     0.078 A 
ATOM     24  F   UNL A   1      38.460  24.242  26.005  1.00  0.00    -0.207 F 
ENDBRANCH  14  17
ENDBRANCH  11  14
ENDBRANCH   5   8
ENDBRANCH   3   4
ENDBRANCH   2   3
ENDBRANCH   1   2
BRANCH   1  25
ATOM     25  C   UNL A   1      32.935  29.704  25.875  1.00  0.00     0.116 C 
BRANCH  25  26
ATOM     26  N   UNL A   1      32.571  31.007  26.422  1.00  0.00    -0.352 N 
ATOM     27  C   UNL A   1      33.308  31.806  27.277  1.00  0.00     0.251 C 
ATOM     28  H   UNL A   1      31.693  31.361  26.149  1.00  0.00     0.163 HD
ATOM     29  O   UNL A   1      32.864  32.852  27.703  1.00  0.00    -0.269 OA
BRANCH  27  30
ATOM     30  C   UNL A   1      34.639  31.312  27.694  1.00  0.00     0.039 A 
ATOM     31  C   UNL A   1      35.666  32.231  27.915  1.00  0.00     0.014 A 
ATOM     32  C   UNL A   1      34.806  29.963  28.006  1.00  0.00     0.014 A 
ATOM     33  C   UNL A   1      36.840  31.801  28.536  1.00  0.00     0.010 A 
ATOM     34  C   UNL A   1      35.914  29.570  28.738  1.00  0.00     0.010 A 
ATOM     35  C   UNL A   1      36.953  30.479  28.993  1.00  0.00    -0.014 A 
BRANCH  35  36
ATOM     36  C   UNL A   1      38.157  29.990  29.706  1.00  0.00     0.031 A 
ATOM     37  C   UNL A   1      38.417  30.467  31.110  1.00  0.00     0.074 A 
ATOM     38  C   UNL A   1      39.065  29.227  29.065  1.00  0.00     0.049 A 
ATOM     39  N   UNL A   1      39.464  30.273  31.868  1.00  0.00    -0.248 NA
ATOM     40  C   UNL A   1      37.387  31.326  31.724  1.00  0.00     0.031 C 
ATOM     41  C   UNL A   1      38.977  28.788  27.670  1.00  0.00     0.029 A 
ATOM     42  N   UNL A   1      40.258  28.707  29.499  1.00  0.00    -0.354 N 
ATOM     43  C   UNL A   1      39.245  31.033  33.011  1.00  0.00     0.074 A 
ATOM     44  C   UNL A   1      37.995  31.733  32.827  1.00  0.00     0.031 C 
ATOM     45  C   UNL A   1      40.059  28.050  27.370  1.00  0.00     0.029 A 
ATOM     46  C   UNL A   1      40.926  27.980  28.542  1.00  0.00     0.049 A 
ATOM     47  H   UNL A   1      40.603  28.841  30.411  1.00  0.00     0.167 HD
ATOM     48  C   UNL A   1      39.992  31.106  34.137  1.00  0.00     0.034 A 
ATOM     49  C   UNL A   1      42.102  27.324  28.610  1.00  0.00     0.034 A 
ATOM     50  C   UNL A   1      41.174  30.322  34.355  1.00  0.00     0.049 A 
ATOM     51  C   UNL A   1      42.850  27.315  29.917  1.00  0.00     0.074 A 
ATOM     52  C   UNL A   1      41.947  30.229  35.497  1.00  0.00     0.029 A 
ATOM     53  N   UNL A   1      41.741  29.480  33.412  1.00  0.00    -0.354 N 
ATOM     54  N   UNL A   1      42.547  27.916  31.044  1.00  0.00    -0.248 NA
ATOM     55  C   UNL A   1      44.075  26.507  29.979  1.00  0.00     0.031 C 
ATOM     56  C   UNL A   1      42.979  29.318  35.246  1.00  0.00     0.029 A 
ATOM     57  C   UNL A   1      42.845  28.846  33.950  1.00  0.00     0.049 A 
ATOM     58  H   UNL A   1      41.406  29.351  32.496  1.00  0.00     0.167 HD
ATOM     59  C   UNL A   1      43.519  27.527  31.957  1.00  0.00     0.074 A 
ATOM     60  C   UNL A   1      44.412  26.625  31.256  1.00  0.00     0.031 C 
ATOM     61  C   UNL A   1      43.673  27.896  33.253  1.00  0.00     0.034 A 
BRANCH  48  62
ATOM     62  C   UNL A   1      39.489  31.992  35.244  1.00  0.00     0.023 A 
ATOM     63  C   UNL A   1      39.770  33.374  35.204  1.00  0.00     0.012 A 
ATOM     64  C   UNL A   1      38.730  31.473  36.309  1.00  0.00     0.148 A 
ATOM     65  C   UNL A   1      39.343  34.217  36.228  1.00  0.00     0.002 A 
ATOM     66  C   UNL A   1      38.269  32.327  37.304  1.00  0.00     0.091 A 
ATOM     67  F   UNL A   1      38.497  30.153  36.347  1.00  0.00    -0.205 F 
ATOM     68  C   UNL A   1      38.585  33.696  37.272  1.00  0.00     0.022 A 
BRANCH  66  69
ATOM     69  S   UNL A   1      37.221  31.761  38.649  1.00  0.00     0.127 S 
ATOM     70  O   UNL A   1      38.091  31.963  39.807  1.00  0.00    -0.237 OA
ATOM     71  O   UNL A   1      36.087  32.683  38.570  1.00  0.00    -0.237 OA
ATOM     72  O   UNL A   1      36.894  30.376  38.340  1.00  0.00    -0.744 OA
ENDBRANCH  66  69
ENDBRANCH  48  62
BRANCH  49  73
ATOM     73  C   UNL A   1      42.577  26.523  27.446  1.00  0.00     0.023 A 
ATOM     74  C   UNL A   1      43.380  27.147  26.472  1.00  0.00     0.012 A 
ATOM     75  C   UNL A   1      42.279  25.153  27.314  1.00  0.00     0.148 A 
ATOM     76  C   UNL A   1      43.854  26.432  25.371  1.00  0.00     0.002 A 
ATOM     77  C   UNL A   1      42.795  24.433  26.240  1.00  0.00     0.091 A 
ATOM     78  F   UNL A   1      41.504  24.578  28.243  1.00  0.00    -0.205 F 
ATOM     79  C   UNL A   1      43.571  25.074  25.261  1.00  0.00     0.022 A 
BRANCH  77  80
ATOM     80  S   UNL A   1      42.585  22.656  26.086  1.00  0.00     0.127 S 
ATOM     81  O   UNL A   1      43.224  22.172  27.307  1.00  0.00    -0.237 OA
ATOM     82  O   UNL A   1      41.128  22.520  26.057  1.00  0.00    -0.237 OA
ATOM     83  O   UNL A   1      43.242  22.295  24.836  1.00  0.00    -0.744 OA
ENDBRANCH  77  80
ENDBRANCH  49  73
BRANCH  61  84
ATOM     84  C   UNL A   1      44.821  27.298  34.018  1.00  0.00     0.023 A 
ATOM     85  C   UNL A   1      46.078  27.933  33.992  1.00  0.00     0.012 A 
ATOM     86  C   UNL A   1      44.628  26.169  34.836  1.00  0.00     0.148 A 
ATOM     87  C   UNL A   1      47.133  27.438  34.755  1.00  0.00     0.002 A 
ATOM     88  C   UNL A   1      45.673  25.707  35.627  1.00  0.00     0.091 A 
ATOM     89  F   UNL A   1      43.429  25.567  34.828  1.00  0.00    -0.205 F 
ATOM     90  C   UNL A   1      46.928  26.335  35.582  1.00  0.00     0.022 A 
BRANCH  88  91
ATOM     91  S   UNL A   1      45.461  24.352  36.787  1.00  0.00     0.127 S 
ATOM     92  O   UNL A   1      45.205  23.227  35.890  1.00  0.00    -0.237 OA
ATOM     93  O   UNL A   1      46.758  24.310  37.464  1.00  0.00    -0.237 OA
ATOM     94  O   UNL A   1      44.350  24.740  37.647  1.00  0.00    -0.744 OA
ENDBRANCH  88  91
ENDBRANCH  61  84
ENDBRANCH  35  36
ENDBRANCH  27  30
ENDBRANCH  25  26
ENDBRANCH   1  25
TORSDOF 16
ENDMDL
MODEL 3
REMARK VINA RESULT:     -12.6      2.164      2.871
REMARK SMILES C[C@@H]1[C@H](C(=O)NCCCCNC(=O)c2ccc(-c3c4nc(c(-c5cccc(S(=O)(=O)[O-])c5F)c5ccc([nH]5)c(-c5cccc(S(=O)(=O)[O-])c5F)c5nc(c(-c6cccc(S(=O)(=O)[O-])c6F)c6ccc3[nH]6)C=C5)C=C4)cc2)CCN1S(=O)(=O)c1cc(F)cc(F)c1
REMARK SMILES IDX 9 1 8 2 7 3 6 4 4 5 5 6 3 8 1 9 2 10 79 11 77 12 78 13 80 14
REMARK SMILES IDX 81 15 82 16 83 17 84 18 90 19 85 20 88 21 86 22 87 23 89 24
REMARK SMILES IDX 10 25 11 26 12 27 13 29 14 30 15 31 76 32 16 33 75 34 17 35
REMARK SMILES IDX 18 36 19 37 69 38 20 39 74 40 68 41 70 42 21 43 73 44 67 45
REMARK SMILES IDX 66 46 22 48 54 49 34 50 53 51 35 52 38 53 52 54 71 55 36 56
REMARK SMILES IDX 37 57 51 59 72 60 39 61 23 62 24 63 32 64 25 65 27 66 33 67
REMARK SMILES IDX 26 68 28 69 29 70 30 71 31 72 55 73 56 74 64 75 57 76 59 77
REMARK SMILES IDX 65 78 58 79 60 80 61 81 62 82 63 83 40 84 41 85 49 86 42 87
REMARK SMILES IDX 44 88 50 89 43 90 45 91 46 92 47 93 48 94
REMARK H PARENT 6 7 11 28 70 47 38 58
REMARK Flexibility Score: inf
ROOT
ATOM      1  C   UNL A   1      33.825  28.575  25.933  1.00  0.00     0.023 C 
ENDROOT
BRANCH   1   2
ATOM      2  C   UNL A   1      33.094  29.306  24.828  1.00  0.00     0.023 C 
BRANCH   2   3
ATOM      3  C   UNL A   1      31.583  29.507  25.002  1.00  0.00     0.116 C 
BRANCH   3   4
ATOM      4  N   UNL A   1      30.853  29.395  23.747  1.00  0.00    -0.356 N 
ATOM      5  C   UNL A   1      30.454  28.362  22.963  1.00  0.00     0.224 C 
ATOM      6  O   UNL A   1      29.852  28.681  21.928  1.00  0.00    -0.275 OA
ATOM      7  H   UNL A   1      30.590  30.271  23.382  1.00  0.00     0.163 HD
BRANCH   5   8
ATOM      8  C   UNL A   1      30.697  26.873  23.214  1.00  0.00     0.098 C 
ATOM      9  C   UNL A   1      33.004  27.000  22.142  1.00  0.00     0.026 C 
ATOM     10  C   UNL A   1      31.789  26.154  22.397  1.00  0.00     0.082 C 
ATOM     11  N   UNL A   1      32.054  24.860  23.132  1.00  0.00    -0.194 NA
ATOM     12  C   UNL A   1      30.905  26.385  24.628  1.00  0.00     0.032 C 
ATOM     13  C   UNL A   1      31.242  24.916  24.405  1.00  0.00     0.104 C 
BRANCH  11  14
ATOM     14  S   UNL A   1      33.598  24.200  23.411  1.00  0.00     0.243 S 
ATOM     15  O   UNL A   1      34.184  23.928  22.115  1.00  0.00    -0.207 OA
ATOM     16  O   UNL A   1      34.263  25.100  24.335  1.00  0.00    -0.207 OA
BRANCH  14  17
ATOM     17  C   UNL A   1      33.509  22.644  24.260  1.00  0.00     0.088 A 
ATOM     18  C   UNL A   1      32.959  21.583  23.524  1.00  0.00     0.061 A 
ATOM     19  C   UNL A   1      33.841  22.455  25.599  1.00  0.00     0.061 A 
ATOM     20  C   UNL A   1      32.668  20.382  24.158  1.00  0.00     0.127 A 
ATOM     21  C   UNL A   1      33.477  21.262  26.222  1.00  0.00     0.127 A 
ATOM     22  F   UNL A   1      32.139  19.375  23.451  1.00  0.00    -0.207 F 
ATOM     23  C   UNL A   1      32.887  20.221  25.517  1.00  0.00     0.078 A 
ATOM     24  F   UNL A   1      33.667  21.131  27.542  1.00  0.00    -0.207 F 
ENDBRANCH  14  17
ENDBRANCH  11  14
ENDBRANCH   5   8
ENDBRANCH   3   4
ENDBRANCH   2   3
ENDBRANCH   1   2
BRANCH   1  25
ATOM     25  C   UNL A   1      33.352  28.910  27.329  1.00  0.00     0.116 C 
BRANCH  25  26
ATOM     26  N   UNL A   1      33.443  30.325  27.674  1.00  0.00    -0.352 N 
ATOM     27  C   UNL A   1      34.524  31.000  28.211  1.00  0.00     0.251 C 
ATOM     28  H   UNL A   1      32.638  30.865  27.503  1.00  0.00     0.163 HD
ATOM     29  O   UNL A   1      34.452  32.176  28.503  1.00  0.00    -0.269 OA
BRANCH  27  30
ATOM     30  C   UNL A   1      35.757  30.223  28.465  1.00  0.00     0.039 A 
ATOM     31  C   UNL A   1      36.809  30.296  27.551  1.00  0.00     0.014 A 
ATOM     32  C   UNL A   1      35.910  29.553  29.680  1.00  0.00     0.014 A 
ATOM     33  C   UNL A   1      38.051  29.766  27.900  1.00  0.00     0.010 A 
ATOM     34  C   UNL A   1      37.174  29.147  30.073  1.00  0.00     0.010 A 
ATOM     35  C   UNL A   1      38.254  29.229  29.181  1.00  0.00    -0.014 A 
BRANCH  35  36
ATOM     36  C   UNL A   1      39.570  28.704  29.618  1.00  0.00     0.031 A 
ATOM     37  C   UNL A   1      40.305  29.406  30.728  1.00  0.00     0.074 A 
ATOM     38  C   UNL A   1      40.152  27.688  28.949  1.00  0.00     0.049 A 
ATOM     39  N   UNL A   1      41.514  29.200  31.179  1.00  0.00    -0.248 NA
ATOM     40  C   UNL A   1      39.607  30.530  31.382  1.00  0.00     0.031 C 
ATOM     41  C   UNL A   1      39.587  26.996  27.788  1.00  0.00     0.029 A 
ATOM     42  N   UNL A   1      41.366  27.077  29.137  1.00  0.00    -0.354 N 
ATOM     43  C   UNL A   1      41.740  30.201  32.115  1.00  0.00     0.074 A 
ATOM     44  C   UNL A   1      40.568  31.046  32.131  1.00  0.00     0.031 C 
ATOM     45  C   UNL A   1      40.443  26.044  27.381  1.00  0.00     0.029 A 
ATOM     46  C   UNL A   1      41.626  26.071  28.236  1.00  0.00     0.049 A 
ATOM     47  H   UNL A   1      41.993  27.335  29.852  1.00  0.00     0.167 HD
ATOM     48  C   UNL A   1      42.807  30.377  32.928  1.00  0.00     0.034 A 
ATOM     49  C   UNL A   1      42.694  25.258  28.124  1.00  0.00     0.034 A 
ATOM     50  C   UNL A   1      43.918  29.470  32.983  1.00  0.00     0.049 A 
ATOM     51  C   UNL A   1      43.813  25.391  29.123  1.00  0.00     0.074 A 
ATOM     52  C   UNL A   1      45.000  29.484  33.844  1.00  0.00     0.029 A 
ATOM     53  N   UNL A   1      44.075  28.372  32.153  1.00  0.00    -0.354 N 
ATOM     54  N   UNL A   1      43.939  26.249  30.108  1.00  0.00    -0.248 NA
ATOM     55  C   UNL A   1      44.913  24.421  29.028  1.00  0.00     0.031 C 
ATOM     56  C   UNL A   1      45.809  28.384  33.539  1.00  0.00     0.029 A 
ATOM     57  C   UNL A   1      45.228  27.687  32.490  1.00  0.00     0.049 A 
ATOM     58  H   UNL A   1      43.458  28.117  31.430  1.00  0.00     0.167 HD
ATOM     59  C   UNL A   1      45.109  25.899  30.771  1.00  0.00     0.074 A 
ATOM     60  C   UNL A   1      45.645  24.739  30.087  1.00  0.00     0.031 C 
ATOM     61  C   UNL A   1      45.698  26.492  31.839  1.00  0.00     0.034 A 
BRANCH  48  62
ATOM     62  C   UNL A   1      42.767  31.540  33.882  1.00  0.00     0.023 A 
ATOM     63  C   UNL A   1      43.289  32.786  33.475  1.00  0.00     0.012 A 
ATOM     64  C   UNL A   1      42.203  31.414  35.165  1.00  0.00     0.148 A 
ATOM     65  C   UNL A   1      43.293  33.875  34.344  1.00  0.00     0.002 A 
ATOM     66  C   UNL A   1      42.168  32.517  36.011  1.00  0.00     0.091 A 
ATOM     67  F   UNL A   1      41.737  30.216  35.546  1.00  0.00    -0.205 F 
ATOM     68  C   UNL A   1      42.723  33.743  35.608  1.00  0.00     0.022 A 
BRANCH  66  69
ATOM     69  S   UNL A   1      41.388  32.465  37.628  1.00  0.00     0.127 S 
ATOM     70  O   UNL A   1      40.049  31.982  37.295  1.00  0.00    -0.237 OA
ATOM     71  O   UNL A   1      42.223  31.503  38.347  1.00  0.00    -0.237 OA
ATOM     72  O   UNL A   1      41.457  33.825  38.144  1.00  0.00    -0.744 OA
ENDBRANCH  66  69
ENDBRANCH  48  62
BRANCH  49  73
ATOM     73  C   UNL A   1      42.699  24.170  27.104  1.00  0.00     0.023 A 
ATOM     74  C   UNL A   1      43.372  24.381  25.885  1.00  0.00     0.012 A 
ATOM     75  C   UNL A   1      42.086  22.925  27.341  1.00  0.00     0.148 A 
ATOM     76  C   UNL A   1      43.410  23.387  24.907  1.00  0.00     0.002 A 
ATOM     77  C   UNL A   1      42.167  21.920  26.382  1.00  0.00     0.091 A 
ATOM     78  F   UNL A   1      41.440  22.744  28.501  1.00  0.00    -0.205 F 
ATOM     79  C   UNL A   1      42.817  22.153  25.160  1.00  0.00     0.022 A 
BRANCH  77  80
ATOM     80  S   UNL A   1      41.542  20.261  26.675  1.00  0.00     0.127 S 
ATOM     81  O   UNL A   1      40.117  20.509  26.879  1.00  0.00    -0.237 OA
ATOM     82  O   UNL A   1      41.876  19.582  25.422  1.00  0.00    -0.237 OA
ATOM     83  O   UNL A   1      42.276  19.769  27.833  1.00  0.00    -0.744 OA
ENDBRANCH  77  80
ENDBRANCH  49  73
BRANCH  61  84
ATOM     84  C   UNL A   1      46.967  25.881  32.365  1.00  0.00     0.023 A 
ATOM     85  C   UNL A   1      48.209  26.325  31.871  1.00  0.00     0.012 A 
ATOM     86  C   UNL A   1      46.931  24.943  33.415  1.00  0.00     0.148 A 
ATOM     87  C   UNL A   1      49.398  25.826  32.401  1.00  0.00     0.002 A 
ATOM     88  C   UNL A   1      48.120  24.483  33.967  1.00  0.00     0.091 A 
ATOM     89  F   UNL A   1      45.737  24.518  33.855  1.00  0.00    -0.205 F 
ATOM     90  C   UNL A   1      49.354  24.917  33.456  1.00  0.00     0.022 A 
BRANCH  88  91
ATOM     91  S   UNL A   1      48.147  23.386  35.389  1.00  0.00     0.127 S 
ATOM     92  O   UNL A   1      47.303  24.108  36.339  1.00  0.00    -0.237 OA
ATOM     93  O   UNL A   1      47.552  22.161  34.853  1.00  0.00    -0.237 OA
ATOM     94  O   UNL A   1      49.549  23.256  35.761  1.00  0.00    -0.744 OA
ENDBRANCH  88  91
ENDBRANCH  61  84
ENDBRANCH  35  36
ENDBRANCH  27  30
ENDBRANCH  25  26
ENDBRANCH   1  25
TORSDOF 16
ENDMDL
