MODEL 1
REMARK VINA RESULT:     -13.6      0.000      0.000
REMARK SMILES Cc1ccc(-c2cc(C(=O)NCCCCNC(=O)c3ccc(-c4c5nc(c(-c6cccc(S(=O)(=O)[O-])c6F)c6ccc([nH]6)c(-c6cccc(S(=O)(=O)[O-])c6F)c6nc(c(-c7cccc(S(=O)(=O)[O-])c7F)c7ccc4[nH]7)C=C6)C=C5)cc3)c3cc(C)ccc3n2)c(C)c1
REMARK SMILES IDX 14 1 13 2 12 3 11 4 9 5 10 6 8 8 6 9 7 10 89 11 88 12 82 13
REMARK SMILES IDX 87 14 83 15 86 16 84 17 85 18 5 19 1 20 2 21 3 22 92 23 4 24
REMARK SMILES IDX 90 25 91 26 15 27 16 28 17 29 18 31 19 32 20 33 81 34 21 35
REMARK SMILES IDX 80 36 22 37 23 38 24 39 74 40 25 41 79 42 73 43 75 44 26 45
REMARK SMILES IDX 78 46 72 47 71 48 27 50 59 51 39 52 58 53 40 54 43 55 57 56
REMARK SMILES IDX 76 57 41 58 42 59 56 61 77 62 44 63 28 64 29 65 37 66 30 67
REMARK SMILES IDX 32 68 38 69 31 70 33 71 34 72 35 73 36 74 60 75 61 76 69 77
REMARK SMILES IDX 62 78 64 79 70 80 63 81 65 82 66 83 67 84 68 85 45 86 46 87
REMARK SMILES IDX 54 88 47 89 49 90 55 91 48 92 50 93 51 94 52 95 53 96
REMARK H PARENT 11 7 16 30 75 49 43 60
REMARK Flexibility Score: inf
ROOT
ATOM      1  C   UNL A   1      31.874  28.987  24.630  1.00  0.00     0.023 C 
ENDROOT
BRANCH   1   2
ATOM      2  C   UNL A   1      32.152  28.989  23.129  1.00  0.00     0.023 C 
BRANCH   2   3
ATOM      3  C   UNL A   1      33.447  28.340  22.667  1.00  0.00     0.116 C 
BRANCH   3   4
ATOM      4  N   UNL A   1      33.382  27.466  21.508  1.00  0.00    -0.352 N 
ATOM      5  C   UNL A   1      33.090  26.115  21.429  1.00  0.00     0.252 C 
ATOM      6  O   UNL A   1      33.014  25.596  20.315  1.00  0.00    -0.269 OA
ATOM      7  H   UNL A   1      33.575  27.901  20.647  1.00  0.00     0.163 HD
BRANCH   5   8
ATOM      8  C   UNL A   1      32.973  25.231  22.631  1.00  0.00     0.051 A 
ATOM      9  C   UNL A   1      34.112  23.705  24.086  1.00  0.00     0.072 A 
ATOM     10  C   UNL A   1      34.093  24.437  22.910  1.00  0.00     0.043 A 
ATOM     11  N   UNL A   1      33.149  23.839  25.028  1.00  0.00    -0.248 NA
ATOM     12  C   UNL A   1      32.063  24.574  24.748  1.00  0.00     0.072 A 
ATOM     13  C   UNL A   1      31.862  25.185  23.500  1.00  0.00     0.013 A 
ATOM     14  C   UNL A   1      31.106  24.753  25.736  1.00  0.00     0.029 A 
ATOM     15  C   UNL A   1      30.587  25.723  23.218  1.00  0.00     0.014 A 
ATOM     16  C   UNL A   1      29.943  25.494  25.511  1.00  0.00     0.005 A 
ATOM     17  C   UNL A   1      29.661  25.965  24.234  1.00  0.00    -0.050 A 
ATOM     18  C   UNL A   1      28.482  26.855  23.973  1.00  0.00     0.044 C 
BRANCH   9  19
ATOM     19  C   UNL A   1      35.133  22.686  24.372  1.00  0.00     0.003 A 
ATOM     20  C   UNL A   1      38.179  19.726  25.263  1.00  0.00     0.044 C 
ATOM     21  C   UNL A   1      37.138  20.760  24.949  1.00  0.00    -0.051 A 
ATOM     22  C   UNL A   1      37.482  22.092  24.717  1.00  0.00     0.004 A 
ATOM     23  C   UNL A   1      35.792  20.389  24.886  1.00  0.00     0.007 A 
ATOM     24  C   UNL A   1      36.492  23.042  24.433  1.00  0.00     0.011 A 
ATOM     25  C   UNL A   1      34.788  21.330  24.589  1.00  0.00    -0.041 A 
ATOM     26  C   UNL A   1      33.364  20.832  24.552  1.00  0.00     0.045 C 
ENDBRANCH   9  19
ENDBRANCH   5   8
ENDBRANCH   3   4
ENDBRANCH   2   3
ENDBRANCH   1   2
BRANCH   1  27
ATOM     27  C   UNL A   1      32.936  29.581  25.551  1.00  0.00     0.116 C 
BRANCH  27  28
ATOM     28  N   UNL A   1      32.575  30.853  26.165  1.00  0.00    -0.352 N 
ATOM     29  C   UNL A   1      33.232  31.604  27.114  1.00  0.00     0.251 C 
ATOM     30  H   UNL A   1      31.725  31.235  25.850  1.00  0.00     0.163 HD
ATOM     31  O   UNL A   1      32.719  32.648  27.512  1.00  0.00    -0.269 OA
BRANCH  29  32
ATOM     32  C   UNL A   1      34.521  31.150  27.690  1.00  0.00     0.039 A 
ATOM     33  C   UNL A   1      35.531  32.091  27.912  1.00  0.00     0.014 A 
ATOM     34  C   UNL A   1      34.741  29.812  28.023  1.00  0.00     0.014 A 
ATOM     35  C   UNL A   1      36.721  31.705  28.539  1.00  0.00     0.010 A 
ATOM     36  C   UNL A   1      35.879  29.452  28.742  1.00  0.00     0.010 A 
ATOM     37  C   UNL A   1      36.891  30.388  28.996  1.00  0.00    -0.014 A 
BRANCH  37  38
ATOM     38  C   UNL A   1      38.126  29.970  29.716  1.00  0.00     0.031 A 
ATOM     39  C   UNL A   1      38.397  30.468  31.114  1.00  0.00     0.074 A 
ATOM     40  C   UNL A   1      39.038  29.195  29.095  1.00  0.00     0.049 A 
ATOM     41  N   UNL A   1      39.414  30.217  31.898  1.00  0.00    -0.248 NA
ATOM     42  C   UNL A   1      37.412  31.395  31.695  1.00  0.00     0.031 C 
ATOM     43  C   UNL A   1      38.946  28.714  27.715  1.00  0.00     0.029 A 
ATOM     44  N   UNL A   1      40.232  28.682  29.543  1.00  0.00    -0.354 N 
ATOM     45  C   UNL A   1      39.207  30.977  33.045  1.00  0.00     0.074 A 
ATOM     46  C   UNL A   1      38.001  31.743  32.829  1.00  0.00     0.031 C 
ATOM     47  C   UNL A   1      40.018  27.953  27.440  1.00  0.00     0.029 A 
ATOM     48  C   UNL A   1      40.886  27.909  28.612  1.00  0.00     0.049 A 
ATOM     49  H   UNL A   1      40.586  28.852  30.446  1.00  0.00     0.167 HD
ATOM     50  C   UNL A   1      39.925  31.005  34.193  1.00  0.00     0.034 A 
ATOM     51  C   UNL A   1      42.046  27.227  28.699  1.00  0.00     0.034 A 
ATOM     52  C   UNL A   1      41.101  30.211  34.424  1.00  0.00     0.049 A 
ATOM     53  C   UNL A   1      42.803  27.234  30.000  1.00  0.00     0.074 A 
ATOM     54  C   UNL A   1      41.864  30.113  35.575  1.00  0.00     0.029 A 
ATOM     55  N   UNL A   1      41.685  29.376  33.485  1.00  0.00    -0.354 N 
ATOM     56  N   UNL A   1      42.508  27.840  31.126  1.00  0.00    -0.248 NA
ATOM     57  C   UNL A   1      44.029  26.425  30.058  1.00  0.00     0.031 C 
ATOM     58  C   UNL A   1      42.920  29.228  35.325  1.00  0.00     0.029 A 
ATOM     59  C   UNL A   1      42.796  28.754  34.028  1.00  0.00     0.049 A 
ATOM     60  H   UNL A   1      41.358  29.243  32.566  1.00  0.00     0.167 HD
ATOM     61  C   UNL A   1      43.479  27.444  32.038  1.00  0.00     0.074 A 
ATOM     62  C   UNL A   1      44.364  26.536  31.336  1.00  0.00     0.031 C 
ATOM     63  C   UNL A   1      43.632  27.805  33.337  1.00  0.00     0.034 A 
BRANCH  50  64
ATOM     64  C   UNL A   1      39.412  31.885  35.307  1.00  0.00     0.023 A 
ATOM     65  C   UNL A   1      38.464  31.371  36.217  1.00  0.00     0.012 A 
ATOM     66  C   UNL A   1      39.874  33.205  35.470  1.00  0.00     0.148 A 
ATOM     67  C   UNL A   1      37.943  32.170  37.234  1.00  0.00     0.002 A 
ATOM     68  C   UNL A   1      39.388  33.980  36.517  1.00  0.00     0.091 A 
ATOM     69  F   UNL A   1      40.760  33.688  34.586  1.00  0.00    -0.205 F 
ATOM     70  C   UNL A   1      38.411  33.471  37.389  1.00  0.00     0.022 A 
BRANCH  68  71
ATOM     71  S   UNL A   1      39.989  35.639  36.853  1.00  0.00     0.127 S 
ATOM     72  O   UNL A   1      39.248  35.982  38.066  1.00  0.00    -0.237 OA
ATOM     73  O   UNL A   1      41.420  35.415  37.057  1.00  0.00    -0.237 OA
ATOM     74  O   UNL A   1      39.663  36.428  35.674  1.00  0.00    -0.744 OA
ENDBRANCH  68  71
ENDBRANCH  50  64
BRANCH  51  75
ATOM     75  C   UNL A   1      42.506  26.384  27.557  1.00  0.00     0.023 A 
ATOM     76  C   UNL A   1      43.361  26.950  26.590  1.00  0.00     0.012 A 
ATOM     77  C   UNL A   1      42.125  25.035  27.430  1.00  0.00     0.148 A 
ATOM     78  C   UNL A   1      43.799  26.199  25.498  1.00  0.00     0.002 A 
ATOM     79  C   UNL A   1      42.608  24.277  26.369  1.00  0.00     0.091 A 
ATOM     80  F   UNL A   1      41.307  24.518  28.357  1.00  0.00    -0.205 F 
ATOM     81  C   UNL A   1      43.430  24.862  25.392  1.00  0.00     0.022 A 
BRANCH  79  82
ATOM     82  S   UNL A   1      42.288  22.516  26.212  1.00  0.00     0.127 S 
ATOM     83  O   UNL A   1      40.828  22.479  26.178  1.00  0.00    -0.237 OA
ATOM     84  O   UNL A   1      42.944  22.204  24.942  1.00  0.00    -0.237 OA
ATOM     85  O   UNL A   1      42.908  21.898  27.377  1.00  0.00    -0.744 OA
ENDBRANCH  79  82
ENDBRANCH  51  75
BRANCH  63  86
ATOM     86  C   UNL A   1      44.760  27.171  34.110  1.00  0.00     0.023 A 
ATOM     87  C   UNL A   1      46.038  27.763  34.111  1.00  0.00     0.012 A 
ATOM     88  C   UNL A   1      44.533  26.016  34.884  1.00  0.00     0.148 A 
ATOM     89  C   UNL A   1      47.084  27.189  34.834  1.00  0.00     0.002 A 
ATOM     90  C   UNL A   1      45.566  25.480  35.644  1.00  0.00     0.091 A 
ATOM     91  F   UNL A   1      43.316  25.454  34.856  1.00  0.00    -0.205 F 
ATOM     92  C   UNL A   1      46.846  26.056  35.608  1.00  0.00     0.022 A 
BRANCH  90  93
ATOM     93  S   UNL A   1      45.316  24.084  36.747  1.00  0.00     0.127 S 
ATOM     94  O   UNL A   1      46.651  23.910  37.314  1.00  0.00    -0.237 OA
ATOM     95  O   UNL A   1      44.318  24.601  37.683  1.00  0.00    -0.237 OA
ATOM     96  O   UNL A   1      44.842  22.994  35.905  1.00  0.00    -0.744 OA
ENDBRANCH  90  93
ENDBRANCH  63  86
ENDBRANCH  37  38
ENDBRANCH  29  32
ENDBRANCH  27  28
ENDBRANCH   1  27
TORSDOF 15
ENDMDL
MODEL 2
REMARK VINA RESULT:     -12.9      2.643      8.022
REMARK SMILES Cc1ccc(-c2cc(C(=O)NCCCCNC(=O)c3ccc(-c4c5nc(c(-c6cccc(S(=O)(=O)[O-])c6F)c6ccc([nH]6)c(-c6cccc(S(=O)(=O)[O-])c6F)c6nc(c(-c7cccc(S(=O)(=O)[O-])c7F)c7ccc4[nH]7)C=C6)C=C5)cc3)c3cc(C)ccc3n2)c(C)c1
REMARK SMILES IDX 14 1 13 2 12 3 11 4 9 5 10 6 8 8 6 9 7 10 89 11 88 12 82 13
REMARK SMILES IDX 87 14 83 15 86 16 84 17 85 18 5 19 1 20 2 21 3 22 92 23 4 24
REMARK SMILES IDX 90 25 91 26 15 27 16 28 17 29 18 31 19 32 20 33 81 34 21 35
REMARK SMILES IDX 80 36 22 37 23 38 24 39 74 40 25 41 79 42 73 43 75 44 26 45
REMARK SMILES IDX 78 46 72 47 71 48 27 50 59 51 39 52 58 53 40 54 43 55 57 56
REMARK SMILES IDX 76 57 41 58 42 59 56 61 77 62 44 63 28 64 29 65 37 66 30 67
REMARK SMILES IDX 32 68 38 69 31 70 33 71 34 72 35 73 36 74 60 75 61 76 69 77
REMARK SMILES IDX 62 78 64 79 70 80 63 81 65 82 66 83 67 84 68 85 45 86 46 87
REMARK SMILES IDX 54 88 47 89 49 90 55 91 48 92 50 93 51 94 52 95 53 96
REMARK H PARENT 11 7 16 30 75 49 43 60
REMARK Flexibility Score: inf
ROOT
ATOM      1  C   UNL A   1      31.137  32.249  26.453  1.00  0.00     0.023 C 
ENDROOT
BRANCH   1   2
ATOM      2  C   UNL A   1      31.137  30.923  25.697  1.00  0.00     0.023 C 
BRANCH   2   3
ATOM      3  C   UNL A   1      32.320  29.997  25.929  1.00  0.00     0.116 C 
BRANCH   3   4
ATOM      4  N   UNL A   1      33.222  29.769  24.813  1.00  0.00    -0.352 N 
ATOM      5  C   UNL A   1      33.084  28.938  23.714  1.00  0.00     0.252 C 
ATOM      6  O   UNL A   1      33.953  28.969  22.843  1.00  0.00    -0.269 OA
ATOM      7  H   UNL A   1      34.059  30.285  24.842  1.00  0.00     0.163 HD
BRANCH   5   8
ATOM      8  C   UNL A   1      31.992  27.923  23.587  1.00  0.00     0.051 A 
ATOM      9  C   UNL A   1      31.343  25.650  23.983  1.00  0.00     0.072 A 
ATOM     10  C   UNL A   1      32.339  26.612  23.936  1.00  0.00     0.043 A 
ATOM     11  N   UNL A   1      30.035  25.967  23.836  1.00  0.00    -0.248 NA
ATOM     12  C   UNL A   1      29.706  27.215  23.471  1.00  0.00     0.072 A 
ATOM     13  C   UNL A   1      30.664  28.204  23.198  1.00  0.00     0.013 A 
ATOM     14  C   UNL A   1      28.362  27.548  23.374  1.00  0.00     0.029 A 
ATOM     15  C   UNL A   1      30.232  29.400  22.586  1.00  0.00     0.014 A 
ATOM     16  C   UNL A   1      27.945  28.824  22.986  1.00  0.00     0.005 A 
ATOM     17  C   UNL A   1      28.883  29.757  22.561  1.00  0.00    -0.050 A 
ATOM     18  C   UNL A   1      28.490  31.170  22.242  1.00  0.00     0.044 C 
BRANCH   9  19
ATOM     19  C   UNL A   1      31.629  24.215  24.129  1.00  0.00     0.003 A 
ATOM     20  C   UNL A   1      32.530  19.987  24.506  1.00  0.00     0.044 C 
ATOM     21  C   UNL A   1      32.214  21.446  24.359  1.00  0.00    -0.051 A 
ATOM     22  C   UNL A   1      32.117  22.047  23.103  1.00  0.00     0.004 A 
ATOM     23  C   UNL A   1      32.014  22.228  25.499  1.00  0.00     0.007 A 
ATOM     24  C   UNL A   1      31.829  23.413  22.991  1.00  0.00     0.011 A 
ATOM     25  C   UNL A   1      31.710  23.600  25.401  1.00  0.00    -0.041 A 
ATOM     26  C   UNL A   1      31.519  24.359  26.691  1.00  0.00     0.045 C 
ENDBRANCH   9  19
ENDBRANCH   5   8
ENDBRANCH   3   4
ENDBRANCH   2   3
ENDBRANCH   1   2
BRANCH   1  27
ATOM     27  C   UNL A   1      32.424  32.664  27.161  1.00  0.00     0.116 C 
BRANCH  27  28
ATOM     28  N   UNL A   1      32.451  34.046  27.623  1.00  0.00    -0.352 N 
ATOM     29  C   UNL A   1      33.310  34.679  28.494  1.00  0.00     0.251 C 
ATOM     30  H   UNL A   1      31.741  34.618  27.254  1.00  0.00     0.163 HD
ATOM     31  O   UNL A   1      33.123  35.865  28.765  1.00  0.00    -0.269 OA
BRANCH  29  32
ATOM     32  C   UNL A   1      34.424  33.943  29.138  1.00  0.00     0.039 A 
ATOM     33  C   UNL A   1      35.739  34.349  28.885  1.00  0.00     0.014 A 
ATOM     34  C   UNL A   1      34.190  32.867  29.995  1.00  0.00     0.014 A 
ATOM     35  C   UNL A   1      36.802  33.731  29.551  1.00  0.00     0.010 A 
ATOM     36  C   UNL A   1      35.238  32.326  30.736  1.00  0.00     0.010 A 
ATOM     37  C   UNL A   1      36.560  32.738  30.515  1.00  0.00    -0.014 A 
BRANCH  37  38
ATOM     38  C   UNL A   1      37.673  32.108  31.276  1.00  0.00     0.031 A 
ATOM     39  C   UNL A   1      38.458  30.969  30.675  1.00  0.00     0.074 A 
ATOM     40  C   UNL A   1      37.942  32.511  32.535  1.00  0.00     0.049 A 
ATOM     41  N   UNL A   1      39.456  30.294  31.183  1.00  0.00    -0.248 NA
ATOM     42  C   UNL A   1      38.046  30.507  29.339  1.00  0.00     0.031 C 
ATOM     43  C   UNL A   1      37.206  33.541  33.273  1.00  0.00     0.029 A 
ATOM     44  N   UNL A   1      38.904  32.095  33.424  1.00  0.00    -0.354 N 
ATOM     45  C   UNL A   1      39.767  29.312  30.247  1.00  0.00     0.074 A 
ATOM     46  C   UNL A   1      38.813  29.441  29.169  1.00  0.00     0.031 C 
ATOM     47  C   UNL A   1      37.761  33.697  34.485  1.00  0.00     0.029 A 
ATOM     48  C   UNL A   1      38.876  32.766  34.624  1.00  0.00     0.049 A 
ATOM     49  H   UNL A   1      39.552  31.383  33.220  1.00  0.00     0.167 HD
ATOM     50  C   UNL A   1      40.780  28.412  30.256  1.00  0.00     0.034 A 
ATOM     51  C   UNL A   1      39.671  32.656  35.708  1.00  0.00     0.034 A 
ATOM     52  C   UNL A   1      41.755  28.311  31.307  1.00  0.00     0.049 A 
ATOM     53  C   UNL A   1      40.819  31.682  35.677  1.00  0.00     0.074 A 
ATOM     54  C   UNL A   1      42.860  27.482  31.383  1.00  0.00     0.029 A 
ATOM     55  N   UNL A   1      41.742  29.067  32.469  1.00  0.00    -0.354 N 
ATOM     56  N   UNL A   1      41.188  30.868  34.717  1.00  0.00    -0.248 NA
ATOM     57  C   UNL A   1      41.689  31.647  36.861  1.00  0.00     0.031 C 
ATOM     58  C   UNL A   1      43.507  27.726  32.601  1.00  0.00     0.029 A 
ATOM     59  C   UNL A   1      42.821  28.728  33.268  1.00  0.00     0.049 A 
ATOM     60  H   UNL A   1      41.065  29.745  32.694  1.00  0.00     0.167 HD
ATOM     61  C   UNL A   1      42.360  30.264  35.158  1.00  0.00     0.074 A 
ATOM     62  C   UNL A   1      42.645  30.816  36.467  1.00  0.00     0.031 C 
ATOM     63  C   UNL A   1      43.126  29.331  34.541  1.00  0.00     0.034 A 
BRANCH  50  64
ATOM     64  C   UNL A   1      40.912  27.509  29.054  1.00  0.00     0.023 A 
ATOM     65  C   UNL A   1      40.160  26.316  28.996  1.00  0.00     0.012 A 
ATOM     66  C   UNL A   1      41.758  27.839  27.978  1.00  0.00     0.148 A 
ATOM     67  C   UNL A   1      40.288  25.442  27.917  1.00  0.00     0.002 A 
ATOM     68  C   UNL A   1      41.842  26.988  26.882  1.00  0.00     0.091 A 
ATOM     69  F   UNL A   1      42.482  28.965  28.055  1.00  0.00    -0.205 F 
ATOM     70  C   UNL A   1      41.122  25.782  26.857  1.00  0.00     0.022 A 
BRANCH  68  71
ATOM     71  S   UNL A   1      42.823  27.377  25.428  1.00  0.00     0.127 S 
ATOM     72  O   UNL A   1      42.120  28.547  24.902  1.00  0.00    -0.237 OA
ATOM     73  O   UNL A   1      44.135  27.663  26.007  1.00  0.00    -0.237 OA
ATOM     74  O   UNL A   1      42.779  26.188  24.588  1.00  0.00    -0.744 OA
ENDBRANCH  68  71
ENDBRANCH  50  64
BRANCH  51  75
ATOM     75  C   UNL A   1      39.481  33.571  36.871  1.00  0.00     0.023 A 
ATOM     76  C   UNL A   1      39.912  34.909  36.766  1.00  0.00     0.012 A 
ATOM     77  C   UNL A   1      38.867  33.140  38.061  1.00  0.00     0.148 A 
ATOM     78  C   UNL A   1      39.768  35.790  37.838  1.00  0.00     0.002 A 
ATOM     79  C   UNL A   1      38.678  34.037  39.107  1.00  0.00     0.091 A 
ATOM     80  F   UNL A   1      38.470  31.862  38.143  1.00  0.00    -0.205 F 
ATOM     81  C   UNL A   1      39.144  35.358  39.004  1.00  0.00     0.022 A 
BRANCH  79  82
ATOM     82  S   UNL A   1      37.777  33.609  40.601  1.00  0.00     0.127 S 
ATOM     83  O   UNL A   1      38.616  32.552  41.163  1.00  0.00    -0.237 OA
ATOM     84  O   UNL A   1      37.799  34.873  41.337  1.00  0.00    -0.237 OA
ATOM     85  O   UNL A   1      36.454  33.194  40.157  1.00  0.00    -0.744 OA
ENDBRANCH  79  82
ENDBRANCH  51  75
BRANCH  63  86
ATOM     86  C   UNL A   1      44.386  28.888  35.241  1.00  0.00     0.023 A 
ATOM     87  C   UNL A   1      45.614  29.514  34.952  1.00  0.00     0.012 A 
ATOM     88  C   UNL A   1      44.338  27.886  36.230  1.00  0.00     0.148 A 
ATOM     89  C   UNL A   1      46.783  29.119  35.603  1.00  0.00     0.002 A 
ATOM     90  C   UNL A   1      45.496  27.534  36.914  1.00  0.00     0.091 A 
ATOM     91  F   UNL A   1      43.164  27.287  36.479  1.00  0.00    -0.205 F 
ATOM     92  C   UNL A   1      46.722  28.138  36.591  1.00  0.00     0.022 A 
BRANCH  90  93
ATOM     93  S   UNL A   1      45.485  26.355  38.269  1.00  0.00     0.127 S 
ATOM     94  O   UNL A   1      46.866  26.427  38.738  1.00  0.00    -0.237 OA
ATOM     95  O   UNL A   1      44.500  26.938  39.181  1.00  0.00    -0.237 OA
ATOM     96  O   UNL A   1      45.082  25.083  37.684  1.00  0.00    -0.744 OA
ENDBRANCH  90  93
ENDBRANCH  63  86
ENDBRANCH  37  38
ENDBRANCH  29  32
ENDBRANCH  27  28
ENDBRANCH   1  27
TORSDOF 15
ENDMDL
MODEL 3
REMARK VINA RESULT:     -12.8      5.367      8.949
REMARK SMILES Cc1ccc(-c2cc(C(=O)NCCCCNC(=O)c3ccc(-c4c5nc(c(-c6cccc(S(=O)(=O)[O-])c6F)c6ccc([nH]6)c(-c6cccc(S(=O)(=O)[O-])c6F)c6nc(c(-c7cccc(S(=O)(=O)[O-])c7F)c7ccc4[nH]7)C=C6)C=C5)cc3)c3cc(C)ccc3n2)c(C)c1
REMARK SMILES IDX 14 1 13 2 12 3 11 4 9 5 10 6 8 8 6 9 7 10 89 11 88 12 82 13
REMARK SMILES IDX 87 14 83 15 86 16 84 17 85 18 5 19 1 20 2 21 3 22 92 23 4 24
REMARK SMILES IDX 90 25 91 26 15 27 16 28 17 29 18 31 19 32 20 33 81 34 21 35
REMARK SMILES IDX 80 36 22 37 23 38 24 39 74 40 25 41 79 42 73 43 75 44 26 45
REMARK SMILES IDX 78 46 72 47 71 48 27 50 59 51 39 52 58 53 40 54 43 55 57 56
REMARK SMILES IDX 76 57 41 58 42 59 56 61 77 62 44 63 28 64 29 65 37 66 30 67
REMARK SMILES IDX 32 68 38 69 31 70 33 71 34 72 35 73 36 74 60 75 61 76 69 77
REMARK SMILES IDX 62 78 64 79 70 80 63 81 65 82 66 83 67 84 68 85 45 86 46 87
REMARK SMILES IDX 54 88 47 89 49 90 55 91 48 92 50 93 51 94 52 95 53 96
REMARK H PARENT 11 7 16 30 75 49 43 60
REMARK Flexibility Score: inf
ROOT
ATOM      1  C   UNL A   1      37.997  20.053  24.717  1.00  0.00     0.023 C 
ENDROOT
BRANCH   1   2
ATOM      2  C   UNL A   1      36.564  20.492  25.007  1.00  0.00     0.023 C 
BRANCH   2   3
ATOM      3  C   UNL A   1      36.377  21.872  25.617  1.00  0.00     0.116 C 
BRANCH   3   4
ATOM      4  N   UNL A   1      35.506  21.979  26.776  1.00  0.00    -0.352 N 
ATOM      5  C   UNL A   1      34.124  21.988  26.852  1.00  0.00     0.252 C 
ATOM      6  O   UNL A   1      33.598  22.008  27.964  1.00  0.00    -0.269 OA
ATOM      7  H   UNL A   1      35.971  22.058  27.639  1.00  0.00     0.163 HD
BRANCH   5   8
ATOM      8  C   UNL A   1      33.239  22.088  25.649  1.00  0.00     0.051 A 
ATOM      9  C   UNL A   1      32.151  23.566  24.107  1.00  0.00     0.072 A 
ATOM     10  C   UNL A   1      32.848  23.385  25.291  1.00  0.00     0.043 A 
ATOM     11  N   UNL A   1      31.957  22.555  23.229  1.00  0.00    -0.248 NA
ATOM     12  C   UNL A   1      32.303  21.309  23.586  1.00  0.00     0.072 A 
ATOM     13  C   UNL A   1      32.827  21.000  24.851  1.00  0.00     0.013 A 
ATOM     14  C   UNL A   1      32.153  20.285  22.661  1.00  0.00     0.029 A 
ATOM     15  C   UNL A   1      32.925  19.640  25.218  1.00  0.00     0.014 A 
ATOM     16  C   UNL A   1      32.478  18.961  22.968  1.00  0.00     0.005 A 
ATOM     17  C   UNL A   1      32.844  18.623  24.266  1.00  0.00    -0.050 A 
ATOM     18  C   UNL A   1      33.307  17.238  24.611  1.00  0.00     0.044 C 
BRANCH   9  19
ATOM     19  C   UNL A   1      31.515  24.842  23.746  1.00  0.00     0.003 A 
ATOM     20  C   UNL A   1      29.618  28.616  22.754  1.00  0.00     0.044 C 
ATOM     21  C   UNL A   1      30.258  27.305  23.101  1.00  0.00    -0.051 A 
ATOM     22  C   UNL A   1      29.601  26.360  23.891  1.00  0.00     0.004 A 
ATOM     23  C   UNL A   1      31.541  27.016  22.630  1.00  0.00     0.007 A 
ATOM     24  C   UNL A   1      30.223  25.146  24.209  1.00  0.00     0.011 A 
ATOM     25  C   UNL A   1      32.173  25.794  22.930  1.00  0.00    -0.041 A 
ATOM     26  C   UNL A   1      33.561  25.581  22.380  1.00  0.00     0.045 C 
ENDBRANCH   9  19
ENDBRANCH   5   8
ENDBRANCH   3   4
ENDBRANCH   2   3
ENDBRANCH   1   2
BRANCH   1  27
ATOM     27  C   UNL A   1      39.041  20.260  25.812  1.00  0.00     0.116 C 
BRANCH  27  28
ATOM     28  N   UNL A   1      40.070  19.230  25.881  1.00  0.00    -0.352 N 
ATOM     29  C   UNL A   1      41.421  19.334  26.126  1.00  0.00     0.251 C 
ATOM     30  H   UNL A   1      39.747  18.313  25.726  1.00  0.00     0.163 HD
ATOM     31  O   UNL A   1      42.113  18.317  26.108  1.00  0.00    -0.269 OA
BRANCH  29  32
ATOM     32  C   UNL A   1      42.054  20.653  26.367  1.00  0.00     0.039 A 
ATOM     33  C   UNL A   1      42.461  21.418  25.269  1.00  0.00     0.014 A 
ATOM     34  C   UNL A   1      42.242  21.148  27.658  1.00  0.00     0.014 A 
ATOM     35  C   UNL A   1      42.976  22.704  25.465  1.00  0.00     0.010 A 
ATOM     36  C   UNL A   1      42.654  22.465  27.846  1.00  0.00     0.010 A 
ATOM     37  C   UNL A   1      43.041  23.257  26.755  1.00  0.00    -0.014 A 
BRANCH  37  38
ATOM     38  C   UNL A   1      43.532  24.644  26.980  1.00  0.00     0.031 A 
ATOM     39  C   UNL A   1      42.603  25.702  27.520  1.00  0.00     0.074 A 
ATOM     40  C   UNL A   1      44.796  24.975  26.642  1.00  0.00     0.049 A 
ATOM     41  N   UNL A   1      42.846  26.961  27.780  1.00  0.00    -0.248 NA
ATOM     42  C   UNL A   1      41.208  25.302  27.770  1.00  0.00     0.031 C 
ATOM     43  C   UNL A   1      45.775  24.075  26.029  1.00  0.00     0.029 A 
ATOM     44  N   UNL A   1      45.471  26.167  26.756  1.00  0.00    -0.354 N 
ATOM     45  C   UNL A   1      41.633  27.506  28.191  1.00  0.00     0.074 A 
ATOM     46  C   UNL A   1      40.645  26.457  28.087  1.00  0.00     0.031 C 
ATOM     47  C   UNL A   1      46.931  24.734  25.852  1.00  0.00     0.029 A 
ATOM     48  C   UNL A   1      46.773  26.109  26.314  1.00  0.00     0.049 A 
ATOM     49  H   UNL A   1      45.062  26.984  27.122  1.00  0.00     0.167 HD
ATOM     50  C   UNL A   1      41.369  28.751  28.655  1.00  0.00     0.034 A 
ATOM     51  C   UNL A   1      47.734  27.054  26.298  1.00  0.00     0.034 A 
ATOM     52  C   UNL A   1      42.360  29.781  28.799  1.00  0.00     0.049 A 
ATOM     53  C   UNL A   1      47.431  28.416  26.864  1.00  0.00     0.074 A 
ATOM     54  C   UNL A   1      42.213  31.054  29.323  1.00  0.00     0.029 A 
ATOM     55  N   UNL A   1      43.687  29.658  28.418  1.00  0.00    -0.354 N 
ATOM     56  N   UNL A   1      46.316  28.864  27.389  1.00  0.00    -0.248 NA
ATOM     57  C   UNL A   1      48.535  29.388  26.878  1.00  0.00     0.031 C 
ATOM     58  C   UNL A   1      43.450  31.705  29.243  1.00  0.00     0.029 A 
ATOM     59  C   UNL A   1      44.372  30.828  28.697  1.00  0.00     0.049 A 
ATOM     60  H   UNL A   1      44.084  28.856  28.008  1.00  0.00     0.167 HD
ATOM     61  C   UNL A   1      46.598  30.148  27.843  1.00  0.00     0.074 A 
ATOM     62  C   UNL A   1      47.992  30.400  27.541  1.00  0.00     0.031 C 
ATOM     63  C   UNL A   1      45.775  31.042  28.447  1.00  0.00     0.034 A 
BRANCH  50  64
ATOM     64  C   UNL A   1      39.954  29.036  29.100  1.00  0.00     0.023 A 
ATOM     65  C   UNL A   1      38.957  29.272  28.130  1.00  0.00     0.012 A 
ATOM     66  C   UNL A   1      39.605  29.054  30.463  1.00  0.00     0.148 A 
ATOM     67  C   UNL A   1      37.649  29.575  28.509  1.00  0.00     0.002 A 
ATOM     68  C   UNL A   1      38.288  29.307  30.832  1.00  0.00     0.091 A 
ATOM     69  F   UNL A   1      40.566  28.849  31.375  1.00  0.00    -0.205 F 
ATOM     70  C   UNL A   1      37.314  29.584  29.859  1.00  0.00     0.022 A 
BRANCH  68  71
ATOM     71  S   UNL A   1      37.735  29.258  32.541  1.00  0.00     0.127 S 
ATOM     72  O   UNL A   1      36.376  29.783  32.427  1.00  0.00    -0.237 OA
ATOM     73  O   UNL A   1      37.814  27.830  32.851  1.00  0.00    -0.237 OA
ATOM     74  O   UNL A   1      38.670  30.089  33.286  1.00  0.00    -0.744 OA
ENDBRANCH  68  71
ENDBRANCH  50  64
BRANCH  51  75
ATOM     75  C   UNL A   1      49.111  26.712  25.835  1.00  0.00     0.023 A 
ATOM     76  C   UNL A   1      49.933  25.918  26.660  1.00  0.00     0.012 A 
ATOM     77  C   UNL A   1      49.603  27.145  24.590  1.00  0.00     0.148 A 
ATOM     78  C   UNL A   1      51.232  25.592  26.269  1.00  0.00     0.002 A 
ATOM     79  C   UNL A   1      50.880  26.772  24.183  1.00  0.00     0.091 A 
ATOM     80  F   UNL A   1      48.808  27.904  23.823  1.00  0.00    -0.205 F 
ATOM     81  C   UNL A   1      51.702  26.011  25.029  1.00  0.00     0.022 A 
BRANCH  79  82
ATOM     82  S   UNL A   1      51.529  27.159  22.553  1.00  0.00     0.127 S 
ATOM     83  O   UNL A   1      51.643  28.615  22.615  1.00  0.00    -0.237 OA
ATOM     84  O   UNL A   1      52.802  26.439  22.558  1.00  0.00    -0.237 OA
ATOM     85  O   UNL A   1      50.550  26.643  21.607  1.00  0.00    -0.744 OA
ENDBRANCH  79  82
ENDBRANCH  51  75
BRANCH  63  86
ATOM     86  C   UNL A   1      46.372  32.355  28.883  1.00  0.00     0.023 A 
ATOM     87  C   UNL A   1      46.967  32.476  30.154  1.00  0.00     0.012 A 
ATOM     88  C   UNL A   1      46.391  33.457  28.005  1.00  0.00     0.148 A 
ATOM     89  C   UNL A   1      47.532  33.685  30.561  1.00  0.00     0.002 A 
ATOM     90  C   UNL A   1      47.003  34.642  28.396  1.00  0.00     0.091 A 
ATOM     91  F   UNL A   1      45.802  33.332  26.806  1.00  0.00    -0.205 F 
ATOM     92  C   UNL A   1      47.560  34.763  29.679  1.00  0.00     0.022 A 
BRANCH  90  93
ATOM     93  S   UNL A   1      47.172  36.043  27.284  1.00  0.00     0.127 S 
ATOM     94  O   UNL A   1      47.903  36.996  28.115  1.00  0.00    -0.237 OA
ATOM     95  O   UNL A   1      47.947  35.474  26.181  1.00  0.00    -0.237 OA
ATOM     96  O   UNL A   1      45.814  36.430  26.926  1.00  0.00    -0.744 OA
ENDBRANCH  90  93
ENDBRANCH  63  86
ENDBRANCH  37  38
ENDBRANCH  29  32
ENDBRANCH  27  28
ENDBRANCH   1  27
TORSDOF 15
ENDMDL
