MODEL 1
REMARK VINA RESULT:     -12.5      0.000      0.000
REMARK SMILES CS(=O)(=O)c1ccc(-c2csc(=O)n2CC(=O)NCCCCNC(=O)c2ccc(-c3c4nc(c(-c5cccc(S(=O)(=O)[O-])c5F)c5ccc([nH]5)c(-c5cccc(S(=O)(=O)[O-])c5F)c5nc(c(-c6cccc(S(=O)(=O)[O-])c6F)c6ccc3[nH]6)C=C5)C=C4)cc2)cc1
REMARK SMILES IDX 20 1 19 2 18 3 16 4 17 5 15 7 14 8 9 9 10 10 11 11 12 12
REMARK SMILES IDX 13 13 8 14 5 15 6 16 90 17 7 18 89 19 2 20 1 21 3 22 4 23
REMARK SMILES IDX 21 24 22 25 23 26 24 27 25 29 26 30 27 31 88 32 28 33 87 34
REMARK SMILES IDX 29 35 30 36 31 37 81 38 32 39 86 40 80 41 82 42 33 43 85 44
REMARK SMILES IDX 79 45 78 46 34 48 66 49 46 50 65 51 47 52 50 53 64 54 83 55
REMARK SMILES IDX 48 56 49 57 63 59 84 60 51 61 35 62 36 63 44 64 37 65 39 66
REMARK SMILES IDX 45 67 38 68 40 69 41 70 42 71 43 72 67 73 68 74 76 75 69 76
REMARK SMILES IDX 71 77 77 78 70 79 72 80 73 81 74 82 75 83 52 84 53 85 61 86
REMARK SMILES IDX 54 87 56 88 62 89 55 90 57 91 58 92 59 93 60 94
REMARK H PARENT 18 6 23 28 82 47 50 58
REMARK Flexibility Score: inf
ROOT
ATOM      1  C   UNL A   1      31.593  30.439  26.047  1.00  0.00     0.023 C 
ENDROOT
BRANCH   1   2
ATOM      2  C   UNL A   1      32.205  29.502  27.094  1.00  0.00     0.116 C 
BRANCH   2   3
ATOM      3  N   UNL A   1      31.567  28.207  27.114  1.00  0.00    -0.355 N 
ATOM      4  C   UNL A   1      31.980  27.030  26.559  1.00  0.00     0.240 C 
ATOM      5  O   UNL A   1      31.322  26.015  26.795  1.00  0.00    -0.273 OA
ATOM      6  H   UNL A   1      30.710  28.167  27.597  1.00  0.00     0.163 HD
BRANCH   4   7
ATOM      7  C   UNL A   1      33.284  26.948  25.751  1.00  0.00     0.226 C 
BRANCH   7   8
ATOM      8  N   UNL A   1      33.255  25.993  24.651  1.00  0.00    -0.289 N 
ATOM      9  C   UNL A   1      32.398  26.005  23.558  1.00  0.00     0.063 A 
ATOM     10  C   UNL A   1      32.617  24.996  22.698  1.00  0.00     0.097 A 
ATOM     11  S   UNL A   1      33.940  23.993  23.188  1.00  0.00    -0.082 S 
ATOM     12  C   UNL A   1      34.236  25.002  24.618  1.00  0.00     0.308 A 
ATOM     13  O   UNL A   1      35.151  24.808  25.384  1.00  0.00    -0.257 OA
BRANCH   9  14
ATOM     14  C   UNL A   1      31.339  26.996  23.323  1.00  0.00    -0.001 A 
ATOM     15  C   UNL A   1      29.324  28.866  22.760  1.00  0.00     0.067 A 
ATOM     16  C   UNL A   1      28.993  27.650  23.359  1.00  0.00     0.021 A 
ATOM     17  C   UNL A   1      30.654  29.166  22.457  1.00  0.00     0.021 A 
ATOM     18  C   UNL A   1      30.003  26.727  23.652  1.00  0.00     0.011 A 
ATOM     19  C   UNL A   1      31.654  28.237  22.743  1.00  0.00     0.011 A 
BRANCH  15  20
ATOM     20  S   UNL A   1      28.081  30.084  22.393  1.00  0.00     0.175 S 
ATOM     21  C   UNL A   1      28.703  31.621  23.014  1.00  0.00     0.163 C 
ATOM     22  O   UNL A   1      26.903  29.726  23.154  1.00  0.00    -0.224 OA
ATOM     23  O   UNL A   1      28.036  30.212  20.947  1.00  0.00    -0.224 OA
ENDBRANCH  15  20
ENDBRANCH   9  14
ENDBRANCH   7   8
ENDBRANCH   4   7
ENDBRANCH   2   3
ENDBRANCH   1   2
BRANCH   1  24
ATOM     24  C   UNL A   1      31.399  31.891  26.501  1.00  0.00     0.023 C 
BRANCH  24  25
ATOM     25  C   UNL A   1      32.579  32.475  27.267  1.00  0.00     0.116 C 
BRANCH  25  26
ATOM     26  N   UNL A   1      32.382  33.879  27.637  1.00  0.00    -0.352 N 
ATOM     27  C   UNL A   1      33.025  34.573  28.646  1.00  0.00     0.251 C 
ATOM     28  H   UNL A   1      31.721  34.384  27.109  1.00  0.00     0.163 HD
ATOM     29  O   UNL A   1      32.529  35.578  29.141  1.00  0.00    -0.269 OA
BRANCH  27  30
ATOM     30  C   UNL A   1      34.338  34.080  29.094  1.00  0.00     0.039 A 
ATOM     31  C   UNL A   1      34.479  33.247  30.207  1.00  0.00     0.014 A 
ATOM     32  C   UNL A   1      35.437  34.434  28.314  1.00  0.00     0.014 A 
ATOM     33  C   UNL A   1      35.734  32.707  30.479  1.00  0.00     0.010 A 
ATOM     34  C   UNL A   1      36.625  33.779  28.487  1.00  0.00     0.010 A 
ATOM     35  C   UNL A   1      36.798  32.964  29.600  1.00  0.00    -0.014 A 
BRANCH  35  36
ATOM     36  C   UNL A   1      38.078  32.279  29.737  1.00  0.00     0.031 A 
ATOM     37  C   UNL A   1      38.080  30.896  29.183  1.00  0.00     0.074 A 
ATOM     38  C   UNL A   1      39.206  32.929  30.099  1.00  0.00     0.049 A 
ATOM     39  N   UNL A   1      38.154  29.785  29.840  1.00  0.00    -0.248 NA
ATOM     40  C   UNL A   1      37.789  30.716  27.750  1.00  0.00     0.031 C 
ATOM     41  C   UNL A   1      39.377  34.370  30.338  1.00  0.00     0.029 A 
ATOM     42  N   UNL A   1      40.483  32.468  30.180  1.00  0.00    -0.354 N 
ATOM     43  C   UNL A   1      38.199  28.783  28.871  1.00  0.00     0.074 A 
ATOM     44  C   UNL A   1      37.723  29.386  27.657  1.00  0.00     0.031 C 
ATOM     45  C   UNL A   1      40.688  34.690  30.266  1.00  0.00     0.029 A 
ATOM     46  C   UNL A   1      41.457  33.466  30.156  1.00  0.00     0.049 A 
ATOM     47  H   UNL A   1      40.702  31.511  30.249  1.00  0.00     0.167 HD
ATOM     48  C   UNL A   1      38.906  27.638  29.084  1.00  0.00     0.034 A 
ATOM     49  C   UNL A   1      42.795  33.298  30.008  1.00  0.00     0.034 A 
ATOM     50  C   UNL A   1      39.256  27.505  30.479  1.00  0.00     0.049 A 
ATOM     51  C   UNL A   1      43.092  31.891  30.358  1.00  0.00     0.074 A 
ATOM     52  C   UNL A   1      38.557  27.447  31.668  1.00  0.00     0.029 A 
ATOM     53  N   UNL A   1      40.548  27.827  30.814  1.00  0.00    -0.354 N 
ATOM     54  N   UNL A   1      42.937  31.403  31.556  1.00  0.00    -0.248 NA
ATOM     55  C   UNL A   1      43.123  30.919  29.280  1.00  0.00     0.031 C 
ATOM     56  C   UNL A   1      39.345  28.198  32.590  1.00  0.00     0.029 A 
ATOM     57  C   UNL A   1      40.516  28.597  31.943  1.00  0.00     0.049 A 
ATOM     58  H   UNL A   1      41.357  27.552  30.324  1.00  0.00     0.167 HD
ATOM     59  C   UNL A   1      42.369  30.155  31.340  1.00  0.00     0.074 A 
ATOM     60  C   UNL A   1      42.617  29.866  29.927  1.00  0.00     0.031 C 
ATOM     61  C   UNL A   1      41.495  29.619  32.242  1.00  0.00     0.034 A 
BRANCH  48  62
ATOM     62  C   UNL A   1      39.658  26.852  28.023  1.00  0.00     0.023 A 
ATOM     63  C   UNL A   1      39.441  25.453  27.996  1.00  0.00     0.012 A 
ATOM     64  C   UNL A   1      40.754  27.335  27.274  1.00  0.00     0.148 A 
ATOM     65  C   UNL A   1      40.314  24.581  27.336  1.00  0.00     0.002 A 
ATOM     66  C   UNL A   1      41.577  26.471  26.558  1.00  0.00     0.091 A 
ATOM     67  F   UNL A   1      41.101  28.621  27.336  1.00  0.00    -0.205 F 
ATOM     68  C   UNL A   1      41.384  25.091  26.616  1.00  0.00     0.022 A 
BRANCH  66  69
ATOM     69  S   UNL A   1      42.956  27.076  25.573  1.00  0.00     0.127 S 
ATOM     70  O   UNL A   1      42.274  27.953  24.627  1.00  0.00    -0.237 OA
ATOM     71  O   UNL A   1      43.764  27.759  26.584  1.00  0.00    -0.237 OA
ATOM     72  O   UNL A   1      43.585  25.890  25.006  1.00  0.00    -0.744 OA
ENDBRANCH  66  69
ENDBRANCH  48  62
BRANCH  49  73
ATOM     73  C   UNL A   1      43.803  34.158  29.344  1.00  0.00     0.023 A 
ATOM     74  C   UNL A   1      44.639  34.987  30.122  1.00  0.00     0.012 A 
ATOM     75  C   UNL A   1      44.152  33.944  27.993  1.00  0.00     0.148 A 
ATOM     76  C   UNL A   1      45.804  35.549  29.585  1.00  0.00     0.002 A 
ATOM     77  C   UNL A   1      45.310  34.508  27.461  1.00  0.00     0.091 A 
ATOM     78  F   UNL A   1      43.403  33.111  27.258  1.00  0.00    -0.205 F 
ATOM     79  C   UNL A   1      46.146  35.301  28.259  1.00  0.00     0.022 A 
BRANCH  77  80
ATOM     80  S   UNL A   1      45.837  34.206  25.768  1.00  0.00     0.127 S 
ATOM     81  O   UNL A   1      46.122  32.771  25.792  1.00  0.00    -0.237 OA
ATOM     82  O   UNL A   1      44.647  34.581  25.011  1.00  0.00    -0.237 OA
ATOM     83  O   UNL A   1      47.010  35.046  25.561  1.00  0.00    -0.744 OA
ENDBRANCH  77  80
ENDBRANCH  49  73
BRANCH  61  84
ATOM     84  C   UNL A   1      41.374  30.279  33.593  1.00  0.00     0.023 A 
ATOM     85  C   UNL A   1      42.312  30.087  34.630  1.00  0.00     0.012 A 
ATOM     86  C   UNL A   1      40.376  31.252  33.753  1.00  0.00     0.148 A 
ATOM     87  C   UNL A   1      42.240  30.838  35.808  1.00  0.00     0.002 A 
ATOM     88  C   UNL A   1      40.336  32.030  34.902  1.00  0.00     0.091 A 
ATOM     89  F   UNL A   1      39.494  31.422  32.756  1.00  0.00    -0.205 F 
ATOM     90  C   UNL A   1      41.260  31.821  35.938  1.00  0.00     0.022 A 
BRANCH  88  91
ATOM     91  S   UNL A   1      39.178  33.389  35.066  1.00  0.00     0.127 S 
ATOM     92  O   UNL A   1      39.560  33.960  36.355  1.00  0.00    -0.237 OA
ATOM     93  O   UNL A   1      39.503  34.220  33.906  1.00  0.00    -0.237 OA
ATOM     94  O   UNL A   1      37.849  32.792  35.014  1.00  0.00    -0.744 OA
ENDBRANCH  88  91
ENDBRANCH  61  84
ENDBRANCH  35  36
ENDBRANCH  27  30
ENDBRANCH  25  26
ENDBRANCH  24  25
ENDBRANCH   1  24
TORSDOF 17
ENDMDL
MODEL 2
REMARK VINA RESULT:     -12.0      4.406      9.816
REMARK SMILES CS(=O)(=O)c1ccc(-c2csc(=O)n2CC(=O)NCCCCNC(=O)c2ccc(-c3c4nc(c(-c5cccc(S(=O)(=O)[O-])c5F)c5ccc([nH]5)c(-c5cccc(S(=O)(=O)[O-])c5F)c5nc(c(-c6cccc(S(=O)(=O)[O-])c6F)c6ccc3[nH]6)C=C5)C=C4)cc2)cc1
REMARK SMILES IDX 20 1 19 2 18 3 16 4 17 5 15 7 14 8 9 9 10 10 11 11 12 12
REMARK SMILES IDX 13 13 8 14 5 15 6 16 90 17 7 18 89 19 2 20 1 21 3 22 4 23
REMARK SMILES IDX 21 24 22 25 23 26 24 27 25 29 26 30 27 31 88 32 28 33 87 34
REMARK SMILES IDX 29 35 30 36 31 37 81 38 32 39 86 40 80 41 82 42 33 43 85 44
REMARK SMILES IDX 79 45 78 46 34 48 66 49 46 50 65 51 47 52 50 53 64 54 83 55
REMARK SMILES IDX 48 56 49 57 63 59 84 60 51 61 35 62 36 63 44 64 37 65 39 66
REMARK SMILES IDX 45 67 38 68 40 69 41 70 42 71 43 72 67 73 68 74 76 75 69 76
REMARK SMILES IDX 71 77 77 78 70 79 72 80 73 81 74 82 75 83 52 84 53 85 61 86
REMARK SMILES IDX 54 87 56 88 62 89 55 90 57 91 58 92 59 93 60 94
REMARK H PARENT 18 6 23 28 82 47 50 58
REMARK Flexibility Score: inf
ROOT
ATOM      1  C   UNL A   1      37.453  21.229  24.224  1.00  0.00     0.023 C 
ENDROOT
BRANCH   1   2
ATOM      2  C   UNL A   1      36.049  21.737  24.567  1.00  0.00     0.116 C 
BRANCH   2   3
ATOM      3  N   UNL A   1      35.541  22.661  23.581  1.00  0.00    -0.355 N 
ATOM      4  C   UNL A   1      34.838  23.819  23.760  1.00  0.00     0.240 C 
ATOM      5  O   UNL A   1      34.598  24.509  22.769  1.00  0.00    -0.273 OA
ATOM      6  H   UNL A   1      35.727  22.422  22.645  1.00  0.00     0.163 HD
BRANCH   4   7
ATOM      7  C   UNL A   1      34.451  24.302  25.165  1.00  0.00     0.226 C 
BRANCH   7   8
ATOM      8  N   UNL A   1      33.020  24.487  25.368  1.00  0.00    -0.289 N 
ATOM      9  C   UNL A   1      32.035  23.509  25.303  1.00  0.00     0.063 A 
ATOM     10  C   UNL A   1      30.801  23.980  25.546  1.00  0.00     0.097 A 
ATOM     11  S   UNL A   1      30.804  25.673  25.911  1.00  0.00    -0.082 S 
ATOM     12  C   UNL A   1      32.571  25.749  25.756  1.00  0.00     0.308 A 
ATOM     13  O   UNL A   1      33.208  26.754  25.970  1.00  0.00    -0.257 OA
BRANCH   9  14
ATOM     14  C   UNL A   1      32.268  22.091  24.999  1.00  0.00    -0.001 A 
ATOM     15  C   UNL A   1      32.812  19.412  24.364  1.00  0.00     0.067 A 
ATOM     16  C   UNL A   1      32.973  19.860  25.677  1.00  0.00     0.021 A 
ATOM     17  C   UNL A   1      32.363  20.284  23.370  1.00  0.00     0.021 A 
ATOM     18  C   UNL A   1      32.686  21.193  25.992  1.00  0.00     0.011 A 
ATOM     19  C   UNL A   1      32.087  21.614  23.690  1.00  0.00     0.011 A 
BRANCH  15  20
ATOM     20  S   UNL A   1      33.137  17.721  23.919  1.00  0.00     0.175 S 
ATOM     21  C   UNL A   1      34.866  17.466  24.201  1.00  0.00     0.163 C 
ATOM     22  O   UNL A   1      32.883  17.603  22.500  1.00  0.00    -0.224 OA
ATOM     23  O   UNL A   1      32.436  16.893  24.885  1.00  0.00    -0.224 OA
ENDBRANCH  15  20
ENDBRANCH   9  14
ENDBRANCH   7   8
ENDBRANCH   4   7
ENDBRANCH   2   3
ENDBRANCH   1   2
BRANCH   1  24
ATOM     24  C   UNL A   1      37.897  19.971  24.981  1.00  0.00     0.023 C 
BRANCH  24  25
ATOM     25  C   UNL A   1      38.989  20.211  26.016  1.00  0.00     0.116 C 
BRANCH  25  26
ATOM     26  N   UNL A   1      40.092  19.252  25.917  1.00  0.00    -0.352 N 
ATOM     27  C   UNL A   1      41.446  19.539  25.892  1.00  0.00     0.251 C 
ATOM     28  H   UNL A   1      39.844  18.301  25.862  1.00  0.00     0.163 HD
ATOM     29  O   UNL A   1      42.252  18.753  25.410  1.00  0.00    -0.269 OA
BRANCH  27  30
ATOM     30  C   UNL A   1      41.892  20.810  26.485  1.00  0.00     0.039 A 
ATOM     31  C   UNL A   1      42.337  21.880  25.704  1.00  0.00     0.014 A 
ATOM     32  C   UNL A   1      41.793  20.921  27.871  1.00  0.00     0.014 A 
ATOM     33  C   UNL A   1      42.603  23.095  26.330  1.00  0.00     0.010 A 
ATOM     34  C   UNL A   1      41.900  22.152  28.457  1.00  0.00     0.010 A 
ATOM     35  C   UNL A   1      42.363  23.227  27.707  1.00  0.00    -0.014 A 
BRANCH  35  36
ATOM     36  C   UNL A   1      42.450  24.521  28.372  1.00  0.00     0.031 A 
ATOM     37  C   UNL A   1      41.250  25.381  28.172  1.00  0.00     0.074 A 
ATOM     38  C   UNL A   1      43.413  24.799  29.280  1.00  0.00     0.049 A 
ATOM     39  N   UNL A   1      41.169  26.471  27.483  1.00  0.00    -0.248 NA
ATOM     40  C   UNL A   1      39.946  24.883  28.644  1.00  0.00     0.031 C 
ATOM     41  C   UNL A   1      44.447  23.893  29.800  1.00  0.00     0.029 A 
ATOM     42  N   UNL A   1      43.579  25.905  30.053  1.00  0.00    -0.354 N 
ATOM     43  C   UNL A   1      39.867  26.934  27.672  1.00  0.00     0.074 A 
ATOM     44  C   UNL A   1      39.117  25.813  28.167  1.00  0.00     0.031 C 
ATOM     45  C   UNL A   1      44.937  24.382  30.961  1.00  0.00     0.029 A 
ATOM     46  C   UNL A   1      44.389  25.707  31.171  1.00  0.00     0.049 A 
ATOM     47  H   UNL A   1      43.164  26.772  29.842  1.00  0.00     0.167 HD
ATOM     48  C   UNL A   1      39.598  28.270  27.693  1.00  0.00     0.034 A 
ATOM     49  C   UNL A   1      44.557  26.554  32.218  1.00  0.00     0.034 A 
ATOM     50  C   UNL A   1      40.714  29.025  27.174  1.00  0.00     0.049 A 
ATOM     51  C   UNL A   1      44.134  27.896  31.757  1.00  0.00     0.074 A 
ATOM     52  C   UNL A   1      41.416  29.053  25.986  1.00  0.00     0.029 A 
ATOM     53  N   UNL A   1      41.520  29.634  28.105  1.00  0.00    -0.354 N 
ATOM     54  N   UNL A   1      44.758  28.563  30.828  1.00  0.00    -0.248 NA
ATOM     55  C   UNL A   1      42.760  28.292  32.004  1.00  0.00     0.031 C 
ATOM     56  C   UNL A   1      42.777  29.242  26.371  1.00  0.00     0.029 A 
ATOM     57  C   UNL A   1      42.821  29.405  27.758  1.00  0.00     0.049 A 
ATOM     58  H   UNL A   1      41.212  30.147  28.888  1.00  0.00     0.167 HD
ATOM     59  C   UNL A   1      43.736  29.104  30.059  1.00  0.00     0.074 A 
ATOM     60  C   UNL A   1      42.540  29.003  30.895  1.00  0.00     0.031 C 
ATOM     61  C   UNL A   1      43.898  29.297  28.717  1.00  0.00     0.034 A 
BRANCH  48  62
ATOM     62  C   UNL A   1      38.544  28.947  28.552  1.00  0.00     0.023 A 
ATOM     63  C   UNL A   1      37.713  29.897  27.908  1.00  0.00     0.012 A 
ATOM     64  C   UNL A   1      38.512  28.937  29.965  1.00  0.00     0.148 A 
ATOM     65  C   UNL A   1      36.966  30.836  28.627  1.00  0.00     0.002 A 
ATOM     66  C   UNL A   1      37.710  29.824  30.676  1.00  0.00     0.091 A 
ATOM     67  F   UNL A   1      39.346  28.157  30.653  1.00  0.00    -0.205 F 
ATOM     68  C   UNL A   1      36.964  30.800  30.014  1.00  0.00     0.022 A 
BRANCH  66  69
ATOM     69  S   UNL A   1      37.635  29.800  32.474  1.00  0.00     0.127 S 
ATOM     70  O   UNL A   1      37.312  28.400  32.731  1.00  0.00    -0.237 OA
ATOM     71  O   UNL A   1      38.997  30.201  32.831  1.00  0.00    -0.237 OA
ATOM     72  O   UNL A   1      36.611  30.771  32.838  1.00  0.00    -0.744 OA
ENDBRANCH  66  69
ENDBRANCH  48  62
BRANCH  49  73
ATOM     73  C   UNL A   1      44.798  26.272  33.653  1.00  0.00     0.023 A 
ATOM     74  C   UNL A   1      46.104  26.378  34.178  1.00  0.00     0.012 A 
ATOM     75  C   UNL A   1      43.720  26.198  34.562  1.00  0.00     0.148 A 
ATOM     76  C   UNL A   1      46.324  26.451  35.559  1.00  0.00     0.002 A 
ATOM     77  C   UNL A   1      43.945  26.267  35.935  1.00  0.00     0.091 A 
ATOM     78  F   UNL A   1      42.472  26.158  34.078  1.00  0.00    -0.205 F 
ATOM     79  C   UNL A   1      45.246  26.406  36.438  1.00  0.00     0.022 A 
BRANCH  77  80
ATOM     80  S   UNL A   1      42.601  26.251  37.131  1.00  0.00     0.127 S 
ATOM     81  O   UNL A   1      43.325  26.331  38.401  1.00  0.00    -0.237 OA
ATOM     82  O   UNL A   1      41.863  27.458  36.770  1.00  0.00    -0.237 OA
ATOM     83  O   UNL A   1      41.897  24.993  36.922  1.00  0.00    -0.744 OA
ENDBRANCH  77  80
ENDBRANCH  49  73
BRANCH  61  84
ATOM     84  C   UNL A   1      45.288  29.172  28.144  1.00  0.00     0.023 A 
ATOM     85  C   UNL A   1      46.256  30.194  28.241  1.00  0.00     0.012 A 
ATOM     86  C   UNL A   1      45.674  27.918  27.646  1.00  0.00     0.148 A 
ATOM     87  C   UNL A   1      47.575  29.973  27.831  1.00  0.00     0.002 A 
ATOM     88  C   UNL A   1      46.994  27.686  27.285  1.00  0.00     0.091 A 
ATOM     89  F   UNL A   1      44.741  26.958  27.562  1.00  0.00    -0.205 F 
ATOM     90  C   UNL A   1      47.947  28.713  27.366  1.00  0.00     0.022 A 
BRANCH  88  91
ATOM     91  S   UNL A   1      47.553  26.052  26.801  1.00  0.00     0.127 S 
ATOM     92  O   UNL A   1      46.788  25.819  25.578  1.00  0.00    -0.237 OA
ATOM     93  O   UNL A   1      48.987  26.260  26.596  1.00  0.00    -0.237 OA
ATOM     94  O   UNL A   1      47.235  25.172  27.918  1.00  0.00    -0.744 OA
ENDBRANCH  88  91
ENDBRANCH  61  84
ENDBRANCH  35  36
ENDBRANCH  27  30
ENDBRANCH  25  26
ENDBRANCH  24  25
ENDBRANCH   1  24
TORSDOF 17
ENDMDL
MODEL 3
REMARK VINA RESULT:     -11.9      4.052      9.240
REMARK SMILES CS(=O)(=O)c1ccc(-c2csc(=O)n2CC(=O)NCCCCNC(=O)c2ccc(-c3c4nc(c(-c5cccc(S(=O)(=O)[O-])c5F)c5ccc([nH]5)c(-c5cccc(S(=O)(=O)[O-])c5F)c5nc(c(-c6cccc(S(=O)(=O)[O-])c6F)c6ccc3[nH]6)C=C5)C=C4)cc2)cc1
REMARK SMILES IDX 20 1 19 2 18 3 16 4 17 5 15 7 14 8 9 9 10 10 11 11 12 12
REMARK SMILES IDX 13 13 8 14 5 15 6 16 90 17 7 18 89 19 2 20 1 21 3 22 4 23
REMARK SMILES IDX 21 24 22 25 23 26 24 27 25 29 26 30 27 31 88 32 28 33 87 34
REMARK SMILES IDX 29 35 30 36 31 37 81 38 32 39 86 40 80 41 82 42 33 43 85 44
REMARK SMILES IDX 79 45 78 46 34 48 66 49 46 50 65 51 47 52 50 53 64 54 83 55
REMARK SMILES IDX 48 56 49 57 63 59 84 60 51 61 35 62 36 63 44 64 37 65 39 66
REMARK SMILES IDX 45 67 38 68 40 69 41 70 42 71 43 72 67 73 68 74 76 75 69 76
REMARK SMILES IDX 71 77 77 78 70 79 72 80 73 81 74 82 75 83 52 84 53 85 61 86
REMARK SMILES IDX 54 87 56 88 62 89 55 90 57 91 58 92 59 93 60 94
REMARK H PARENT 18 6 23 28 82 47 50 58
REMARK Flexibility Score: inf
ROOT
ATOM      1  C   UNL A   1      39.264  22.381  26.055  1.00  0.00     0.023 C 
ENDROOT
BRANCH   1   2
ATOM      2  C   UNL A   1      37.955  23.168  25.924  1.00  0.00     0.116 C 
BRANCH   2   3
ATOM      3  N   UNL A   1      37.435  23.152  24.577  1.00  0.00    -0.355 N 
ATOM      4  C   UNL A   1      36.152  22.965  24.147  1.00  0.00     0.240 C 
ATOM      5  O   UNL A   1      35.919  23.099  22.945  1.00  0.00    -0.273 OA
ATOM      6  H   UNL A   1      38.100  23.296  23.866  1.00  0.00     0.163 HD
BRANCH   4   7
ATOM      7  C   UNL A   1      35.013  22.700  25.142  1.00  0.00     0.226 C 
BRANCH   7   8
ATOM      8  N   UNL A   1      34.056  21.690  24.710  1.00  0.00    -0.289 N 
ATOM      9  C   UNL A   1      32.785  21.910  24.192  1.00  0.00     0.063 A 
ATOM     10  C   UNL A   1      32.136  20.778  23.873  1.00  0.00     0.097 A 
ATOM     11  S   UNL A   1      33.096  19.367  24.166  1.00  0.00    -0.082 S 
ATOM     12  C   UNL A   1      34.460  20.355  24.724  1.00  0.00     0.308 A 
ATOM     13  O   UNL A   1      35.528  19.885  25.041  1.00  0.00    -0.257 OA
BRANCH   9  14
ATOM     14  C   UNL A   1      32.168  23.229  23.998  1.00  0.00    -0.001 A 
ATOM     15  C   UNL A   1      30.916  25.700  23.549  1.00  0.00     0.067 A 
ATOM     16  C   UNL A   1      30.678  25.008  24.738  1.00  0.00     0.021 A 
ATOM     17  C   UNL A   1      31.789  25.180  22.591  1.00  0.00     0.021 A 
ATOM     18  C   UNL A   1      31.316  23.784  24.963  1.00  0.00     0.011 A 
ATOM     19  C   UNL A   1      32.414  23.954  22.820  1.00  0.00     0.011 A 
BRANCH  15  20
ATOM     20  S   UNL A   1      30.151  27.273  23.226  1.00  0.00     0.175 S 
ATOM     21  C   UNL A   1      30.943  28.433  24.305  1.00  0.00     0.163 C 
ATOM     22  O   UNL A   1      28.764  27.155  23.619  1.00  0.00    -0.224 OA
ATOM     23  O   UNL A   1      30.524  27.649  21.873  1.00  0.00    -0.224 OA
ENDBRANCH  15  20
ENDBRANCH   9  14
ENDBRANCH   7   8
ENDBRANCH   4   7
ENDBRANCH   2   3
ENDBRANCH   1   2
BRANCH   1  24
ATOM     24  C   UNL A   1      39.223  20.948  25.512  1.00  0.00     0.023 C 
BRANCH  24  25
ATOM     25  C   UNL A   1      39.692  19.887  26.499  1.00  0.00     0.116 C 
BRANCH  25  26
ATOM     26  N   UNL A   1      40.894  19.179  26.049  1.00  0.00    -0.352 N 
ATOM     27  C   UNL A   1      42.135  19.731  25.781  1.00  0.00     0.251 C 
ATOM     28  H   UNL A   1      40.810  18.206  25.924  1.00  0.00     0.163 HD
ATOM     29  O   UNL A   1      42.935  19.167  25.045  1.00  0.00    -0.269 OA
BRANCH  27  30
ATOM     30  C   UNL A   1      42.476  21.008  26.430  1.00  0.00     0.039 A 
ATOM     31  C   UNL A   1      42.935  22.110  25.704  1.00  0.00     0.014 A 
ATOM     32  C   UNL A   1      42.259  21.088  27.804  1.00  0.00     0.014 A 
ATOM     33  C   UNL A   1      43.097  23.324  26.368  1.00  0.00     0.010 A 
ATOM     34  C   UNL A   1      42.264  22.311  28.416  1.00  0.00     0.010 A 
ATOM     35  C   UNL A   1      42.740  23.419  27.723  1.00  0.00    -0.014 A 
BRANCH  35  36
ATOM     36  C   UNL A   1      42.716  24.703  28.413  1.00  0.00     0.031 A 
ATOM     37  C   UNL A   1      41.490  25.505  28.147  1.00  0.00     0.074 A 
ATOM     38  C   UNL A   1      43.601  25.011  29.388  1.00  0.00     0.049 A 
ATOM     39  N   UNL A   1      41.399  26.602  27.471  1.00  0.00    -0.248 NA
ATOM     40  C   UNL A   1      40.185  24.933  28.522  1.00  0.00     0.031 C 
ATOM     41  C   UNL A   1      44.643  24.147  29.962  1.00  0.00     0.029 A 
ATOM     42  N   UNL A   1      43.659  26.108  30.189  1.00  0.00    -0.354 N 
ATOM     43  C   UNL A   1      40.065  26.996  27.580  1.00  0.00     0.074 A 
ATOM     44  C   UNL A   1      39.342  25.830  28.005  1.00  0.00     0.031 C 
ATOM     45  C   UNL A   1      45.030  24.638  31.161  1.00  0.00     0.029 A 
ATOM     46  C   UNL A   1      44.402  25.929  31.356  1.00  0.00     0.049 A 
ATOM     47  H   UNL A   1      43.214  26.957  29.964  1.00  0.00     0.167 HD
ATOM     48  C   UNL A   1      39.727  28.317  27.604  1.00  0.00     0.034 A 
ATOM     49  C   UNL A   1      44.456  26.763  32.424  1.00  0.00     0.034 A 
ATOM     50  C   UNL A   1      40.836  29.136  27.174  1.00  0.00     0.049 A 
ATOM     51  C   UNL A   1      43.997  28.090  31.958  1.00  0.00     0.074 A 
ATOM     52  C   UNL A   1      41.613  29.223  26.036  1.00  0.00     0.029 A 
ATOM     53  N   UNL A   1      41.545  29.767  28.167  1.00  0.00    -0.354 N 
ATOM     54  N   UNL A   1      44.646  28.806  31.083  1.00  0.00    -0.248 NA
ATOM     55  C   UNL A   1      42.590  28.413  32.118  1.00  0.00     0.031 C 
ATOM     56  C   UNL A   1      42.933  29.472  26.515  1.00  0.00     0.029 A 
ATOM     57  C   UNL A   1      42.877  29.609  27.904  1.00  0.00     0.049 A 
ATOM     58  H   UNL A   1      41.160  30.248  28.935  1.00  0.00     0.167 HD
ATOM     59  C   UNL A   1      43.651  29.310  30.256  1.00  0.00     0.074 A 
ATOM     60  C   UNL A   1      42.408  29.133  31.008  1.00  0.00     0.031 C 
ATOM     61  C   UNL A   1      43.892  29.537  28.932  1.00  0.00     0.034 A 
BRANCH  48  62
ATOM     62  C   UNL A   1      38.585  28.923  28.401  1.00  0.00     0.023 A 
ATOM     63  C   UNL A   1      37.689  29.760  27.691  1.00  0.00     0.012 A 
ATOM     64  C   UNL A   1      38.507  28.969  29.811  1.00  0.00     0.148 A 
ATOM     65  C   UNL A   1      36.832  30.651  28.345  1.00  0.00     0.002 A 
ATOM     66  C   UNL A   1      37.601  29.803  30.458  1.00  0.00     0.091 A 
ATOM     67  F   UNL A   1      39.389  28.303  30.558  1.00  0.00    -0.205 F 
ATOM     68  C   UNL A   1      36.788  30.673  29.732  1.00  0.00     0.022 A 
BRANCH  66  69
ATOM     69  S   UNL A   1      37.469  29.847  32.252  1.00  0.00     0.127 S 
ATOM     70  O   UNL A   1      36.372  30.790  32.439  1.00  0.00    -0.237 OA
ATOM     71  O   UNL A   1      37.150  28.451  32.559  1.00  0.00    -0.237 OA
ATOM     72  O   UNL A   1      38.775  30.280  32.733  1.00  0.00    -0.744 OA
ENDBRANCH  66  69
ENDBRANCH  48  62
BRANCH  49  73
ATOM     73  C   UNL A   1      44.616  26.465  33.868  1.00  0.00     0.023 A 
ATOM     74  C   UNL A   1      45.868  26.657  34.488  1.00  0.00     0.012 A 
ATOM     75  C   UNL A   1      43.485  26.289  34.695  1.00  0.00     0.148 A 
ATOM     76  C   UNL A   1      45.984  26.713  35.883  1.00  0.00     0.002 A 
ATOM     77  C   UNL A   1      43.605  26.341  36.082  1.00  0.00     0.091 A 
ATOM     78  F   UNL A   1      42.280  26.167  34.121  1.00  0.00    -0.205 F 
ATOM     79  C   UNL A   1      44.852  26.566  36.680  1.00  0.00     0.022 A 
BRANCH  77  80
ATOM     80  S   UNL A   1      42.184  26.196  37.176  1.00  0.00     0.127 S 
ATOM     81  O   UNL A   1      42.816  26.224  38.496  1.00  0.00    -0.237 OA
ATOM     82  O   UNL A   1      41.420  27.392  36.837  1.00  0.00    -0.237 OA
ATOM     83  O   UNL A   1      41.554  24.926  36.842  1.00  0.00    -0.744 OA
ENDBRANCH  77  80
ENDBRANCH  49  73
BRANCH  61  84
ATOM     84  C   UNL A   1      45.322  29.493  28.452  1.00  0.00     0.023 A 
ATOM     85  C   UNL A   1      46.223  30.566  28.616  1.00  0.00     0.012 A 
ATOM     86  C   UNL A   1      45.808  28.266  27.975  1.00  0.00     0.148 A 
ATOM     87  C   UNL A   1      47.576  30.420  28.294  1.00  0.00     0.002 A 
ATOM     88  C   UNL A   1      47.160  28.109  27.702  1.00  0.00     0.091 A 
ATOM     89  F   UNL A   1      44.937  27.256  27.827  1.00  0.00    -0.205 F 
ATOM     90  C   UNL A   1      48.047  29.186  27.850  1.00  0.00     0.022 A 
BRANCH  88  91
ATOM     91  S   UNL A   1      47.839  26.513  27.250  1.00  0.00     0.127 S 
ATOM     92  O   UNL A   1      49.264  26.810  27.132  1.00  0.00    -0.237 OA
ATOM     93  O   UNL A   1      47.480  25.682  28.401  1.00  0.00    -0.237 OA
ATOM     94  O   UNL A   1      47.173  26.129  26.011  1.00  0.00    -0.744 OA
ENDBRANCH  88  91
ENDBRANCH  61  84
ENDBRANCH  35  36
ENDBRANCH  27  30
ENDBRANCH  25  26
ENDBRANCH  24  25
ENDBRANCH   1  24
TORSDOF 17
ENDMDL
