MODEL 1
REMARK VINA RESULT:     -10.7      0.000      0.000
REMARK SMILES Cc1cccc(N2C(=O)/C(=C/c3cccn3-c3cccc(C(=O)NCCCCNC(=O)c4ccc(-c5c6nc(c(-c7cccc(S(=O)(=O)[O-])c7F)c7ccc([nH]7)c(-c7cccc(S(=O)(=O)[O-])c7F)c7nc(c(-c8cccc(S(=O)(=O)[O-])c8F)c8ccc5[nH]8)C=C7)C=C6)cc4)c3)C(O)=NC2=S)c1C
REMARK SMILES IDX 26 1 25 2 24 3 22 4 23 5 21 7 17 8 18 9 95 10 19 11 20 12
REMARK SMILES IDX 16 13 12 14 13 15 14 16 15 17 11 18 7 19 8 20 99 21 9 22
REMARK SMILES IDX 10 23 98 24 100 25 96 26 6 27 1 28 2 29 3 30 101 31 4 32
REMARK SMILES IDX 102 33 5 34 97 35 27 37 28 38 29 39 30 40 31 42 32 43 33 44
REMARK SMILES IDX 94 45 34 46 93 47 35 48 36 49 37 50 87 51 38 52 92 53 86 54
REMARK SMILES IDX 88 55 39 56 91 57 85 58 84 59 40 61 72 62 52 63 71 64 53 65
REMARK SMILES IDX 56 66 70 67 89 68 54 69 55 70 69 72 90 73 57 74 41 75 42 76
REMARK SMILES IDX 50 77 43 78 45 79 51 80 44 81 46 82 47 83 48 84 49 85 73 86
REMARK SMILES IDX 74 87 82 88 75 89 77 90 83 91 76 92 78 93 79 94 80 95 81 96
REMARK SMILES IDX 58 97 59 98 67 99 60 100 62 101 68 102 61 103 63 104 64 105
REMARK SMILES IDX 65 106 66 107
REMARK H PARENT 24 6 97 36 29 41 88 60 56 71
REMARK Flexibility Score: inf
ROOT
ATOM      1  C   UNL A   1      36.678  30.534  32.515  1.00  0.00     0.023 C 
ENDROOT
BRANCH   1   2
ATOM      2  C   UNL A   1      38.000  30.650  33.277  1.00  0.00     0.116 C 
BRANCH   2   3
ATOM      3  N   UNL A   1      37.981  30.156  34.647  1.00  0.00    -0.352 N 
ATOM      4  C   UNL A   1      38.436  30.688  35.837  1.00  0.00     0.251 C 
ATOM      5  O   UNL A   1      38.332  30.017  36.862  1.00  0.00    -0.269 OA
ATOM      6  H   UNL A   1      37.561  29.270  34.743  1.00  0.00     0.163 HD
BRANCH   4   7
ATOM      7  C   UNL A   1      39.136  32.002  35.921  1.00  0.00     0.041 A 
ATOM      8  C   UNL A   1      40.666  33.645  35.008  1.00  0.00     0.046 A 
ATOM      9  C   UNL A   1      40.793  34.227  36.277  1.00  0.00     0.026 A 
ATOM     10  C   UNL A   1      39.742  32.611  34.820  1.00  0.00     0.040 A 
ATOM     11  C   UNL A   1      40.034  33.747  37.346  1.00  0.00     0.003 A 
ATOM     12  C   UNL A   1      39.236  32.616  37.176  1.00  0.00     0.014 A 
BRANCH   8  13
ATOM     13  N   UNL A   1      41.607  33.970  33.978  1.00  0.00    -0.317 N 
ATOM     14  C   UNL A   1      42.567  33.167  33.354  1.00  0.00     0.047 A 
ATOM     15  C   UNL A   1      43.398  33.980  32.602  1.00  0.00     0.028 A 
ATOM     16  C   UNL A   1      42.962  35.307  32.757  1.00  0.00     0.020 A 
ATOM     17  C   UNL A   1      41.850  35.274  33.566  1.00  0.00     0.092 A 
BRANCH  14  18
ATOM     18  C   UNL A   1      42.519  31.755  33.447  1.00  0.00     0.046 C 
ATOM     19  N   UNL A   1      43.751  28.741  35.015  1.00  0.00    -0.251 N 
ATOM     20  C   UNL A   1      42.959  29.534  34.191  1.00  0.00     0.270 C 
ATOM     21  C   UNL A   1      44.677  29.244  35.948  1.00  0.00     0.210 C 
ATOM     22  O   UNL A   1      42.168  29.109  33.347  1.00  0.00    -0.268 OA
ATOM     23  C   UNL A   1      43.127  31.000  34.384  1.00  0.00     0.104 C 
ATOM     24  N   UNL A   1      44.626  30.583  36.259  1.00  0.00    -0.184 NA
ATOM     25  S   UNL A   1      45.851  28.296  36.727  1.00  0.00    -0.038 S 
ATOM     26  C   UNL A   1      43.908  31.382  35.563  1.00  0.00     0.226 C 
BRANCH  19  27
ATOM     27  C   UNL A   1      43.459  27.343  34.963  1.00  0.00     0.055 A 
ATOM     28  C   UNL A   1      41.042  24.806  36.492  1.00  0.00     0.044 C 
ATOM     29  C   UNL A   1      42.111  25.452  35.657  1.00  0.00    -0.046 A 
ATOM     30  C   UNL A   1      42.857  24.637  34.794  1.00  0.00     0.004 A 
ATOM     31  C   UNL A   1      42.387  26.831  35.724  1.00  0.00    -0.024 A 
ATOM     32  C   UNL A   1      43.861  25.172  33.992  1.00  0.00     0.002 A 
ATOM     33  C   UNL A   1      41.504  27.781  36.488  1.00  0.00     0.047 C 
ATOM     34  C   UNL A   1      44.171  26.525  34.080  1.00  0.00     0.027 A 
ENDBRANCH  19  27
BRANCH  26  35
ATOM     35  O   UNL A   1      43.825  32.644  36.013  1.00  0.00    -0.493 OA
ATOM     36  H   UNL A   1      43.896  32.820  36.930  1.00  0.00     0.295 HD
ENDBRANCH  26  35
ENDBRANCH  14  18
ENDBRANCH   8  13
ENDBRANCH   4   7
ENDBRANCH   2   3
ENDBRANCH   1   2
BRANCH   1  37
ATOM     37  C   UNL A   1      36.065  31.822  31.961  1.00  0.00     0.023 C 
BRANCH  37  38
ATOM     38  C   UNL A   1      36.294  32.043  30.470  1.00  0.00     0.116 C 
BRANCH  38  39
ATOM     39  N   UNL A   1      35.489  31.188  29.612  1.00  0.00    -0.352 N 
ATOM     40  C   UNL A   1      35.860  30.203  28.710  1.00  0.00     0.251 C 
ATOM     41  H   UNL A   1      34.517  31.333  29.684  1.00  0.00     0.163 HD
ATOM     42  O   UNL A   1      35.028  29.838  27.892  1.00  0.00    -0.269 OA
BRANCH  40  43
ATOM     43  C   UNL A   1      37.214  29.566  28.712  1.00  0.00     0.039 A 
ATOM     44  C   UNL A   1      38.087  29.779  27.630  1.00  0.00     0.014 A 
ATOM     45  C   UNL A   1      37.621  28.692  29.707  1.00  0.00     0.014 A 
ATOM     46  C   UNL A   1      39.350  29.160  27.592  1.00  0.00     0.010 A 
ATOM     47  C   UNL A   1      38.831  28.028  29.645  1.00  0.00     0.010 A 
ATOM     48  C   UNL A   1      39.724  28.291  28.620  1.00  0.00    -0.014 A 
BRANCH  48  49
ATOM     49  C   UNL A   1      41.094  27.765  28.802  1.00  0.00     0.031 A 
ATOM     50  C   UNL A   1      41.207  26.309  28.300  1.00  0.00     0.074 A 
ATOM     51  C   UNL A   1      42.032  28.623  29.309  1.00  0.00     0.049 A 
ATOM     52  N   UNL A   1      41.835  25.303  28.830  1.00  0.00    -0.248 NA
ATOM     53  C   UNL A   1      40.375  25.857  27.149  1.00  0.00     0.031 C 
ATOM     54  C   UNL A   1      41.770  30.032  29.684  1.00  0.00     0.029 A 
ATOM     55  N   UNL A   1      43.380  28.517  29.592  1.00  0.00    -0.354 N 
ATOM     56  C   UNL A   1      41.611  24.178  27.995  1.00  0.00     0.074 A 
ATOM     57  C   UNL A   1      40.575  24.541  27.087  1.00  0.00     0.031 C 
ATOM     58  C   UNL A   1      42.875  30.610  30.204  1.00  0.00     0.029 A 
ATOM     59  C   UNL A   1      43.966  29.651  30.208  1.00  0.00     0.049 A 
ATOM     60  H   UNL A   1      43.901  27.708  29.380  1.00  0.00     0.167 HD
ATOM     61  C   UNL A   1      42.414  23.073  27.986  1.00  0.00     0.034 A 
ATOM     62  C   UNL A   1      45.217  29.802  30.747  1.00  0.00     0.034 A 
ATOM     63  C   UNL A   1      43.529  23.311  28.842  1.00  0.00     0.049 A 
ATOM     64  C   UNL A   1      45.912  28.525  30.527  1.00  0.00     0.074 A 
ATOM     65  C   UNL A   1      43.670  23.375  30.202  1.00  0.00     0.029 A 
ATOM     66  N   UNL A   1      44.603  23.921  28.234  1.00  0.00    -0.354 N 
ATOM     67  N   UNL A   1      46.384  28.112  29.386  1.00  0.00    -0.248 NA
ATOM     68  C   UNL A   1      45.941  27.555  31.628  1.00  0.00     0.031 C 
ATOM     69  C   UNL A   1      44.609  24.412  30.381  1.00  0.00     0.029 A 
ATOM     70  C   UNL A   1      45.146  24.790  29.142  1.00  0.00     0.049 A 
ATOM     71  H   UNL A   1      44.920  23.762  27.315  1.00  0.00     0.167 HD
ATOM     72  C   UNL A   1      46.431  26.750  29.573  1.00  0.00     0.074 A 
ATOM     73  C   UNL A   1      46.483  26.522  30.996  1.00  0.00     0.031 C 
ATOM     74  C   UNL A   1      45.900  25.915  28.643  1.00  0.00     0.034 A 
BRANCH  61  75
ATOM     75  C   UNL A   1      42.511  21.852  27.101  1.00  0.00     0.023 A 
ATOM     76  C   UNL A   1      41.657  20.775  27.477  1.00  0.00     0.012 A 
ATOM     77  C   UNL A   1      43.512  21.574  26.153  1.00  0.00     0.148 A 
ATOM     78  C   UNL A   1      41.861  19.468  27.043  1.00  0.00     0.002 A 
ATOM     79  C   UNL A   1      43.676  20.270  25.676  1.00  0.00     0.091 A 
ATOM     80  F   UNL A   1      44.354  22.542  25.777  1.00  0.00    -0.205 F 
ATOM     81  C   UNL A   1      42.883  19.213  26.151  1.00  0.00     0.022 A 
BRANCH  79  82
ATOM     82  S   UNL A   1      44.895  19.828  24.430  1.00  0.00     0.127 S 
ATOM     83  O   UNL A   1      44.549  20.727  23.333  1.00  0.00    -0.237 OA
ATOM     84  O   UNL A   1      46.151  20.158  25.108  1.00  0.00    -0.237 OA
ATOM     85  O   UNL A   1      44.713  18.403  24.190  1.00  0.00    -0.744 OA
ENDBRANCH  79  82
ENDBRANCH  61  75
BRANCH  62  86
ATOM     86  C   UNL A   1      45.889  30.842  31.616  1.00  0.00     0.023 A 
ATOM     87  C   UNL A   1      46.343  30.591  32.920  1.00  0.00     0.012 A 
ATOM     88  C   UNL A   1      46.124  32.162  31.126  1.00  0.00     0.148 A 
ATOM     89  C   UNL A   1      47.085  31.555  33.637  1.00  0.00     0.002 A 
ATOM     90  C   UNL A   1      46.949  33.069  31.781  1.00  0.00     0.091 A 
ATOM     91  F   UNL A   1      45.496  32.584  30.026  1.00  0.00    -0.205 F 
ATOM     92  C   UNL A   1      47.431  32.772  33.051  1.00  0.00     0.022 A 
BRANCH  90  93
ATOM     93  S   UNL A   1      47.529  34.576  30.974  1.00  0.00     0.127 S 
ATOM     94  O   UNL A   1      46.312  35.383  30.907  1.00  0.00    -0.237 OA
ATOM     95  O   UNL A   1      48.529  35.052  31.931  1.00  0.00    -0.237 OA
ATOM     96  O   UNL A   1      48.072  34.171  29.684  1.00  0.00    -0.744 OA
ENDBRANCH  90  93
ENDBRANCH  62  86
BRANCH  74  97
ATOM     97  C   UNL A   1      45.956  26.429  27.212  1.00  0.00     0.023 A 
ATOM     98  C   UNL A   1      44.776  27.040  26.732  1.00  0.00     0.012 A 
ATOM     99  C   UNL A   1      47.040  26.299  26.311  1.00  0.00     0.148 A 
ATOM    100  C   UNL A   1      44.661  27.492  25.417  1.00  0.00     0.002 A 
ATOM    101  C   UNL A   1      46.930  26.777  24.999  1.00  0.00     0.091 A 
ATOM    102  F   UNL A   1      48.159  25.702  26.730  1.00  0.00    -0.205 F 
ATOM    103  C   UNL A   1      45.737  27.364  24.552  1.00  0.00     0.022 A 
BRANCH 101 104
ATOM    104  S   UNL A   1      48.246  26.681  23.768  1.00  0.00     0.127 S 
ATOM    105  O   UNL A   1      49.415  27.113  24.536  1.00  0.00    -0.237 OA
ATOM    106  O   UNL A   1      48.248  25.261  23.434  1.00  0.00    -0.237 OA
ATOM    107  O   UNL A   1      47.864  27.590  22.691  1.00  0.00    -0.744 OA
ENDBRANCH 101 104
ENDBRANCH  74  97
ENDBRANCH  48  49
ENDBRANCH  40  43
ENDBRANCH  38  39
ENDBRANCH  37  38
ENDBRANCH   1  37
TORSDOF 18
ENDMDL
MODEL 2
REMARK VINA RESULT:     -10.2      2.388      4.906
REMARK SMILES Cc1cccc(N2C(=O)/C(=C/c3cccn3-c3cccc(C(=O)NCCCCNC(=O)c4ccc(-c5c6nc(c(-c7cccc(S(=O)(=O)[O-])c7F)c7ccc([nH]7)c(-c7cccc(S(=O)(=O)[O-])c7F)c7nc(c(-c8cccc(S(=O)(=O)[O-])c8F)c8ccc5[nH]8)C=C7)C=C6)cc4)c3)C(O)=NC2=S)c1C
REMARK SMILES IDX 26 1 25 2 24 3 22 4 23 5 21 7 17 8 18 9 95 10 19 11 20 12
REMARK SMILES IDX 16 13 12 14 13 15 14 16 15 17 11 18 7 19 8 20 99 21 9 22
REMARK SMILES IDX 10 23 98 24 100 25 96 26 6 27 1 28 2 29 3 30 101 31 4 32
REMARK SMILES IDX 102 33 5 34 97 35 27 37 28 38 29 39 30 40 31 42 32 43 33 44
REMARK SMILES IDX 94 45 34 46 93 47 35 48 36 49 37 50 87 51 38 52 92 53 86 54
REMARK SMILES IDX 88 55 39 56 91 57 85 58 84 59 40 61 72 62 52 63 71 64 53 65
REMARK SMILES IDX 56 66 70 67 89 68 54 69 55 70 69 72 90 73 57 74 41 75 42 76
REMARK SMILES IDX 50 77 43 78 45 79 51 80 44 81 46 82 47 83 48 84 49 85 73 86
REMARK SMILES IDX 74 87 82 88 75 89 77 90 83 91 76 92 78 93 79 94 80 95 81 96
REMARK SMILES IDX 58 97 59 98 67 99 60 100 62 101 68 102 61 103 63 104 64 105
REMARK SMILES IDX 65 106 66 107
REMARK H PARENT 24 6 97 36 29 41 88 60 56 71
REMARK Flexibility Score: inf
ROOT
ATOM      1  C   UNL A   1      34.697  34.565  28.273  1.00  0.00     0.023 C 
ENDROOT
BRANCH   1   2
ATOM      2  C   UNL A   1      34.281  36.005  28.583  1.00  0.00     0.116 C 
BRANCH   2   3
ATOM      3  N   UNL A   1      32.999  36.156  29.257  1.00  0.00    -0.352 N 
ATOM      4  C   UNL A   1      32.634  36.112  30.588  1.00  0.00     0.251 C 
ATOM      5  O   UNL A   1      31.444  36.225  30.878  1.00  0.00    -0.269 OA
ATOM      6  H   UNL A   1      32.246  36.324  28.644  1.00  0.00     0.163 HD
BRANCH   4   7
ATOM      7  C   UNL A   1      33.605  35.835  31.685  1.00  0.00     0.041 A 
ATOM      8  C   UNL A   1      35.261  34.410  32.734  1.00  0.00     0.046 A 
ATOM      9  C   UNL A   1      35.074  35.091  33.945  1.00  0.00     0.026 A 
ATOM     10  C   UNL A   1      34.610  34.871  31.584  1.00  0.00     0.040 A 
ATOM     11  C   UNL A   1      34.215  36.189  34.006  1.00  0.00     0.003 A 
ATOM     12  C   UNL A   1      33.456  36.537  32.889  1.00  0.00     0.014 A 
BRANCH   8  13
ATOM     13  N   UNL A   1      35.946  33.152  32.721  1.00  0.00    -0.317 N 
ATOM     14  C   UNL A   1      37.219  32.820  33.194  1.00  0.00     0.047 A 
ATOM     15  C   UNL A   1      37.537  31.549  32.742  1.00  0.00     0.028 A 
ATOM     16  C   UNL A   1      36.457  31.080  31.974  1.00  0.00     0.020 A 
ATOM     17  C   UNL A   1      35.486  32.054  32.006  1.00  0.00     0.092 A 
BRANCH  14  18
ATOM     18  C   UNL A   1      37.918  33.668  34.086  1.00  0.00     0.046 C 
ATOM     19  N   UNL A   1      38.958  34.367  37.476  1.00  0.00    -0.251 N 
ATOM     20  C   UNL A   1      38.874  34.520  36.096  1.00  0.00     0.270 C 
ATOM     21  C   UNL A   1      38.412  33.281  38.188  1.00  0.00     0.210 C 
ATOM     22  O   UNL A   1      39.317  35.480  35.462  1.00  0.00    -0.268 OA
ATOM     23  C   UNL A   1      38.179  33.413  35.384  1.00  0.00     0.104 C 
ATOM     24  N   UNL A   1      37.998  32.179  37.476  1.00  0.00    -0.184 NA
ATOM     25  S   UNL A   1      38.245  33.240  39.877  1.00  0.00    -0.038 S 
ATOM     26  C   UNL A   1      37.908  32.228  36.201  1.00  0.00     0.226 C 
BRANCH  19  27
ATOM     27  C   UNL A   1      39.780  35.329  38.138  1.00  0.00     0.055 A 
ATOM     28  C   UNL A   1      43.441  35.875  39.097  1.00  0.00     0.044 C 
ATOM     29  C   UNL A   1      41.966  36.066  38.882  1.00  0.00    -0.046 A 
ATOM     30  C   UNL A   1      41.376  37.244  39.362  1.00  0.00     0.004 A 
ATOM     31  C   UNL A   1      41.171  35.105  38.230  1.00  0.00    -0.024 A 
ATOM     32  C   UNL A   1      40.016  37.484  39.194  1.00  0.00     0.002 A 
ATOM     33  C   UNL A   1      41.774  33.914  37.534  1.00  0.00     0.047 C 
ATOM     34  C   UNL A   1      39.212  36.524  38.590  1.00  0.00     0.027 A 
ENDBRANCH  19  27
BRANCH  26  35
ATOM     35  O   UNL A   1      37.612  31.072  35.585  1.00  0.00    -0.493 OA
ATOM     36  H   UNL A   1      38.253  30.652  35.046  1.00  0.00     0.295 HD
ENDBRANCH  26  35
ENDBRANCH  14  18
ENDBRANCH   8  13
ENDBRANCH   4   7
ENDBRANCH   2   3
ENDBRANCH   1   2
BRANCH   1  37
ATOM     37  C   UNL A   1      36.042  34.083  28.822  1.00  0.00     0.023 C 
BRANCH  37  38
ATOM     38  C   UNL A   1      36.548  32.782  28.209  1.00  0.00     0.116 C 
BRANCH  38  39
ATOM     39  N   UNL A   1      35.585  31.693  28.251  1.00  0.00    -0.352 N 
ATOM     40  C   UNL A   1      35.757  30.325  28.099  1.00  0.00     0.251 C 
ATOM     41  H   UNL A   1      34.655  31.974  28.413  1.00  0.00     0.163 HD
ATOM     42  O   UNL A   1      34.763  29.649  27.874  1.00  0.00    -0.269 OA
BRANCH  40  43
ATOM     43  C   UNL A   1      37.088  29.654  28.220  1.00  0.00     0.039 A 
ATOM     44  C   UNL A   1      38.010  29.736  27.161  1.00  0.00     0.014 A 
ATOM     45  C   UNL A   1      37.427  28.871  29.312  1.00  0.00     0.014 A 
ATOM     46  C   UNL A   1      39.253  29.082  27.237  1.00  0.00     0.010 A 
ATOM     47  C   UNL A   1      38.618  28.171  29.366  1.00  0.00     0.010 A 
ATOM     48  C   UNL A   1      39.558  28.307  28.358  1.00  0.00    -0.014 A 
BRANCH  48  49
ATOM     49  C   UNL A   1      40.903  27.764  28.648  1.00  0.00     0.031 A 
ATOM     50  C   UNL A   1      41.038  26.308  28.150  1.00  0.00     0.074 A 
ATOM     51  C   UNL A   1      41.807  28.609  29.233  1.00  0.00     0.049 A 
ATOM     52  N   UNL A   1      41.609  25.292  28.725  1.00  0.00    -0.248 NA
ATOM     53  C   UNL A   1      40.296  25.871  26.934  1.00  0.00     0.031 C 
ATOM     54  C   UNL A   1      41.532  30.019  29.592  1.00  0.00     0.029 A 
ATOM     55  N   UNL A   1      43.126  28.484  29.623  1.00  0.00    -0.354 N 
ATOM     56  C   UNL A   1      41.439  24.173  27.870  1.00  0.00     0.074 A 
ATOM     57  C   UNL A   1      40.484  24.552  26.883  1.00  0.00     0.031 C 
ATOM     58  C   UNL A   1      42.598  30.581  30.202  1.00  0.00     0.029 A 
ATOM     59  C   UNL A   1      43.674  29.609  30.290  1.00  0.00     0.049 A 
ATOM     60  H   UNL A   1      43.652  27.670  29.450  1.00  0.00     0.167 HD
ATOM     61  C   UNL A   1      42.227  23.059  27.921  1.00  0.00     0.034 A 
ATOM     62  C   UNL A   1      44.879  29.742  30.929  1.00  0.00     0.034 A 
ATOM     63  C   UNL A   1      43.272  23.280  28.865  1.00  0.00     0.049 A 
ATOM     64  C   UNL A   1      45.574  28.458  30.759  1.00  0.00     0.074 A 
ATOM     65  C   UNL A   1      43.304  23.337  30.233  1.00  0.00     0.029 A 
ATOM     66  N   UNL A   1      44.399  23.878  28.348  1.00  0.00    -0.354 N 
ATOM     67  N   UNL A   1      46.132  28.043  29.659  1.00  0.00    -0.248 NA
ATOM     68  C   UNL A   1      45.502  27.484  31.855  1.00  0.00     0.031 C 
ATOM     69  C   UNL A   1      44.238  24.362  30.491  1.00  0.00     0.029 A 
ATOM     70  C   UNL A   1      44.878  24.737  29.301  1.00  0.00     0.049 A 
ATOM     71  H   UNL A   1      44.788  23.719  27.458  1.00  0.00     0.167 HD
ATOM     72  C   UNL A   1      46.147  26.680  29.843  1.00  0.00     0.074 A 
ATOM     73  C   UNL A   1      46.081  26.447  31.264  1.00  0.00     0.031 C 
ATOM     74  C   UNL A   1      45.683  25.855  28.869  1.00  0.00     0.034 A 
BRANCH  61  75
ATOM     75  C   UNL A   1      42.381  21.840  27.041  1.00  0.00     0.023 A 
ATOM     76  C   UNL A   1      41.532  20.748  27.383  1.00  0.00     0.012 A 
ATOM     77  C   UNL A   1      43.423  21.579  26.134  1.00  0.00     0.148 A 
ATOM     78  C   UNL A   1      41.775  19.444  26.959  1.00  0.00     0.002 A 
ATOM     79  C   UNL A   1      43.629  20.278  25.664  1.00  0.00     0.091 A 
ATOM     80  F   UNL A   1      44.263  22.561  25.791  1.00  0.00    -0.205 F 
ATOM     81  C   UNL A   1      42.837  19.207  26.108  1.00  0.00     0.022 A 
BRANCH  79  82
ATOM     82  S   UNL A   1      44.904  19.858  24.468  1.00  0.00     0.127 S 
ATOM     83  O   UNL A   1      46.124  20.217  25.184  1.00  0.00    -0.237 OA
ATOM     84  O   UNL A   1      44.701  18.416  24.306  1.00  0.00    -0.237 OA
ATOM     85  O   UNL A   1      44.594  20.633  23.274  1.00  0.00    -0.744 OA
ENDBRANCH  79  82
ENDBRANCH  61  75
BRANCH  62  86
ATOM     86  C   UNL A   1      45.491  30.771  31.854  1.00  0.00     0.023 A 
ATOM     87  C   UNL A   1      45.674  30.570  33.231  1.00  0.00     0.012 A 
ATOM     88  C   UNL A   1      45.950  32.026  31.350  1.00  0.00     0.148 A 
ATOM     89  C   UNL A   1      46.373  31.505  34.023  1.00  0.00     0.002 A 
ATOM     90  C   UNL A   1      46.737  32.892  32.099  1.00  0.00     0.091 A 
ATOM     91  F   UNL A   1      45.579  32.429  30.132  1.00  0.00    -0.205 F 
ATOM     92  C   UNL A   1      46.947  32.640  33.450  1.00  0.00     0.022 A 
BRANCH  90  93
ATOM     93  S   UNL A   1      47.610  34.278  31.340  1.00  0.00     0.127 S 
ATOM     94  O   UNL A   1      46.512  35.149  30.922  1.00  0.00    -0.237 OA
ATOM     95  O   UNL A   1      48.397  34.779  32.467  1.00  0.00    -0.237 OA
ATOM     96  O   UNL A   1      48.401  33.719  30.251  1.00  0.00    -0.744 OA
ENDBRANCH  90  93
ENDBRANCH  62  86
BRANCH  74  97
ATOM     97  C   UNL A   1      45.860  26.373  27.450  1.00  0.00     0.023 A 
ATOM     98  C   UNL A   1      44.683  26.814  26.805  1.00  0.00     0.012 A 
ATOM     99  C   UNL A   1      47.064  26.397  26.706  1.00  0.00     0.148 A 
ATOM    100  C   UNL A   1      44.686  27.246  25.478  1.00  0.00     0.002 A 
ATOM    101  C   UNL A   1      47.068  26.857  25.382  1.00  0.00     0.091 A 
ATOM    102  F   UNL A   1      48.188  25.962  27.282  1.00  0.00    -0.205 F 
ATOM    103  C   UNL A   1      45.877  27.271  24.769  1.00  0.00     0.022 A 
BRANCH 101 104
ATOM    104  S   UNL A   1      48.539  26.947  24.341  1.00  0.00     0.127 S 
ATOM    105  O   UNL A   1      49.287  25.762  24.766  1.00  0.00    -0.237 OA
ATOM    106  O   UNL A   1      47.972  26.841  23.001  1.00  0.00    -0.237 OA
ATOM    107  O   UNL A   1      49.188  28.215  24.662  1.00  0.00    -0.744 OA
ENDBRANCH 101 104
ENDBRANCH  74  97
ENDBRANCH  48  49
ENDBRANCH  40  43
ENDBRANCH  38  39
ENDBRANCH  37  38
ENDBRANCH   1  37
TORSDOF 18
ENDMDL
MODEL 3
REMARK VINA RESULT:     -10.2      5.200     12.970
REMARK SMILES Cc1cccc(N2C(=O)/C(=C/c3cccn3-c3cccc(C(=O)NCCCCNC(=O)c4ccc(-c5c6nc(c(-c7cccc(S(=O)(=O)[O-])c7F)c7ccc([nH]7)c(-c7cccc(S(=O)(=O)[O-])c7F)c7nc(c(-c8cccc(S(=O)(=O)[O-])c8F)c8ccc5[nH]8)C=C7)C=C6)cc4)c3)C(O)=NC2=S)c1C
REMARK SMILES IDX 26 1 25 2 24 3 22 4 23 5 21 7 17 8 18 9 95 10 19 11 20 12
REMARK SMILES IDX 16 13 12 14 13 15 14 16 15 17 11 18 7 19 8 20 99 21 9 22
REMARK SMILES IDX 10 23 98 24 100 25 96 26 6 27 1 28 2 29 3 30 101 31 4 32
REMARK SMILES IDX 102 33 5 34 97 35 27 37 28 38 29 39 30 40 31 42 32 43 33 44
REMARK SMILES IDX 94 45 34 46 93 47 35 48 36 49 37 50 87 51 38 52 92 53 86 54
REMARK SMILES IDX 88 55 39 56 91 57 85 58 84 59 40 61 72 62 52 63 71 64 53 65
REMARK SMILES IDX 56 66 70 67 89 68 54 69 55 70 69 72 90 73 57 74 41 75 42 76
REMARK SMILES IDX 50 77 43 78 45 79 51 80 44 81 46 82 47 83 48 84 49 85 73 86
REMARK SMILES IDX 74 87 82 88 75 89 77 90 83 91 76 92 78 93 79 94 80 95 81 96
REMARK SMILES IDX 58 97 59 98 67 99 60 100 62 101 68 102 61 103 63 104 64 105
REMARK SMILES IDX 65 106 66 107
REMARK H PARENT 24 6 97 36 29 41 88 60 56 71
REMARK Flexibility Score: inf
ROOT
ATOM      1  C   UNL A   1      40.745  23.348  26.717  1.00  0.00     0.023 C 
ENDROOT
BRANCH   1   2
ATOM      2  C   UNL A   1      39.355  22.999  27.253  1.00  0.00     0.116 C 
BRANCH   2   3
ATOM      3  N   UNL A   1      38.244  23.692  26.614  1.00  0.00    -0.352 N 
ATOM      4  C   UNL A   1      37.250  23.267  25.755  1.00  0.00     0.251 C 
ATOM      5  O   UNL A   1      36.452  24.095  25.320  1.00  0.00    -0.269 OA
ATOM      6  H   UNL A   1      38.191  24.649  26.840  1.00  0.00     0.163 HD
BRANCH   4   7
ATOM      7  C   UNL A   1      37.159  21.866  25.252  1.00  0.00     0.041 A 
ATOM      8  C   UNL A   1      35.853  19.910  24.666  1.00  0.00     0.046 A 
ATOM      9  C   UNL A   1      37.006  19.118  24.756  1.00  0.00     0.026 A 
ATOM     10  C   UNL A   1      35.967  21.299  24.797  1.00  0.00     0.040 A 
ATOM     11  C   UNL A   1      38.243  19.709  25.016  1.00  0.00     0.003 A 
ATOM     12  C   UNL A   1      38.314  21.073  25.298  1.00  0.00     0.014 A 
BRANCH   8  13
ATOM     13  N   UNL A   1      34.562  19.290  24.640  1.00  0.00    -0.317 N 
ATOM     14  C   UNL A   1      33.295  19.864  24.502  1.00  0.00     0.047 A 
ATOM     15  C   UNL A   1      32.343  18.897  24.781  1.00  0.00     0.028 A 
ATOM     16  C   UNL A   1      33.016  17.706  25.103  1.00  0.00     0.020 A 
ATOM     17  C   UNL A   1      34.362  17.957  24.974  1.00  0.00     0.092 A 
BRANCH  14  18
ATOM     18  C   UNL A   1      33.133  21.186  24.025  1.00  0.00     0.046 C 
ATOM     19  N   UNL A   1      31.802  24.502  24.569  1.00  0.00    -0.251 N 
ATOM     20  C   UNL A   1      32.513  23.487  23.939  1.00  0.00     0.270 C 
ATOM     21  C   UNL A   1      31.195  24.378  25.834  1.00  0.00     0.210 C 
ATOM     22  O   UNL A   1      33.022  23.568  22.820  1.00  0.00    -0.268 OA
ATOM     23  C   UNL A   1      32.630  22.225  24.722  1.00  0.00     0.104 C 
ATOM     24  N   UNL A   1      31.529  23.295  26.613  1.00  0.00    -0.184 NA
ATOM     25  S   UNL A   1      30.082  25.495  26.467  1.00  0.00    -0.038 S 
ATOM     26  C   UNL A   1      32.196  22.323  26.117  1.00  0.00     0.226 C 
BRANCH  19  27
ATOM     27  C   UNL A   1      31.846  25.766  23.906  1.00  0.00     0.055 A 
ATOM     28  C   UNL A   1      33.822  29.038  23.984  1.00  0.00     0.044 C 
ATOM     29  C   UNL A   1      32.862  27.947  23.606  1.00  0.00    -0.046 A 
ATOM     30  C   UNL A   1      31.966  28.190  22.556  1.00  0.00     0.004 A 
ATOM     31  C   UNL A   1      32.831  26.708  24.274  1.00  0.00    -0.024 A 
ATOM     32  C   UNL A   1      31.051  27.221  22.154  1.00  0.00     0.002 A 
ATOM     33  C   UNL A   1      33.883  26.321  25.278  1.00  0.00     0.047 C 
ATOM     34  C   UNL A   1      30.982  26.010  22.834  1.00  0.00     0.027 A 
ENDBRANCH  19  27
BRANCH  26  35
ATOM     35  O   UNL A   1      32.579  21.368  26.981  1.00  0.00    -0.493 OA
ATOM     36  H   UNL A   1      32.047  20.607  27.102  1.00  0.00     0.295 HD
ENDBRANCH  26  35
ENDBRANCH  14  18
ENDBRANCH   8  13
ENDBRANCH   4   7
ENDBRANCH   2   3
ENDBRANCH   1   2
BRANCH   1  37
ATOM     37  C   UNL A   1      41.646  22.191  26.278  1.00  0.00     0.023 C 
BRANCH  37  38
ATOM     38  C   UNL A   1      42.793  22.595  25.358  1.00  0.00     0.116 C 
BRANCH  38  39
ATOM     39  N   UNL A   1      44.104  22.538  25.986  1.00  0.00    -0.352 N 
ATOM     40  C   UNL A   1      44.767  23.458  26.785  1.00  0.00     0.251 C 
ATOM     41  H   UNL A   1      44.606  21.708  25.814  1.00  0.00     0.163 HD
ATOM     42  O   UNL A   1      45.971  23.314  26.939  1.00  0.00    -0.269 OA
BRANCH  40  43
ATOM     43  C   UNL A   1      44.070  24.591  27.471  1.00  0.00     0.039 A 
ATOM     44  C   UNL A   1      43.454  24.379  28.717  1.00  0.00     0.014 A 
ATOM     45  C   UNL A   1      43.930  25.838  26.885  1.00  0.00     0.014 A 
ATOM     46  C   UNL A   1      42.761  25.419  29.363  1.00  0.00     0.010 A 
ATOM     47  C   UNL A   1      43.196  26.846  27.481  1.00  0.00     0.010 A 
ATOM     48  C   UNL A   1      42.649  26.664  28.740  1.00  0.00    -0.014 A 
BRANCH  48  49
ATOM     49  C   UNL A   1      42.147  27.883  29.411  1.00  0.00     0.031 A 
ATOM     50  C   UNL A   1      43.118  28.355  30.516  1.00  0.00     0.074 A 
ATOM     51  C   UNL A   1      40.983  28.424  28.938  1.00  0.00     0.049 A 
ATOM     52  N   UNL A   1      42.852  28.811  31.703  1.00  0.00    -0.248 NA
ATOM     53  C   UNL A   1      44.583  28.133  30.358  1.00  0.00     0.031 C 
ATOM     54  C   UNL A   1      40.198  27.876  27.807  1.00  0.00     0.029 A 
ATOM     55  N   UNL A   1      40.232  29.535  29.272  1.00  0.00    -0.354 N 
ATOM     56  C   UNL A   1      44.091  29.081  32.339  1.00  0.00     0.074 A 
ATOM     57  C   UNL A   1      45.104  28.484  31.534  1.00  0.00     0.031 C 
ATOM     58  C   UNL A   1      39.070  28.593  27.606  1.00  0.00     0.029 A 
ATOM     59  C   UNL A   1      39.011  29.682  28.566  1.00  0.00     0.049 A 
ATOM     60  H   UNL A   1      40.524  30.182  29.955  1.00  0.00     0.167 HD
ATOM     61  C   UNL A   1      44.226  29.931  33.399  1.00  0.00     0.034 A 
ATOM     62  C   UNL A   1      37.988  30.570  28.770  1.00  0.00     0.034 A 
ATOM     63  C   UNL A   1      42.969  30.555  33.649  1.00  0.00     0.049 A 
ATOM     64  C   UNL A   1      38.410  31.430  29.885  1.00  0.00     0.074 A 
ATOM     65  C   UNL A   1      41.790  30.109  34.185  1.00  0.00     0.029 A 
ATOM     66  N   UNL A   1      42.747  31.710  32.934  1.00  0.00    -0.354 N 
ATOM     67  N   UNL A   1      39.301  32.376  29.811  1.00  0.00    -0.248 NA
ATOM     68  C   UNL A   1      37.925  31.104  31.232  1.00  0.00     0.031 C 
ATOM     69  C   UNL A   1      40.814  30.768  33.410  1.00  0.00     0.029 A 
ATOM     70  C   UNL A   1      41.422  31.727  32.588  1.00  0.00     0.049 A 
ATOM     71  H   UNL A   1      43.417  32.396  32.712  1.00  0.00     0.167 HD
ATOM     72  C   UNL A   1      39.707  32.490  31.120  1.00  0.00     0.074 A 
ATOM     73  C   UNL A   1      38.639  31.970  31.938  1.00  0.00     0.031 C 
ATOM     74  C   UNL A   1      41.029  32.491  31.428  1.00  0.00     0.034 A 
BRANCH  61  75
ATOM     75  C   UNL A   1      45.411  30.522  34.128  1.00  0.00     0.023 A 
ATOM     76  C   UNL A   1      45.343  30.428  35.548  1.00  0.00     0.012 A 
ATOM     77  C   UNL A   1      46.399  31.365  33.589  1.00  0.00     0.148 A 
ATOM     78  C   UNL A   1      46.117  31.221  36.392  1.00  0.00     0.002 A 
ATOM     79  C   UNL A   1      47.214  32.116  34.442  1.00  0.00     0.091 A 
ATOM     80  F   UNL A   1      46.497  31.506  32.264  1.00  0.00    -0.205 F 
ATOM     81  C   UNL A   1      47.045  32.079  35.835  1.00  0.00     0.022 A 
BRANCH  79  82
ATOM     82  S   UNL A   1      48.533  33.184  33.848  1.00  0.00     0.127 S 
ATOM     83  O   UNL A   1      49.206  33.556  35.088  1.00  0.00    -0.237 OA
ATOM     84  O   UNL A   1      49.300  32.270  32.996  1.00  0.00    -0.237 OA
ATOM     85  O   UNL A   1      47.872  34.255  33.114  1.00  0.00    -0.744 OA
ENDBRANCH  79  82
ENDBRANCH  61  75
BRANCH  62  86
ATOM     86  C   UNL A   1      36.568  30.700  28.265  1.00  0.00     0.023 A 
ATOM     87  C   UNL A   1      35.770  29.607  27.894  1.00  0.00     0.012 A 
ATOM     88  C   UNL A   1      35.944  31.980  28.162  1.00  0.00     0.148 A 
ATOM     89  C   UNL A   1      34.409  29.771  27.561  1.00  0.00     0.002 A 
ATOM     90  C   UNL A   1      34.579  32.133  27.946  1.00  0.00     0.091 A 
ATOM     91  F   UNL A   1      36.686  33.088  28.219  1.00  0.00    -0.205 F 
ATOM     92  C   UNL A   1      33.801  31.024  27.634  1.00  0.00     0.022 A 
BRANCH  90  93
ATOM     93  S   UNL A   1      33.754  33.720  28.188  1.00  0.00     0.127 S 
ATOM     94  O   UNL A   1      34.591  34.631  27.409  1.00  0.00    -0.237 OA
ATOM     95  O   UNL A   1      32.435  33.453  27.613  1.00  0.00    -0.237 OA
ATOM     96  O   UNL A   1      33.748  33.967  29.625  1.00  0.00    -0.744 OA
ENDBRANCH  90  93
ENDBRANCH  62  86
BRANCH  74  97
ATOM     97  C   UNL A   1      41.937  33.080  30.358  1.00  0.00     0.023 A 
ATOM     98  C   UNL A   1      42.788  32.164  29.701  1.00  0.00     0.012 A 
ATOM     99  C   UNL A   1      42.051  34.447  30.009  1.00  0.00     0.148 A 
ATOM    100  C   UNL A   1      43.723  32.576  28.751  1.00  0.00     0.002 A 
ATOM    101  C   UNL A   1      42.972  34.853  29.035  1.00  0.00     0.091 A 
ATOM    102  F   UNL A   1      41.277  35.339  30.633  1.00  0.00    -0.205 F 
ATOM    103  C   UNL A   1      43.813  33.918  28.416  1.00  0.00     0.022 A 
BRANCH 101 104
ATOM    104  S   UNL A   1      43.197  36.562  28.498  1.00  0.00     0.127 S 
ATOM    105  O   UNL A   1      43.596  37.224  29.742  1.00  0.00    -0.237 OA
ATOM    106  O   UNL A   1      44.275  36.436  27.523  1.00  0.00    -0.237 OA
ATOM    107  O   UNL A   1      41.907  36.997  27.972  1.00  0.00    -0.744 OA
ENDBRANCH 101 104
ENDBRANCH  74  97
ENDBRANCH  48  49
ENDBRANCH  40  43
ENDBRANCH  38  39
ENDBRANCH  37  38
ENDBRANCH   1  37
TORSDOF 18
ENDMDL
