MODEL 1
REMARK VINA RESULT:     -12.6      0.000      0.000
REMARK SMILES O=C(NCCCCNC(=O)c1ccc(S(=O)(=O)Cc2ncccn2)c(F)c1)c1ccc(-c2c3nc(c(-c4cccc(S(=O)(=O)[O-])c4F)c4ccc([nH]4)c(-c4cccc(S(=O)(=O)[O-])c4F)c4nc(c(-c5cccc(S(=O)(=O)[O-])c5F)c5ccc2[nH]5)C=C4)C=C3)cc1
REMARK SMILES IDX 5 1 4 2 3 3 1 4 2 5 28 7 29 8 90 9 30 10 89 11 31 12 32 13
REMARK SMILES IDX 33 14 83 15 34 16 88 17 82 18 84 19 35 20 87 21 81 22 80 23
REMARK SMILES IDX 36 25 68 26 48 27 67 28 49 29 52 30 66 31 85 32 50 33 51 34
REMARK SMILES IDX 65 36 86 37 53 38 37 39 38 40 46 41 39 42 41 43 47 44 40 45
REMARK SMILES IDX 42 46 43 47 44 48 45 49 69 50 70 51 78 52 71 53 73 54 79 55
REMARK SMILES IDX 72 56 74 57 75 58 76 59 77 60 54 61 55 62 63 63 56 64 58 65
REMARK SMILES IDX 64 66 57 67 59 68 60 69 61 70 62 71 6 72 7 73 8 74 9 75
REMARK SMILES IDX 10 77 11 78 12 79 27 80 13 81 25 82 14 83 26 84 15 85 16 86
REMARK SMILES IDX 17 87 18 88 19 89 20 90 24 91 21 92 23 93 22 94
REMARK H PARENT 3 6 84 24 52 35 8 76
REMARK Flexibility Score: inf
ROOT
ATOM      1  C   UNL A   1      34.861  21.332  25.899  1.00  0.00     0.023 C 
ENDROOT
BRANCH   1   2
ATOM      2  C   UNL A   1      36.289  21.821  25.700  1.00  0.00     0.116 C 
BRANCH   2   3
ATOM      3  N   UNL A   1      37.255  20.748  25.525  1.00  0.00    -0.352 N 
ATOM      4  O   UNL A   1      39.301  19.799  25.456  1.00  0.00    -0.269 OA
ATOM      5  C   UNL A   1      38.614  20.771  25.751  1.00  0.00     0.251 C 
ATOM      6  H   UNL A   1      36.889  19.892  25.205  1.00  0.00     0.163 HD
BRANCH   5   7
ATOM      7  C   UNL A   1      39.238  21.994  26.306  1.00  0.00     0.039 A 
ATOM      8  C   UNL A   1      38.778  23.257  25.929  1.00  0.00     0.014 A 
ATOM      9  C   UNL A   1      40.320  21.875  27.182  1.00  0.00     0.014 A 
ATOM     10  C   UNL A   1      39.499  24.387  26.291  1.00  0.00     0.010 A 
ATOM     11  C   UNL A   1      40.989  23.023  27.622  1.00  0.00     0.010 A 
ATOM     12  C   UNL A   1      40.611  24.287  27.146  1.00  0.00    -0.014 A 
BRANCH  12  13
ATOM     13  C   UNL A   1      41.295  25.534  27.573  1.00  0.00     0.031 A 
ATOM     14  C   UNL A   1      42.689  25.870  27.120  1.00  0.00     0.074 A 
ATOM     15  C   UNL A   1      40.613  26.400  28.346  1.00  0.00     0.049 A 
ATOM     16  N   UNL A   1      43.359  26.979  27.300  1.00  0.00    -0.248 NA
ATOM     17  C   UNL A   1      43.432  24.836  26.382  1.00  0.00     0.031 C 
ATOM     18  C   UNL A   1      39.277  26.152  28.893  1.00  0.00     0.029 A 
ATOM     19  N   UNL A   1      40.922  27.662  28.783  1.00  0.00    -0.354 N 
ATOM     20  C   UNL A   1      44.611  26.767  26.738  1.00  0.00     0.074 A 
ATOM     21  C   UNL A   1      44.612  25.419  26.212  1.00  0.00     0.031 C 
ATOM     22  C   UNL A   1      38.854  27.249  29.534  1.00  0.00     0.029 A 
ATOM     23  C   UNL A   1      39.904  28.262  29.487  1.00  0.00     0.049 A 
ATOM     24  H   UNL A   1      41.789  28.097  28.610  1.00  0.00     0.167 HD
ATOM     25  C   UNL A   1      45.655  27.626  26.650  1.00  0.00     0.034 A 
ATOM     26  C   UNL A   1      39.813  29.493  30.028  1.00  0.00     0.034 A 
ATOM     27  C   UNL A   1      45.626  28.983  27.128  1.00  0.00     0.049 A 
ATOM     28  C   UNL A   1      40.957  30.448  29.859  1.00  0.00     0.074 A 
ATOM     29  C   UNL A   1      46.606  29.954  27.011  1.00  0.00     0.029 A 
ATOM     30  N   UNL A   1      44.568  29.563  27.812  1.00  0.00    -0.354 N 
ATOM     31  N   UNL A   1      42.080  30.273  29.205  1.00  0.00    -0.248 NA
ATOM     32  C   UNL A   1      40.821  31.771  30.483  1.00  0.00     0.031 C 
ATOM     33  C   UNL A   1      46.146  31.117  27.637  1.00  0.00     0.029 A 
ATOM     34  C   UNL A   1      44.875  30.875  28.134  1.00  0.00     0.049 A 
ATOM     35  H   UNL A   1      43.724  29.109  28.035  1.00  0.00     0.167 HD
ATOM     36  C   UNL A   1      42.782  31.465  29.328  1.00  0.00     0.074 A 
ATOM     37  C   UNL A   1      41.946  32.364  30.098  1.00  0.00     0.031 C 
ATOM     38  C   UNL A   1      44.018  31.773  28.864  1.00  0.00     0.034 A 
BRANCH  25  39
ATOM     39  C   UNL A   1      46.910  27.153  25.963  1.00  0.00     0.023 A 
ATOM     40  C   UNL A   1      47.071  27.386  24.583  1.00  0.00     0.012 A 
ATOM     41  C   UNL A   1      47.966  26.575  26.695  1.00  0.00     0.148 A 
ATOM     42  C   UNL A   1      48.256  27.033  23.937  1.00  0.00     0.002 A 
ATOM     43  C   UNL A   1      49.159  26.259  26.050  1.00  0.00     0.091 A 
ATOM     44  F   UNL A   1      47.786  26.339  28.003  1.00  0.00    -0.205 F 
ATOM     45  C   UNL A   1      49.302  26.483  24.672  1.00  0.00     0.022 A 
BRANCH  43  46
ATOM     46  S   UNL A   1      50.585  25.619  26.937  1.00  0.00     0.127 S 
ATOM     47  O   UNL A   1      50.917  26.741  27.813  1.00  0.00    -0.237 OA
ATOM     48  O   UNL A   1      50.029  24.453  27.626  1.00  0.00    -0.237 OA
ATOM     49  O   UNL A   1      51.572  25.299  25.915  1.00  0.00    -0.744 OA
ENDBRANCH  43  46
ENDBRANCH  25  39
BRANCH  26  50
ATOM     50  C   UNL A   1      38.539  29.889  30.689  1.00  0.00     0.023 A 
ATOM     51  C   UNL A   1      38.375  29.653  32.067  1.00  0.00     0.012 A 
ATOM     52  C   UNL A   1      37.558  30.626  29.995  1.00  0.00     0.148 A 
ATOM     53  C   UNL A   1      37.262  30.152  32.744  1.00  0.00     0.002 A 
ATOM     54  C   UNL A   1      36.486  31.175  30.688  1.00  0.00     0.091 A 
ATOM     55  F   UNL A   1      37.726  30.823  28.679  1.00  0.00    -0.205 F 
ATOM     56  C   UNL A   1      36.330  30.928  32.061  1.00  0.00     0.022 A 
BRANCH  54  57
ATOM     57  S   UNL A   1      35.344  32.333  29.925  1.00  0.00     0.127 S 
ATOM     58  O   UNL A   1      34.419  32.607  31.020  1.00  0.00    -0.237 OA
ATOM     59  O   UNL A   1      36.230  33.443  29.572  1.00  0.00    -0.237 OA
ATOM     60  O   UNL A   1      34.781  31.631  28.779  1.00  0.00    -0.744 OA
ENDBRANCH  54  57
ENDBRANCH  26  50
BRANCH  38  61
ATOM     61  C   UNL A   1      44.565  33.138  29.178  1.00  0.00     0.023 A 
ATOM     62  C   UNL A   1      45.243  33.343  30.396  1.00  0.00     0.012 A 
ATOM     63  C   UNL A   1      44.521  34.175  28.226  1.00  0.00     0.148 A 
ATOM     64  C   UNL A   1      45.860  34.563  30.666  1.00  0.00     0.002 A 
ATOM     65  C   UNL A   1      45.172  35.375  28.484  1.00  0.00     0.091 A 
ATOM     66  F   UNL A   1      43.855  33.961  27.081  1.00  0.00    -0.205 F 
ATOM     67  C   UNL A   1      45.837  35.572  29.706  1.00  0.00     0.022 A 
BRANCH  65  68
ATOM     68  S   UNL A   1      45.273  36.698  27.273  1.00  0.00     0.127 S 
ATOM     69  O   UNL A   1      43.861  37.006  27.052  1.00  0.00    -0.237 OA
ATOM     70  O   UNL A   1      46.016  37.728  27.999  1.00  0.00    -0.237 OA
ATOM     71  O   UNL A   1      45.977  36.140  26.126  1.00  0.00    -0.744 OA
ENDBRANCH  65  68
ENDBRANCH  38  61
ENDBRANCH  12  13
ENDBRANCH   5   7
ENDBRANCH   2   3
ENDBRANCH   1   2
BRANCH   1  72
ATOM     72  C   UNL A   1      34.034  21.175  24.624  1.00  0.00     0.023 C 
BRANCH  72  73
ATOM     73  C   UNL A   1      32.548  20.899  24.847  1.00  0.00     0.116 C 
BRANCH  73  74
ATOM     74  N   UNL A   1      32.078  21.401  26.129  1.00  0.00    -0.352 N 
ATOM     75  C   UNL A   1      31.767  22.690  26.476  1.00  0.00     0.251 C 
ATOM     76  H   UNL A   1      31.969  20.728  26.839  1.00  0.00     0.163 HD
ATOM     77  O   UNL A   1      31.453  23.000  27.619  1.00  0.00    -0.269 OA
BRANCH  75  78
ATOM     78  C   UNL A   1      31.825  23.724  25.436  1.00  0.00     0.042 A 
ATOM     79  C   UNL A   1      30.905  23.697  24.381  1.00  0.00     0.015 A 
ATOM     80  C   UNL A   1      32.835  24.684  25.492  1.00  0.00     0.054 A 
ATOM     81  C   UNL A   1      31.022  24.628  23.351  1.00  0.00     0.024 A 
ATOM     82  C   UNL A   1      32.958  25.591  24.446  1.00  0.00     0.142 A 
ATOM     83  C   UNL A   1      32.058  25.571  23.386  1.00  0.00     0.103 A 
ATOM     84  F   UNL A   1      33.985  26.448  24.464  1.00  0.00    -0.206 F 
BRANCH  83  85
ATOM     85  S   UNL A   1      32.269  26.666  22.017  1.00  0.00     0.188 S 
ATOM     86  O   UNL A   1      33.663  26.512  21.626  1.00  0.00    -0.223 OA
ATOM     87  O   UNL A   1      31.236  26.328  21.051  1.00  0.00    -0.223 OA
BRANCH  85  88
ATOM     88  C   UNL A   1      32.048  28.337  22.524  1.00  0.00     0.219 C 
BRANCH  88  89
ATOM     89  C   UNL A   1      30.610  28.707  22.414  1.00  0.00     0.143 A 
ATOM     90  N   UNL A   1      30.273  29.745  21.628  1.00  0.00    -0.240 NA
ATOM     91  N   UNL A   1      29.736  28.052  23.204  1.00  0.00    -0.240 NA
ATOM     92  C   UNL A   1      28.975  30.107  21.619  1.00  0.00     0.115 A 
ATOM     93  C   UNL A   1      28.454  28.461  23.170  1.00  0.00     0.115 A 
ATOM     94  C   UNL A   1      28.013  29.496  22.384  1.00  0.00     0.040 A 
ENDBRANCH  88  89
ENDBRANCH  85  88
ENDBRANCH  83  85
ENDBRANCH  75  78
ENDBRANCH  73  74
ENDBRANCH  72  73
ENDBRANCH   1  72
TORSDOF 17
ENDMDL
MODEL 2
REMARK VINA RESULT:     -12.5      5.102     10.220
REMARK SMILES O=C(NCCCCNC(=O)c1ccc(S(=O)(=O)Cc2ncccn2)c(F)c1)c1ccc(-c2c3nc(c(-c4cccc(S(=O)(=O)[O-])c4F)c4ccc([nH]4)c(-c4cccc(S(=O)(=O)[O-])c4F)c4nc(c(-c5cccc(S(=O)(=O)[O-])c5F)c5ccc2[nH]5)C=C4)C=C3)cc1
REMARK SMILES IDX 5 1 4 2 3 3 1 4 2 5 28 7 29 8 90 9 30 10 89 11 31 12 32 13
REMARK SMILES IDX 33 14 83 15 34 16 88 17 82 18 84 19 35 20 87 21 81 22 80 23
REMARK SMILES IDX 36 25 68 26 48 27 67 28 49 29 52 30 66 31 85 32 50 33 51 34
REMARK SMILES IDX 65 36 86 37 53 38 37 39 38 40 46 41 39 42 41 43 47 44 40 45
REMARK SMILES IDX 42 46 43 47 44 48 45 49 69 50 70 51 78 52 71 53 73 54 79 55
REMARK SMILES IDX 72 56 74 57 75 58 76 59 77 60 54 61 55 62 63 63 56 64 58 65
REMARK SMILES IDX 64 66 57 67 59 68 60 69 61 70 62 71 6 72 7 73 8 74 9 75
REMARK SMILES IDX 10 77 11 78 12 79 27 80 13 81 25 82 14 83 26 84 15 85 16 86
REMARK SMILES IDX 17 87 18 88 19 89 20 90 24 91 21 92 23 93 22 94
REMARK H PARENT 3 6 84 24 52 35 8 76
REMARK Flexibility Score: inf
ROOT
ATOM      1  C   UNL A   1      32.674  29.032  24.350  1.00  0.00     0.023 C 
ENDROOT
BRANCH   1   2
ATOM      2  C   UNL A   1      33.198  29.361  25.741  1.00  0.00     0.116 C 
BRANCH   2   3
ATOM      3  N   UNL A   1      32.742  30.646  26.248  1.00  0.00    -0.352 N 
ATOM      4  O   UNL A   1      32.772  32.478  27.565  1.00  0.00    -0.269 OA
ATOM      5  C   UNL A   1      33.346  31.466  27.175  1.00  0.00     0.251 C 
ATOM      6  H   UNL A   1      31.891  30.973  25.877  1.00  0.00     0.163 HD
BRANCH   5   7
ATOM      7  C   UNL A   1      34.667  31.089  27.728  1.00  0.00     0.039 A 
ATOM      8  C   UNL A   1      34.892  29.797  28.205  1.00  0.00     0.014 A 
ATOM      9  C   UNL A   1      35.678  32.051  27.806  1.00  0.00     0.014 A 
ATOM     10  C   UNL A   1      36.057  29.516  28.905  1.00  0.00     0.010 A 
ATOM     11  C   UNL A   1      36.890  31.737  28.430  1.00  0.00     0.010 A 
ATOM     12  C   UNL A   1      37.075  30.480  29.024  1.00  0.00    -0.014 A 
BRANCH  12  13
ATOM     13  C   UNL A   1      38.338  30.102  29.708  1.00  0.00     0.031 A 
ATOM     14  C   UNL A   1      38.655  30.565  31.103  1.00  0.00     0.074 A 
ATOM     15  C   UNL A   1      39.187  29.278  29.064  1.00  0.00     0.049 A 
ATOM     16  N   UNL A   1      39.649  30.207  31.874  1.00  0.00    -0.248 NA
ATOM     17  C   UNL A   1      37.756  31.559  31.710  1.00  0.00     0.031 C 
ATOM     18  C   UNL A   1      39.010  28.813  27.687  1.00  0.00     0.029 A 
ATOM     19  N   UNL A   1      40.341  28.665  29.477  1.00  0.00    -0.354 N 
ATOM     20  C   UNL A   1      39.522  30.956  33.037  1.00  0.00     0.074 A 
ATOM     21  C   UNL A   1      38.355  31.795  32.871  1.00  0.00     0.031 C 
ATOM     22  C   UNL A   1      39.979  27.937  27.391  1.00  0.00     0.029 A 
ATOM     23  C   UNL A   1      40.874  27.813  28.537  1.00  0.00     0.049 A 
ATOM     24  H   UNL A   1      40.749  28.818  30.360  1.00  0.00     0.167 HD
ATOM     25  C   UNL A   1      40.297  30.929  34.148  1.00  0.00     0.034 A 
ATOM     26  C   UNL A   1      41.955  27.010  28.588  1.00  0.00     0.034 A 
ATOM     27  C   UNL A   1      41.424  30.052  34.326  1.00  0.00     0.049 A 
ATOM     28  C   UNL A   1      42.758  26.950  29.854  1.00  0.00     0.074 A 
ATOM     29  C   UNL A   1      42.219  29.896  35.448  1.00  0.00     0.029 A 
ATOM     30  N   UNL A   1      41.918  29.186  33.362  1.00  0.00    -0.354 N 
ATOM     31  N   UNL A   1      42.540  27.566  30.991  1.00  0.00    -0.248 NA
ATOM     32  C   UNL A   1      43.938  26.077  29.856  1.00  0.00     0.031 C 
ATOM     33  C   UNL A   1      43.202  28.945  35.158  1.00  0.00     0.029 A 
ATOM     34  C   UNL A   1      43.013  28.500  33.859  1.00  0.00     0.049 A 
ATOM     35  H   UNL A   1      41.543  29.075  32.459  1.00  0.00     0.167 HD
ATOM     36  C   UNL A   1      43.550  27.149  31.848  1.00  0.00     0.074 A 
ATOM     37  C   UNL A   1      44.365  26.207  31.107  1.00  0.00     0.031 C 
ATOM     38  C   UNL A   1      43.790  27.534  33.125  1.00  0.00     0.034 A 
BRANCH  25  39
ATOM     39  C   UNL A   1      39.928  31.836  35.294  1.00  0.00     0.023 A 
ATOM     40  C   UNL A   1      40.425  33.154  35.318  1.00  0.00     0.012 A 
ATOM     41  C   UNL A   1      39.016  31.422  36.284  1.00  0.00     0.148 A 
ATOM     42  C   UNL A   1      40.035  34.041  36.322  1.00  0.00     0.002 A 
ATOM     43  C   UNL A   1      38.603  32.324  37.261  1.00  0.00     0.091 A 
ATOM     44  F   UNL A   1      38.572  30.157  36.259  1.00  0.00    -0.205 F 
ATOM     45  C   UNL A   1      39.116  33.631  37.284  1.00  0.00     0.022 A 
BRANCH  43  46
ATOM     46  S   UNL A   1      37.364  31.901  38.492  1.00  0.00     0.127 S 
ATOM     47  O   UNL A   1      38.078  32.176  39.737  1.00  0.00    -0.237 OA
ATOM     48  O   UNL A   1      36.285  32.844  38.189  1.00  0.00    -0.237 OA
ATOM     49  O   UNL A   1      37.027  30.506  38.248  1.00  0.00    -0.744 OA
ENDBRANCH  43  46
ENDBRANCH  25  39
BRANCH  26  50
ATOM     50  C   UNL A   1      42.254  26.141  27.417  1.00  0.00     0.023 A 
ATOM     51  C   UNL A   1      43.145  26.600  26.427  1.00  0.00     0.012 A 
ATOM     52  C   UNL A   1      41.779  24.815  27.354  1.00  0.00     0.148 A 
ATOM     53  C   UNL A   1      43.564  25.751  25.403  1.00  0.00     0.002 A 
ATOM     54  C   UNL A   1      42.252  23.957  26.370  1.00  0.00     0.091 A 
ATOM     55  F   UNL A   1      40.919  24.406  28.297  1.00  0.00    -0.205 F 
ATOM     56  C   UNL A   1      43.135  24.427  25.385  1.00  0.00     0.022 A 
BRANCH  54  57
ATOM     57  S   UNL A   1      41.895  22.196  26.381  1.00  0.00     0.127 S 
ATOM     58  O   UNL A   1      42.724  21.715  25.281  1.00  0.00    -0.237 OA
ATOM     59  O   UNL A   1      42.351  21.805  27.716  1.00  0.00    -0.237 OA
ATOM     60  O   UNL A   1      40.455  22.087  26.186  1.00  0.00    -0.744 OA
ENDBRANCH  54  57
ENDBRANCH  26  50
BRANCH  38  61
ATOM     61  C   UNL A   1      44.991  26.952  33.820  1.00  0.00     0.023 A 
ATOM     62  C   UNL A   1      46.223  27.630  33.746  1.00  0.00     0.012 A 
ATOM     63  C   UNL A   1      44.873  25.814  34.642  1.00  0.00     0.148 A 
ATOM     64  C   UNL A   1      47.325  27.179  34.471  1.00  0.00     0.002 A 
ATOM     65  C   UNL A   1      45.964  25.393  35.393  1.00  0.00     0.091 A 
ATOM     66  F   UNL A   1      43.694  25.176  34.684  1.00  0.00    -0.205 F 
ATOM     67  C   UNL A   1      47.192  26.071  35.304  1.00  0.00     0.022 A 
BRANCH  65  68
ATOM     68  S   UNL A   1      45.863  24.032  36.562  1.00  0.00     0.127 S 
ATOM     69  O   UNL A   1      47.271  23.817  36.890  1.00  0.00    -0.237 OA
ATOM     70  O   UNL A   1      45.065  24.609  37.644  1.00  0.00    -0.237 OA
ATOM     71  O   UNL A   1      45.214  22.939  35.849  1.00  0.00    -0.744 OA
ENDBRANCH  65  68
ENDBRANCH  38  61
ENDBRANCH  12  13
ENDBRANCH   5   7
ENDBRANCH   2   3
ENDBRANCH   1   2
BRANCH   1  72
ATOM     72  C   UNL A   1      31.176  28.744  24.261  1.00  0.00     0.023 C 
BRANCH  72  73
ATOM     73  C   UNL A   1      30.740  27.966  23.020  1.00  0.00     0.116 C 
BRANCH  73  74
ATOM     74  N   UNL A   1      31.837  27.750  22.089  1.00  0.00    -0.352 N 
ATOM     75  C   UNL A   1      32.719  26.701  22.042  1.00  0.00     0.251 C 
ATOM     76  H   UNL A   1      31.961  28.445  21.404  1.00  0.00     0.163 HD
ATOM     77  O   UNL A   1      33.654  26.671  21.252  1.00  0.00    -0.269 OA
BRANCH  75  78
ATOM     78  C   UNL A   1      32.529  25.589  22.981  1.00  0.00     0.042 A 
ATOM     79  C   UNL A   1      31.403  24.766  22.861  1.00  0.00     0.015 A 
ATOM     80  C   UNL A   1      33.451  25.410  24.012  1.00  0.00     0.054 A 
ATOM     81  C   UNL A   1      31.183  23.769  23.810  1.00  0.00     0.024 A 
ATOM     82  C   UNL A   1      33.208  24.430  24.967  1.00  0.00     0.142 A 
ATOM     83  C   UNL A   1      32.089  23.611  24.867  1.00  0.00     0.103 A 
ATOM     84  F   UNL A   1      34.050  24.327  26.002  1.00  0.00    -0.206 F 
BRANCH  83  85
ATOM     85  S   UNL A   1      31.737  22.426  26.129  1.00  0.00     0.188 S 
ATOM     86  O   UNL A   1      31.774  23.182  27.373  1.00  0.00    -0.223 OA
ATOM     87  O   UNL A   1      30.494  21.773  25.750  1.00  0.00    -0.223 OA
BRANCH  85  88
ATOM     88  C   UNL A   1      33.013  21.216  26.211  1.00  0.00     0.219 C 
BRANCH  88  89
ATOM     89  C   UNL A   1      32.715  20.109  25.261  1.00  0.00     0.143 A 
ATOM     90  N   UNL A   1      32.594  18.861  25.747  1.00  0.00    -0.240 NA
ATOM     91  N   UNL A   1      32.700  20.405  23.946  1.00  0.00    -0.240 NA
ATOM     92  C   UNL A   1      32.411  17.872  24.850  1.00  0.00     0.115 A 
ATOM     93  C   UNL A   1      32.528  19.380  23.090  1.00  0.00     0.115 A 
ATOM     94  C   UNL A   1      32.375  18.078  23.493  1.00  0.00     0.040 A 
ENDBRANCH  88  89
ENDBRANCH  85  88
ENDBRANCH  83  85
ENDBRANCH  75  78
ENDBRANCH  73  74
ENDBRANCH  72  73
ENDBRANCH   1  72
TORSDOF 17
ENDMDL
MODEL 3
REMARK VINA RESULT:     -12.5      1.382      1.722
REMARK SMILES O=C(NCCCCNC(=O)c1ccc(S(=O)(=O)Cc2ncccn2)c(F)c1)c1ccc(-c2c3nc(c(-c4cccc(S(=O)(=O)[O-])c4F)c4ccc([nH]4)c(-c4cccc(S(=O)(=O)[O-])c4F)c4nc(c(-c5cccc(S(=O)(=O)[O-])c5F)c5ccc2[nH]5)C=C4)C=C3)cc1
REMARK SMILES IDX 5 1 4 2 3 3 1 4 2 5 28 7 29 8 90 9 30 10 89 11 31 12 32 13
REMARK SMILES IDX 33 14 83 15 34 16 88 17 82 18 84 19 35 20 87 21 81 22 80 23
REMARK SMILES IDX 36 25 68 26 48 27 67 28 49 29 52 30 66 31 85 32 50 33 51 34
REMARK SMILES IDX 65 36 86 37 53 38 37 39 38 40 46 41 39 42 41 43 47 44 40 45
REMARK SMILES IDX 42 46 43 47 44 48 45 49 69 50 70 51 78 52 71 53 73 54 79 55
REMARK SMILES IDX 72 56 74 57 75 58 76 59 77 60 54 61 55 62 63 63 56 64 58 65
REMARK SMILES IDX 64 66 57 67 59 68 60 69 61 70 62 71 6 72 7 73 8 74 9 75
REMARK SMILES IDX 10 77 11 78 12 79 27 80 13 81 25 82 14 83 26 84 15 85 16 86
REMARK SMILES IDX 17 87 18 88 19 89 20 90 24 91 21 92 23 93 22 94
REMARK H PARENT 3 6 84 24 52 35 8 76
REMARK Flexibility Score: inf
ROOT
ATOM      1  C   UNL A   1      35.751  22.069  24.750  1.00  0.00     0.023 C 
ENDROOT
BRANCH   1   2
ATOM      2  C   UNL A   1      36.959  22.441  25.600  1.00  0.00     0.116 C 
BRANCH   2   3
ATOM      3  N   UNL A   1      37.955  21.386  25.693  1.00  0.00    -0.352 N 
ATOM      4  O   UNL A   1      39.991  20.493  26.078  1.00  0.00    -0.269 OA
ATOM      5  C   UNL A   1      39.248  21.466  26.162  1.00  0.00     0.251 C 
ATOM      6  H   UNL A   1      37.667  20.498  25.382  1.00  0.00     0.163 HD
BRANCH   5   7
ATOM      7  C   UNL A   1      39.742  22.745  26.721  1.00  0.00     0.039 A 
ATOM      8  C   UNL A   1      39.317  23.962  26.185  1.00  0.00     0.014 A 
ATOM      9  C   UNL A   1      40.669  22.725  27.766  1.00  0.00     0.014 A 
ATOM     10  C   UNL A   1      39.940  25.139  26.576  1.00  0.00     0.010 A 
ATOM     11  C   UNL A   1      41.227  23.924  28.224  1.00  0.00     0.010 A 
ATOM     12  C   UNL A   1      40.900  25.138  27.604  1.00  0.00    -0.014 A 
BRANCH  12  13
ATOM     13  C   UNL A   1      41.474  26.435  28.044  1.00  0.00     0.031 A 
ATOM     14  C   UNL A   1      42.884  26.834  27.711  1.00  0.00     0.074 A 
ATOM     15  C   UNL A   1      40.675  27.287  28.717  1.00  0.00     0.049 A 
ATOM     16  N   UNL A   1      43.474  27.984  27.910  1.00  0.00    -0.248 NA
ATOM     17  C   UNL A   1      43.748  25.820  27.085  1.00  0.00     0.031 C 
ATOM     18  C   UNL A   1      39.309  26.982  29.146  1.00  0.00     0.029 A 
ATOM     19  N   UNL A   1      40.874  28.578  29.132  1.00  0.00    -0.354 N 
ATOM     20  C   UNL A   1      44.783  27.825  27.475  1.00  0.00     0.074 A 
ATOM     21  C   UNL A   1      44.907  26.463  27.004  1.00  0.00     0.031 C 
ATOM     22  C   UNL A   1      38.769  28.074  29.702  1.00  0.00     0.029 A 
ATOM     23  C   UNL A   1      39.763  29.142  29.714  1.00  0.00     0.049 A 
ATOM     24  H   UNL A   1      41.729  29.055  29.023  1.00  0.00     0.167 HD
ATOM     25  C   UNL A   1      45.784  28.739  27.453  1.00  0.00     0.034 A 
ATOM     26  C   UNL A   1      39.555  30.383  30.196  1.00  0.00     0.034 A 
ATOM     27  C   UNL A   1      45.637  30.107  27.873  1.00  0.00     0.049 A 
ATOM     28  C   UNL A   1      40.659  31.396  30.099  1.00  0.00     0.074 A 
ATOM     29  C   UNL A   1      46.571  31.127  27.811  1.00  0.00     0.029 A 
ATOM     30  N   UNL A   1      44.490  30.649  28.433  1.00  0.00    -0.354 N 
ATOM     31  N   UNL A   1      41.846  31.263  29.559  1.00  0.00    -0.248 NA
ATOM     32  C   UNL A   1      40.394  32.729  30.655  1.00  0.00     0.031 C 
ATOM     33  C   UNL A   1      45.993  32.282  28.346  1.00  0.00     0.029 A 
ATOM     34  C   UNL A   1      44.695  31.986  28.731  1.00  0.00     0.049 A 
ATOM     35  H   UNL A   1      43.654  30.155  28.593  1.00  0.00     0.167 HD
ATOM     36  C   UNL A   1      42.469  32.496  29.701  1.00  0.00     0.074 A 
ATOM     37  C   UNL A   1      41.517  33.371  30.355  1.00  0.00     0.031 C 
ATOM     38  C   UNL A   1      43.725  32.858  29.343  1.00  0.00     0.034 A 
BRANCH  25  39
ATOM     39  C   UNL A   1      47.122  28.315  26.904  1.00  0.00     0.023 A 
ATOM     40  C   UNL A   1      48.190  28.083  27.794  1.00  0.00     0.012 A 
ATOM     41  C   UNL A   1      47.294  28.047  25.532  1.00  0.00     0.148 A 
ATOM     42  C   UNL A   1      49.416  27.611  27.324  1.00  0.00     0.002 A 
ATOM     43  C   UNL A   1      48.508  27.542  25.076  1.00  0.00     0.091 A 
ATOM     44  F   UNL A   1      46.275  28.296  24.697  1.00  0.00    -0.205 F 
ATOM     45  C   UNL A   1      49.570  27.328  25.969  1.00  0.00     0.022 A 
BRANCH  43  46
ATOM     46  S   UNL A   1      48.767  27.077  23.359  1.00  0.00     0.127 S 
ATOM     47  O   UNL A   1      48.008  25.831  23.272  1.00  0.00    -0.237 OA
ATOM     48  O   UNL A   1      48.172  28.203  22.636  1.00  0.00    -0.237 OA
ATOM     49  O   UNL A   1      50.209  26.954  23.197  1.00  0.00    -0.744 OA
ENDBRANCH  43  46
ENDBRANCH  25  39
BRANCH  26  50
ATOM     50  C   UNL A   1      38.205  30.729  30.719  1.00  0.00     0.023 A 
ATOM     51  C   UNL A   1      37.929  30.545  32.088  1.00  0.00     0.012 A 
ATOM     52  C   UNL A   1      37.252  31.372  29.905  1.00  0.00     0.148 A 
ATOM     53  C   UNL A   1      36.730  31.003  32.636  1.00  0.00     0.002 A 
ATOM     54  C   UNL A   1      36.091  31.884  30.470  1.00  0.00     0.091 A 
ATOM     55  F   UNL A   1      37.529  31.521  28.601  1.00  0.00    -0.205 F 
ATOM     56  C   UNL A   1      35.822  31.689  31.834  1.00  0.00     0.022 A 
BRANCH  54  57
ATOM     57  S   UNL A   1      34.959  32.934  29.552  1.00  0.00     0.127 S 
ATOM     58  O   UNL A   1      34.401  31.997  28.581  1.00  0.00    -0.237 OA
ATOM     59  O   UNL A   1      34.030  33.364  30.598  1.00  0.00    -0.237 OA
ATOM     60  O   UNL A   1      35.778  34.006  29.001  1.00  0.00    -0.744 OA
ENDBRANCH  54  57
ENDBRANCH  26  50
BRANCH  38  61
ATOM     61  C   UNL A   1      44.167  34.261  29.654  1.00  0.00     0.023 A 
ATOM     62  C   UNL A   1      44.833  34.519  30.868  1.00  0.00     0.012 A 
ATOM     63  C   UNL A   1      44.038  35.290  28.701  1.00  0.00     0.148 A 
ATOM     64  C   UNL A   1      45.355  35.783  31.135  1.00  0.00     0.002 A 
ATOM     65  C   UNL A   1      44.596  36.537  28.956  1.00  0.00     0.091 A 
ATOM     66  F   UNL A   1      43.386  35.025  27.559  1.00  0.00    -0.205 F 
ATOM     67  C   UNL A   1      45.249  36.787  30.175  1.00  0.00     0.022 A 
BRANCH  65  68
ATOM     68  S   UNL A   1      44.588  37.864  27.744  1.00  0.00     0.127 S 
ATOM     69  O   UNL A   1      44.964  39.016  28.562  1.00  0.00    -0.237 OA
ATOM     70  O   UNL A   1      45.615  37.427  26.797  1.00  0.00    -0.237 OA
ATOM     71  O   UNL A   1      43.239  37.900  27.198  1.00  0.00    -0.744 OA
ENDBRANCH  65  68
ENDBRANCH  38  61
ENDBRANCH  12  13
ENDBRANCH   5   7
ENDBRANCH   2   3
ENDBRANCH   1   2
BRANCH   1  72
ATOM     72  C   UNL A   1      34.951  20.862  25.236  1.00  0.00     0.023 C 
BRANCH  72  73
ATOM     73  C   UNL A   1      33.438  20.972  25.053  1.00  0.00     0.116 C 
BRANCH  73  74
ATOM     74  N   UNL A   1      32.762  21.394  26.270  1.00  0.00    -0.352 N 
ATOM     75  C   UNL A   1      32.208  22.615  26.557  1.00  0.00     0.251 C 
ATOM     76  H   UNL A   1      32.694  20.716  26.980  1.00  0.00     0.163 HD
ATOM     77  O   UNL A   1      31.732  22.874  27.655  1.00  0.00    -0.269 OA
BRANCH  75  78
ATOM     78  C   UNL A   1      32.199  23.640  25.505  1.00  0.00     0.042 A 
ATOM     79  C   UNL A   1      31.243  23.577  24.485  1.00  0.00     0.015 A 
ATOM     80  C   UNL A   1      33.185  24.626  25.514  1.00  0.00     0.054 A 
ATOM     81  C   UNL A   1      31.297  24.499  23.442  1.00  0.00     0.024 A 
ATOM     82  C   UNL A   1      33.245  25.525  24.456  1.00  0.00     0.142 A 
ATOM     83  C   UNL A   1      32.308  25.470  23.430  1.00  0.00     0.103 A 
ATOM     84  F   UNL A   1      34.249  26.409  24.428  1.00  0.00    -0.206 F 
BRANCH  83  85
ATOM     85  S   UNL A   1      32.440  26.556  22.044  1.00  0.00     0.188 S 
ATOM     86  O   UNL A   1      33.830  26.459  21.624  1.00  0.00    -0.223 OA
ATOM     87  O   UNL A   1      31.402  26.159  21.106  1.00  0.00    -0.223 OA
BRANCH  85  88
ATOM     88  C   UNL A   1      32.153  28.222  22.536  1.00  0.00     0.219 C 
BRANCH  88  89
ATOM     89  C   UNL A   1      30.697  28.521  22.465  1.00  0.00     0.143 A 
ATOM     90  N   UNL A   1      30.291  29.553  21.703  1.00  0.00    -0.240 NA
ATOM     91  N   UNL A   1      29.876  27.813  23.266  1.00  0.00    -0.240 NA
ATOM     92  C   UNL A   1      28.977  29.850  21.730  1.00  0.00     0.115 A 
ATOM     93  C   UNL A   1      28.575  28.158  23.268  1.00  0.00     0.115 A 
ATOM     94  C   UNL A   1      28.064  29.181  22.509  1.00  0.00     0.040 A 
ENDBRANCH  88  89
ENDBRANCH  85  88
ENDBRANCH  83  85
ENDBRANCH  75  78
ENDBRANCH  73  74
ENDBRANCH  72  73
ENDBRANCH   1  72
TORSDOF 17
ENDMDL
