MODEL 1
REMARK VINA RESULT:     -12.1      0.000      0.000
REMARK SMILES Cc1c(Cl)cccc1NC(=O)C[C@H](C(=O)NCCCCNC(=O)c1ccc(-c2c3nc(c(-c4cccc(S(=O)(=O)[O-])c4F)c4ccc([nH]4)c(-c4cccc(S(=O)(=O)[O-])c4F)c4nc(c(-c5cccc(S(=O)(=O)[O-])c5F)c5ccc2[nH]5)C=C4)C=C3)cc1)[C@H](C)c1ccccc1
REMARK SMILES IDX 18 1 17 2 16 3 14 4 15 5 13 7 12 8 10 9 9 10 11 12 8 13 1 14
REMARK SMILES IDX 2 15 3 16 4 17 5 18 7 19 6 20 87 21 88 22 89 23 90 24 94 25
REMARK SMILES IDX 91 26 93 27 92 28 19 29 20 30 21 31 22 32 23 34 24 35 25 36
REMARK SMILES IDX 86 37 26 38 85 39 27 40 28 41 29 42 79 43 30 44 84 45 78 46
REMARK SMILES IDX 80 47 31 48 83 49 77 50 76 51 32 53 64 54 44 55 63 56 45 57
REMARK SMILES IDX 48 58 62 59 81 60 46 61 47 62 61 64 82 65 49 66 33 67 34 68
REMARK SMILES IDX 42 69 35 70 37 71 43 72 36 73 38 74 39 75 40 76 41 77 65 78
REMARK SMILES IDX 66 79 74 80 67 81 69 82 75 83 68 84 70 85 71 86 72 87 73 88
REMARK SMILES IDX 50 89 51 90 59 91 52 92 54 93 60 94 53 95 55 96 56 97 57 98
REMARK SMILES IDX 58 99
REMARK H PARENT 16 6 9 11 21 33 80 52 48 63
REMARK Flexibility Score: inf
ROOT
ATOM      1  C   UNL A   1      37.014  21.641  24.575  1.00  0.00     0.023 C 
ENDROOT
BRANCH   1   2
ATOM      2  C   UNL A   1      36.600  22.587  25.700  1.00  0.00     0.116 C 
BRANCH   2   3
ATOM      3  N   UNL A   1      35.572  22.019  26.528  1.00  0.00    -0.356 N 
ATOM      4  C   UNL A   1      34.246  22.246  26.620  1.00  0.00     0.224 C 
ATOM      5  O   UNL A   1      33.643  21.382  27.272  1.00  0.00    -0.275 OA
ATOM      6  H   UNL A   1      35.900  21.329  27.149  1.00  0.00     0.163 HD
BRANCH   4   7
ATOM      7  C   UNL A   1      33.463  23.398  25.927  1.00  0.00     0.095 C 
BRANCH   7   8
ATOM      8  C   UNL A   1      32.374  23.804  26.950  1.00  0.00     0.114 C 
BRANCH   8   9
ATOM      9  C   UNL A   1      30.864  24.020  26.711  1.00  0.00     0.225 C 
ATOM     10  N   UNL A   1      30.161  25.060  26.197  1.00  0.00    -0.326 N 
ATOM     11  H   UNL A   1      29.234  25.033  26.526  1.00  0.00     0.169 HD
ATOM     12  O   UNL A   1      30.125  23.145  27.212  1.00  0.00    -0.275 OA
BRANCH  10  13
ATOM     13  C   UNL A   1      30.334  26.171  25.340  1.00  0.00     0.045 A 
ATOM     14  C   UNL A   1      31.486  27.543  27.197  1.00  0.00     0.048 C 
ATOM     15  C   UNL A   1      31.012  27.337  25.780  1.00  0.00    -0.009 A 
ATOM     16  C   UNL A   1      31.196  28.414  24.870  1.00  0.00     0.046 A 
ATOM     17  Cl  UNL A   1      32.060  29.852  25.305  1.00  0.00    -0.084 Cl
ATOM     18  C   UNL A   1      30.655  28.384  23.589  1.00  0.00     0.021 A 
ATOM     19  C   UNL A   1      29.731  26.225  24.092  1.00  0.00     0.026 A 
ATOM     20  C   UNL A   1      29.880  27.304  23.221  1.00  0.00     0.004 A 
ENDBRANCH  10  13
ENDBRANCH   8   9
ENDBRANCH   7   8
BRANCH   7  21
ATOM     21  C   UNL A   1      34.169  24.619  25.213  1.00  0.00     0.029 C 
ATOM     22  C   UNL A   1      34.339  25.890  26.078  1.00  0.00     0.013 C 
BRANCH  21  23
ATOM     23  C   UNL A   1      33.566  25.067  23.860  1.00  0.00    -0.044 A 
ATOM     24  C   UNL A   1      32.923  24.128  23.037  1.00  0.00     0.004 A 
ATOM     25  C   UNL A   1      33.758  26.344  23.315  1.00  0.00     0.004 A 
ATOM     26  C   UNL A   1      32.446  24.432  21.763  1.00  0.00     0.000 A 
ATOM     27  C   UNL A   1      33.337  26.643  22.008  1.00  0.00     0.000 A 
ATOM     28  C   UNL A   1      32.669  25.692  21.238  1.00  0.00     0.000 A 
ENDBRANCH  21  23
ENDBRANCH   7  21
ENDBRANCH   4   7
ENDBRANCH   2   3
ENDBRANCH   1   2
BRANCH   1  29
ATOM     29  C   UNL A   1      37.751  20.381  25.010  1.00  0.00     0.023 C 
BRANCH  29  30
ATOM     30  C   UNL A   1      38.964  20.635  25.883  1.00  0.00     0.116 C 
BRANCH  30  31
ATOM     31  N   UNL A   1      39.878  19.502  25.963  1.00  0.00    -0.352 N 
ATOM     32  C   UNL A   1      41.235  19.518  26.181  1.00  0.00     0.251 C 
ATOM     33  H   UNL A   1      39.473  18.612  25.844  1.00  0.00     0.163 HD
ATOM     34  O   UNL A   1      41.887  18.481  26.124  1.00  0.00    -0.269 OA
BRANCH  32  35
ATOM     35  C   UNL A   1      41.890  20.812  26.450  1.00  0.00     0.039 A 
ATOM     36  C   UNL A   1      42.190  21.656  25.380  1.00  0.00     0.014 A 
ATOM     37  C   UNL A   1      42.116  21.218  27.766  1.00  0.00     0.014 A 
ATOM     38  C   UNL A   1      42.659  22.944  25.640  1.00  0.00     0.010 A 
ATOM     39  C   UNL A   1      42.478  22.532  28.022  1.00  0.00     0.010 A 
ATOM     40  C   UNL A   1      42.768  23.403  26.963  1.00  0.00    -0.014 A 
BRANCH  40  41
ATOM     41  C   UNL A   1      43.201  24.786  27.272  1.00  0.00     0.031 A 
ATOM     42  C   UNL A   1      42.233  25.741  27.917  1.00  0.00     0.074 A 
ATOM     43  C   UNL A   1      44.421  25.208  26.885  1.00  0.00     0.049 A 
ATOM     44  N   UNL A   1      42.390  27.007  28.200  1.00  0.00    -0.248 NA
ATOM     45  C   UNL A   1      40.897  25.215  28.256  1.00  0.00     0.031 C 
ATOM     46  C   UNL A   1      45.411  24.400  26.167  1.00  0.00     0.029 A 
ATOM     47  N   UNL A   1      45.028  26.431  27.017  1.00  0.00    -0.354 N 
ATOM     48  C   UNL A   1      41.168  27.436  28.704  1.00  0.00     0.074 A 
ATOM     49  C   UNL A   1      40.265  26.310  28.650  1.00  0.00     0.031 C 
ATOM     50  C   UNL A   1      46.503  25.146  25.934  1.00  0.00     0.029 A 
ATOM     51  C   UNL A   1      46.283  26.489  26.456  1.00  0.00     0.049 A 
ATOM     52  H   UNL A   1      44.605  27.195  27.471  1.00  0.00     0.167 HD
ATOM     53  C   UNL A   1      40.837  28.650  29.201  1.00  0.00     0.034 A 
ATOM     54  C   UNL A   1      47.154  27.514  26.372  1.00  0.00     0.034 A 
ATOM     55  C   UNL A   1      41.760  29.744  29.314  1.00  0.00     0.049 A 
ATOM     56  C   UNL A   1      46.782  28.834  26.993  1.00  0.00     0.074 A 
ATOM     57  C   UNL A   1      41.560  30.980  29.900  1.00  0.00     0.029 A 
ATOM     58  N   UNL A   1      43.059  29.733  28.831  1.00  0.00    -0.354 N 
ATOM     59  N   UNL A   1      45.679  29.169  27.621  1.00  0.00    -0.248 NA
ATOM     60  C   UNL A   1      47.785  29.905  26.930  1.00  0.00     0.031 C 
ATOM     61  C   UNL A   1      42.733  31.726  29.753  1.00  0.00     0.029 A 
ATOM     62  C   UNL A   1      43.671  30.945  29.098  1.00  0.00     0.049 A 
ATOM     63  H   UNL A   1      43.482  28.976  28.365  1.00  0.00     0.167 HD
ATOM     64  C   UNL A   1      45.873  30.473  28.061  1.00  0.00     0.074 A 
ATOM     65  C   UNL A   1      47.206  30.860  27.646  1.00  0.00     0.031 C 
ATOM     66  C   UNL A   1      45.021  31.285  28.733  1.00  0.00     0.034 A 
BRANCH  53  67
ATOM     67  C   UNL A   1      39.438  28.838  29.724  1.00  0.00     0.023 A 
ATOM     68  C   UNL A   1      39.147  28.524  31.066  1.00  0.00     0.012 A 
ATOM     69  C   UNL A   1      38.430  29.386  28.907  1.00  0.00     0.148 A 
ATOM     70  C   UNL A   1      37.867  28.723  31.581  1.00  0.00     0.002 A 
ATOM     71  C   UNL A   1      37.169  29.626  29.441  1.00  0.00     0.091 A 
ATOM     72  F   UNL A   1      38.720  29.656  27.627  1.00  0.00    -0.205 F 
ATOM     73  C   UNL A   1      36.883  29.284  30.773  1.00  0.00     0.022 A 
BRANCH  71  74
ATOM     74  S   UNL A   1      35.854  30.419  28.508  1.00  0.00     0.127 S 
ATOM     75  O   UNL A   1      35.110  31.098  29.569  1.00  0.00    -0.237 OA
ATOM     76  O   UNL A   1      36.604  31.311  27.623  1.00  0.00    -0.237 OA
ATOM     77  O   UNL A   1      35.138  29.348  27.831  1.00  0.00    -0.744 OA
ENDBRANCH  71  74
ENDBRANCH  53  67
BRANCH  54  78
ATOM     78  C   UNL A   1      48.490  27.316  25.743  1.00  0.00     0.023 A 
ATOM     79  C   UNL A   1      49.568  26.875  26.535  1.00  0.00     0.012 A 
ATOM     80  C   UNL A   1      48.699  27.548  24.370  1.00  0.00     0.148 A 
ATOM     81  C   UNL A   1      50.838  26.706  25.982  1.00  0.00     0.002 A 
ATOM     82  C   UNL A   1      49.954  27.325  23.813  1.00  0.00     0.091 A 
ATOM     83  F   UNL A   1      47.666  27.979  23.634  1.00  0.00    -0.205 F 
ATOM     84  C   UNL A   1      51.029  26.922  24.620  1.00  0.00     0.022 A 
BRANCH  82  85
ATOM     85  S   UNL A   1      50.254  27.449  22.046  1.00  0.00     0.127 S 
ATOM     86  O   UNL A   1      51.647  27.024  21.949  1.00  0.00    -0.237 OA
ATOM     87  O   UNL A   1      49.280  26.501  21.505  1.00  0.00    -0.237 OA
ATOM     88  O   UNL A   1      49.985  28.840  21.704  1.00  0.00    -0.744 OA
ENDBRANCH  82  85
ENDBRANCH  54  78
BRANCH  66  89
ATOM     89  C   UNL A   1      45.512  32.659  29.106  1.00  0.00     0.023 A 
ATOM     90  C   UNL A   1      46.187  32.854  30.326  1.00  0.00     0.012 A 
ATOM     91  C   UNL A   1      45.375  33.735  28.208  1.00  0.00     0.148 A 
ATOM     92  C   UNL A   1      46.693  34.109  30.660  1.00  0.00     0.002 A 
ATOM     93  C   UNL A   1      45.925  34.970  28.525  1.00  0.00     0.091 A 
ATOM     94  F   UNL A   1      44.712  33.530  27.060  1.00  0.00    -0.205 F 
ATOM     95  C   UNL A   1      46.573  35.162  29.756  1.00  0.00     0.022 A 
BRANCH  93  96
ATOM     96  S   UNL A   1      45.908  36.352  27.379  1.00  0.00     0.127 S 
ATOM     97  O   UNL A   1      46.565  35.776  26.208  1.00  0.00    -0.237 OA
ATOM     98  O   UNL A   1      44.476  36.602  27.214  1.00  0.00    -0.237 OA
ATOM     99  O   UNL A   1      46.636  37.428  28.039  1.00  0.00    -0.744 OA
ENDBRANCH  93  96
ENDBRANCH  66  89
ENDBRANCH  40  41
ENDBRANCH  32  35
ENDBRANCH  30  31
ENDBRANCH  29  30
ENDBRANCH   1  29
TORSDOF 19
ENDMDL
MODEL 2
REMARK VINA RESULT:     -12.0      1.663      2.411
REMARK SMILES Cc1c(Cl)cccc1NC(=O)C[C@H](C(=O)NCCCCNC(=O)c1ccc(-c2c3nc(c(-c4cccc(S(=O)(=O)[O-])c4F)c4ccc([nH]4)c(-c4cccc(S(=O)(=O)[O-])c4F)c4nc(c(-c5cccc(S(=O)(=O)[O-])c5F)c5ccc2[nH]5)C=C4)C=C3)cc1)[C@H](C)c1ccccc1
REMARK SMILES IDX 18 1 17 2 16 3 14 4 15 5 13 7 12 8 10 9 9 10 11 12 8 13 1 14
REMARK SMILES IDX 2 15 3 16 4 17 5 18 7 19 6 20 87 21 88 22 89 23 90 24 94 25
REMARK SMILES IDX 91 26 93 27 92 28 19 29 20 30 21 31 22 32 23 34 24 35 25 36
REMARK SMILES IDX 86 37 26 38 85 39 27 40 28 41 29 42 79 43 30 44 84 45 78 46
REMARK SMILES IDX 80 47 31 48 83 49 77 50 76 51 32 53 64 54 44 55 63 56 45 57
REMARK SMILES IDX 48 58 62 59 81 60 46 61 47 62 61 64 82 65 49 66 33 67 34 68
REMARK SMILES IDX 42 69 35 70 37 71 43 72 36 73 38 74 39 75 40 76 41 77 65 78
REMARK SMILES IDX 66 79 74 80 67 81 69 82 75 83 68 84 70 85 71 86 72 87 73 88
REMARK SMILES IDX 50 89 51 90 59 91 52 92 54 93 60 94 53 95 55 96 56 97 57 98
REMARK SMILES IDX 58 99
REMARK H PARENT 16 6 9 11 21 33 80 52 48 63
REMARK Flexibility Score: inf
ROOT
ATOM      1  C   UNL A   1      37.345  21.542  24.580  1.00  0.00     0.023 C 
ENDROOT
BRANCH   1   2
ATOM      2  C   UNL A   1      36.881  22.667  25.504  1.00  0.00     0.116 C 
BRANCH   2   3
ATOM      3  N   UNL A   1      35.929  22.205  26.476  1.00  0.00    -0.356 N 
ATOM      4  C   UNL A   1      34.623  22.479  26.675  1.00  0.00     0.224 C 
ATOM      5  O   UNL A   1      34.070  21.695  27.458  1.00  0.00    -0.275 OA
ATOM      6  H   UNL A   1      36.302  21.562  27.122  1.00  0.00     0.163 HD
BRANCH   4   7
ATOM      7  C   UNL A   1      33.801  23.590  25.961  1.00  0.00     0.095 C 
BRANCH   7   8
ATOM      8  C   UNL A   1      33.350  22.948  24.626  1.00  0.00     0.114 C 
BRANCH   8   9
ATOM      9  C   UNL A   1      33.382  23.558  23.207  1.00  0.00     0.225 C 
ATOM     10  N   UNL A   1      32.543  24.401  22.557  1.00  0.00    -0.326 N 
ATOM     11  H   UNL A   1      32.644  24.290  21.584  1.00  0.00     0.169 HD
ATOM     12  O   UNL A   1      34.260  23.082  22.455  1.00  0.00    -0.275 OA
BRANCH  10  13
ATOM     13  C   UNL A   1      31.568  25.388  22.829  1.00  0.00     0.045 A 
ATOM     14  C   UNL A   1      33.167  27.292  22.141  1.00  0.00     0.048 C 
ATOM     15  C   UNL A   1      31.826  26.761  22.583  1.00  0.00    -0.009 A 
ATOM     16  C   UNL A   1      30.800  27.713  22.834  1.00  0.00     0.046 A 
ATOM     17  Cl  UNL A   1      31.011  29.402  22.510  1.00  0.00    -0.084 Cl
ATOM     18  C   UNL A   1      29.584  27.340  23.394  1.00  0.00     0.021 A 
ATOM     19  C   UNL A   1      30.380  25.075  23.475  1.00  0.00     0.026 A 
ATOM     20  C   UNL A   1      29.396  26.022  23.758  1.00  0.00     0.004 A 
ENDBRANCH  10  13
ENDBRANCH   8   9
ENDBRANCH   7   8
BRANCH   7  21
ATOM     21  C   UNL A   1      32.679  24.438  26.682  1.00  0.00     0.029 C 
ATOM     22  C   UNL A   1      31.244  23.871  26.579  1.00  0.00     0.013 C 
BRANCH  21  23
ATOM     23  C   UNL A   1      32.605  25.938  26.309  1.00  0.00    -0.044 A 
ATOM     24  C   UNL A   1      33.725  26.577  25.754  1.00  0.00     0.004 A 
ATOM     25  C   UNL A   1      31.519  26.762  26.639  1.00  0.00     0.004 A 
ATOM     26  C   UNL A   1      33.768  27.944  25.487  1.00  0.00     0.000 A 
ATOM     27  C   UNL A   1      31.577  28.151  26.432  1.00  0.00     0.000 A 
ATOM     28  C   UNL A   1      32.694  28.739  25.844  1.00  0.00     0.000 A 
ENDBRANCH  21  23
ENDBRANCH   7  21
ENDBRANCH   4   7
ENDBRANCH   2   3
ENDBRANCH   1   2
BRANCH   1  29
ATOM     29  C   UNL A   1      38.003  20.353  25.268  1.00  0.00     0.023 C 
BRANCH  29  30
ATOM     30  C   UNL A   1      39.386  20.635  25.822  1.00  0.00     0.116 C 
BRANCH  30  31
ATOM     31  N   UNL A   1      40.239  19.455  25.902  1.00  0.00    -0.352 N 
ATOM     32  C   UNL A   1      41.596  19.401  26.111  1.00  0.00     0.251 C 
ATOM     33  H   UNL A   1      39.786  18.588  25.790  1.00  0.00     0.163 HD
ATOM     34  O   UNL A   1      42.192  18.329  26.055  1.00  0.00    -0.269 OA
BRANCH  32  35
ATOM     35  C   UNL A   1      42.320  20.659  26.369  1.00  0.00     0.039 A 
ATOM     36  C   UNL A   1      42.677  21.470  25.291  1.00  0.00     0.014 A 
ATOM     37  C   UNL A   1      42.558  21.069  27.682  1.00  0.00     0.014 A 
ATOM     38  C   UNL A   1      43.215  22.733  25.539  1.00  0.00     0.010 A 
ATOM     39  C   UNL A   1      42.991  22.364  27.925  1.00  0.00     0.010 A 
ATOM     40  C   UNL A   1      43.339  23.203  26.857  1.00  0.00    -0.014 A 
BRANCH  40  41
ATOM     41  C   UNL A   1      43.847  24.563  27.152  1.00  0.00     0.031 A 
ATOM     42  C   UNL A   1      42.905  25.608  27.689  1.00  0.00     0.074 A 
ATOM     43  C   UNL A   1      45.120  24.884  26.846  1.00  0.00     0.049 A 
ATOM     44  N   UNL A   1      43.132  26.869  27.941  1.00  0.00    -0.248 NA
ATOM     45  C   UNL A   1      41.513  25.189  27.941  1.00  0.00     0.031 C 
ATOM     46  C   UNL A   1      46.100  23.981  26.235  1.00  0.00     0.029 A 
ATOM     47  N   UNL A   1      45.802  26.066  26.984  1.00  0.00    -0.354 N 
ATOM     48  C   UNL A   1      41.909  27.402  28.334  1.00  0.00     0.074 A 
ATOM     49  C   UNL A   1      40.934  26.340  28.248  1.00  0.00     0.031 C 
ATOM     50  C   UNL A   1      47.257  24.640  26.061  1.00  0.00     0.029 A 
ATOM     51  C   UNL A   1      47.096  26.015  26.520  1.00  0.00     0.049 A 
ATOM     52  H   UNL A   1      45.403  26.874  27.379  1.00  0.00     0.167 HD
ATOM     53  C   UNL A   1      41.632  28.654  28.764  1.00  0.00     0.034 A 
ATOM     54  C   UNL A   1      48.043  26.973  26.470  1.00  0.00     0.034 A 
ATOM     55  C   UNL A   1      42.620  29.685  28.910  1.00  0.00     0.049 A 
ATOM     56  C   UNL A   1      47.722  28.338  27.015  1.00  0.00     0.074 A 
ATOM     57  C   UNL A   1      42.467  30.954  29.438  1.00  0.00     0.029 A 
ATOM     58  N   UNL A   1      43.948  29.565  28.529  1.00  0.00    -0.354 N 
ATOM     59  N   UNL A   1      46.603  28.773  27.545  1.00  0.00    -0.248 NA
ATOM     60  C   UNL A   1      48.802  29.334  26.994  1.00  0.00     0.031 C 
ATOM     61  C   UNL A   1      43.698  31.610  29.357  1.00  0.00     0.029 A 
ATOM     62  C   UNL A   1      44.624  30.740  28.803  1.00  0.00     0.049 A 
ATOM     63  H   UNL A   1      44.348  28.763  28.123  1.00  0.00     0.167 HD
ATOM     64  C   UNL A   1      46.857  30.077  27.954  1.00  0.00     0.074 A 
ATOM     65  C   UNL A   1      48.242  30.353  27.631  1.00  0.00     0.031 C 
ATOM     66  C   UNL A   1      46.019  30.972  28.531  1.00  0.00     0.034 A 
BRANCH  53  67
ATOM     67  C   UNL A   1      40.214  28.960  29.170  1.00  0.00     0.023 A 
ATOM     68  C   UNL A   1      39.250  29.233  28.180  1.00  0.00     0.012 A 
ATOM     69  C   UNL A   1      39.824  28.911  30.521  1.00  0.00     0.148 A 
ATOM     70  C   UNL A   1      37.924  29.483  28.529  1.00  0.00     0.002 A 
ATOM     71  C   UNL A   1      38.491  29.115  30.859  1.00  0.00     0.091 A 
ATOM     72  F   UNL A   1      40.761  28.673  31.450  1.00  0.00    -0.205 F 
ATOM     73  C   UNL A   1      37.543  29.413  29.865  1.00  0.00     0.022 A 
BRANCH  71  74
ATOM     74  S   UNL A   1      37.881  28.967  32.542  1.00  0.00     0.127 S 
ATOM     75  O   UNL A   1      36.507  29.450  32.401  1.00  0.00    -0.237 OA
ATOM     76  O   UNL A   1      37.999  27.529  32.784  1.00  0.00    -0.237 OA
ATOM     77  O   UNL A   1      38.753  29.797  33.361  1.00  0.00    -0.744 OA
ENDBRANCH  71  74
ENDBRANCH  53  67
BRANCH  54  78
ATOM     78  C   UNL A   1      49.405  26.658  25.952  1.00  0.00     0.023 A 
ATOM     79  C   UNL A   1      50.277  25.875  26.734  1.00  0.00     0.012 A 
ATOM     80  C   UNL A   1      49.838  27.114  24.692  1.00  0.00     0.148 A 
ATOM     81  C   UNL A   1      51.567  25.585  26.289  1.00  0.00     0.002 A 
ATOM     82  C   UNL A   1      51.105  26.776  24.231  1.00  0.00     0.091 A 
ATOM     83  F   UNL A   1      48.999  27.868  23.967  1.00  0.00    -0.205 F 
ATOM     84  C   UNL A   1      51.979  26.028  25.036  1.00  0.00     0.022 A 
BRANCH  82  85
ATOM     85  S   UNL A   1      51.664  27.190  22.575  1.00  0.00     0.127 S 
ATOM     86  O   UNL A   1      52.920  26.451  22.490  1.00  0.00    -0.237 OA
ATOM     87  O   UNL A   1      50.580  26.663  21.747  1.00  0.00    -0.237 OA
ATOM     88  O   UNL A   1      51.776  28.644  22.556  1.00  0.00    -0.744 OA
ENDBRANCH  82  85
ENDBRANCH  54  78
BRANCH  66  89
ATOM     89  C   UNL A   1      46.578  32.321  28.895  1.00  0.00     0.023 A 
ATOM     90  C   UNL A   1      47.136  32.527  30.172  1.00  0.00     0.012 A 
ATOM     91  C   UNL A   1      46.624  33.356  27.942  1.00  0.00     0.148 A 
ATOM     92  C   UNL A   1      47.705  33.755  30.503  1.00  0.00     0.002 A 
ATOM     93  C   UNL A   1      47.236  34.560  28.262  1.00  0.00     0.091 A 
ATOM     94  F   UNL A   1      46.069  33.144  26.739  1.00  0.00    -0.205 F 
ATOM     95  C   UNL A   1      47.767  34.766  29.546  1.00  0.00     0.022 A 
BRANCH  93  96
ATOM     96  S   UNL A   1      47.452  35.879  27.062  1.00  0.00     0.127 S 
ATOM     97  O   UNL A   1      46.189  35.822  26.328  1.00  0.00    -0.237 OA
ATOM     98  O   UNL A   1      47.610  37.055  27.917  1.00  0.00    -0.237 OA
ATOM     99  O   UNL A   1      48.639  35.529  26.292  1.00  0.00    -0.744 OA
ENDBRANCH  93  96
ENDBRANCH  66  89
ENDBRANCH  40  41
ENDBRANCH  32  35
ENDBRANCH  30  31
ENDBRANCH  29  30
ENDBRANCH   1  29
TORSDOF 19
ENDMDL
MODEL 3
REMARK VINA RESULT:     -12.0      5.924     11.167
REMARK SMILES Cc1c(Cl)cccc1NC(=O)C[C@H](C(=O)NCCCCNC(=O)c1ccc(-c2c3nc(c(-c4cccc(S(=O)(=O)[O-])c4F)c4ccc([nH]4)c(-c4cccc(S(=O)(=O)[O-])c4F)c4nc(c(-c5cccc(S(=O)(=O)[O-])c5F)c5ccc2[nH]5)C=C4)C=C3)cc1)[C@H](C)c1ccccc1
REMARK SMILES IDX 18 1 17 2 16 3 14 4 15 5 13 7 12 8 10 9 9 10 11 12 8 13 1 14
REMARK SMILES IDX 2 15 3 16 4 17 5 18 7 19 6 20 87 21 88 22 89 23 90 24 94 25
REMARK SMILES IDX 91 26 93 27 92 28 19 29 20 30 21 31 22 32 23 34 24 35 25 36
REMARK SMILES IDX 86 37 26 38 85 39 27 40 28 41 29 42 79 43 30 44 84 45 78 46
REMARK SMILES IDX 80 47 31 48 83 49 77 50 76 51 32 53 64 54 44 55 63 56 45 57
REMARK SMILES IDX 48 58 62 59 81 60 46 61 47 62 61 64 82 65 49 66 33 67 34 68
REMARK SMILES IDX 42 69 35 70 37 71 43 72 36 73 38 74 39 75 40 76 41 77 65 78
REMARK SMILES IDX 66 79 74 80 67 81 69 82 75 83 68 84 70 85 71 86 72 87 73 88
REMARK SMILES IDX 50 89 51 90 59 91 52 92 54 93 60 94 53 95 55 96 56 97 57 98
REMARK SMILES IDX 58 99
REMARK H PARENT 16 6 9 11 21 33 80 52 48 63
REMARK Flexibility Score: inf
ROOT
ATOM      1  C   UNL A   1      32.075  29.829  26.885  1.00  0.00     0.023 C 
ENDROOT
BRANCH   1   2
ATOM      2  C   UNL A   1      33.357  29.383  26.183  1.00  0.00     0.116 C 
BRANCH   2   3
ATOM      3  N   UNL A   1      33.201  29.346  24.755  1.00  0.00    -0.356 N 
ATOM      4  C   UNL A   1      33.011  28.333  23.885  1.00  0.00     0.224 C 
ATOM      5  O   UNL A   1      32.666  28.712  22.757  1.00  0.00    -0.275 OA
ATOM      6  H   UNL A   1      33.239  30.233  24.329  1.00  0.00     0.163 HD
BRANCH   4   7
ATOM      7  C   UNL A   1      33.103  26.815  24.211  1.00  0.00     0.095 C 
BRANCH   7   8
ATOM      8  C   UNL A   1      31.699  26.443  24.746  1.00  0.00     0.114 C 
BRANCH   8   9
ATOM      9  C   UNL A   1      31.313  25.910  26.143  1.00  0.00     0.225 C 
ATOM     10  N   UNL A   1      31.409  24.681  26.710  1.00  0.00    -0.326 N 
ATOM     11  H   UNL A   1      30.751  24.596  27.437  1.00  0.00     0.169 HD
ATOM     12  O   UNL A   1      30.655  26.709  26.844  1.00  0.00    -0.275 OA
BRANCH  10  13
ATOM     13  C   UNL A   1      32.150  23.483  26.589  1.00  0.00     0.045 A 
ATOM     14  C   UNL A   1      31.019  22.898  24.345  1.00  0.00     0.048 C 
ATOM     15  C   UNL A   1      32.021  22.653  25.446  1.00  0.00    -0.009 A 
ATOM     16  C   UNL A   1      32.816  21.479  25.352  1.00  0.00     0.046 A 
ATOM     17  Cl  UNL A   1      32.763  20.438  23.967  1.00  0.00    -0.084 Cl
ATOM     18  C   UNL A   1      33.653  21.082  26.389  1.00  0.00     0.021 A 
ATOM     19  C   UNL A   1      32.921  23.000  27.636  1.00  0.00     0.026 A 
ATOM     20  C   UNL A   1      33.665  21.824  27.553  1.00  0.00     0.004 A 
ENDBRANCH  10  13
ENDBRANCH   8   9
ENDBRANCH   7   8
BRANCH   7  21
ATOM     21  C   UNL A   1      33.722  25.751  23.220  1.00  0.00     0.029 C 
ATOM     22  C   UNL A   1      32.713  25.047  22.283  1.00  0.00     0.013 C 
BRANCH  21  23
ATOM     23  C   UNL A   1      34.599  24.647  23.857  1.00  0.00    -0.044 A 
ATOM     24  C   UNL A   1      35.126  24.830  25.145  1.00  0.00     0.004 A 
ATOM     25  C   UNL A   1      35.044  23.516  23.158  1.00  0.00     0.004 A 
ATOM     26  C   UNL A   1      36.006  23.928  25.744  1.00  0.00     0.000 A 
ATOM     27  C   UNL A   1      35.979  22.635  23.727  1.00  0.00     0.000 A 
ATOM     28  C   UNL A   1      36.448  22.833  25.025  1.00  0.00     0.000 A 
ENDBRANCH  21  23
ENDBRANCH   7  21
ENDBRANCH   4   7
ENDBRANCH   2   3
ENDBRANCH   1   2
BRANCH   1  29
ATOM     29  C   UNL A   1      31.778  31.322  26.831  1.00  0.00     0.023 C 
BRANCH  29  30
ATOM     30  C   UNL A   1      32.968  32.210  27.137  1.00  0.00     0.116 C 
BRANCH  30  31
ATOM     31  N   UNL A   1      32.615  33.602  27.389  1.00  0.00    -0.352 N 
ATOM     32  C   UNL A   1      33.130  34.451  28.338  1.00  0.00     0.251 C 
ATOM     33  H   UNL A   1      31.917  33.981  26.806  1.00  0.00     0.163 HD
ATOM     34  O   UNL A   1      32.658  35.573  28.492  1.00  0.00    -0.269 OA
BRANCH  32  35
ATOM     35  C   UNL A   1      34.236  33.971  29.187  1.00  0.00     0.039 A 
ATOM     36  C   UNL A   1      33.987  32.967  30.123  1.00  0.00     0.014 A 
ATOM     37  C   UNL A   1      35.530  34.455  28.985  1.00  0.00     0.014 A 
ATOM     38  C   UNL A   1      35.059  32.397  30.811  1.00  0.00     0.010 A 
ATOM     39  C   UNL A   1      36.601  33.814  29.590  1.00  0.00     0.010 A 
ATOM     40  C   UNL A   1      36.375  32.791  30.521  1.00  0.00    -0.014 A 
BRANCH  40  41
ATOM     41  C   UNL A   1      37.539  32.161  31.188  1.00  0.00     0.031 A 
ATOM     42  C   UNL A   1      38.395  31.186  30.425  1.00  0.00     0.074 A 
ATOM     43  C   UNL A   1      37.764  32.389  32.497  1.00  0.00     0.049 A 
ATOM     44  N   UNL A   1      39.407  30.475  30.845  1.00  0.00    -0.248 NA
ATOM     45  C   UNL A   1      38.044  30.949  29.012  1.00  0.00     0.031 C 
ATOM     46  C   UNL A   1      36.946  33.242  33.364  1.00  0.00     0.029 A 
ATOM     47  N   UNL A   1      38.735  31.902  33.335  1.00  0.00    -0.354 N 
ATOM     48  C   UNL A   1      39.782  29.679  29.769  1.00  0.00     0.074 A 
ATOM     49  C   UNL A   1      38.865  29.960  28.690  1.00  0.00     0.031 C 
ATOM     50  C   UNL A   1      37.456  33.225  34.606  1.00  0.00     0.029 A 
ATOM     51  C   UNL A   1      38.616  32.341  34.633  1.00  0.00     0.049 A 
ATOM     52  H   UNL A   1      39.449  31.295  33.035  1.00  0.00     0.167 HD
ATOM     53  C   UNL A   1      40.821  28.816  29.676  1.00  0.00     0.034 A 
ATOM     54  C   UNL A   1      39.360  32.060  35.721  1.00  0.00     0.034 A 
ATOM     55  C   UNL A   1      41.768  28.593  30.731  1.00  0.00     0.049 A 
ATOM     56  C   UNL A   1      40.548  31.147  35.570  1.00  0.00     0.074 A 
ATOM     57  C   UNL A   1      42.917  27.823  30.706  1.00  0.00     0.029 A 
ATOM     58  N   UNL A   1      41.677  29.138  32.002  1.00  0.00    -0.354 N 
ATOM     59  N   UNL A   1      40.988  30.537  34.496  1.00  0.00    -0.248 NA
ATOM     60  C   UNL A   1      41.364  30.915  36.770  1.00  0.00     0.031 C 
ATOM     61  C   UNL A   1      43.511  27.888  31.969  1.00  0.00     0.029 A 
ATOM     62  C   UNL A   1      42.746  28.717  32.773  1.00  0.00     0.049 A 
ATOM     63  H   UNL A   1      40.958  29.736  32.310  1.00  0.00     0.167 HD
ATOM     64  C   UNL A   1      42.152  29.882  34.880  1.00  0.00     0.074 A 
ATOM     65  C   UNL A   1      42.360  30.188  36.281  1.00  0.00     0.031 C 
ATOM     66  C   UNL A   1      42.968  29.086  34.147  1.00  0.00     0.034 A 
BRANCH  53  67
ATOM     67  C   UNL A   1      41.026  28.102  28.367  1.00  0.00     0.023 A 
ATOM     68  C   UNL A   1      41.578  28.797  27.273  1.00  0.00     0.012 A 
ATOM     69  C   UNL A   1      40.735  26.730  28.240  1.00  0.00     0.148 A 
ATOM     70  C   UNL A   1      41.810  28.147  26.062  1.00  0.00     0.002 A 
ATOM     71  C   UNL A   1      41.012  26.077  27.044  1.00  0.00     0.091 A 
ATOM     72  F   UNL A   1      40.189  26.092  29.285  1.00  0.00    -0.205 F 
ATOM     73  C   UNL A   1      41.538  26.787  25.952  1.00  0.00     0.022 A 
BRANCH  71  74
ATOM     74  S   UNL A   1      40.775  24.310  26.825  1.00  0.00     0.127 S 
ATOM     75  O   UNL A   1      39.362  24.247  26.452  1.00  0.00    -0.237 OA
ATOM     76  O   UNL A   1      41.707  24.010  25.737  1.00  0.00    -0.237 OA
ATOM     77  O   UNL A   1      41.111  23.697  28.102  1.00  0.00    -0.744 OA
ENDBRANCH  71  74
ENDBRANCH  53  67
BRANCH  54  78
ATOM     78  C   UNL A   1      39.052  32.703  37.030  1.00  0.00     0.023 A 
ATOM     79  C   UNL A   1      39.709  33.898  37.384  1.00  0.00     0.012 A 
ATOM     80  C   UNL A   1      38.110  32.151  37.919  1.00  0.00     0.148 A 
ATOM     81  C   UNL A   1      39.464  34.510  38.613  1.00  0.00     0.002 A 
ATOM     82  C   UNL A   1      37.829  32.795  39.118  1.00  0.00     0.091 A 
ATOM     83  F   UNL A   1      37.503  31.007  37.572  1.00  0.00    -0.205 F 
ATOM     84  C   UNL A   1      38.518  33.964  39.477  1.00  0.00     0.022 A 
BRANCH  82  85
ATOM     85  S   UNL A   1      36.530  32.236  40.226  1.00  0.00     0.127 S 
ATOM     86  O   UNL A   1      36.243  33.448  40.987  1.00  0.00    -0.237 OA
ATOM     87  O   UNL A   1      35.483  31.833  39.287  1.00  0.00    -0.237 OA
ATOM     88  O   UNL A   1      37.112  31.131  40.979  1.00  0.00    -0.744 OA
ENDBRANCH  82  85
ENDBRANCH  54  78
BRANCH  66  89
ATOM     89  C   UNL A   1      44.188  28.521  34.824  1.00  0.00     0.023 A 
ATOM     90  C   UNL A   1      45.385  29.263  34.843  1.00  0.00     0.012 A 
ATOM     91  C   UNL A   1      44.120  27.295  35.513  1.00  0.00     0.148 A 
ATOM     92  C   UNL A   1      46.507  28.776  35.511  1.00  0.00     0.002 A 
ATOM     93  C   UNL A   1      45.226  26.840  36.219  1.00  0.00     0.091 A 
ATOM     94  F   UNL A   1      42.975  26.597  35.467  1.00  0.00    -0.205 F 
ATOM     95  C   UNL A   1      46.424  27.573  36.209  1.00  0.00     0.022 A 
BRANCH  93  96
ATOM     96  S   UNL A   1      45.178  25.355  37.228  1.00  0.00     0.127 S 
ATOM     97  O   UNL A   1      44.061  25.642  38.126  1.00  0.00    -0.237 OA
ATOM     98  O   UNL A   1      44.912  24.313  36.236  1.00  0.00    -0.237 OA
ATOM     99  O   UNL A   1      46.485  25.261  37.866  1.00  0.00    -0.744 OA
ENDBRANCH  93  96
ENDBRANCH  66  89
ENDBRANCH  40  41
ENDBRANCH  32  35
ENDBRANCH  30  31
ENDBRANCH  29  30
ENDBRANCH   1  29
TORSDOF 19
ENDMDL
