MODEL 1
REMARK VINA RESULT:     -12.3      0.000      0.000
REMARK SMILES O=C(NCCCCNC(=O)c1cccc(COc2ccccc2C=C2C(=O)c3ccccc3C2=O)c1)c1ccc(-c2c3nc(c(-c4cccc(S(=O)(=O)[O-])c4F)c4ccc([nH]4)c(-c4cccc(S(=O)(=O)[O-])c4F)c4nc(c(-c5cccc(S(=O)(=O)[O-])c5F)c5ccc2[nH]5)C=C4)C=C3)cc1
REMARK SMILES IDX 6 1 5 2 4 3 3 4 1 5 2 6 37 8 38 9 99 10 39 11 98 12 40 13
REMARK SMILES IDX 41 14 42 15 92 16 43 17 97 18 91 19 93 20 44 21 96 22 90 23
REMARK SMILES IDX 89 24 45 26 77 27 57 28 76 29 58 30 61 31 75 32 94 33 59 34
REMARK SMILES IDX 60 35 74 37 95 38 62 39 46 40 47 41 55 42 48 43 50 44 56 45
REMARK SMILES IDX 49 46 51 47 52 48 53 49 54 50 78 51 79 52 87 53 80 54 82 55
REMARK SMILES IDX 88 56 81 57 83 58 84 59 85 60 86 61 63 62 64 63 72 64 65 65
REMARK SMILES IDX 67 66 73 67 66 68 68 69 69 70 70 71 71 72 7 73 8 74 9 75
REMARK SMILES IDX 10 77 11 78 12 79 36 80 13 81 15 82 14 83 16 84 17 85 18 86
REMARK SMILES IDX 19 87 23 88 20 89 22 90 21 91 24 92 25 93 26 94 34 95 27 96
REMARK SMILES IDX 28 97 33 98 35 99 29 100 32 101 30 102 31 103
REMARK H PARENT 3 7 93 25 61 36 8 76
REMARK Flexibility Score: inf
ROOT
ATOM      1  C   UNL A   1      34.741  30.977  28.160  1.00  0.00     0.023 C 
ENDROOT
BRANCH   1   2
ATOM      2  C   UNL A   1      33.498  31.835  27.967  1.00  0.00     0.023 C 
BRANCH   2   3
ATOM      3  C   UNL A   1      33.746  33.145  27.232  1.00  0.00     0.116 C 
BRANCH   3   4
ATOM      4  N   UNL A   1      33.024  34.269  27.816  1.00  0.00    -0.352 N 
ATOM      5  O   UNL A   1      32.393  35.703  29.443  1.00  0.00    -0.269 OA
ATOM      6  C   UNL A   1      33.185  34.855  29.051  1.00  0.00     0.251 C 
ATOM      7  H   UNL A   1      32.325  34.666  27.248  1.00  0.00     0.163 HD
BRANCH   6   8
ATOM      8  C   UNL A   1      34.305  34.408  29.899  1.00  0.00     0.039 A 
ATOM      9  C   UNL A   1      35.617  34.610  29.471  1.00  0.00     0.014 A 
ATOM     10  C   UNL A   1      34.039  33.699  31.072  1.00  0.00     0.014 A 
ATOM     11  C   UNL A   1      36.647  33.925  30.097  1.00  0.00     0.010 A 
ATOM     12  C   UNL A   1      35.095  33.111  31.768  1.00  0.00     0.010 A 
ATOM     13  C   UNL A   1      36.401  33.169  31.256  1.00  0.00    -0.014 A 
BRANCH  13  14
ATOM     14  C   UNL A   1      37.537  32.483  31.923  1.00  0.00     0.031 A 
ATOM     15  C   UNL A   1      38.286  31.368  31.244  1.00  0.00     0.074 A 
ATOM     16  C   UNL A   1      37.904  32.898  33.150  1.00  0.00     0.049 A 
ATOM     17  N   UNL A   1      39.322  30.694  31.677  1.00  0.00    -0.248 NA
ATOM     18  C   UNL A   1      37.812  30.940  29.918  1.00  0.00     0.031 C 
ATOM     19  C   UNL A   1      37.231  33.950  33.920  1.00  0.00     0.029 A 
ATOM     20  N   UNL A   1      38.930  32.498  33.966  1.00  0.00    -0.354 N 
ATOM     21  C   UNL A   1      39.589  29.732  30.709  1.00  0.00     0.074 A 
ATOM     22  C   UNL A   1      38.604  29.907  29.664  1.00  0.00     0.031 C 
ATOM     23  C   UNL A   1      37.888  34.143  35.071  1.00  0.00     0.029 A 
ATOM     24  C   UNL A   1      38.982  33.186  35.155  1.00  0.00     0.049 A 
ATOM     25  H   UNL A   1      39.568  31.790  33.723  1.00  0.00     0.167 HD
ATOM     26  C   UNL A   1      40.569  28.796  30.691  1.00  0.00     0.034 A 
ATOM     27  C   UNL A   1      39.811  33.053  36.208  1.00  0.00     0.034 A 
ATOM     28  C   UNL A   1      41.569  28.657  31.717  1.00  0.00     0.049 A 
ATOM     29  C   UNL A   1      40.901  32.025  36.144  1.00  0.00     0.074 A 
ATOM     30  C   UNL A   1      42.646  27.789  31.755  1.00  0.00     0.029 A 
ATOM     31  N   UNL A   1      41.610  29.394  32.891  1.00  0.00    -0.354 N 
ATOM     32  N   UNL A   1      41.208  31.207  35.167  1.00  0.00    -0.248 NA
ATOM     33  C   UNL A   1      41.780  31.923  37.316  1.00  0.00     0.031 C 
ATOM     34  C   UNL A   1      43.318  27.978  32.968  1.00  0.00     0.029 A 
ATOM     35  C   UNL A   1      42.685  28.993  33.667  1.00  0.00     0.049 A 
ATOM     36  H   UNL A   1      40.968  30.100  33.136  1.00  0.00     0.167 HD
ATOM     37  C   UNL A   1      42.340  30.522  35.588  1.00  0.00     0.074 A 
ATOM     38  C   UNL A   1      42.673  31.035  36.902  1.00  0.00     0.031 C 
ATOM     39  C   UNL A   1      43.035  29.549  34.948  1.00  0.00     0.034 A 
BRANCH  26  40
ATOM     40  C   UNL A   1      40.621  27.850  29.516  1.00  0.00     0.023 A 
ATOM     41  C   UNL A   1      39.797  26.706  29.492  1.00  0.00     0.012 A 
ATOM     42  C   UNL A   1      41.442  28.130  28.405  1.00  0.00     0.148 A 
ATOM     43  C   UNL A   1      39.817  25.838  28.400  1.00  0.00     0.002 A 
ATOM     44  C   UNL A   1      41.422  27.286  27.300  1.00  0.00     0.091 A 
ATOM     45  F   UNL A   1      42.234  29.211  28.451  1.00  0.00    -0.205 F 
ATOM     46  C   UNL A   1      40.620  26.133  27.302  1.00  0.00     0.022 A 
BRANCH  44  47
ATOM     47  S   UNL A   1      42.357  27.627  25.804  1.00  0.00     0.127 S 
ATOM     48  O   UNL A   1      43.733  27.515  26.285  1.00  0.00    -0.237 OA
ATOM     49  O   UNL A   1      41.930  26.540  24.920  1.00  0.00    -0.237 OA
ATOM     50  O   UNL A   1      41.950  28.955  25.371  1.00  0.00    -0.744 OA
ENDBRANCH  44  47
ENDBRANCH  26  40
BRANCH  27  51
ATOM     51  C   UNL A   1      39.663  33.954  37.383  1.00  0.00     0.023 A 
ATOM     52  C   UNL A   1      40.153  35.272  37.311  1.00  0.00     0.012 A 
ATOM     53  C   UNL A   1      39.007  33.526  38.554  1.00  0.00     0.148 A 
ATOM     54  C   UNL A   1      40.019  36.139  38.395  1.00  0.00     0.002 A 
ATOM     55  C   UNL A   1      38.825  34.413  39.608  1.00  0.00     0.091 A 
ATOM     56  F   UNL A   1      38.555  32.265  38.604  1.00  0.00    -0.205 F 
ATOM     57  C   UNL A   1      39.348  35.714  39.537  1.00  0.00     0.022 A 
BRANCH  55  58
ATOM     58  S   UNL A   1      37.854  33.998  41.059  1.00  0.00     0.127 S 
ATOM     59  O   UNL A   1      38.783  33.155  41.808  1.00  0.00    -0.237 OA
ATOM     60  O   UNL A   1      37.606  35.316  41.644  1.00  0.00    -0.237 OA
ATOM     61  O   UNL A   1      36.661  33.330  40.557  1.00  0.00    -0.744 OA
ENDBRANCH  55  58
ENDBRANCH  27  51
BRANCH  39  62
ATOM     62  C   UNL A   1      44.266  29.016  35.633  1.00  0.00     0.023 A 
ATOM     63  C   UNL A   1      45.525  29.599  35.387  1.00  0.00     0.012 A 
ATOM     64  C   UNL A   1      44.163  27.963  36.563  1.00  0.00     0.148 A 
ATOM     65  C   UNL A   1      46.667  29.114  36.023  1.00  0.00     0.002 A 
ATOM     66  C   UNL A   1      45.295  27.522  37.234  1.00  0.00     0.091 A 
ATOM     67  F   UNL A   1      42.960  27.406  36.768  1.00  0.00    -0.205 F 
ATOM     68  C   UNL A   1      46.551  28.085  36.954  1.00  0.00     0.022 A 
BRANCH  66  69
ATOM     69  S   UNL A   1      45.219  26.274  38.523  1.00  0.00     0.127 S 
ATOM     70  O   UNL A   1      46.612  26.210  38.960  1.00  0.00    -0.237 OA
ATOM     71  O   UNL A   1      44.303  26.880  39.490  1.00  0.00    -0.237 OA
ATOM     72  O   UNL A   1      44.707  25.070  37.883  1.00  0.00    -0.744 OA
ENDBRANCH  66  69
ENDBRANCH  39  62
ENDBRANCH  13  14
ENDBRANCH   6   8
ENDBRANCH   3   4
ENDBRANCH   2   3
ENDBRANCH   1   2
BRANCH   1  73
ATOM     73  C   UNL A   1      34.636  29.595  27.529  1.00  0.00     0.116 C 
BRANCH  73  74
ATOM     74  N   UNL A   1      33.411  28.925  27.934  1.00  0.00    -0.352 N 
ATOM     75  C   UNL A   1      32.638  28.091  27.170  1.00  0.00     0.251 C 
ATOM     76  H   UNL A   1      33.104  29.088  28.855  1.00  0.00     0.163 HD
ATOM     77  O   UNL A   1      31.531  27.710  27.529  1.00  0.00    -0.269 OA
BRANCH  75  78
ATOM     78  C   UNL A   1      33.213  27.608  25.908  1.00  0.00     0.040 A 
ATOM     79  C   UNL A   1      33.121  28.370  24.747  1.00  0.00     0.014 A 
ATOM     80  C   UNL A   1      33.806  26.344  25.903  1.00  0.00     0.021 A 
ATOM     81  C   UNL A   1      33.675  27.877  23.568  1.00  0.00     0.001 A 
ATOM     82  C   UNL A   1      34.328  25.833  24.717  1.00  0.00    -0.010 A 
ATOM     83  C   UNL A   1      34.286  26.620  23.555  1.00  0.00     0.007 A 
BRANCH  82  84
ATOM     84  C   UNL A   1      34.736  24.390  24.654  1.00  0.00     0.265 C 
BRANCH  84  85
ATOM     85  O   UNL A   1      34.251  23.785  25.858  1.00  0.00    -0.488 OA
BRANCH  85  86
ATOM     86  C   UNL A   1      33.752  22.520  25.668  1.00  0.00     0.127 A 
ATOM     87  C   UNL A   1      34.692  21.514  25.407  1.00  0.00     0.047 A 
ATOM     88  C   UNL A   1      32.371  22.274  25.546  1.00  0.00     0.017 A 
ATOM     89  C   UNL A   1      34.272  20.257  24.979  1.00  0.00     0.004 A 
ATOM     90  C   UNL A   1      31.986  21.023  25.036  1.00  0.00     0.012 A 
ATOM     91  C   UNL A   1      32.919  20.020  24.771  1.00  0.00     0.001 A 
BRANCH  88  92
ATOM     92  C   UNL A   1      31.327  23.287  25.821  1.00  0.00     0.028 C 
ATOM     93  C   UNL A   1      30.878  24.238  24.979  1.00  0.00     0.071 C 
ATOM     94  C   UNL A   1      31.247  24.510  23.558  1.00  0.00     0.197 C 
ATOM     95  C   UNL A   1      29.955  25.330  25.423  1.00  0.00     0.197 C 
ATOM     96  O   UNL A   1      31.879  23.829  22.776  1.00  0.00    -0.288 OA
ATOM     97  C   UNL A   1      30.710  25.839  23.258  1.00  0.00     0.034 A 
ATOM     98  C   UNL A   1      29.934  26.300  24.316  1.00  0.00     0.034 A 
ATOM     99  O   UNL A   1      29.421  25.468  26.505  1.00  0.00    -0.288 OA
ATOM    100  C   UNL A   1      30.964  26.618  22.141  1.00  0.00     0.013 A 
ATOM    101  C   UNL A   1      29.350  27.555  24.282  1.00  0.00     0.013 A 
ATOM    102  C   UNL A   1      30.404  27.897  22.104  1.00  0.00     0.001 A 
ATOM    103  C   UNL A   1      29.595  28.358  23.161  1.00  0.00     0.001 A 
ENDBRANCH  88  92
ENDBRANCH  85  86
ENDBRANCH  84  85
ENDBRANCH  82  84
ENDBRANCH  75  78
ENDBRANCH  73  74
ENDBRANCH   1  73
TORSDOF 18
ENDMDL
MODEL 2
REMARK VINA RESULT:     -12.1      0.888      7.428
REMARK SMILES O=C(NCCCCNC(=O)c1cccc(COc2ccccc2C=C2C(=O)c3ccccc3C2=O)c1)c1ccc(-c2c3nc(c(-c4cccc(S(=O)(=O)[O-])c4F)c4ccc([nH]4)c(-c4cccc(S(=O)(=O)[O-])c4F)c4nc(c(-c5cccc(S(=O)(=O)[O-])c5F)c5ccc2[nH]5)C=C4)C=C3)cc1
REMARK SMILES IDX 6 1 5 2 4 3 3 4 1 5 2 6 37 8 38 9 99 10 39 11 98 12 40 13
REMARK SMILES IDX 41 14 42 15 92 16 43 17 97 18 91 19 93 20 44 21 96 22 90 23
REMARK SMILES IDX 89 24 45 26 77 27 57 28 76 29 58 30 61 31 75 32 94 33 59 34
REMARK SMILES IDX 60 35 74 37 95 38 62 39 46 40 47 41 55 42 48 43 50 44 56 45
REMARK SMILES IDX 49 46 51 47 52 48 53 49 54 50 78 51 79 52 87 53 80 54 82 55
REMARK SMILES IDX 88 56 81 57 83 58 84 59 85 60 86 61 63 62 64 63 72 64 65 65
REMARK SMILES IDX 67 66 73 67 66 68 68 69 69 70 70 71 71 72 7 73 8 74 9 75
REMARK SMILES IDX 10 77 11 78 12 79 36 80 13 81 15 82 14 83 16 84 17 85 18 86
REMARK SMILES IDX 19 87 23 88 20 89 22 90 21 91 24 92 25 93 26 94 34 95 27 96
REMARK SMILES IDX 28 97 33 98 35 99 29 100 32 101 30 102 31 103
REMARK H PARENT 3 7 93 25 61 36 8 76
REMARK Flexibility Score: inf
ROOT
ATOM      1  C   UNL A   1      34.615  30.950  28.178  1.00  0.00     0.023 C 
ENDROOT
BRANCH   1   2
ATOM      2  C   UNL A   1      33.573  31.948  27.689  1.00  0.00     0.023 C 
BRANCH   2   3
ATOM      3  C   UNL A   1      34.048  33.393  27.668  1.00  0.00     0.116 C 
BRANCH   3   4
ATOM      4  N   UNL A   1      33.226  34.273  28.492  1.00  0.00    -0.352 N 
ATOM      5  O   UNL A   1      32.486  35.225  30.402  1.00  0.00    -0.269 OA
ATOM      6  C   UNL A   1      33.353  34.577  29.828  1.00  0.00     0.251 C 
ATOM      7  H   UNL A   1      32.477  34.711  28.028  1.00  0.00     0.163 HD
BRANCH   6   8
ATOM      8  C   UNL A   1      34.532  34.072  30.554  1.00  0.00     0.039 A 
ATOM      9  C   UNL A   1      35.800  34.557  30.233  1.00  0.00     0.014 A 
ATOM     10  C   UNL A   1      34.378  33.041  31.483  1.00  0.00     0.014 A 
ATOM     11  C   UNL A   1      36.921  33.874  30.678  1.00  0.00     0.010 A 
ATOM     12  C   UNL A   1      35.513  32.434  32.023  1.00  0.00     0.010 A 
ATOM     13  C   UNL A   1      36.792  32.805  31.582  1.00  0.00    -0.014 A 
BRANCH  13  14
ATOM     14  C   UNL A   1      38.019  32.123  32.069  1.00  0.00     0.031 A 
ATOM     15  C   UNL A   1      38.649  32.490  33.386  1.00  0.00     0.074 A 
ATOM     16  C   UNL A   1      38.549  31.143  31.312  1.00  0.00     0.049 A 
ATOM     17  N   UNL A   1      39.698  31.964  33.967  1.00  0.00    -0.248 NA
ATOM     18  C   UNL A   1      38.040  33.593  34.145  1.00  0.00     0.031 C 
ATOM     19  C   UNL A   1      38.043  30.722  30.003  1.00  0.00     0.029 A 
ATOM     20  N   UNL A   1      39.621  30.317  31.532  1.00  0.00    -0.354 N 
ATOM     21  C   UNL A   1      39.907  32.702  35.127  1.00  0.00     0.074 A 
ATOM     22  C   UNL A   1      38.877  33.717  35.167  1.00  0.00     0.031 C 
ATOM     23  C   UNL A   1      38.772  29.690  29.558  1.00  0.00     0.029 A 
ATOM     24  C   UNL A   1      39.838  29.421  30.513  1.00  0.00     0.049 A 
ATOM     25  H   UNL A   1      40.179  30.361  32.341  1.00  0.00     0.167 HD
ATOM     26  C   UNL A   1      40.864  32.544  36.073  1.00  0.00     0.034 A 
ATOM     27  C   UNL A   1      40.799  28.492  30.353  1.00  0.00     0.034 A 
ATOM     28  C   UNL A   1      41.861  31.505  36.043  1.00  0.00     0.049 A 
ATOM     29  C   UNL A   1      41.828  28.324  31.431  1.00  0.00     0.074 A 
ATOM     30  C   UNL A   1      42.828  31.214  36.990  1.00  0.00     0.029 A 
ATOM     31  N   UNL A   1      42.028  30.594  35.011  1.00  0.00    -0.354 N 
ATOM     32  N   UNL A   1      41.935  28.954  32.575  1.00  0.00    -0.248 NA
ATOM     33  C   UNL A   1      42.851  27.295  31.211  1.00  0.00     0.031 C 
ATOM     34  C   UNL A   1      43.602  30.151  36.513  1.00  0.00     0.029 A 
ATOM     35  C   UNL A   1      43.090  29.750  35.289  1.00  0.00     0.049 A 
ATOM     36  H   UNL A   1      41.472  30.554  34.198  1.00  0.00     0.167 HD
ATOM     37  C   UNL A   1      43.011  28.371  33.231  1.00  0.00     0.074 A 
ATOM     38  C   UNL A   1      43.510  27.325  32.361  1.00  0.00     0.031 C 
ATOM     39  C   UNL A   1      43.543  28.679  34.439  1.00  0.00     0.034 A 
BRANCH  26  40
ATOM     40  C   UNL A   1      40.878  33.508  37.234  1.00  0.00     0.023 A 
ATOM     41  C   UNL A   1      41.676  34.669  37.180  1.00  0.00     0.012 A 
ATOM     42  C   UNL A   1      40.049  33.294  38.353  1.00  0.00     0.148 A 
ATOM     43  C   UNL A   1      41.677  35.581  38.236  1.00  0.00     0.002 A 
ATOM     44  C   UNL A   1      40.020  34.231  39.381  1.00  0.00     0.091 A 
ATOM     45  F   UNL A   1      39.310  32.176  38.399  1.00  0.00    -0.205 F 
ATOM     46  C   UNL A   1      40.843  35.368  39.329  1.00  0.00     0.022 A 
BRANCH  44  47
ATOM     47  S   UNL A   1      38.916  34.087  40.791  1.00  0.00     0.127 S 
ATOM     48  O   UNL A   1      37.642  33.787  40.139  1.00  0.00    -0.237 OA
ATOM     49  O   UNL A   1      39.502  32.966  41.528  1.00  0.00    -0.237 OA
ATOM     50  O   UNL A   1      38.980  35.366  41.483  1.00  0.00    -0.744 OA
ENDBRANCH  44  47
ENDBRANCH  26  40
BRANCH  27  51
ATOM     51  C   UNL A   1      40.794  27.622  29.145  1.00  0.00     0.023 A 
ATOM     52  C   UNL A   1      39.847  26.586  29.044  1.00  0.00     0.012 A 
ATOM     53  C   UNL A   1      41.692  27.841  28.083  1.00  0.00     0.148 A 
ATOM     54  C   UNL A   1      39.815  25.762  27.919  1.00  0.00     0.002 A 
ATOM     55  C   UNL A   1      41.615  27.055  26.939  1.00  0.00     0.091 A 
ATOM     56  F   UNL A   1      42.590  28.830  28.203  1.00  0.00    -0.205 F 
ATOM     57  C   UNL A   1      40.690  26.003  26.864  1.00  0.00     0.022 A 
BRANCH  55  58
ATOM     58  S   UNL A   1      42.608  27.381  25.480  1.00  0.00     0.127 S 
ATOM     59  O   UNL A   1      43.949  27.492  26.049  1.00  0.00    -0.237 OA
ATOM     60  O   UNL A   1      42.373  26.177  24.681  1.00  0.00    -0.237 OA
ATOM     61  O   UNL A   1      42.066  28.602  24.899  1.00  0.00    -0.744 OA
ENDBRANCH  55  58
ENDBRANCH  27  51
BRANCH  39  62
ATOM     62  C   UNL A   1      44.692  27.834  34.924  1.00  0.00     0.023 A 
ATOM     63  C   UNL A   1      46.020  28.262  34.729  1.00  0.00     0.012 A 
ATOM     64  C   UNL A   1      44.448  26.635  35.621  1.00  0.00     0.148 A 
ATOM     65  C   UNL A   1      47.087  27.487  35.182  1.00  0.00     0.002 A 
ATOM     66  C   UNL A   1      45.513  25.896  36.118  1.00  0.00     0.091 A 
ATOM     67  F   UNL A   1      43.177  26.233  35.777  1.00  0.00    -0.205 F 
ATOM     68  C   UNL A   1      46.834  26.313  35.886  1.00  0.00     0.022 A 
BRANCH  66  69
ATOM     69  S   UNL A   1      45.274  24.428  37.123  1.00  0.00     0.127 S 
ATOM     70  O   UNL A   1      44.468  24.948  38.226  1.00  0.00    -0.237 OA
ATOM     71  O   UNL A   1      44.555  23.538  36.209  1.00  0.00    -0.237 OA
ATOM     72  O   UNL A   1      46.608  23.968  37.483  1.00  0.00    -0.744 OA
ENDBRANCH  66  69
ENDBRANCH  39  62
ENDBRANCH  13  14
ENDBRANCH   6   8
ENDBRANCH   3   4
ENDBRANCH   2   3
ENDBRANCH   1   2
BRANCH   1  73
ATOM     73  C   UNL A   1      34.535  29.594  27.492  1.00  0.00     0.116 C 
BRANCH  73  74
ATOM     74  N   UNL A   1      33.362  28.853  27.927  1.00  0.00    -0.352 N 
ATOM     75  C   UNL A   1      32.637  27.954  27.191  1.00  0.00     0.251 C 
ATOM     76  H   UNL A   1      33.056  29.015  28.849  1.00  0.00     0.163 HD
ATOM     77  O   UNL A   1      31.561  27.509  27.572  1.00  0.00    -0.269 OA
BRANCH  75  78
ATOM     78  C   UNL A   1      33.227  27.482  25.932  1.00  0.00     0.040 A 
ATOM     79  C   UNL A   1      33.137  28.249  24.773  1.00  0.00     0.014 A 
ATOM     80  C   UNL A   1      33.833  26.225  25.926  1.00  0.00     0.021 A 
ATOM     81  C   UNL A   1      33.706  27.767  23.597  1.00  0.00     0.001 A 
ATOM     82  C   UNL A   1      34.370  25.724  24.742  1.00  0.00    -0.010 A 
ATOM     83  C   UNL A   1      34.330  26.516  23.583  1.00  0.00     0.007 A 
BRANCH  82  84
ATOM     84  C   UNL A   1      34.793  24.285  24.675  1.00  0.00     0.265 C 
BRANCH  84  85
ATOM     85  O   UNL A   1      34.300  23.669  25.871  1.00  0.00    -0.488 OA
BRANCH  85  86
ATOM     86  C   UNL A   1      33.799  22.409  25.666  1.00  0.00     0.127 A 
ATOM     87  C   UNL A   1      34.736  21.404  25.392  1.00  0.00     0.047 A 
ATOM     88  C   UNL A   1      32.417  22.167  25.540  1.00  0.00     0.017 A 
ATOM     89  C   UNL A   1      34.312  20.152  24.949  1.00  0.00     0.004 A 
ATOM     90  C   UNL A   1      32.028  20.924  25.015  1.00  0.00     0.012 A 
ATOM     91  C   UNL A   1      32.959  19.922  24.737  1.00  0.00     0.001 A 
BRANCH  88  92
ATOM     92  C   UNL A   1      31.375  23.180  25.827  1.00  0.00     0.028 C 
ATOM     93  C   UNL A   1      30.921  24.135  24.993  1.00  0.00     0.071 C 
ATOM     94  C   UNL A   1      31.279  24.414  23.570  1.00  0.00     0.197 C 
ATOM     95  C   UNL A   1      30.002  25.226  25.449  1.00  0.00     0.197 C 
ATOM     96  O   UNL A   1      31.906  23.736  22.781  1.00  0.00    -0.288 OA
ATOM     97  C   UNL A   1      30.741  25.744  23.281  1.00  0.00     0.034 A 
ATOM     98  C   UNL A   1      29.973  26.201  24.346  1.00  0.00     0.034 A 
ATOM     99  O   UNL A   1      29.476  25.359  26.536  1.00  0.00    -0.288 OA
ATOM    100  C   UNL A   1      30.988  26.528  22.166  1.00  0.00     0.013 A 
ATOM    101  C   UNL A   1      29.390  27.457  24.323  1.00  0.00     0.013 A 
ATOM    102  C   UNL A   1      30.428  27.808  22.139  1.00  0.00     0.001 A 
ATOM    103  C   UNL A   1      29.627  28.264  23.203  1.00  0.00     0.001 A 
ENDBRANCH  88  92
ENDBRANCH  85  86
ENDBRANCH  84  85
ENDBRANCH  82  84
ENDBRANCH  75  78
ENDBRANCH  73  74
ENDBRANCH   1  73
TORSDOF 18
ENDMDL
MODEL 3
REMARK VINA RESULT:     -11.1      5.854     10.572
REMARK SMILES O=C(NCCCCNC(=O)c1cccc(COc2ccccc2C=C2C(=O)c3ccccc3C2=O)c1)c1ccc(-c2c3nc(c(-c4cccc(S(=O)(=O)[O-])c4F)c4ccc([nH]4)c(-c4cccc(S(=O)(=O)[O-])c4F)c4nc(c(-c5cccc(S(=O)(=O)[O-])c5F)c5ccc2[nH]5)C=C4)C=C3)cc1
REMARK SMILES IDX 6 1 5 2 4 3 3 4 1 5 2 6 37 8 38 9 99 10 39 11 98 12 40 13
REMARK SMILES IDX 41 14 42 15 92 16 43 17 97 18 91 19 93 20 44 21 96 22 90 23
REMARK SMILES IDX 89 24 45 26 77 27 57 28 76 29 58 30 61 31 75 32 94 33 59 34
REMARK SMILES IDX 60 35 74 37 95 38 62 39 46 40 47 41 55 42 48 43 50 44 56 45
REMARK SMILES IDX 49 46 51 47 52 48 53 49 54 50 78 51 79 52 87 53 80 54 82 55
REMARK SMILES IDX 88 56 81 57 83 58 84 59 85 60 86 61 63 62 64 63 72 64 65 65
REMARK SMILES IDX 67 66 73 67 66 68 68 69 69 70 70 71 71 72 7 73 8 74 9 75
REMARK SMILES IDX 10 77 11 78 12 79 36 80 13 81 15 82 14 83 16 84 17 85 18 86
REMARK SMILES IDX 19 87 23 88 20 89 22 90 21 91 24 92 25 93 26 94 34 95 27 96
REMARK SMILES IDX 28 97 33 98 35 99 29 100 32 101 30 102 31 103
REMARK H PARENT 3 7 93 25 61 36 8 76
REMARK Flexibility Score: inf
ROOT
ATOM      1  C   UNL A   1      40.309  32.942  38.161  1.00  0.00     0.023 C 
ENDROOT
BRANCH   1   2
ATOM      2  C   UNL A   1      40.197  34.113  39.128  1.00  0.00     0.023 C 
BRANCH   2   3
ATOM      3  C   UNL A   1      41.517  34.539  39.754  1.00  0.00     0.116 C 
BRANCH   3   4
ATOM      4  N   UNL A   1      41.720  35.983  39.723  1.00  0.00    -0.352 N 
ATOM      5  O   UNL A   1      42.456  37.954  38.898  1.00  0.00    -0.269 OA
ATOM      6  C   UNL A   1      42.214  36.767  38.706  1.00  0.00     0.251 C 
ATOM      7  H   UNL A   1      41.468  36.465  40.544  1.00  0.00     0.163 HD
BRANCH   6   8
ATOM      8  C   UNL A   1      42.480  36.138  37.400  1.00  0.00     0.039 A 
ATOM      9  C   UNL A   1      41.456  36.049  36.456  1.00  0.00     0.014 A 
ATOM     10  C   UNL A   1      43.722  35.548  37.160  1.00  0.00     0.014 A 
ATOM     11  C   UNL A   1      41.603  35.196  35.374  1.00  0.00     0.010 A 
ATOM     12  C   UNL A   1      43.905  34.787  36.006  1.00  0.00     0.010 A 
ATOM     13  C   UNL A   1      42.831  34.556  35.132  1.00  0.00    -0.014 A 
BRANCH  13  14
ATOM     14  C   UNL A   1      42.964  33.681  33.939  1.00  0.00     0.031 A 
ATOM     15  C   UNL A   1      43.151  34.258  32.561  1.00  0.00     0.074 A 
ATOM     16  C   UNL A   1      42.936  32.346  34.118  1.00  0.00     0.049 A 
ATOM     17  N   UNL A   1      43.320  33.629  31.425  1.00  0.00    -0.248 NA
ATOM     18  C   UNL A   1      43.137  35.724  32.432  1.00  0.00     0.031 C 
ATOM     19  C   UNL A   1      42.728  31.673  35.403  1.00  0.00     0.029 A 
ATOM     20  N   UNL A   1      43.091  31.316  33.227  1.00  0.00    -0.354 N 
ATOM     21  C   UNL A   1      43.375  34.612  30.444  1.00  0.00     0.074 A 
ATOM     22  C   UNL A   1      43.221  35.883  31.117  1.00  0.00     0.031 C 
ATOM     23  C   UNL A   1      42.813  30.348  35.227  1.00  0.00     0.029 A 
ATOM     24  C   UNL A   1      43.011  30.074  33.810  1.00  0.00     0.049 A 
ATOM     25  H   UNL A   1      43.244  31.453  32.265  1.00  0.00     0.167 HD
ATOM     26  C   UNL A   1      43.547  34.469  29.108  1.00  0.00     0.034 A 
ATOM     27  C   UNL A   1      43.075  28.845  33.264  1.00  0.00     0.034 A 
ATOM     28  C   UNL A   1      43.740  33.202  28.452  1.00  0.00     0.049 A 
ATOM     29  C   UNL A   1      43.292  28.721  31.786  1.00  0.00     0.074 A 
ATOM     30  C   UNL A   1      43.996  32.955  27.115  1.00  0.00     0.029 A 
ATOM     31  N   UNL A   1      43.688  31.966  29.081  1.00  0.00    -0.354 N 
ATOM     32  N   UNL A   1      43.462  29.667  30.894  1.00  0.00    -0.248 NA
ATOM     33  C   UNL A   1      43.359  27.359  31.241  1.00  0.00     0.031 C 
ATOM     34  C   UNL A   1      44.063  31.571  26.928  1.00  0.00     0.029 A 
ATOM     35  C   UNL A   1      43.892  30.954  28.158  1.00  0.00     0.049 A 
ATOM     36  H   UNL A   1      43.529  31.830  30.043  1.00  0.00     0.167 HD
ATOM     37  C   UNL A   1      43.697  29.016  29.691  1.00  0.00     0.074 A 
ATOM     38  C   UNL A   1      43.664  27.595  29.973  1.00  0.00     0.031 C 
ATOM     39  C   UNL A   1      43.910  29.547  28.462  1.00  0.00     0.034 A 
BRANCH  26  40
ATOM     40  C   UNL A   1      43.548  35.716  28.257  1.00  0.00     0.023 A 
ATOM     41  C   UNL A   1      42.329  36.288  27.838  1.00  0.00     0.012 A 
ATOM     42  C   UNL A   1      44.759  36.356  27.925  1.00  0.00     0.148 A 
ATOM     43  C   UNL A   1      42.316  37.454  27.074  1.00  0.00     0.002 A 
ATOM     44  C   UNL A   1      44.737  37.545  27.202  1.00  0.00     0.091 A 
ATOM     45  F   UNL A   1      45.911  35.790  28.313  1.00  0.00    -0.205 F 
ATOM     46  C   UNL A   1      43.517  38.087  26.765  1.00  0.00     0.022 A 
BRANCH  44  47
ATOM     47  S   UNL A   1      46.225  38.479  26.829  1.00  0.00     0.127 S 
ATOM     48  O   UNL A   1      45.694  39.563  26.003  1.00  0.00    -0.237 OA
ATOM     49  O   UNL A   1      46.673  38.891  28.160  1.00  0.00    -0.237 OA
ATOM     50  O   UNL A   1      47.119  37.553  26.149  1.00  0.00    -0.744 OA
ENDBRANCH  44  47
ENDBRANCH  26  40
BRANCH  27  51
ATOM     51  C   UNL A   1      42.980  27.643  34.137  1.00  0.00     0.023 A 
ATOM     52  C   UNL A   1      41.714  27.117  34.455  1.00  0.00     0.012 A 
ATOM     53  C   UNL A   1      44.135  26.997  34.619  1.00  0.00     0.148 A 
ATOM     54  C   UNL A   1      41.599  25.986  35.264  1.00  0.00     0.002 A 
ATOM     55  C   UNL A   1      44.015  25.837  35.374  1.00  0.00     0.091 A 
ATOM     56  F   UNL A   1      45.331  27.519  34.309  1.00  0.00    -0.205 F 
ATOM     57  C   UNL A   1      42.747  25.341  35.714  1.00  0.00     0.022 A 
BRANCH  55  58
ATOM     58  S   UNL A   1      45.437  24.865  35.878  1.00  0.00     0.127 S 
ATOM     59  O   UNL A   1      46.104  24.626  34.600  1.00  0.00    -0.237 OA
ATOM     60  O   UNL A   1      46.132  25.790  36.774  1.00  0.00    -0.237 OA
ATOM     61  O   UNL A   1      44.894  23.684  36.537  1.00  0.00    -0.744 OA
ENDBRANCH  55  58
ENDBRANCH  27  51
BRANCH  39  62
ATOM     62  C   UNL A   1      44.189  28.588  27.334  1.00  0.00     0.023 A 
ATOM     63  C   UNL A   1      43.128  28.068  26.565  1.00  0.00     0.012 A 
ATOM     64  C   UNL A   1      45.514  28.241  27.006  1.00  0.00     0.148 A 
ATOM     65  C   UNL A   1      43.381  27.185  25.515  1.00  0.00     0.002 A 
ATOM     66  C   UNL A   1      45.762  27.406  25.925  1.00  0.00     0.091 A 
ATOM     67  F   UNL A   1      46.509  28.728  27.763  1.00  0.00    -0.205 F 
ATOM     68  C   UNL A   1      44.696  26.864  25.188  1.00  0.00     0.022 A 
BRANCH  66  69
ATOM     69  S   UNL A   1      47.427  27.024  25.372  1.00  0.00     0.127 S 
ATOM     70  O   UNL A   1      47.172  26.063  24.301  1.00  0.00    -0.237 OA
ATOM     71  O   UNL A   1      47.911  28.329  24.918  1.00  0.00    -0.237 OA
ATOM     72  O   UNL A   1      48.124  26.496  26.536  1.00  0.00    -0.744 OA
ENDBRANCH  66  69
ENDBRANCH  39  62
ENDBRANCH  13  14
ENDBRANCH   6   8
ENDBRANCH   3   4
ENDBRANCH   2   3
ENDBRANCH   1   2
BRANCH   1  73
ATOM     73  C   UNL A   1      39.196  32.896  37.122  1.00  0.00     0.116 C 
BRANCH  73  74
ATOM     74  N   UNL A   1      38.985  31.541  36.638  1.00  0.00    -0.352 N 
ATOM     75  C   UNL A   1      38.509  31.171  35.408  1.00  0.00     0.251 C 
ATOM     76  H   UNL A   1      39.209  30.812  37.261  1.00  0.00     0.163 HD
ATOM     77  O   UNL A   1      38.195  30.017  35.146  1.00  0.00    -0.269 OA
BRANCH  75  78
ATOM     78  C   UNL A   1      38.441  32.210  34.373  1.00  0.00     0.040 A 
ATOM     79  C   UNL A   1      39.565  32.538  33.619  1.00  0.00     0.014 A 
ATOM     80  C   UNL A   1      37.232  32.887  34.207  1.00  0.00     0.021 A 
ATOM     81  C   UNL A   1      39.463  33.530  32.648  1.00  0.00     0.001 A 
ATOM     82  C   UNL A   1      37.138  33.906  33.261  1.00  0.00    -0.010 A 
ATOM     83  C   UNL A   1      38.253  34.204  32.462  1.00  0.00     0.007 A 
BRANCH  82  84
ATOM     84  C   UNL A   1      35.928  34.795  33.255  1.00  0.00     0.265 C 
BRANCH  84  85
ATOM     85  O   UNL A   1      34.829  33.971  32.850  1.00  0.00    -0.488 OA
BRANCH  85  86
ATOM     86  C   UNL A   1      34.704  33.863  31.488  1.00  0.00     0.127 A 
ATOM     87  C   UNL A   1      34.083  34.936  30.834  1.00  0.00     0.047 A 
ATOM     88  C   UNL A   1      34.996  32.667  30.805  1.00  0.00     0.017 A 
ATOM     89  C   UNL A   1      33.709  34.819  29.497  1.00  0.00     0.004 A 
ATOM     90  C   UNL A   1      34.533  32.553  29.484  1.00  0.00     0.012 A 
ATOM     91  C   UNL A   1      33.912  33.618  28.830  1.00  0.00     0.001 A 
BRANCH  88  92
ATOM     92  C   UNL A   1      35.662  31.503  31.432  1.00  0.00     0.028 C 
ATOM     93  C   UNL A   1      36.816  30.924  31.047  1.00  0.00     0.071 C 
ATOM     94  C   UNL A   1      37.756  31.299  29.949  1.00  0.00     0.197 C 
ATOM     95  C   UNL A   1      37.301  29.635  31.636  1.00  0.00     0.197 C 
ATOM     96  O   UNL A   1      37.805  32.313  29.283  1.00  0.00    -0.288 OA
ATOM     97  C   UNL A   1      38.643  30.147  29.778  1.00  0.00     0.034 A 
ATOM     98  C   UNL A   1      38.410  29.201  30.770  1.00  0.00     0.034 A 
ATOM     99  O   UNL A   1      36.824  29.004  32.557  1.00  0.00    -0.288 OA
ATOM    100  C   UNL A   1      39.547  29.925  28.752  1.00  0.00     0.013 A 
ATOM    101  C   UNL A   1      39.103  28.003  30.795  1.00  0.00     0.013 A 
ATOM    102  C   UNL A   1      40.235  28.710  28.748  1.00  0.00     0.001 A 
ATOM    103  C   UNL A   1      40.022  27.761  29.767  1.00  0.00     0.001 A 
ENDBRANCH  88  92
ENDBRANCH  85  86
ENDBRANCH  84  85
ENDBRANCH  82  84
ENDBRANCH  75  78
ENDBRANCH  73  74
ENDBRANCH   1  73
TORSDOF 18
ENDMDL
