MODEL 1
REMARK VINA RESULT:     -11.8      0.000      0.000
REMARK SMILES O=C(NCCCCNC(=O)c1conc1-c1ccc(Cl)cc1)c1ccc(-c2c3nc(c(-c4cccc(S(=O)(=O)[O-])c4F)c4ccc([nH]4)c(-c4cccc(S(=O)(=O)[O-])c4F)c4nc(c(-c5cccc(S(=O)(=O)[O-])c5F)c5ccc2[nH]5)C=C4)C=C3)cc1
REMARK SMILES IDX 4 1 3 2 1 3 2 4 23 6 24 7 85 8 25 9 84 10 26 11 27 12 28 13
REMARK SMILES IDX 78 14 29 15 83 16 77 17 79 18 30 19 82 20 76 21 75 22 31 24
REMARK SMILES IDX 63 25 43 26 62 27 44 28 47 29 61 30 80 31 45 32 46 33 60 35
REMARK SMILES IDX 81 36 48 37 32 38 33 39 41 40 34 41 36 42 42 43 35 44 37 45
REMARK SMILES IDX 38 46 39 47 40 48 64 49 65 50 73 51 66 52 68 53 74 54 67 55
REMARK SMILES IDX 69 56 70 57 71 58 72 59 49 60 50 61 58 62 51 63 53 64 59 65
REMARK SMILES IDX 52 66 54 67 55 68 56 69 57 70 5 71 6 72 7 73 8 74 9 75 10 77
REMARK SMILES IDX 11 78 12 79 15 80 13 81 14 82 16 83 17 84 22 85 18 86 21 87
REMARK SMILES IDX 19 88 20 89
REMARK H PARENT 3 5 79 23 47 34 8 76
REMARK Flexibility Score: inf
ROOT
ATOM      1  C   UNL A   1      32.827  30.816  26.379  1.00  0.00     0.116 C 
ENDROOT
BRANCH   1   2
ATOM      2  N   UNL A   1      32.711  32.203  26.786  1.00  0.00    -0.352 N 
ATOM      3  O   UNL A   1      33.146  34.095  27.899  1.00  0.00    -0.269 OA
ATOM      4  C   UNL A   1      33.490  32.943  27.642  1.00  0.00     0.251 C 
ATOM      5  H   UNL A   1      31.954  32.692  26.386  1.00  0.00     0.163 HD
BRANCH   4   6
ATOM      6  C   UNL A   1      34.705  32.374  28.278  1.00  0.00     0.039 A 
ATOM      7  C   UNL A   1      34.682  31.171  28.989  1.00  0.00     0.014 A 
ATOM      8  C   UNL A   1      35.920  33.048  28.097  1.00  0.00     0.014 A 
ATOM      9  C   UNL A   1      35.849  30.690  29.585  1.00  0.00     0.010 A 
ATOM     10  C   UNL A   1      37.096  32.549  28.669  1.00  0.00     0.010 A 
ATOM     11  C   UNL A   1      37.064  31.379  29.439  1.00  0.00    -0.014 A 
BRANCH  11  12
ATOM     12  C   UNL A   1      38.297  30.841  30.063  1.00  0.00     0.031 A 
ATOM     13  C   UNL A   1      38.676  31.223  31.465  1.00  0.00     0.074 A 
ATOM     14  C   UNL A   1      39.067  29.982  29.369  1.00  0.00     0.049 A 
ATOM     15  N   UNL A   1      39.621  30.728  32.222  1.00  0.00    -0.248 NA
ATOM     16  C   UNL A   1      37.888  32.289  32.104  1.00  0.00     0.031 C 
ATOM     17  C   UNL A   1      38.828  29.564  27.988  1.00  0.00     0.029 A 
ATOM     18  N   UNL A   1      40.197  29.297  29.737  1.00  0.00    -0.354 N 
ATOM     19  C   UNL A   1      39.542  31.415  33.426  1.00  0.00     0.074 A 
ATOM     20  C   UNL A   1      38.468  32.377  33.294  1.00  0.00     0.031 C 
ATOM     21  C   UNL A   1      39.767  28.674  27.632  1.00  0.00     0.029 A 
ATOM     22  C   UNL A   1      40.671  28.456  28.759  1.00  0.00     0.049 A 
ATOM     23  H   UNL A   1      40.628  29.398  30.616  1.00  0.00     0.167 HD
ATOM     24  C   UNL A   1      40.271  31.230  34.552  1.00  0.00     0.034 A 
ATOM     25  C   UNL A   1      41.701  27.586  28.780  1.00  0.00     0.034 A 
ATOM     26  C   UNL A   1      41.303  30.241  34.705  1.00  0.00     0.049 A 
ATOM     27  C   UNL A   1      42.516  27.429  30.034  1.00  0.00     0.074 A 
ATOM     28  C   UNL A   1      42.019  29.907  35.843  1.00  0.00     0.029 A 
ATOM     29  N   UNL A   1      41.781  29.435  33.683  1.00  0.00    -0.354 N 
ATOM     30  N   UNL A   1      42.317  27.959  31.216  1.00  0.00    -0.248 NA
ATOM     31  C   UNL A   1      43.686  26.541  29.961  1.00  0.00     0.031 C 
ATOM     32  C   UNL A   1      42.925  28.892  35.508  1.00  0.00     0.029 A 
ATOM     33  C   UNL A   1      42.792  28.618  34.157  1.00  0.00     0.049 A 
ATOM     34  H   UNL A   1      41.448  29.444  32.756  1.00  0.00     0.167 HD
ATOM     35  C   UNL A   1      43.319  27.452  32.034  1.00  0.00     0.074 A 
ATOM     36  C   UNL A   1      44.124  26.568  31.214  1.00  0.00     0.031 C 
ATOM     37  C   UNL A   1      43.556  27.707  33.344  1.00  0.00     0.034 A 
BRANCH  24  38
ATOM     38  C   UNL A   1      39.899  32.054  35.749  1.00  0.00     0.023 A 
ATOM     39  C   UNL A   1      40.638  33.225  36.008  1.00  0.00     0.012 A 
ATOM     40  C   UNL A   1      38.833  31.704  36.596  1.00  0.00     0.148 A 
ATOM     41  C   UNL A   1      40.316  34.036  37.097  1.00  0.00     0.002 A 
ATOM     42  C   UNL A   1      38.521  32.514  37.684  1.00  0.00     0.091 A 
ATOM     43  F   UNL A   1      38.152  30.575  36.349  1.00  0.00    -0.205 F 
ATOM     44  C   UNL A   1      39.258  33.682  37.936  1.00  0.00     0.022 A 
BRANCH  42  45
ATOM     45  S   UNL A   1      37.176  32.037  38.783  1.00  0.00     0.127 S 
ATOM     46  O   UNL A   1      37.669  32.461  40.090  1.00  0.00    -0.237 OA
ATOM     47  O   UNL A   1      36.040  32.818  38.290  1.00  0.00    -0.237 OA
ATOM     48  O   UNL A   1      37.053  30.600  38.568  1.00  0.00    -0.744 OA
ENDBRANCH  42  45
ENDBRANCH  24  38
BRANCH  25  49
ATOM     49  C   UNL A   1      41.941  26.711  27.603  1.00  0.00     0.023 A 
ATOM     50  C   UNL A   1      42.646  27.233  26.503  1.00  0.00     0.012 A 
ATOM     51  C   UNL A   1      41.538  25.367  27.586  1.00  0.00     0.148 A 
ATOM     52  C   UNL A   1      42.940  26.427  25.401  1.00  0.00     0.002 A 
ATOM     53  C   UNL A   1      41.861  24.560  26.498  1.00  0.00     0.091 A 
ATOM     54  F   UNL A   1      40.866  24.877  28.639  1.00  0.00    -0.205 F 
ATOM     55  C   UNL A   1      42.555  25.086  25.400  1.00  0.00     0.022 A 
BRANCH  53  56
ATOM     56  S   UNL A   1      41.434  22.817  26.550  1.00  0.00     0.127 S 
ATOM     57  O   UNL A   1      42.092  22.290  25.359  1.00  0.00    -0.237 OA
ATOM     58  O   UNL A   1      42.017  22.365  27.815  1.00  0.00    -0.237 OA
ATOM     59  O   UNL A   1      39.975  22.839  26.538  1.00  0.00    -0.744 OA
ENDBRANCH  53  56
ENDBRANCH  25  49
BRANCH  37  60
ATOM     60  C   UNL A   1      44.741  27.036  33.976  1.00  0.00     0.023 A 
ATOM     61  C   UNL A   1      45.988  27.687  33.935  1.00  0.00     0.012 A 
ATOM     62  C   UNL A   1      44.621  25.812  34.657  1.00  0.00     0.148 A 
ATOM     63  C   UNL A   1      47.101  27.121  34.558  1.00  0.00     0.002 A 
ATOM     64  C   UNL A   1      45.731  25.257  35.286  1.00  0.00     0.091 A 
ATOM     65  F   UNL A   1      43.426  25.202  34.693  1.00  0.00    -0.205 F 
ATOM     66  C   UNL A   1      46.975  25.906  35.236  1.00  0.00     0.022 A 
BRANCH  64  67
ATOM     67  S   UNL A   1      45.550  23.708  36.182  1.00  0.00     0.127 S 
ATOM     68  O   UNL A   1      44.810  22.872  35.240  1.00  0.00    -0.237 OA
ATOM     69  O   UNL A   1      46.931  23.279  36.408  1.00  0.00    -0.237 OA
ATOM     70  O   UNL A   1      44.841  24.101  37.396  1.00  0.00    -0.744 OA
ENDBRANCH  64  67
ENDBRANCH  37  60
ENDBRANCH  11  12
ENDBRANCH   4   6
ENDBRANCH   1   2
BRANCH   1  71
ATOM     71  C   UNL A   1      31.766  29.911  27.008  1.00  0.00     0.023 C 
BRANCH  71  72
ATOM     72  C   UNL A   1      32.266  28.596  27.623  1.00  0.00     0.023 C 
BRANCH  72  73
ATOM     73  C   UNL A   1      32.289  27.391  26.682  1.00  0.00     0.116 C 
BRANCH  73  74
ATOM     74  N   UNL A   1      31.135  26.530  26.864  1.00  0.00    -0.352 N 
ATOM     75  C   UNL A   1      30.366  25.850  25.954  1.00  0.00     0.256 C 
ATOM     76  H   UNL A   1      30.856  26.414  27.802  1.00  0.00     0.163 HD
ATOM     77  O   UNL A   1      29.302  25.373  26.342  1.00  0.00    -0.269 OA
BRANCH  75  78
ATOM     78  C   UNL A   1      30.799  25.712  24.585  1.00  0.00     0.107 A 
ATOM     79  C   UNL A   1      31.456  24.641  24.026  1.00  0.00     0.245 A 
ATOM     80  C   UNL A   1      30.515  26.554  23.464  1.00  0.00     0.126 A 
ATOM     81  O   UNL A   1      31.615  24.836  22.699  1.00  0.00    -0.363 OA
ATOM     82  N   UNL A   1      31.028  26.027  22.338  1.00  0.00    -0.079 NA
BRANCH  80  83
ATOM     83  C   UNL A   1      29.784  27.819  23.419  1.00  0.00     0.005 A 
ATOM     84  C   UNL A   1      28.416  27.856  23.115  1.00  0.00     0.012 A 
ATOM     85  C   UNL A   1      30.454  29.023  23.690  1.00  0.00     0.012 A 
ATOM     86  C   UNL A   1      27.733  29.077  23.075  1.00  0.00     0.021 A 
ATOM     87  C   UNL A   1      29.771  30.243  23.647  1.00  0.00     0.021 A 
ATOM     88  C   UNL A   1      28.414  30.264  23.338  1.00  0.00     0.041 A 
ATOM     89  Cl  UNL A   1      27.574  31.764  23.287  1.00  0.00    -0.084 Cl
ENDBRANCH  80  83
ENDBRANCH  75  78
ENDBRANCH  73  74
ENDBRANCH  72  73
ENDBRANCH  71  72
ENDBRANCH   1  71
TORSDOF 15
ENDMDL
MODEL 2
REMARK VINA RESULT:     -11.7      1.571      1.828
REMARK SMILES O=C(NCCCCNC(=O)c1conc1-c1ccc(Cl)cc1)c1ccc(-c2c3nc(c(-c4cccc(S(=O)(=O)[O-])c4F)c4ccc([nH]4)c(-c4cccc(S(=O)(=O)[O-])c4F)c4nc(c(-c5cccc(S(=O)(=O)[O-])c5F)c5ccc2[nH]5)C=C4)C=C3)cc1
REMARK SMILES IDX 4 1 3 2 1 3 2 4 23 6 24 7 85 8 25 9 84 10 26 11 27 12 28 13
REMARK SMILES IDX 78 14 29 15 83 16 77 17 79 18 30 19 82 20 76 21 75 22 31 24
REMARK SMILES IDX 63 25 43 26 62 27 44 28 47 29 61 30 80 31 45 32 46 33 60 35
REMARK SMILES IDX 81 36 48 37 32 38 33 39 41 40 34 41 36 42 42 43 35 44 37 45
REMARK SMILES IDX 38 46 39 47 40 48 64 49 65 50 73 51 66 52 68 53 74 54 67 55
REMARK SMILES IDX 69 56 70 57 71 58 72 59 49 60 50 61 58 62 51 63 53 64 59 65
REMARK SMILES IDX 52 66 54 67 55 68 56 69 57 70 5 71 6 72 7 73 8 74 9 75 10 77
REMARK SMILES IDX 11 78 12 79 15 80 13 81 14 82 16 83 17 84 22 85 18 86 21 87
REMARK SMILES IDX 19 88 20 89
REMARK H PARENT 3 5 79 23 47 34 8 76
REMARK Flexibility Score: inf
ROOT
ATOM      1  C   UNL A   1      32.647  30.082  25.786  1.00  0.00     0.116 C 
ENDROOT
BRANCH   1   2
ATOM      2  N   UNL A   1      32.318  31.412  26.263  1.00  0.00    -0.352 N 
ATOM      3  O   UNL A   1      32.440  33.277  27.495  1.00  0.00    -0.269 OA
ATOM      4  C   UNL A   1      32.955  32.204  27.189  1.00  0.00     0.251 C 
ATOM      5  H   UNL A   1      31.512  31.811  25.861  1.00  0.00     0.163 HD
BRANCH   4   6
ATOM      6  C   UNL A   1      34.219  31.777  27.840  1.00  0.00     0.039 A 
ATOM      7  C   UNL A   1      34.413  30.476  28.313  1.00  0.00     0.014 A 
ATOM      8  C   UNL A   1      35.264  32.706  27.921  1.00  0.00     0.014 A 
ATOM      9  C   UNL A   1      35.615  30.132  28.936  1.00  0.00     0.010 A 
ATOM     10  C   UNL A   1      36.479  32.352  28.519  1.00  0.00     0.010 A 
ATOM     11  C   UNL A   1      36.654  31.069  29.053  1.00  0.00    -0.014 A 
BRANCH  11  12
ATOM     12  C   UNL A   1      37.930  30.678  29.701  1.00  0.00     0.031 A 
ATOM     13  C   UNL A   1      38.255  31.139  31.093  1.00  0.00     0.074 A 
ATOM     14  C   UNL A   1      38.789  29.881  29.039  1.00  0.00     0.049 A 
ATOM     15  N   UNL A   1      39.239  30.766  31.871  1.00  0.00    -0.248 NA
ATOM     16  C   UNL A   1      37.357  32.138  31.694  1.00  0.00     0.031 C 
ATOM     17  C   UNL A   1      38.606  29.400  27.670  1.00  0.00     0.029 A 
ATOM     18  N   UNL A   1      39.980  29.326  29.434  1.00  0.00    -0.354 N 
ATOM     19  C   UNL A   1      39.080  31.477  33.052  1.00  0.00     0.074 A 
ATOM     20  C   UNL A   1      37.914  32.321  32.884  1.00  0.00     0.031 C 
ATOM     21  C   UNL A   1      39.634  28.599  27.347  1.00  0.00     0.029 A 
ATOM     22  C   UNL A   1      40.545  28.509  28.486  1.00  0.00     0.049 A 
ATOM     23  H   UNL A   1      40.389  29.497  30.313  1.00  0.00     0.167 HD
ATOM     24  C   UNL A   1      39.813  31.402  34.188  1.00  0.00     0.034 A 
ATOM     25  C   UNL A   1      41.657  27.749  28.540  1.00  0.00     0.034 A 
ATOM     26  C   UNL A   1      40.939  30.528  34.377  1.00  0.00     0.049 A 
ATOM     27  C   UNL A   1      42.473  27.714  29.803  1.00  0.00     0.074 A 
ATOM     28  C   UNL A   1      41.674  30.303  35.529  1.00  0.00     0.029 A 
ATOM     29  N   UNL A   1      41.505  29.745  33.383  1.00  0.00    -0.354 N 
ATOM     30  N   UNL A   1      42.211  28.257  30.967  1.00  0.00    -0.248 NA
ATOM     31  C   UNL A   1      43.727  26.948  29.764  1.00  0.00     0.031 C 
ATOM     32  C   UNL A   1      42.682  29.376  35.231  1.00  0.00     0.029 A 
ATOM     33  C   UNL A   1      42.590  29.049  33.888  1.00  0.00     0.049 A 
ATOM     34  H   UNL A   1      41.182  29.691  32.455  1.00  0.00     0.167 HD
ATOM     35  C   UNL A   1      43.252  27.879  31.806  1.00  0.00     0.074 A 
ATOM     36  C   UNL A   1      44.149  27.057  31.019  1.00  0.00     0.031 C 
ATOM     37  C   UNL A   1      43.449  28.196  33.109  1.00  0.00     0.034 A 
BRANCH  24  38
ATOM     38  C   UNL A   1      39.349  32.220  35.356  1.00  0.00     0.023 A 
ATOM     39  C   UNL A   1      38.384  31.664  36.219  1.00  0.00     0.012 A 
ATOM     40  C   UNL A   1      39.861  33.502  35.621  1.00  0.00     0.148 A 
ATOM     41  C   UNL A   1      37.937  32.378  37.331  1.00  0.00     0.002 A 
ATOM     42  C   UNL A   1      39.406  34.212  36.729  1.00  0.00     0.091 A 
ATOM     43  F   UNL A   1      40.764  34.027  34.780  1.00  0.00    -0.205 F 
ATOM     44  C   UNL A   1      38.448  33.652  37.588  1.00  0.00     0.022 A 
BRANCH  42  45
ATOM     45  S   UNL A   1      40.043  35.868  37.039  1.00  0.00     0.127 S 
ATOM     46  O   UNL A   1      41.476  35.634  37.189  1.00  0.00    -0.237 OA
ATOM     47  O   UNL A   1      39.681  36.604  35.826  1.00  0.00    -0.237 OA
ATOM     48  O   UNL A   1      39.323  36.293  38.234  1.00  0.00    -0.744 OA
ENDBRANCH  42  45
ENDBRANCH  24  38
BRANCH  25  49
ATOM     49  C   UNL A   1      41.996  26.868  27.392  1.00  0.00     0.023 A 
ATOM     50  C   UNL A   1      42.675  27.420  26.290  1.00  0.00     0.012 A 
ATOM     51  C   UNL A   1      41.712  25.494  27.405  1.00  0.00     0.148 A 
ATOM     52  C   UNL A   1      43.059  26.614  25.217  1.00  0.00     0.002 A 
ATOM     53  C   UNL A   1      42.125  24.690  26.346  1.00  0.00     0.091 A 
ATOM     54  F   UNL A   1      41.065  24.975  28.460  1.00  0.00    -0.205 F 
ATOM     55  C   UNL A   1      42.792  25.246  25.247  1.00  0.00     0.022 A 
BRANCH  53  56
ATOM     56  S   UNL A   1      41.851  22.919  26.439  1.00  0.00     0.127 S 
ATOM     57  O   UNL A   1      42.552  22.549  27.664  1.00  0.00    -0.237 OA
ATOM     58  O   UNL A   1      40.393  22.806  26.517  1.00  0.00    -0.237 OA
ATOM     59  O   UNL A   1      42.421  22.436  25.186  1.00  0.00    -0.744 OA
ENDBRANCH  53  56
ENDBRANCH  25  49
BRANCH  37  60
ATOM     60  C   UNL A   1      44.691  27.669  33.768  1.00  0.00     0.023 A 
ATOM     61  C   UNL A   1      45.828  28.495  33.828  1.00  0.00     0.012 A 
ATOM     62  C   UNL A   1      44.722  26.403  34.378  1.00  0.00     0.148 A 
ATOM     63  C   UNL A   1      46.983  28.062  34.480  1.00  0.00     0.002 A 
ATOM     64  C   UNL A   1      45.873  25.979  35.036  1.00  0.00     0.091 A 
ATOM     65  F   UNL A   1      43.631  25.624  34.317  1.00  0.00    -0.205 F 
ATOM     66  C   UNL A   1      47.007  26.804  35.087  1.00  0.00     0.022 A 
BRANCH  64  67
ATOM     67  S   UNL A   1      45.882  24.369  35.840  1.00  0.00     0.127 S 
ATOM     68  O   UNL A   1      45.734  23.446  34.720  1.00  0.00    -0.237 OA
ATOM     69  O   UNL A   1      47.193  24.318  36.491  1.00  0.00    -0.237 OA
ATOM     70  O   UNL A   1      44.759  24.449  36.769  1.00  0.00    -0.744 OA
ENDBRANCH  64  67
ENDBRANCH  37  60
ENDBRANCH  11  12
ENDBRANCH   4   6
ENDBRANCH   1   2
BRANCH   1  71
ATOM     71  C   UNL A   1      31.548  29.054  26.058  1.00  0.00     0.023 C 
BRANCH  71  72
ATOM     72  C   UNL A   1      31.931  27.863  26.948  1.00  0.00     0.023 C 
BRANCH  72  73
ATOM     73  C   UNL A   1      32.913  26.866  26.334  1.00  0.00     0.116 C 
BRANCH  73  74
ATOM     74  N   UNL A   1      32.284  25.595  26.024  1.00  0.00    -0.352 N 
ATOM     75  C   UNL A   1      32.061  24.969  24.824  1.00  0.00     0.256 C 
ATOM     76  H   UNL A   1      31.961  25.097  26.810  1.00  0.00     0.163 HD
ATOM     77  O   UNL A   1      31.301  24.003  24.811  1.00  0.00    -0.269 OA
BRANCH  75  78
ATOM     78  C   UNL A   1      32.698  25.443  23.619  1.00  0.00     0.107 A 
ATOM     79  C   UNL A   1      33.796  24.902  22.994  1.00  0.00     0.245 A 
ATOM     80  C   UNL A   1      32.262  26.459  22.714  1.00  0.00     0.126 A 
ATOM     81  O   UNL A   1      34.047  25.563  21.843  1.00  0.00    -0.363 OA
ATOM     82  N   UNL A   1      33.092  26.537  21.658  1.00  0.00    -0.079 NA
BRANCH  80  83
ATOM     83  C   UNL A   1      31.103  27.347  22.806  1.00  0.00     0.005 A 
ATOM     84  C   UNL A   1      29.875  26.888  23.302  1.00  0.00     0.012 A 
ATOM     85  C   UNL A   1      31.215  28.687  22.401  1.00  0.00     0.012 A 
ATOM     86  C   UNL A   1      28.777  27.751  23.383  1.00  0.00     0.021 A 
ATOM     87  C   UNL A   1      30.117  29.548  22.478  1.00  0.00     0.021 A 
ATOM     88  C   UNL A   1      28.902  29.076  22.968  1.00  0.00     0.041 A 
ATOM     89  Cl  UNL A   1      27.552  30.136  23.066  1.00  0.00    -0.084 Cl
ENDBRANCH  80  83
ENDBRANCH  75  78
ENDBRANCH  73  74
ENDBRANCH  72  73
ENDBRANCH  71  72
ENDBRANCH   1  71
TORSDOF 15
ENDMDL
MODEL 3
REMARK VINA RESULT:     -11.6      5.246     10.074
REMARK SMILES O=C(NCCCCNC(=O)c1conc1-c1ccc(Cl)cc1)c1ccc(-c2c3nc(c(-c4cccc(S(=O)(=O)[O-])c4F)c4ccc([nH]4)c(-c4cccc(S(=O)(=O)[O-])c4F)c4nc(c(-c5cccc(S(=O)(=O)[O-])c5F)c5ccc2[nH]5)C=C4)C=C3)cc1
REMARK SMILES IDX 4 1 3 2 1 3 2 4 23 6 24 7 85 8 25 9 84 10 26 11 27 12 28 13
REMARK SMILES IDX 78 14 29 15 83 16 77 17 79 18 30 19 82 20 76 21 75 22 31 24
REMARK SMILES IDX 63 25 43 26 62 27 44 28 47 29 61 30 80 31 45 32 46 33 60 35
REMARK SMILES IDX 81 36 48 37 32 38 33 39 41 40 34 41 36 42 42 43 35 44 37 45
REMARK SMILES IDX 38 46 39 47 40 48 64 49 65 50 73 51 66 52 68 53 74 54 67 55
REMARK SMILES IDX 69 56 70 57 71 58 72 59 49 60 50 61 58 62 51 63 53 64 59 65
REMARK SMILES IDX 52 66 54 67 55 68 56 69 57 70 5 71 6 72 7 73 8 74 9 75 10 77
REMARK SMILES IDX 11 78 12 79 15 80 13 81 14 82 16 83 17 84 22 85 18 86 21 87
REMARK SMILES IDX 19 88 20 89
REMARK H PARENT 3 5 79 23 47 34 8 76
REMARK Flexibility Score: inf
ROOT
ATOM      1  C   UNL A   1      36.375  21.914  25.613  1.00  0.00     0.116 C 
ENDROOT
BRANCH   1   2
ATOM      2  N   UNL A   1      37.390  20.878  25.604  1.00  0.00    -0.352 N 
ATOM      3  O   UNL A   1      39.419  19.942  25.737  1.00  0.00    -0.269 OA
ATOM      4  C   UNL A   1      38.732  20.950  25.893  1.00  0.00     0.251 C 
ATOM      5  H   UNL A   1      37.067  19.982  25.351  1.00  0.00     0.163 HD
BRANCH   4   6
ATOM      6  C   UNL A   1      39.363  22.213  26.351  1.00  0.00     0.039 A 
ATOM      7  C   UNL A   1      38.939  23.466  25.900  1.00  0.00     0.014 A 
ATOM      8  C   UNL A   1      40.377  22.131  27.315  1.00  0.00     0.014 A 
ATOM      9  C   UNL A   1      39.580  24.623  26.348  1.00  0.00     0.010 A 
ATOM     10  C   UNL A   1      40.999  23.292  27.786  1.00  0.00     0.010 A 
ATOM     11  C   UNL A   1      40.621  24.546  27.287  1.00  0.00    -0.014 A 
BRANCH  11  12
ATOM     12  C   UNL A   1      41.277  25.787  27.765  1.00  0.00     0.031 A 
ATOM     13  C   UNL A   1      42.698  26.097  27.391  1.00  0.00     0.074 A 
ATOM     14  C   UNL A   1      40.578  26.654  28.521  1.00  0.00     0.049 A 
ATOM     15  N   UNL A   1      43.373  27.201  27.580  1.00  0.00    -0.248 NA
ATOM     16  C   UNL A   1      43.456  25.037  26.706  1.00  0.00     0.031 C 
ATOM     17  C   UNL A   1      39.206  26.448  28.985  1.00  0.00     0.029 A 
ATOM     18  N   UNL A   1      40.921  27.884  29.021  1.00  0.00    -0.354 N 
ATOM     19  C   UNL A   1      44.632  26.975  27.038  1.00  0.00     0.074 A 
ATOM     20  C   UNL A   1      44.634  25.620  26.527  1.00  0.00     0.031 C 
ATOM     21  C   UNL A   1      38.813  27.529  29.679  1.00  0.00     0.029 A 
ATOM     22  C   UNL A   1      39.903  28.501  29.707  1.00  0.00     0.049 A 
ATOM     23  H   UNL A   1      41.811  28.287  28.900  1.00  0.00     0.167 HD
ATOM     24  C   UNL A   1      45.674  27.833  26.937  1.00  0.00     0.034 A 
ATOM     25  C   UNL A   1      39.846  29.726  30.268  1.00  0.00     0.034 A 
ATOM     26  C   UNL A   1      45.658  29.196  27.396  1.00  0.00     0.049 A 
ATOM     27  C   UNL A   1      41.033  30.643  30.172  1.00  0.00     0.074 A 
ATOM     28  C   UNL A   1      46.627  30.172  27.238  1.00  0.00     0.029 A 
ATOM     29  N   UNL A   1      44.625  29.772  28.118  1.00  0.00    -0.354 N 
ATOM     30  N   UNL A   1      42.149  30.478  29.505  1.00  0.00    -0.248 NA
ATOM     31  C   UNL A   1      40.945  31.923  30.892  1.00  0.00     0.031 C 
ATOM     32  C   UNL A   1      46.175  31.344  27.860  1.00  0.00     0.029 A 
ATOM     33  C   UNL A   1      44.939  31.084  28.429  1.00  0.00     0.049 A 
ATOM     34  H   UNL A   1      43.790  29.315  28.373  1.00  0.00     0.167 HD
ATOM     35  C   UNL A   1      42.886  31.639  29.703  1.00  0.00     0.074 A 
ATOM     36  C   UNL A   1      42.088  32.504  30.549  1.00  0.00     0.031 C 
ATOM     37  C   UNL A   1      44.117  31.953  29.233  1.00  0.00     0.034 A 
BRANCH  24  38
ATOM     38  C   UNL A   1      46.890  27.348  26.206  1.00  0.00     0.023 A 
ATOM     39  C   UNL A   1      46.950  27.536  24.811  1.00  0.00     0.012 A 
ATOM     40  C   UNL A   1      47.967  26.737  26.871  1.00  0.00     0.148 A 
ATOM     41  C   UNL A   1      48.070  27.121  24.091  1.00  0.00     0.002 A 
ATOM     42  C   UNL A   1      49.080  26.319  26.145  1.00  0.00     0.091 A 
ATOM     43  F   UNL A   1      47.888  26.545  28.196  1.00  0.00    -0.205 F 
ATOM     44  C   UNL A   1      49.136  26.513  24.756  1.00  0.00     0.022 A 
BRANCH  42  45
ATOM     45  S   UNL A   1      50.438  25.505  27.003  1.00  0.00     0.127 S 
ATOM     46  O   UNL A   1      51.389  25.253  25.924  1.00  0.00    -0.237 OA
ATOM     47  O   UNL A   1      50.883  26.511  27.969  1.00  0.00    -0.237 OA
ATOM     48  O   UNL A   1      49.810  24.335  27.605  1.00  0.00    -0.744 OA
ENDBRANCH  42  45
ENDBRANCH  24  38
BRANCH  25  49
ATOM     49  C   UNL A   1      38.571  30.193  30.871  1.00  0.00     0.023 A 
ATOM     50  C   UNL A   1      38.342  29.959  32.240  1.00  0.00     0.012 A 
ATOM     51  C   UNL A   1      37.620  30.910  30.129  1.00  0.00     0.148 A 
ATOM     52  C   UNL A   1      37.181  30.431  32.856  1.00  0.00     0.002 A 
ATOM     53  C   UNL A   1      36.480  31.404  30.755  1.00  0.00     0.091 A 
ATOM     54  F   UNL A   1      37.846  31.129  28.824  1.00  0.00    -0.205 F 
ATOM     55  C   UNL A   1      36.251  31.162  32.117  1.00  0.00     0.022 A 
BRANCH  53  56
ATOM     56  S   UNL A   1      35.336  32.416  29.811  1.00  0.00     0.127 S 
ATOM     57  O   UNL A   1      34.891  31.504  28.763  1.00  0.00    -0.237 OA
ATOM     58  O   UNL A   1      34.306  32.765  30.791  1.00  0.00    -0.237 OA
ATOM     59  O   UNL A   1      36.167  33.540  29.393  1.00  0.00    -0.744 OA
ENDBRANCH  53  56
ENDBRANCH  25  49
BRANCH  37  60
ATOM     60  C   UNL A   1      44.693  33.281  29.633  1.00  0.00     0.023 A 
ATOM     61  C   UNL A   1      45.517  33.346  30.771  1.00  0.00     0.012 A 
ATOM     62  C   UNL A   1      44.480  34.439  28.865  1.00  0.00     0.148 A 
ATOM     63  C   UNL A   1      46.114  34.551  31.144  1.00  0.00     0.002 A 
ATOM     64  C   UNL A   1      45.086  35.636  29.235  1.00  0.00     0.091 A 
ATOM     65  F   UNL A   1      43.695  34.366  27.779  1.00  0.00    -0.205 F 
ATOM     66  C   UNL A   1      45.902  35.698  30.376  1.00  0.00     0.022 A 
BRANCH  64  67
ATOM     67  S   UNL A   1      44.830  37.100  28.221  1.00  0.00     0.127 S 
ATOM     68  O   UNL A   1      43.383  37.284  28.276  1.00  0.00    -0.237 OA
ATOM     69  O   UNL A   1      45.593  38.138  28.917  1.00  0.00    -0.237 OA
ATOM     70  O   UNL A   1      45.387  36.717  26.927  1.00  0.00    -0.744 OA
ENDBRANCH  64  67
ENDBRANCH  37  60
ENDBRANCH  11  12
ENDBRANCH   4   6
ENDBRANCH   1   2
BRANCH   1  71
ATOM     71  C   UNL A   1      35.837  22.244  24.219  1.00  0.00     0.023 C 
BRANCH  71  72
ATOM     72  C   UNL A   1      34.310  22.311  24.075  1.00  0.00     0.023 C 
BRANCH  72  73
ATOM     73  C   UNL A   1      33.741  23.672  23.673  1.00  0.00     0.116 C 
BRANCH  73  74
ATOM     74  N   UNL A   1      34.198  24.738  24.545  1.00  0.00    -0.352 N 
ATOM     75  C   UNL A   1      33.542  25.455  25.514  1.00  0.00     0.256 C 
ATOM     76  H   UNL A   1      35.143  24.990  24.420  1.00  0.00     0.163 HD
ATOM     77  O   UNL A   1      34.090  26.463  25.953  1.00  0.00    -0.269 OA
BRANCH  75  78
ATOM     78  C   UNL A   1      32.247  25.032  25.988  1.00  0.00     0.107 A 
ATOM     79  C   UNL A   1      31.981  24.038  26.899  1.00  0.00     0.245 A 
ATOM     80  C   UNL A   1      30.969  25.633  25.763  1.00  0.00     0.126 A 
ATOM     81  O   UNL A   1      30.657  23.993  27.163  1.00  0.00    -0.363 OA
ATOM     82  N   UNL A   1      30.016  24.987  26.459  1.00  0.00    -0.079 NA
BRANCH  80  83
ATOM     83  C   UNL A   1      30.620  26.781  24.928  1.00  0.00     0.005 A 
ATOM     84  C   UNL A   1      31.318  27.993  25.031  1.00  0.00     0.012 A 
ATOM     85  C   UNL A   1      29.573  26.676  23.997  1.00  0.00     0.012 A 
ATOM     86  C   UNL A   1      30.969  29.082  24.224  1.00  0.00     0.021 A 
ATOM     87  C   UNL A   1      29.223  27.765  23.194  1.00  0.00     0.021 A 
ATOM     88  C   UNL A   1      29.922  28.964  23.312  1.00  0.00     0.041 A 
ATOM     89  Cl  UNL A   1      29.493  30.303  22.322  1.00  0.00    -0.084 Cl
ENDBRANCH  80  83
ENDBRANCH  75  78
ENDBRANCH  73  74
ENDBRANCH  72  73
ENDBRANCH  71  72
ENDBRANCH   1  71
TORSDOF 15
ENDMDL
