MODEL 1
REMARK VINA RESULT:     -12.0      0.000      0.000
REMARK SMILES CSc1ncccc1C(=O)N1CSC[C@H]1C(=O)NCCCCNC(=O)c1ccc(-c2c3nc(c(-c4cccc(S(=O)(=O)[O-])c4F)c4ccc([nH]4)c(-c4cccc(S(=O)(=O)[O-])c4F)c4nc(c(-c5cccc(S(=O)(=O)[O-])c5F)c5ccc2[nH]5)C=C4)C=C3)cc1
REMARK SMILES IDX 20 1 19 2 18 3 16 4 17 5 15 7 11 8 12 9 13 10 14 11 9 12
REMARK SMILES IDX 10 13 8 14 3 15 4 16 5 17 7 18 6 19 2 20 1 21 21 22 22 23
REMARK SMILES IDX 23 24 24 25 25 27 26 28 27 29 88 30 28 31 87 32 29 33 30 34
REMARK SMILES IDX 31 35 81 36 32 37 86 38 80 39 82 40 33 41 85 42 79 43 78 44
REMARK SMILES IDX 34 46 66 47 46 48 65 49 47 50 50 51 64 52 83 53 48 54 49 55
REMARK SMILES IDX 63 57 84 58 51 59 35 60 36 61 44 62 37 63 39 64 45 65 38 66
REMARK SMILES IDX 40 67 41 68 42 69 43 70 67 71 68 72 76 73 69 74 71 75 77 76
REMARK SMILES IDX 70 77 72 78 73 79 74 80 75 81 52 82 53 83 61 84 54 85 56 86
REMARK SMILES IDX 62 87 55 88 57 89 58 90 59 91 60 92
REMARK H PARENT 18 6 23 26 82 45 50 56
REMARK Flexibility Score: inf
ROOT
ATOM      1  C   UNL A   1      32.877  28.990  23.463  1.00  0.00     0.023 C 
ENDROOT
BRANCH   1   2
ATOM      2  C   UNL A   1      33.685  27.698  23.482  1.00  0.00     0.116 C 
BRANCH   2   3
ATOM      3  N   UNL A   1      33.730  27.053  22.190  1.00  0.00    -0.354 N 
ATOM      4  C   UNL A   1      33.140  25.911  21.738  1.00  0.00     0.243 C 
ATOM      5  O   UNL A   1      33.100  25.770  20.510  1.00  0.00    -0.273 OA
ATOM      6  H   UNL A   1      34.284  27.518  21.522  1.00  0.00     0.163 HD
BRANCH   4   7
ATOM      7  C   UNL A   1      32.403  24.907  22.654  1.00  0.00     0.185 C 
ATOM      8  N   UNL A   1      33.155  24.304  23.768  1.00  0.00    -0.316 N 
ATOM      9  C   UNL A   1      32.765  24.767  25.080  1.00  0.00     0.190 C 
ATOM     10  S   UNL A   1      31.009  25.156  24.955  1.00  0.00    -0.138 SA
ATOM     11  C   UNL A   1      31.071  25.463  23.160  1.00  0.00     0.106 C 
BRANCH   8  12
ATOM     12  C   UNL A   1      33.984  23.225  23.457  1.00  0.00     0.257 C 
ATOM     13  O   UNL A   1      34.938  23.358  22.696  1.00  0.00    -0.269 OA
BRANCH  12  14
ATOM     14  C   UNL A   1      33.628  21.850  23.892  1.00  0.00     0.072 A 
ATOM     15  C   UNL A   1      34.368  21.121  24.830  1.00  0.00     0.108 A 
ATOM     16  N   UNL A   1      34.061  19.825  25.131  1.00  0.00    -0.249 NA
ATOM     17  C   UNL A   1      33.038  19.234  24.478  1.00  0.00     0.112 A 
ATOM     18  C   UNL A   1      32.599  21.184  23.204  1.00  0.00     0.018 A 
ATOM     19  C   UNL A   1      32.281  19.868  23.514  1.00  0.00     0.021 A 
BRANCH  15  20
ATOM     20  S   UNL A   1      35.805  21.774  25.672  1.00  0.00    -0.109 SA
ATOM     21  C   UNL A   1      37.136  20.822  24.901  1.00  0.00     0.092 C 
ENDBRANCH  15  20
ENDBRANCH  12  14
ENDBRANCH   8  12
ENDBRANCH   4   7
ENDBRANCH   2   3
ENDBRANCH   1   2
BRANCH   1  22
ATOM     22  C   UNL A   1      32.162  29.318  24.777  1.00  0.00     0.023 C 
BRANCH  22  23
ATOM     23  C   UNL A   1      33.066  29.740  25.935  1.00  0.00     0.116 C 
BRANCH  23  24
ATOM     24  N   UNL A   1      32.790  31.078  26.438  1.00  0.00    -0.352 N 
ATOM     25  C   UNL A   1      33.524  31.821  27.332  1.00  0.00     0.251 C 
ATOM     26  H   UNL A   1      31.973  31.506  26.095  1.00  0.00     0.163 HD
ATOM     27  O   UNL A   1      33.101  32.905  27.724  1.00  0.00    -0.269 OA
BRANCH  25  28
ATOM     28  C   UNL A   1      34.803  31.287  27.850  1.00  0.00     0.039 A 
ATOM     29  C   UNL A   1      35.895  32.150  27.963  1.00  0.00     0.014 A 
ATOM     30  C   UNL A   1      34.915  29.954  28.253  1.00  0.00     0.014 A 
ATOM     31  C   UNL A   1      37.079  31.694  28.545  1.00  0.00     0.010 A 
ATOM     32  C   UNL A   1      36.073  29.520  28.893  1.00  0.00     0.010 A 
ATOM     33  C   UNL A   1      37.167  30.384  29.047  1.00  0.00    -0.014 A 
BRANCH  33  34
ATOM     34  C   UNL A   1      38.384  29.917  29.757  1.00  0.00     0.031 A 
ATOM     35  C   UNL A   1      38.719  30.443  31.127  1.00  0.00     0.074 A 
ATOM     36  C   UNL A   1      39.230  29.072  29.135  1.00  0.00     0.049 A 
ATOM     37  N   UNL A   1      39.743  30.160  31.890  1.00  0.00    -0.248 NA
ATOM     38  C   UNL A   1      37.798  31.435  31.708  1.00  0.00     0.031 C 
ATOM     39  C   UNL A   1      39.070  28.567  27.769  1.00  0.00     0.029 A 
ATOM     40  N   UNL A   1      40.406  28.505  29.559  1.00  0.00    -0.354 N 
ATOM     41  C   UNL A   1      39.607  30.953  33.023  1.00  0.00     0.074 A 
ATOM     42  C   UNL A   1      38.420  31.759  32.832  1.00  0.00     0.031 C 
ATOM     43  C   UNL A   1      40.102  27.761  27.471  1.00  0.00     0.029 A 
ATOM     44  C   UNL A   1      41.004  27.701  28.617  1.00  0.00     0.049 A 
ATOM     45  H   UNL A   1      40.785  28.659  30.454  1.00  0.00     0.167 HD
ATOM     46  C   UNL A   1      40.375  30.981  34.138  1.00  0.00     0.034 A 
ATOM     47  C   UNL A   1      42.147  26.989  28.673  1.00  0.00     0.034 A 
ATOM     48  C   UNL A   1      41.525  30.143  34.346  1.00  0.00     0.049 A 
ATOM     49  C   UNL A   1      42.938  26.981  29.954  1.00  0.00     0.074 A 
ATOM     50  C   UNL A   1      42.330  30.047  35.468  1.00  0.00     0.029 A 
ATOM     51  N   UNL A   1      42.033  29.252  33.413  1.00  0.00    -0.354 N 
ATOM     52  N   UNL A   1      42.697  27.613  31.077  1.00  0.00    -0.248 NA
ATOM     53  C   UNL A   1      44.133  26.126  29.991  1.00  0.00     0.031 C 
ATOM     54  C   UNL A   1      43.325  29.096  35.214  1.00  0.00     0.029 A 
ATOM     55  C   UNL A   1      43.133  28.594  33.937  1.00  0.00     0.049 A 
ATOM     56  H   UNL A   1      41.667  29.109  32.511  1.00  0.00     0.167 HD
ATOM     57  C   UNL A   1      43.684  27.201  31.964  1.00  0.00     0.074 A 
ATOM     58  C   UNL A   1      44.510  26.246  31.257  1.00  0.00     0.031 C 
ATOM     59  C   UNL A   1      43.903  27.596  33.243  1.00  0.00     0.034 A 
BRANCH  46  60
ATOM     60  C   UNL A   1      39.948  31.890  35.260  1.00  0.00     0.023 A 
ATOM     61  C   UNL A   1      40.399  33.226  35.267  1.00  0.00     0.012 A 
ATOM     62  C   UNL A   1      39.054  31.456  36.258  1.00  0.00     0.148 A 
ATOM     63  C   UNL A   1      39.989  34.110  36.263  1.00  0.00     0.002 A 
ATOM     64  C   UNL A   1      38.617  32.355  37.225  1.00  0.00     0.091 A 
ATOM     65  F   UNL A   1      38.652  30.178  36.246  1.00  0.00    -0.205 F 
ATOM     66  C   UNL A   1      39.090  33.679  37.235  1.00  0.00     0.022 A 
BRANCH  64  67
ATOM     67  S   UNL A   1      37.405  31.923  38.479  1.00  0.00     0.127 S 
ATOM     68  O   UNL A   1      37.119  30.528  38.145  1.00  0.00    -0.237 OA
ATOM     69  O   UNL A   1      38.162  32.111  39.717  1.00  0.00    -0.237 OA
ATOM     70  O   UNL A   1      36.293  32.847  38.299  1.00  0.00    -0.744 OA
ENDBRANCH  64  67
ENDBRANCH  46  60
BRANCH  47  71
ATOM     71  C   UNL A   1      42.565  26.147  27.516  1.00  0.00     0.023 A 
ATOM     72  C   UNL A   1      43.405  26.701  26.528  1.00  0.00     0.012 A 
ATOM     73  C   UNL A   1      42.149  24.809  27.388  1.00  0.00     0.148 A 
ATOM     74  C   UNL A   1      43.786  25.951  25.415  1.00  0.00     0.002 A 
ATOM     75  C   UNL A   1      42.578  24.051  26.304  1.00  0.00     0.091 A 
ATOM     76  F   UNL A   1      41.338  24.300  28.327  1.00  0.00    -0.205 F 
ATOM     77  C   UNL A   1      43.381  24.624  25.308  1.00  0.00     0.022 A 
BRANCH  75  78
ATOM     78  S   UNL A   1      42.207  22.298  26.169  1.00  0.00     0.127 S 
ATOM     79  O   UNL A   1      42.958  21.924  24.975  1.00  0.00    -0.237 OA
ATOM     80  O   UNL A   1      42.743  21.769  27.425  1.00  0.00    -0.237 OA
ATOM     81  O   UNL A   1      40.755  22.223  26.067  1.00  0.00    -0.744 OA
ENDBRANCH  75  78
ENDBRANCH  47  71
BRANCH  59  82
ATOM     82  C   UNL A   1      45.059  26.966  33.975  1.00  0.00     0.023 A 
ATOM     83  C   UNL A   1      46.335  27.556  33.901  1.00  0.00     0.012 A 
ATOM     84  C   UNL A   1      44.869  25.826  34.779  1.00  0.00     0.148 A 
ATOM     85  C   UNL A   1      47.415  26.998  34.584  1.00  0.00     0.002 A 
ATOM     86  C   UNL A   1      45.940  25.302  35.494  1.00  0.00     0.091 A 
ATOM     87  F   UNL A   1      43.652  25.264  34.821  1.00  0.00    -0.205 F 
ATOM     88  C   UNL A   1      47.216  25.878  35.388  1.00  0.00     0.022 A 
BRANCH  86  89
ATOM     89  S   UNL A   1      45.742  23.917  36.623  1.00  0.00     0.127 S 
ATOM     90  O   UNL A   1      45.150  22.904  35.753  1.00  0.00    -0.237 OA
ATOM     91  O   UNL A   1      47.121  23.642  37.029  1.00  0.00    -0.237 OA
ATOM     92  O   UNL A   1      44.888  24.406  37.698  1.00  0.00    -0.744 OA
ENDBRANCH  86  89
ENDBRANCH  59  82
ENDBRANCH  33  34
ENDBRANCH  25  28
ENDBRANCH  23  24
ENDBRANCH  22  23
ENDBRANCH   1  22
TORSDOF 17
ENDMDL
MODEL 2
REMARK VINA RESULT:     -11.9      1.408      2.851
REMARK SMILES CSc1ncccc1C(=O)N1CSC[C@H]1C(=O)NCCCCNC(=O)c1ccc(-c2c3nc(c(-c4cccc(S(=O)(=O)[O-])c4F)c4ccc([nH]4)c(-c4cccc(S(=O)(=O)[O-])c4F)c4nc(c(-c5cccc(S(=O)(=O)[O-])c5F)c5ccc2[nH]5)C=C4)C=C3)cc1
REMARK SMILES IDX 20 1 19 2 18 3 16 4 17 5 15 7 11 8 12 9 13 10 14 11 9 12
REMARK SMILES IDX 10 13 8 14 3 15 4 16 5 17 7 18 6 19 2 20 1 21 21 22 22 23
REMARK SMILES IDX 23 24 24 25 25 27 26 28 27 29 88 30 28 31 87 32 29 33 30 34
REMARK SMILES IDX 31 35 81 36 32 37 86 38 80 39 82 40 33 41 85 42 79 43 78 44
REMARK SMILES IDX 34 46 66 47 46 48 65 49 47 50 50 51 64 52 83 53 48 54 49 55
REMARK SMILES IDX 63 57 84 58 51 59 35 60 36 61 44 62 37 63 39 64 45 65 38 66
REMARK SMILES IDX 40 67 41 68 42 69 43 70 67 71 68 72 76 73 69 74 71 75 77 76
REMARK SMILES IDX 70 77 72 78 73 79 74 80 75 81 52 82 53 83 61 84 54 85 56 86
REMARK SMILES IDX 62 87 55 88 57 89 58 90 59 91 60 92
REMARK H PARENT 18 6 23 26 82 45 50 56
REMARK Flexibility Score: inf
ROOT
ATOM      1  C   UNL A   1      31.609  27.895  26.279  1.00  0.00     0.023 C 
ENDROOT
BRANCH   1   2
ATOM      2  C   UNL A   1      32.376  26.612  26.574  1.00  0.00     0.116 C 
BRANCH   2   3
ATOM      3  N   UNL A   1      31.508  25.518  26.943  1.00  0.00    -0.354 N 
ATOM      4  C   UNL A   1      31.596  24.182  26.693  1.00  0.00     0.243 C 
ATOM      5  O   UNL A   1      30.885  23.450  27.393  1.00  0.00    -0.273 OA
ATOM      6  H   UNL A   1      30.717  25.784  27.465  1.00  0.00     0.163 HD
BRANCH   4   7
ATOM      7  C   UNL A   1      32.626  23.557  25.725  1.00  0.00     0.185 C 
ATOM      8  N   UNL A   1      33.081  24.366  24.580  1.00  0.00    -0.316 N 
ATOM      9  C   UNL A   1      34.444  24.832  24.673  1.00  0.00     0.190 C 
ATOM     10  S   UNL A   1      35.326  23.569  25.610  1.00  0.00    -0.138 SA
ATOM     11  C   UNL A   1      33.831  22.975  26.465  1.00  0.00     0.106 C 
BRANCH   8  12
ATOM     12  C   UNL A   1      32.240  24.407  23.466  1.00  0.00     0.257 C 
ATOM     13  O   UNL A   1      32.333  23.572  22.571  1.00  0.00    -0.269 OA
BRANCH  12  14
ATOM     14  C   UNL A   1      31.337  25.566  23.245  1.00  0.00     0.072 A 
ATOM     15  C   UNL A   1      31.760  26.780  22.689  1.00  0.00     0.108 A 
ATOM     16  N   UNL A   1      30.920  27.851  22.592  1.00  0.00    -0.249 NA
ATOM     17  C   UNL A   1      29.665  27.736  23.075  1.00  0.00     0.112 A 
ATOM     18  C   UNL A   1      30.038  25.503  23.775  1.00  0.00     0.018 A 
ATOM     19  C   UNL A   1      29.180  26.591  23.670  1.00  0.00     0.021 A 
BRANCH  15  20
ATOM     20  S   UNL A   1      33.430  27.071  22.118  1.00  0.00    -0.109 SA
ATOM     21  C   UNL A   1      33.814  28.647  22.919  1.00  0.00     0.092 C 
ENDBRANCH  15  20
ENDBRANCH  12  14
ENDBRANCH   8  12
ENDBRANCH   4   7
ENDBRANCH   2   3
ENDBRANCH   1   2
BRANCH   1  22
ATOM     22  C   UNL A   1      32.031  29.103  27.119  1.00  0.00     0.023 C 
BRANCH  22  23
ATOM     23  C   UNL A   1      33.059  30.031  26.473  1.00  0.00     0.116 C 
BRANCH  23  24
ATOM     24  N   UNL A   1      32.930  31.423  26.878  1.00  0.00    -0.352 N 
ATOM     25  C   UNL A   1      33.783  32.166  27.660  1.00  0.00     0.251 C 
ATOM     26  H   UNL A   1      32.130  31.894  26.551  1.00  0.00     0.163 HD
ATOM     27  O   UNL A   1      33.480  33.311  27.985  1.00  0.00    -0.269 OA
BRANCH  25  28
ATOM     28  C   UNL A   1      35.045  31.563  28.141  1.00  0.00     0.039 A 
ATOM     29  C   UNL A   1      36.198  32.351  28.170  1.00  0.00     0.014 A 
ATOM     30  C   UNL A   1      35.085  30.241  28.592  1.00  0.00     0.014 A 
ATOM     31  C   UNL A   1      37.375  31.834  28.717  1.00  0.00     0.010 A 
ATOM     32  C   UNL A   1      36.239  29.751  29.197  1.00  0.00     0.010 A 
ATOM     33  C   UNL A   1      37.396  30.541  29.267  1.00  0.00    -0.014 A 
BRANCH  33  34
ATOM     34  C   UNL A   1      38.611  30.016  29.940  1.00  0.00     0.031 A 
ATOM     35  C   UNL A   1      38.994  30.501  31.312  1.00  0.00     0.074 A 
ATOM     36  C   UNL A   1      39.412  29.155  29.282  1.00  0.00     0.049 A 
ATOM     37  N   UNL A   1      40.024  30.166  32.046  1.00  0.00    -0.248 NA
ATOM     38  C   UNL A   1      38.123  31.513  31.933  1.00  0.00     0.031 C 
ATOM     39  C   UNL A   1      39.204  28.684  27.910  1.00  0.00     0.029 A 
ATOM     40  N   UNL A   1      40.575  28.537  29.668  1.00  0.00    -0.354 N 
ATOM     41  C   UNL A   1      39.940  30.940  33.197  1.00  0.00     0.074 A 
ATOM     42  C   UNL A   1      38.780  31.791  33.050  1.00  0.00     0.031 C 
ATOM     43  C   UNL A   1      40.200  27.848  27.573  1.00  0.00     0.029 A 
ATOM     44  C   UNL A   1      41.124  27.732  28.697  1.00  0.00     0.049 A 
ATOM     45  H   UNL A   1      40.979  28.659  30.558  1.00  0.00     0.167 HD
ATOM     46  C   UNL A   1      40.733  30.917  34.295  1.00  0.00     0.034 A 
ATOM     47  C   UNL A   1      42.241  26.979  28.713  1.00  0.00     0.034 A 
ATOM     48  C   UNL A   1      41.857  30.035  34.461  1.00  0.00     0.049 A 
ATOM     49  C   UNL A   1      43.058  26.917  29.975  1.00  0.00     0.074 A 
ATOM     50  C   UNL A   1      42.681  29.886  35.563  1.00  0.00     0.029 A 
ATOM     51  N   UNL A   1      42.312  29.146  33.499  1.00  0.00    -0.354 N 
ATOM     52  N   UNL A   1      42.865  27.532  31.116  1.00  0.00    -0.248 NA
ATOM     53  C   UNL A   1      44.223  26.018  29.968  1.00  0.00     0.031 C 
ATOM     54  C   UNL A   1      43.636  28.906  35.267  1.00  0.00     0.029 A 
ATOM     55  C   UNL A   1      43.399  28.438  33.985  1.00  0.00     0.049 A 
ATOM     56  H   UNL A   1      41.921  29.035  32.603  1.00  0.00     0.167 HD
ATOM     57  C   UNL A   1      43.856  27.068  31.973  1.00  0.00     0.074 A 
ATOM     58  C   UNL A   1      44.632  26.098  31.228  1.00  0.00     0.031 C 
ATOM     59  C   UNL A   1      44.117  27.428  33.254  1.00  0.00     0.034 A 
BRANCH  46  60
ATOM     60  C   UNL A   1      40.364  31.817  35.445  1.00  0.00     0.023 A 
ATOM     61  C   UNL A   1      41.073  33.023  35.624  1.00  0.00     0.012 A 
ATOM     62  C   UNL A   1      39.283  31.516  36.296  1.00  0.00     0.148 A 
ATOM     63  C   UNL A   1      40.730  33.904  36.649  1.00  0.00     0.002 A 
ATOM     64  C   UNL A   1      38.921  32.419  37.290  1.00  0.00     0.091 A 
ATOM     65  F   UNL A   1      38.634  30.357  36.122  1.00  0.00    -0.205 F 
ATOM     66  C   UNL A   1      39.649  33.608  37.474  1.00  0.00     0.022 A 
BRANCH  64  67
ATOM     67  S   UNL A   1      37.500  32.172  38.360  1.00  0.00     0.127 S 
ATOM     68  O   UNL A   1      38.009  32.657  39.643  1.00  0.00    -0.237 OA
ATOM     69  O   UNL A   1      36.493  33.033  37.740  1.00  0.00    -0.237 OA
ATOM     70  O   UNL A   1      37.200  30.748  38.309  1.00  0.00    -0.744 OA
ENDBRANCH  64  67
ENDBRANCH  46  60
BRANCH  47  71
ATOM     71  C   UNL A   1      42.603  26.147  27.530  1.00  0.00     0.023 A 
ATOM     72  C   UNL A   1      43.386  26.713  26.504  1.00  0.00     0.012 A 
ATOM     73  C   UNL A   1      42.190  24.806  27.417  1.00  0.00     0.148 A 
ATOM     74  C   UNL A   1      43.713  25.972  25.367  1.00  0.00     0.002 A 
ATOM     75  C   UNL A   1      42.566  24.058  26.307  1.00  0.00     0.091 A 
ATOM     76  F   UNL A   1      41.433  24.286  28.394  1.00  0.00    -0.205 F 
ATOM     77  C   UNL A   1      43.312  24.643  25.273  1.00  0.00     0.022 A 
BRANCH  75  78
ATOM     78  S   UNL A   1      42.201  22.303  26.180  1.00  0.00     0.127 S 
ATOM     79  O   UNL A   1      42.751  21.791  27.430  1.00  0.00    -0.237 OA
ATOM     80  O   UNL A   1      40.740  22.295  26.099  1.00  0.00    -0.237 OA
ATOM     81  O   UNL A   1      42.864  21.865  24.957  1.00  0.00    -0.744 OA
ENDBRANCH  75  78
ENDBRANCH  47  71
BRANCH  59  82
ATOM     82  C   UNL A   1      45.264  26.742  33.947  1.00  0.00     0.023 A 
ATOM     83  C   UNL A   1      46.564  27.274  33.836  1.00  0.00     0.012 A 
ATOM     84  C   UNL A   1      45.048  25.607  34.752  1.00  0.00     0.148 A 
ATOM     85  C   UNL A   1      47.637  26.664  34.483  1.00  0.00     0.002 A 
ATOM     86  C   UNL A   1      46.115  25.031  35.431  1.00  0.00     0.091 A 
ATOM     87  F   UNL A   1      43.808  25.100  34.829  1.00  0.00    -0.205 F 
ATOM     88  C   UNL A   1      47.412  25.549  35.288  1.00  0.00     0.022 A 
BRANCH  86  89
ATOM     89  S   UNL A   1      45.889  23.650  36.559  1.00  0.00     0.127 S 
ATOM     90  O   UNL A   1      47.259  23.388  36.991  1.00  0.00    -0.237 OA
ATOM     91  O   UNL A   1      45.025  24.225  37.591  1.00  0.00    -0.237 OA
ATOM     92  O   UNL A   1      45.260  22.598  35.771  1.00  0.00    -0.744 OA
ENDBRANCH  86  89
ENDBRANCH  59  82
ENDBRANCH  33  34
ENDBRANCH  25  28
ENDBRANCH  23  24
ENDBRANCH  22  23
ENDBRANCH   1  22
TORSDOF 17
ENDMDL
MODEL 3
REMARK VINA RESULT:     -11.9      1.513      2.020
REMARK SMILES CSc1ncccc1C(=O)N1CSC[C@H]1C(=O)NCCCCNC(=O)c1ccc(-c2c3nc(c(-c4cccc(S(=O)(=O)[O-])c4F)c4ccc([nH]4)c(-c4cccc(S(=O)(=O)[O-])c4F)c4nc(c(-c5cccc(S(=O)(=O)[O-])c5F)c5ccc2[nH]5)C=C4)C=C3)cc1
REMARK SMILES IDX 20 1 19 2 18 3 16 4 17 5 15 7 11 8 12 9 13 10 14 11 9 12
REMARK SMILES IDX 10 13 8 14 3 15 4 16 5 17 7 18 6 19 2 20 1 21 21 22 22 23
REMARK SMILES IDX 23 24 24 25 25 27 26 28 27 29 88 30 28 31 87 32 29 33 30 34
REMARK SMILES IDX 31 35 81 36 32 37 86 38 80 39 82 40 33 41 85 42 79 43 78 44
REMARK SMILES IDX 34 46 66 47 46 48 65 49 47 50 50 51 64 52 83 53 48 54 49 55
REMARK SMILES IDX 63 57 84 58 51 59 35 60 36 61 44 62 37 63 39 64 45 65 38 66
REMARK SMILES IDX 40 67 41 68 42 69 43 70 67 71 68 72 76 73 69 74 71 75 77 76
REMARK SMILES IDX 70 77 72 78 73 79 74 80 75 81 52 82 53 83 61 84 54 85 56 86
REMARK SMILES IDX 62 87 55 88 57 89 58 90 59 91 60 92
REMARK H PARENT 18 6 23 26 82 45 50 56
REMARK Flexibility Score: inf
ROOT
ATOM      1  C   UNL A   1      32.712  29.266  24.357  1.00  0.00     0.023 C 
ENDROOT
BRANCH   1   2
ATOM      2  C   UNL A   1      33.281  27.855  24.435  1.00  0.00     0.116 C 
BRANCH   2   3
ATOM      3  N   UNL A   1      33.672  27.341  23.142  1.00  0.00    -0.354 N 
ATOM      4  C   UNL A   1      33.202  26.288  22.418  1.00  0.00     0.243 C 
ATOM      5  O   UNL A   1      33.506  26.274  21.219  1.00  0.00    -0.273 OA
ATOM      6  H   UNL A   1      34.404  27.839  22.711  1.00  0.00     0.163 HD
BRANCH   4   7
ATOM      7  C   UNL A   1      32.209  25.241  22.973  1.00  0.00     0.185 C 
ATOM      8  N   UNL A   1      32.741  24.165  23.827  1.00  0.00    -0.316 N 
ATOM      9  C   UNL A   1      32.383  24.268  25.222  1.00  0.00     0.190 C 
ATOM     10  S   UNL A   1      30.764  25.063  25.249  1.00  0.00    -0.138 SA
ATOM     11  C   UNL A   1      31.002  25.896  23.646  1.00  0.00     0.106 C 
BRANCH   8  12
ATOM     12  C   UNL A   1      33.333  23.080  23.177  1.00  0.00     0.257 C 
ATOM     13  O   UNL A   1      32.804  22.563  22.198  1.00  0.00    -0.269 OA
BRANCH  12  14
ATOM     14  C   UNL A   1      34.523  22.409  23.761  1.00  0.00     0.072 A 
ATOM     15  C   UNL A   1      34.441  21.345  24.667  1.00  0.00     0.108 A 
ATOM     16  N   UNL A   1      35.557  20.819  25.253  1.00  0.00    -0.249 NA
ATOM     17  C   UNL A   1      36.757  21.368  24.969  1.00  0.00     0.112 A 
ATOM     18  C   UNL A   1      35.786  22.979  23.527  1.00  0.00     0.018 A 
ATOM     19  C   UNL A   1      36.922  22.440  24.117  1.00  0.00     0.021 A 
BRANCH  15  20
ATOM     20  S   UNL A   1      32.895  20.616  25.193  1.00  0.00    -0.109 SA
ATOM     21  C   UNL A   1      32.626  19.376  23.904  1.00  0.00     0.092 C 
ENDBRANCH  15  20
ENDBRANCH  12  14
ENDBRANCH   8  12
ENDBRANCH   4   7
ENDBRANCH   2   3
ENDBRANCH   1   2
BRANCH   1  22
ATOM     22  C   UNL A   1      31.696  29.609  25.451  1.00  0.00     0.023 C 
BRANCH  22  23
ATOM     23  C   UNL A   1      32.284  30.145  26.755  1.00  0.00     0.116 C 
BRANCH  23  24
ATOM     24  N   UNL A   1      32.244  31.597  26.865  1.00  0.00    -0.352 N 
ATOM     25  C   UNL A   1      33.181  32.436  27.419  1.00  0.00     0.251 C 
ATOM     26  H   UNL A   1      31.443  32.034  26.494  1.00  0.00     0.163 HD
ATOM     27  O   UNL A   1      32.950  33.639  27.513  1.00  0.00    -0.269 OA
BRANCH  25  28
ATOM     28  C   UNL A   1      34.447  31.876  27.941  1.00  0.00     0.039 A 
ATOM     29  C   UNL A   1      35.555  32.717  28.058  1.00  0.00     0.014 A 
ATOM     30  C   UNL A   1      34.531  30.540  28.342  1.00  0.00     0.014 A 
ATOM     31  C   UNL A   1      36.729  32.236  28.644  1.00  0.00     0.010 A 
ATOM     32  C   UNL A   1      35.678  30.081  28.985  1.00  0.00     0.010 A 
ATOM     33  C   UNL A   1      36.788  30.924  29.144  1.00  0.00    -0.014 A 
BRANCH  33  34
ATOM     34  C   UNL A   1      37.993  30.431  29.857  1.00  0.00     0.031 A 
ATOM     35  C   UNL A   1      38.318  30.926  31.241  1.00  0.00     0.074 A 
ATOM     36  C   UNL A   1      38.839  29.591  29.227  1.00  0.00     0.049 A 
ATOM     37  N   UNL A   1      39.332  30.619  32.009  1.00  0.00    -0.248 NA
ATOM     38  C   UNL A   1      37.400  31.915  31.832  1.00  0.00     0.031 C 
ATOM     39  C   UNL A   1      38.689  29.116  27.849  1.00  0.00     0.029 A 
ATOM     40  N   UNL A   1      40.005  29.005  29.652  1.00  0.00    -0.354 N 
ATOM     41  C   UNL A   1      39.190  31.390  33.156  1.00  0.00     0.074 A 
ATOM     42  C   UNL A   1      38.013  32.210  32.970  1.00  0.00     0.031 C 
ATOM     43  C   UNL A   1      39.717  28.306  27.546  1.00  0.00     0.029 A 
ATOM     44  C   UNL A   1      40.606  28.215  28.700  1.00  0.00     0.049 A 
ATOM     45  H   UNL A   1      40.376  29.137  30.554  1.00  0.00     0.167 HD
ATOM     46  C   UNL A   1      39.947  31.388  34.280  1.00  0.00     0.034 A 
ATOM     47  C   UNL A   1      41.742  27.492  28.754  1.00  0.00     0.034 A 
ATOM     48  C   UNL A   1      41.087  30.536  34.483  1.00  0.00     0.049 A 
ATOM     49  C   UNL A   1      42.519  27.451  30.042  1.00  0.00     0.074 A 
ATOM     50  C   UNL A   1      41.878  30.409  35.611  1.00  0.00     0.029 A 
ATOM     51  N   UNL A   1      41.597  29.659  33.538  1.00  0.00    -0.354 N 
ATOM     52  N   UNL A   1      42.271  28.062  31.175  1.00  0.00    -0.248 NA
ATOM     53  C   UNL A   1      43.706  26.584  30.074  1.00  0.00     0.031 C 
ATOM     54  C   UNL A   1      42.868  29.455  35.348  1.00  0.00     0.029 A 
ATOM     55  C   UNL A   1      42.685  28.981  34.060  1.00  0.00     0.049 A 
ATOM     56  H   UNL A   1      41.239  29.538  32.629  1.00  0.00     0.167 HD
ATOM     57  C   UNL A   1      43.245  27.623  32.065  1.00  0.00     0.074 A 
ATOM     58  C   UNL A   1      44.071  26.675  31.347  1.00  0.00     0.031 C 
ATOM     59  C   UNL A   1      43.454  27.990  33.353  1.00  0.00     0.034 A 
BRANCH  46  60
ATOM     60  C   UNL A   1      39.516  32.277  35.416  1.00  0.00     0.023 A 
ATOM     61  C   UNL A   1      38.725  31.733  36.450  1.00  0.00     0.012 A 
ATOM     62  C   UNL A   1      39.944  33.616  35.505  1.00  0.00     0.148 A 
ATOM     63  C   UNL A   1      38.345  32.512  37.541  1.00  0.00     0.002 A 
ATOM     64  C   UNL A   1      39.596  34.375  36.616  1.00  0.00     0.091 A 
ATOM     65  F   UNL A   1      40.679  34.121  34.504  1.00  0.00    -0.205 F 
ATOM     66  C   UNL A   1      38.789  33.828  37.630  1.00  0.00     0.022 A 
BRANCH  64  67
ATOM     67  S   UNL A   1      40.173  36.057  36.867  1.00  0.00     0.127 S 
ATOM     68  O   UNL A   1      41.614  35.855  37.018  1.00  0.00    -0.237 OA
ATOM     69  O   UNL A   1      39.778  36.709  35.618  1.00  0.00    -0.237 OA
ATOM     70  O   UNL A   1      39.486  36.547  38.054  1.00  0.00    -0.744 OA
ENDBRANCH  64  67
ENDBRANCH  46  60
BRANCH  47  71
ATOM     71  C   UNL A   1      42.165  26.670  27.584  1.00  0.00     0.023 A 
ATOM     72  C   UNL A   1      42.901  27.276  26.546  1.00  0.00     0.012 A 
ATOM     73  C   UNL A   1      41.856  25.300  27.494  1.00  0.00     0.148 A 
ATOM     74  C   UNL A   1      43.282  26.543  25.420  1.00  0.00     0.002 A 
ATOM     75  C   UNL A   1      42.287  24.564  26.396  1.00  0.00     0.091 A 
ATOM     76  F   UNL A   1      41.143  24.740  28.482  1.00  0.00    -0.205 F 
ATOM     77  C   UNL A   1      42.984  25.186  25.350  1.00  0.00     0.022 A 
BRANCH  75  78
ATOM     78  S   UNL A   1      42.057  22.784  26.300  1.00  0.00     0.127 S 
ATOM     79  O   UNL A   1      42.781  22.323  27.479  1.00  0.00    -0.237 OA
ATOM     80  O   UNL A   1      40.601  22.654  26.380  1.00  0.00    -0.237 OA
ATOM     81  O   UNL A   1      42.616  22.399  25.010  1.00  0.00    -0.744 OA
ENDBRANCH  75  78
ENDBRANCH  47  71
BRANCH  59  82
ATOM     82  C   UNL A   1      44.596  27.335  34.084  1.00  0.00     0.023 A 
ATOM     83  C   UNL A   1      45.880  27.911  34.030  1.00  0.00     0.012 A 
ATOM     84  C   UNL A   1      44.386  26.185  34.869  1.00  0.00     0.148 A 
ATOM     85  C   UNL A   1      46.947  27.329  34.713  1.00  0.00     0.002 A 
ATOM     86  C   UNL A   1      45.445  25.637  35.585  1.00  0.00     0.091 A 
ATOM     87  F   UNL A   1      43.162  25.637  34.893  1.00  0.00    -0.205 F 
ATOM     88  C   UNL A   1      46.728  26.199  35.498  1.00  0.00     0.022 A 
BRANCH  86  89
ATOM     89  S   UNL A   1      45.221  24.237  36.690  1.00  0.00     0.127 S 
ATOM     90  O   UNL A   1      44.269  24.771  37.660  1.00  0.00    -0.237 OA
ATOM     91  O   UNL A   1      44.672  23.215  35.797  1.00  0.00    -0.237 OA
ATOM     92  O   UNL A   1      46.548  23.930  37.207  1.00  0.00    -0.744 OA
ENDBRANCH  86  89
ENDBRANCH  59  82
ENDBRANCH  33  34
ENDBRANCH  25  28
ENDBRANCH  23  24
ENDBRANCH  22  23
ENDBRANCH   1  22
TORSDOF 17
ENDMDL
