MODEL 1
REMARK VINA RESULT:     -12.0      0.000      0.000
REMARK SMILES CSc1ccc(-c2cc(C[C@H]3CCCC3=O)ccc2[C@@H](C)C(=O)NCCCCNC(=O)c2ccc(-c3c4nc(c(-c5cccc(S(=O)(=O)[O-])c5F)c5ccc([nH]5)c(-c5cccc(S(=O)(=O)[O-])c5F)c5nc(c(-c6cccc(S(=O)(=O)[O-])c6F)c6ccc3[nH]6)C=C5)C=C4)cc2)cc1
REMARK SMILES IDX 26 1 25 2 24 3 22 4 23 5 20 7 21 8 19 9 7 10 8 11 9 12 18 13
REMARK SMILES IDX 17 14 6 15 3 16 4 17 96 18 5 19 95 20 2 21 1 22 10 23 11 24
REMARK SMILES IDX 12 25 15 26 13 27 14 28 16 29 27 30 28 31 29 32 30 33 31 35
REMARK SMILES IDX 32 36 33 37 94 38 34 39 93 40 35 41 36 42 37 43 87 44 38 45
REMARK SMILES IDX 92 46 86 47 88 48 39 49 91 50 85 51 84 52 40 54 72 55 52 56
REMARK SMILES IDX 71 57 53 58 56 59 70 60 89 61 54 62 55 63 69 65 90 66 57 67
REMARK SMILES IDX 41 68 42 69 50 70 43 71 45 72 51 73 44 74 46 75 47 76 48 77
REMARK SMILES IDX 49 78 73 79 74 80 82 81 75 82 77 83 83 84 76 85 78 86 79 87
REMARK SMILES IDX 80 88 81 89 58 90 59 91 67 92 60 93 62 94 68 95 61 96 63 97
REMARK SMILES IDX 64 98 65 99 66 100
REMARK H PARENT 24 6 29 34 88 53 56 64
REMARK Flexibility Score: inf
ROOT
ATOM      1  C   UNL A   1      33.646  26.854  25.735  1.00  0.00     0.023 C 
ENDROOT
BRANCH   1   2
ATOM      2  C   UNL A   1      33.590  26.292  24.313  1.00  0.00     0.116 C 
BRANCH   2   3
ATOM      3  N   UNL A   1      32.369  25.556  24.067  1.00  0.00    -0.356 N 
ATOM      4  C   UNL A   1      32.126  24.367  23.451  1.00  0.00     0.227 C 
ATOM      5  O   UNL A   1      30.935  24.046  23.341  1.00  0.00    -0.274 OA
ATOM      6  H   UNL A   1      31.560  26.000  24.411  1.00  0.00     0.163 HD
BRANCH   4   7
ATOM      7  C   UNL A   1      33.223  23.431  22.906  1.00  0.00     0.106 C 
ATOM      8  C   UNL A   1      33.542  23.617  21.423  1.00  0.00     0.023 C 
BRANCH   7   9
ATOM      9  C   UNL A   1      33.065  21.986  23.382  1.00  0.00    -0.028 A 
ATOM     10  C   UNL A   1      33.798  21.478  24.482  1.00  0.00    -0.014 A 
ATOM     11  C   UNL A   1      33.462  20.212  25.011  1.00  0.00     0.012 A 
ATOM     12  C   UNL A   1      32.503  19.394  24.405  1.00  0.00    -0.047 A 
ATOM     13  C   UNL A   1      32.151  21.127  22.753  1.00  0.00     0.005 A 
ATOM     14  C   UNL A   1      31.863  19.858  23.259  1.00  0.00     0.004 A 
BRANCH  10  15
ATOM     15  C   UNL A   1      35.056  22.088  24.939  1.00  0.00    -0.018 A 
ATOM     16  C   UNL A   1      37.369  23.353  25.977  1.00  0.00     0.007 A 
ATOM     17  C   UNL A   1      36.116  23.944  26.126  1.00  0.00     0.015 A 
ATOM     18  C   UNL A   1      37.456  22.123  25.308  1.00  0.00     0.015 A 
ATOM     19  C   UNL A   1      34.979  23.319  25.612  1.00  0.00     0.010 A 
ATOM     20  C   UNL A   1      36.312  21.499  24.784  1.00  0.00     0.010 A 
BRANCH  16  21
ATOM     21  S   UNL A   1      38.866  24.062  26.653  1.00  0.00    -0.130 SA
ATOM     22  C   UNL A   1      40.037  22.681  26.533  1.00  0.00     0.091 C 
ENDBRANCH  16  21
ENDBRANCH  10  15
BRANCH  12  23
ATOM     23  C   UNL A   1      32.231  18.001  24.917  1.00  0.00     0.047 C 
BRANCH  23  24
ATOM     24  C   UNL A   1      33.027  16.877  24.240  1.00  0.00     0.060 C 
ATOM     25  C   UNL A   1      34.406  17.243  23.677  1.00  0.00     0.012 C 
ATOM     26  C   UNL A   1      33.368  15.760  25.200  1.00  0.00     0.136 C 
ATOM     27  C   UNL A   1      35.421  16.837  24.740  1.00  0.00     0.009 C 
ATOM     28  C   UNL A   1      34.852  15.577  25.375  1.00  0.00     0.076 C 
ATOM     29  O   UNL A   1      32.533  15.052  25.751  1.00  0.00    -0.299 OA
ENDBRANCH  23  24
ENDBRANCH  12  23
ENDBRANCH   7   9
ENDBRANCH   4   7
ENDBRANCH   2   3
ENDBRANCH   1   2
BRANCH   1  30
ATOM     30  C   UNL A   1      32.958  28.202  25.936  1.00  0.00     0.023 C 
BRANCH  30  31
ATOM     31  C   UNL A   1      33.819  29.424  25.640  1.00  0.00     0.116 C 
BRANCH  31  32
ATOM     32  N   UNL A   1      33.324  30.661  26.230  1.00  0.00    -0.352 N 
ATOM     33  C   UNL A   1      33.876  31.383  27.271  1.00  0.00     0.251 C 
ATOM     34  H   UNL A   1      32.498  31.027  25.840  1.00  0.00     0.163 HD
ATOM     35  O   UNL A   1      33.314  32.369  27.711  1.00  0.00    -0.269 OA
BRANCH  33  36
ATOM     36  C   UNL A   1      35.138  30.896  27.873  1.00  0.00     0.039 A 
ATOM     37  C   UNL A   1      36.208  31.782  28.005  1.00  0.00     0.014 A 
ATOM     38  C   UNL A   1      35.225  29.597  28.378  1.00  0.00     0.014 A 
ATOM     39  C   UNL A   1      37.340  31.389  28.723  1.00  0.00     0.010 A 
ATOM     40  C   UNL A   1      36.318  29.236  29.156  1.00  0.00     0.010 A 
ATOM     41  C   UNL A   1      37.385  30.129  29.340  1.00  0.00    -0.014 A 
BRANCH  41  42
ATOM     42  C   UNL A   1      38.525  29.725  30.200  1.00  0.00     0.031 A 
ATOM     43  C   UNL A   1      38.675  30.313  31.576  1.00  0.00     0.074 A 
ATOM     44  C   UNL A   1      39.483  28.918  29.702  1.00  0.00     0.049 A 
ATOM     45  N   UNL A   1      39.637  30.143  32.444  1.00  0.00    -0.248 NA
ATOM     46  C   UNL A   1      37.623  31.242  32.022  1.00  0.00     0.031 C 
ATOM     47  C   UNL A   1      39.502  28.364  28.346  1.00  0.00     0.029 A 
ATOM     48  N   UNL A   1      40.640  28.448  30.268  1.00  0.00    -0.354 N 
ATOM     49  C   UNL A   1      39.332  30.973  33.516  1.00  0.00     0.074 A 
ATOM     50  C   UNL A   1      38.113  31.673  33.176  1.00  0.00     0.031 C 
ATOM     51  C   UNL A   1      40.613  27.625  28.189  1.00  0.00     0.029 A 
ATOM     52  C   UNL A   1      41.393  27.668  29.421  1.00  0.00     0.049 A 
ATOM     53  H   UNL A   1      40.908  28.648  31.194  1.00  0.00     0.167 HD
ATOM     54  C   UNL A   1      39.985  31.112  34.694  1.00  0.00     0.034 A 
ATOM     55  C   UNL A   1      42.577  27.052  29.617  1.00  0.00     0.034 A 
ATOM     56  C   UNL A   1      41.155  30.363  35.056  1.00  0.00     0.049 A 
ATOM     57  C   UNL A   1      43.238  27.157  30.965  1.00  0.00     0.074 A 
ATOM     58  C   UNL A   1      41.830  30.351  36.264  1.00  0.00     0.029 A 
ATOM     59  N   UNL A   1      41.824  29.488  34.215  1.00  0.00    -0.354 N 
ATOM     60  N   UNL A   1      42.837  27.809  32.031  1.00  0.00    -0.248 NA
ATOM     61  C   UNL A   1      44.490  26.412  31.153  1.00  0.00     0.031 C 
ATOM     62  C   UNL A   1      42.910  29.468  36.151  1.00  0.00     0.029 A 
ATOM     63  C   UNL A   1      42.903  28.927  34.875  1.00  0.00     0.049 A 
ATOM     64  H   UNL A   1      41.569  29.294  33.284  1.00  0.00     0.167 HD
ATOM     65  C   UNL A   1      43.769  27.525  33.022  1.00  0.00     0.074 A 
ATOM     66  C   UNL A   1      44.741  26.626  32.438  1.00  0.00     0.031 C 
ATOM     67  C   UNL A   1      43.824  27.983  34.297  1.00  0.00     0.034 A 
BRANCH  54  68
ATOM     68  C   UNL A   1      39.396  32.057  35.707  1.00  0.00     0.023 A 
ATOM     69  C   UNL A   1      38.390  31.593  36.579  1.00  0.00     0.012 A 
ATOM     70  C   UNL A   1      39.863  33.379  35.834  1.00  0.00     0.148 A 
ATOM     71  C   UNL A   1      37.832  32.437  37.536  1.00  0.00     0.002 A 
ATOM     72  C   UNL A   1      39.330  34.204  36.818  1.00  0.00     0.091 A 
ATOM     73  F   UNL A   1      40.803  33.812  34.981  1.00  0.00    -0.205 F 
ATOM     74  C   UNL A   1      38.308  33.739  37.662  1.00  0.00     0.022 A 
BRANCH  72  75
ATOM     75  S   UNL A   1      39.928  35.873  37.105  1.00  0.00     0.127 S 
ATOM     76  O   UNL A   1      39.140  36.274  38.270  1.00  0.00    -0.237 OA
ATOM     77  O   UNL A   1      41.350  35.652  37.379  1.00  0.00    -0.237 OA
ATOM     78  O   UNL A   1      39.658  36.610  35.879  1.00  0.00    -0.744 OA
ENDBRANCH  72  75
ENDBRANCH  54  68
BRANCH  55  79
ATOM     79  C   UNL A   1      43.160  26.202  28.541  1.00  0.00     0.023 A 
ATOM     80  C   UNL A   1      42.671  24.892  28.365  1.00  0.00     0.012 A 
ATOM     81  C   UNL A   1      44.158  26.686  27.675  1.00  0.00     0.148 A 
ATOM     82  C   UNL A   1      43.187  24.069  27.363  1.00  0.00     0.002 A 
ATOM     83  C   UNL A   1      44.631  25.877  26.646  1.00  0.00     0.091 A 
ATOM     84  F   UNL A   1      44.620  27.928  27.867  1.00  0.00    -0.205 F 
ATOM     85  C   UNL A   1      44.158  24.564  26.498  1.00  0.00     0.022 A 
BRANCH  83  86
ATOM     86  S   UNL A   1      45.786  26.481  25.408  1.00  0.00     0.127 S 
ATOM     87  O   UNL A   1      46.045  25.276  24.627  1.00  0.00    -0.237 OA
ATOM     88  O   UNL A   1      44.993  27.503  24.722  1.00  0.00    -0.237 OA
ATOM     89  O   UNL A   1      46.915  27.011  26.161  1.00  0.00    -0.744 OA
ENDBRANCH  83  86
ENDBRANCH  55  79
BRANCH  67  90
ATOM     90  C   UNL A   1      44.954  27.501  35.165  1.00  0.00     0.023 A 
ATOM     91  C   UNL A   1      46.116  28.287  35.290  1.00  0.00     0.012 A 
ATOM     92  C   UNL A   1      44.830  26.320  35.923  1.00  0.00     0.148 A 
ATOM     93  C   UNL A   1      47.150  27.892  36.140  1.00  0.00     0.002 A 
ATOM     94  C   UNL A   1      45.846  25.955  36.800  1.00  0.00     0.091 A 
ATOM     95  F   UNL A   1      43.726  25.575  35.772  1.00  0.00    -0.205 F 
ATOM     96  C   UNL A   1      47.010  26.736  36.902  1.00  0.00     0.022 A 
BRANCH  94  97
ATOM     97  S   UNL A   1      45.705  24.531  37.886  1.00  0.00     0.127 S 
ATOM     98  O   UNL A   1      44.528  24.877  38.680  1.00  0.00    -0.237 OA
ATOM     99  O   UNL A   1      45.501  23.434  36.939  1.00  0.00    -0.237 OA
ATOM    100  O   UNL A   1      46.963  24.466  38.618  1.00  0.00    -0.744 OA
ENDBRANCH  94  97
ENDBRANCH  67  90
ENDBRANCH  41  42
ENDBRANCH  33  36
ENDBRANCH  31  32
ENDBRANCH  30  31
ENDBRANCH   1  30
TORSDOF 19
ENDMDL
MODEL 2
REMARK VINA RESULT:     -11.9      3.006      8.725
REMARK SMILES CSc1ccc(-c2cc(C[C@H]3CCCC3=O)ccc2[C@@H](C)C(=O)NCCCCNC(=O)c2ccc(-c3c4nc(c(-c5cccc(S(=O)(=O)[O-])c5F)c5ccc([nH]5)c(-c5cccc(S(=O)(=O)[O-])c5F)c5nc(c(-c6cccc(S(=O)(=O)[O-])c6F)c6ccc3[nH]6)C=C5)C=C4)cc2)cc1
REMARK SMILES IDX 26 1 25 2 24 3 22 4 23 5 20 7 21 8 19 9 7 10 8 11 9 12 18 13
REMARK SMILES IDX 17 14 6 15 3 16 4 17 96 18 5 19 95 20 2 21 1 22 10 23 11 24
REMARK SMILES IDX 12 25 15 26 13 27 14 28 16 29 27 30 28 31 29 32 30 33 31 35
REMARK SMILES IDX 32 36 33 37 94 38 34 39 93 40 35 41 36 42 37 43 87 44 38 45
REMARK SMILES IDX 92 46 86 47 88 48 39 49 91 50 85 51 84 52 40 54 72 55 52 56
REMARK SMILES IDX 71 57 53 58 56 59 70 60 89 61 54 62 55 63 69 65 90 66 57 67
REMARK SMILES IDX 41 68 42 69 50 70 43 71 45 72 51 73 44 74 46 75 47 76 48 77
REMARK SMILES IDX 49 78 73 79 74 80 82 81 75 82 77 83 83 84 76 85 78 86 79 87
REMARK SMILES IDX 80 88 81 89 58 90 59 91 67 92 60 93 62 94 68 95 61 96 63 97
REMARK SMILES IDX 64 98 65 99 66 100
REMARK H PARENT 24 6 29 34 88 53 56 64
REMARK Flexibility Score: inf
ROOT
ATOM      1  C   UNL A   1      35.215  30.976  27.787  1.00  0.00     0.023 C 
ENDROOT
BRANCH   1   2
ATOM      2  C   UNL A   1      34.205  29.868  27.483  1.00  0.00     0.116 C 
BRANCH   2   3
ATOM      3  N   UNL A   1      34.361  29.342  26.144  1.00  0.00    -0.356 N 
ATOM      4  C   UNL A   1      33.535  28.609  25.348  1.00  0.00     0.227 C 
ATOM      5  O   UNL A   1      34.007  28.253  24.260  1.00  0.00    -0.274 OA
ATOM      6  H   UNL A   1      35.227  29.557  25.729  1.00  0.00     0.163 HD
BRANCH   4   7
ATOM      7  C   UNL A   1      32.091  28.218  25.719  1.00  0.00     0.106 C 
ATOM      8  C   UNL A   1      31.706  28.507  27.170  1.00  0.00     0.023 C 
BRANCH   7   9
ATOM      9  C   UNL A   1      31.685  26.848  25.176  1.00  0.00    -0.028 A 
ATOM     10  C   UNL A   1      31.072  26.698  23.908  1.00  0.00    -0.014 A 
ATOM     11  C   UNL A   1      30.912  25.404  23.366  1.00  0.00     0.012 A 
ATOM     12  C   UNL A   1      31.235  24.256  24.098  1.00  0.00    -0.047 A 
ATOM     13  C   UNL A   1      31.944  25.685  25.917  1.00  0.00     0.005 A 
ATOM     14  C   UNL A   1      31.736  24.410  25.387  1.00  0.00     0.004 A 
BRANCH  10  15
ATOM     15  C   UNL A   1      30.364  27.802  23.241  1.00  0.00    -0.018 A 
ATOM     16  C   UNL A   1      28.856  29.919  22.114  1.00  0.00     0.007 A 
ATOM     17  C   UNL A   1      28.223  28.912  22.842  1.00  0.00     0.015 A 
ATOM     18  C   UNL A   1      30.248  29.860  21.958  1.00  0.00     0.015 A 
ATOM     19  C   UNL A   1      28.969  27.871  23.394  1.00  0.00     0.010 A 
ATOM     20  C   UNL A   1      30.997  28.806  22.507  1.00  0.00     0.010 A 
BRANCH  16  21
ATOM     21  S   UNL A   1      27.979  31.315  21.420  1.00  0.00    -0.130 SA
ATOM     22  C   UNL A   1      28.695  32.712  22.329  1.00  0.00     0.091 C 
ENDBRANCH  16  21
ENDBRANCH  10  15
BRANCH  12  23
ATOM     23  C   UNL A   1      30.959  22.879  23.548  1.00  0.00     0.047 C 
BRANCH  23  24
ATOM     24  C   UNL A   1      32.162  22.160  22.924  1.00  0.00     0.060 C 
ATOM     25  C   UNL A   1      33.293  23.040  22.378  1.00  0.00     0.012 C 
ATOM     26  C   UNL A   1      32.895  21.296  23.926  1.00  0.00     0.136 C 
ATOM     27  C   UNL A   1      34.351  23.102  23.473  1.00  0.00     0.009 C 
ATOM     28  C   UNL A   1      34.320  21.733  24.136  1.00  0.00     0.076 C 
ATOM     29  O   UNL A   1      32.401  20.322  24.482  1.00  0.00    -0.299 OA
ENDBRANCH  23  24
ENDBRANCH  12  23
ENDBRANCH   7   9
ENDBRANCH   4   7
ENDBRANCH   2   3
ENDBRANCH   1   2
BRANCH   1  30
ATOM     30  C   UNL A   1      34.711  32.401  27.575  1.00  0.00     0.023 C 
BRANCH  30  31
ATOM     31  C   UNL A   1      33.205  32.587  27.718  1.00  0.00     0.116 C 
BRANCH  31  32
ATOM     32  N   UNL A   1      32.789  33.971  27.909  1.00  0.00    -0.352 N 
ATOM     33  C   UNL A   1      33.298  34.892  28.803  1.00  0.00     0.251 C 
ATOM     34  H   UNL A   1      32.058  34.287  27.331  1.00  0.00     0.163 HD
ATOM     35  O   UNL A   1      32.804  36.000  28.903  1.00  0.00    -0.269 OA
BRANCH  33  36
ATOM     36  C   UNL A   1      34.421  34.480  29.674  1.00  0.00     0.039 A 
ATOM     37  C   UNL A   1      34.150  33.710  30.807  1.00  0.00     0.014 A 
ATOM     38  C   UNL A   1      35.738  34.784  29.321  1.00  0.00     0.014 A 
ATOM     39  C   UNL A   1      35.209  33.171  31.541  1.00  0.00     0.010 A 
ATOM     40  C   UNL A   1      36.787  34.184  30.007  1.00  0.00     0.010 A 
ATOM     41  C   UNL A   1      36.534  33.369  31.121  1.00  0.00    -0.014 A 
BRANCH  41  42
ATOM     42  C   UNL A   1      37.674  32.718  31.814  1.00  0.00     0.031 A 
ATOM     43  C   UNL A   1      38.380  31.555  31.174  1.00  0.00     0.074 A 
ATOM     44  C   UNL A   1      38.000  33.103  33.065  1.00  0.00     0.049 A 
ATOM     45  N   UNL A   1      39.343  30.812  31.652  1.00  0.00    -0.248 NA
ATOM     46  C   UNL A   1      37.919  31.150  29.835  1.00  0.00     0.031 C 
ATOM     47  C   UNL A   1      37.324  34.152  33.832  1.00  0.00     0.029 A 
ATOM     48  N   UNL A   1      38.963  32.634  33.922  1.00  0.00    -0.354 N 
ATOM     49  C   UNL A   1      39.574  29.830  30.697  1.00  0.00     0.074 A 
ATOM     50  C   UNL A   1      38.627  30.049  29.627  1.00  0.00     0.031 C 
ATOM     51  C   UNL A   1      37.897  34.250  35.042  1.00  0.00     0.029 A 
ATOM     52  C   UNL A   1      38.965  33.262  35.147  1.00  0.00     0.049 A 
ATOM     53  H   UNL A   1      39.594  31.917  33.684  1.00  0.00     0.167 HD
ATOM     54  C   UNL A   1      40.514  28.856  30.692  1.00  0.00     0.034 A 
ATOM     55  C   UNL A   1      39.744  33.065  36.230  1.00  0.00     0.034 A 
ATOM     56  C   UNL A   1      41.499  28.685  31.724  1.00  0.00     0.049 A 
ATOM     57  C   UNL A   1      40.836  32.032  36.164  1.00  0.00     0.074 A 
ATOM     58  C   UNL A   1      42.560  27.799  31.763  1.00  0.00     0.029 A 
ATOM     59  N   UNL A   1      41.547  29.420  32.898  1.00  0.00    -0.354 N 
ATOM     60  N   UNL A   1      41.152  31.229  35.176  1.00  0.00    -0.248 NA
ATOM     61  C   UNL A   1      41.703  31.903  37.343  1.00  0.00     0.031 C 
ATOM     62  C   UNL A   1      43.250  27.997  32.965  1.00  0.00     0.029 A 
ATOM     63  C   UNL A   1      42.621  29.011  33.670  1.00  0.00     0.049 A 
ATOM     64  H   UNL A   1      40.911  30.128  33.147  1.00  0.00     0.167 HD
ATOM     65  C   UNL A   1      42.273  30.526  35.601  1.00  0.00     0.074 A 
ATOM     66  C   UNL A   1      42.594  31.012  36.927  1.00  0.00     0.031 C 
ATOM     67  C   UNL A   1      42.964  29.551  34.959  1.00  0.00     0.034 A 
BRANCH  54  68
ATOM     68  C   UNL A   1      40.570  27.949  29.492  1.00  0.00     0.023 A 
ATOM     69  C   UNL A   1      39.703  26.839  29.426  1.00  0.00     0.012 A 
ATOM     70  C   UNL A   1      41.436  28.214  28.414  1.00  0.00     0.148 A 
ATOM     71  C   UNL A   1      39.720  25.987  28.324  1.00  0.00     0.002 A 
ATOM     72  C   UNL A   1      41.419  27.383  27.300  1.00  0.00     0.091 A 
ATOM     73  F   UNL A   1      42.270  29.260  28.504  1.00  0.00    -0.205 F 
ATOM     74  C   UNL A   1      40.571  26.263  27.257  1.00  0.00     0.022 A 
BRANCH  72  75
ATOM     75  S   UNL A   1      42.426  27.698  25.846  1.00  0.00     0.127 S 
ATOM     76  O   UNL A   1      41.941  29.012  25.429  1.00  0.00    -0.237 OA
ATOM     77  O   UNL A   1      43.782  27.696  26.400  1.00  0.00    -0.237 OA
ATOM     78  O   UNL A   1      42.150  26.604  24.925  1.00  0.00    -0.744 OA
ENDBRANCH  72  75
ENDBRANCH  54  68
BRANCH  55  79
ATOM     79  C   UNL A   1      39.582  33.934  37.430  1.00  0.00     0.023 A 
ATOM     80  C   UNL A   1      40.088  35.249  37.395  1.00  0.00     0.012 A 
ATOM     81  C   UNL A   1      38.904  33.488  38.580  1.00  0.00     0.148 A 
ATOM     82  C   UNL A   1      39.947  36.094  38.496  1.00  0.00     0.002 A 
ATOM     83  C   UNL A   1      38.724  34.354  39.655  1.00  0.00     0.091 A 
ATOM     84  F   UNL A   1      38.443  32.231  38.600  1.00  0.00    -0.205 F 
ATOM     85  C   UNL A   1      39.257  35.651  39.621  1.00  0.00     0.022 A 
BRANCH  83  86
ATOM     86  S   UNL A   1      37.735  33.907  41.087  1.00  0.00     0.127 S 
ATOM     87  O   UNL A   1      37.518  35.205  41.718  1.00  0.00    -0.237 OA
ATOM     88  O   UNL A   1      36.548  33.316  40.468  1.00  0.00    -0.237 OA
ATOM     89  O   UNL A   1      38.549  32.959  41.837  1.00  0.00    -0.744 OA
ENDBRANCH  83  86
ENDBRANCH  55  79
BRANCH  67  90
ATOM     90  C   UNL A   1      44.156  28.961  35.662  1.00  0.00     0.023 A 
ATOM     91  C   UNL A   1      45.426  29.542  35.482  1.00  0.00     0.012 A 
ATOM     92  C   UNL A   1      44.004  27.890  36.565  1.00  0.00     0.148 A 
ATOM     93  C   UNL A   1      46.533  29.053  36.174  1.00  0.00     0.002 A 
ATOM     94  C   UNL A   1      45.105  27.435  37.283  1.00  0.00     0.091 A 
ATOM     95  F   UNL A   1      42.792  27.336  36.704  1.00  0.00    -0.205 F 
ATOM     96  C   UNL A   1      46.371  28.009  37.082  1.00  0.00     0.022 A 
BRANCH  94  97
ATOM     97  S   UNL A   1      44.964  26.158  38.539  1.00  0.00     0.127 S 
ATOM     98  O   UNL A   1      46.350  26.019  38.980  1.00  0.00    -0.237 OA
ATOM     99  O   UNL A   1      44.071  26.779  39.518  1.00  0.00    -0.237 OA
ATOM    100  O   UNL A   1      44.398  24.998  37.862  1.00  0.00    -0.744 OA
ENDBRANCH  94  97
ENDBRANCH  67  90
ENDBRANCH  41  42
ENDBRANCH  33  36
ENDBRANCH  31  32
ENDBRANCH  30  31
ENDBRANCH   1  30
TORSDOF 19
ENDMDL
MODEL 3
REMARK VINA RESULT:     -11.9      3.015      9.291
REMARK SMILES CSc1ccc(-c2cc(C[C@H]3CCCC3=O)ccc2[C@@H](C)C(=O)NCCCCNC(=O)c2ccc(-c3c4nc(c(-c5cccc(S(=O)(=O)[O-])c5F)c5ccc([nH]5)c(-c5cccc(S(=O)(=O)[O-])c5F)c5nc(c(-c6cccc(S(=O)(=O)[O-])c6F)c6ccc3[nH]6)C=C5)C=C4)cc2)cc1
REMARK SMILES IDX 26 1 25 2 24 3 22 4 23 5 20 7 21 8 19 9 7 10 8 11 9 12 18 13
REMARK SMILES IDX 17 14 6 15 3 16 4 17 96 18 5 19 95 20 2 21 1 22 10 23 11 24
REMARK SMILES IDX 12 25 15 26 13 27 14 28 16 29 27 30 28 31 29 32 30 33 31 35
REMARK SMILES IDX 32 36 33 37 94 38 34 39 93 40 35 41 36 42 37 43 87 44 38 45
REMARK SMILES IDX 92 46 86 47 88 48 39 49 91 50 85 51 84 52 40 54 72 55 52 56
REMARK SMILES IDX 71 57 53 58 56 59 70 60 89 61 54 62 55 63 69 65 90 66 57 67
REMARK SMILES IDX 41 68 42 69 50 70 43 71 45 72 51 73 44 74 46 75 47 76 48 77
REMARK SMILES IDX 49 78 73 79 74 80 82 81 75 82 77 83 83 84 76 85 78 86 79 87
REMARK SMILES IDX 80 88 81 89 58 90 59 91 67 92 60 93 62 94 68 95 61 96 63 97
REMARK SMILES IDX 64 98 65 99 66 100
REMARK H PARENT 24 6 29 34 88 53 56 64
REMARK Flexibility Score: inf
ROOT
ATOM      1  C   UNL A   1      34.654  30.696  27.868  1.00  0.00     0.023 C 
ENDROOT
BRANCH   1   2
ATOM      2  C   UNL A   1      34.228  29.331  27.324  1.00  0.00     0.116 C 
BRANCH   2   3
ATOM      3  N   UNL A   1      32.940  28.919  27.839  1.00  0.00    -0.356 N 
ATOM      4  C   UNL A   1      32.014  28.031  27.382  1.00  0.00     0.227 C 
ATOM      5  O   UNL A   1      30.963  27.961  28.032  1.00  0.00    -0.274 OA
ATOM      6  H   UNL A   1      32.685  29.363  28.680  1.00  0.00     0.163 HD
BRANCH   4   7
ATOM      7  C   UNL A   1      32.206  27.137  26.141  1.00  0.00     0.106 C 
ATOM      8  C   UNL A   1      33.590  26.501  26.021  1.00  0.00     0.023 C 
BRANCH   7   9
ATOM      9  C   UNL A   1      31.640  27.760  24.864  1.00  0.00    -0.028 A 
ATOM     10  C   UNL A   1      31.025  26.974  23.859  1.00  0.00    -0.014 A 
ATOM     11  C   UNL A   1      30.335  27.615  22.807  1.00  0.00     0.012 A 
ATOM     12  C   UNL A   1      30.340  29.007  22.664  1.00  0.00    -0.047 A 
ATOM     13  C   UNL A   1      31.686  29.149  24.670  1.00  0.00     0.005 A 
ATOM     14  C   UNL A   1      31.038  29.767  23.599  1.00  0.00     0.004 A 
BRANCH  10  15
ATOM     15  C   UNL A   1      31.287  25.534  23.716  1.00  0.00    -0.018 A 
ATOM     16  C   UNL A   1      31.994  22.809  23.395  1.00  0.00     0.007 A 
ATOM     17  C   UNL A   1      32.643  23.797  22.656  1.00  0.00     0.015 A 
ATOM     18  C   UNL A   1      30.993  23.195  24.298  1.00  0.00     0.015 A 
ATOM     19  C   UNL A   1      32.290  25.137  22.816  1.00  0.00     0.010 A 
ATOM     20  C   UNL A   1      30.633  24.544  24.451  1.00  0.00     0.010 A 
BRANCH  16  21
ATOM     21  S   UNL A   1      32.423  21.076  23.288  1.00  0.00    -0.130 SA
ATOM     22  C   UNL A   1      33.676  20.907  24.589  1.00  0.00     0.091 C 
ENDBRANCH  16  21
ENDBRANCH  10  15
BRANCH  12  23
ATOM     23  C   UNL A   1      29.689  29.671  21.477  1.00  0.00     0.047 C 
BRANCH  23  24
ATOM     24  C   UNL A   1      28.235  30.119  21.681  1.00  0.00     0.060 C 
ATOM     25  C   UNL A   1      27.470  29.487  22.850  1.00  0.00     0.012 C 
ATOM     26  C   UNL A   1      28.130  31.593  22.000  1.00  0.00     0.136 C 
ATOM     27  C   UNL A   1      27.563  30.478  24.005  1.00  0.00     0.009 C 
ATOM     28  C   UNL A   1      27.528  31.853  23.355  1.00  0.00     0.076 C 
ATOM     29  O   UNL A   1      28.463  32.486  21.229  1.00  0.00    -0.299 OA
ENDBRANCH  23  24
ENDBRANCH  12  23
ENDBRANCH   7   9
ENDBRANCH   4   7
ENDBRANCH   2   3
ENDBRANCH   1   2
BRANCH   1  30
ATOM     30  C   UNL A   1      33.526  31.705  28.067  1.00  0.00     0.023 C 
BRANCH  30  31
ATOM     31  C   UNL A   1      33.606  32.953  27.196  1.00  0.00     0.116 C 
BRANCH  31  32
ATOM     32  N   UNL A   1      32.881  34.101  27.727  1.00  0.00    -0.352 N 
ATOM     33  C   UNL A   1      33.153  34.816  28.877  1.00  0.00     0.251 C 
ATOM     34  H   UNL A   1      32.105  34.403  27.202  1.00  0.00     0.163 HD
ATOM     35  O   UNL A   1      32.417  35.716  29.238  1.00  0.00    -0.269 OA
BRANCH  33  36
ATOM     36  C   UNL A   1      34.329  34.424  29.687  1.00  0.00     0.039 A 
ATOM     37  C   UNL A   1      34.122  33.819  30.928  1.00  0.00     0.014 A 
ATOM     38  C   UNL A   1      35.620  34.580  29.179  1.00  0.00     0.014 A 
ATOM     39  C   UNL A   1      35.212  33.291  31.624  1.00  0.00     0.010 A 
ATOM     40  C   UNL A   1      36.691  33.987  29.836  1.00  0.00     0.010 A 
ATOM     41  C   UNL A   1      36.498  33.333  31.063  1.00  0.00    -0.014 A 
BRANCH  41  42
ATOM     42  C   UNL A   1      37.657  32.684  31.726  1.00  0.00     0.031 A 
ATOM     43  C   UNL A   1      38.364  31.540  31.054  1.00  0.00     0.074 A 
ATOM     44  C   UNL A   1      37.999  33.050  32.977  1.00  0.00     0.049 A 
ATOM     45  N   UNL A   1      39.344  30.800  31.503  1.00  0.00    -0.248 NA
ATOM     46  C   UNL A   1      37.886  31.153  29.716  1.00  0.00     0.031 C 
ATOM     47  C   UNL A   1      37.324  34.078  33.774  1.00  0.00     0.029 A 
ATOM     48  N   UNL A   1      38.981  32.578  33.811  1.00  0.00    -0.354 N 
ATOM     49  C   UNL A   1      39.569  29.836  30.528  1.00  0.00     0.074 A 
ATOM     50  C   UNL A   1      38.601  30.063  29.477  1.00  0.00     0.031 C 
ATOM     51  C   UNL A   1      37.916  34.162  34.977  1.00  0.00     0.029 A 
ATOM     52  C   UNL A   1      38.997  33.184  35.046  1.00  0.00     0.049 A 
ATOM     53  H   UNL A   1      39.616  31.872  33.550  1.00  0.00     0.167 HD
ATOM     54  C   UNL A   1      40.519  28.873  30.490  1.00  0.00     0.034 A 
ATOM     55  C   UNL A   1      39.796  32.977  36.112  1.00  0.00     0.034 A 
ATOM     56  C   UNL A   1      41.523  28.696  31.502  1.00  0.00     0.049 A 
ATOM     57  C   UNL A   1      40.898  31.957  36.011  1.00  0.00     0.074 A 
ATOM     58  C   UNL A   1      42.594  27.821  31.508  1.00  0.00     0.029 A 
ATOM     59  N   UNL A   1      41.582  29.411  32.689  1.00  0.00    -0.354 N 
ATOM     60  N   UNL A   1      41.206  31.175  35.004  1.00  0.00    -0.248 NA
ATOM     61  C   UNL A   1      41.785  31.818  37.173  1.00  0.00     0.031 C 
ATOM     62  C   UNL A   1      43.302  28.006  32.702  1.00  0.00     0.029 A 
ATOM     63  C   UNL A   1      42.673  29.000  33.435  1.00  0.00     0.049 A 
ATOM     64  H   UNL A   1      40.943  30.108  32.960  1.00  0.00     0.167 HD
ATOM     65  C   UNL A   1      42.341  30.477  35.398  1.00  0.00     0.074 A 
ATOM     66  C   UNL A   1      42.679  30.945  36.726  1.00  0.00     0.031 C 
ATOM     67  C   UNL A   1      43.032  29.522  34.728  1.00  0.00     0.034 A 
BRANCH  54  68
ATOM     68  C   UNL A   1      40.565  27.989  29.273  1.00  0.00     0.023 A 
ATOM     69  C   UNL A   1      39.670  26.904  29.176  1.00  0.00     0.012 A 
ATOM     70  C   UNL A   1      41.451  28.250  28.210  1.00  0.00     0.148 A 
ATOM     71  C   UNL A   1      39.677  26.072  28.058  1.00  0.00     0.002 A 
ATOM     72  C   UNL A   1      41.425  27.440  27.081  1.00  0.00     0.091 A 
ATOM     73  F   UNL A   1      42.312  29.271  28.331  1.00  0.00    -0.205 F 
ATOM     74  C   UNL A   1      40.548  26.346  27.007  1.00  0.00     0.022 A 
BRANCH  72  75
ATOM     75  S   UNL A   1      42.458  27.756  25.645  1.00  0.00     0.127 S 
ATOM     76  O   UNL A   1      42.198  26.571  24.828  1.00  0.00    -0.237 OA
ATOM     77  O   UNL A   1      41.887  28.996  25.117  1.00  0.00    -0.237 OA
ATOM     78  O   UNL A   1      43.816  27.885  26.152  1.00  0.00    -0.744 OA
ENDBRANCH  72  75
ENDBRANCH  54  68
BRANCH  55  79
ATOM     79  C   UNL A   1      39.644  33.823  37.330  1.00  0.00     0.023 A 
ATOM     80  C   UNL A   1      40.125  35.147  37.307  1.00  0.00     0.012 A 
ATOM     81  C   UNL A   1      39.000  33.346  38.487  1.00  0.00     0.148 A 
ATOM     82  C   UNL A   1      39.993  35.972  38.424  1.00  0.00     0.002 A 
ATOM     83  C   UNL A   1      38.827  34.191  39.580  1.00  0.00     0.091 A 
ATOM     84  F   UNL A   1      38.561  32.080  38.495  1.00  0.00    -0.205 F 
ATOM     85  C   UNL A   1      39.336  35.498  39.556  1.00  0.00     0.022 A 
BRANCH  83  86
ATOM     86  S   UNL A   1      37.878  33.702  41.025  1.00  0.00     0.127 S 
ATOM     87  O   UNL A   1      37.864  34.936  41.805  1.00  0.00    -0.237 OA
ATOM     88  O   UNL A   1      36.590  33.331  40.435  1.00  0.00    -0.237 OA
ATOM     89  O   UNL A   1      38.610  32.585  41.607  1.00  0.00    -0.744 OA
ENDBRANCH  83  86
ENDBRANCH  55  79
BRANCH  67  90
ATOM     90  C   UNL A   1      44.242  28.933  35.400  1.00  0.00     0.023 A 
ATOM     91  C   UNL A   1      45.509  29.505  35.175  1.00  0.00     0.012 A 
ATOM     92  C   UNL A   1      44.112  27.874  36.320  1.00  0.00     0.148 A 
ATOM     93  C   UNL A   1      46.634  29.017  35.837  1.00  0.00     0.002 A 
ATOM     94  C   UNL A   1      45.232  27.421  37.009  1.00  0.00     0.091 A 
ATOM     95  F   UNL A   1      42.902  27.329  36.504  1.00  0.00    -0.205 F 
ATOM     96  C   UNL A   1      46.495  27.985  36.762  1.00  0.00     0.022 A 
BRANCH  94  97
ATOM     97  S   UNL A   1      45.123  26.160  38.284  1.00  0.00     0.127 S 
ATOM     98  O   UNL A   1      46.345  26.402  39.049  1.00  0.00    -0.237 OA
ATOM     99  O   UNL A   1      43.887  26.521  38.979  1.00  0.00    -0.237 OA
ATOM    100  O   UNL A   1      45.063  24.887  37.577  1.00  0.00    -0.744 OA
ENDBRANCH  94  97
ENDBRANCH  67  90
ENDBRANCH  41  42
ENDBRANCH  33  36
ENDBRANCH  31  32
ENDBRANCH  30  31
ENDBRANCH   1  30
TORSDOF 19
ENDMDL
