MODEL 1
REMARK VINA RESULT:     -13.4      0.000      0.000
REMARK SMILES O=C(NCCCCNC(=O)[C@]12CCC[NH2+][C@@H]1CCN(C(=O)Cc1c(F)cccc1Cl)C2)c1ccc(-c2c3nc(c(-c4cccc(S(=O)(=O)[O-])c4F)c4ccc([nH]4)c(-c4cccc(S(=O)(=O)[O-])c4F)c4nc(c(-c5cccc(S(=O)(=O)[O-])c5F)c5ccc2[nH]5)C=C4)C=C3)cc1
REMARK SMILES IDX 5 1 4 2 3 3 1 4 2 5 32 7 33 8 94 9 34 10 93 11 35 12 36 13
REMARK SMILES IDX 37 14 87 15 38 16 92 17 86 18 88 19 39 20 91 21 85 22 84 23
REMARK SMILES IDX 40 25 72 26 52 27 71 28 53 29 56 30 70 31 89 32 54 33 55 34
REMARK SMILES IDX 69 36 90 37 57 38 41 39 42 40 50 41 43 42 45 43 51 44 44 45
REMARK SMILES IDX 46 46 47 47 48 48 49 49 73 50 74 51 82 52 75 53 77 54 83 55
REMARK SMILES IDX 76 56 78 57 79 58 80 59 81 60 58 61 59 62 67 63 60 64 62 65
REMARK SMILES IDX 68 66 61 67 63 68 64 69 65 70 66 71 6 72 7 73 8 74 9 75
REMARK SMILES IDX 10 77 11 78 12 79 16 80 31 81 13 82 15 83 17 84 19 85 14 86
REMARK SMILES IDX 18 89 20 90 21 91 22 92 23 93 24 94 29 95 25 96 26 97 28 98
REMARK SMILES IDX 30 99 27 100
REMARK H PARENT 3 6 88 24 56 35 8 76 15 87 15 88
REMARK Flexibility Score: inf
ROOT
ATOM      1  C   UNL A   1      31.772  29.029  27.058  1.00  0.00     0.023 C 
ENDROOT
BRANCH   1   2
ATOM      2  C   UNL A   1      32.438  30.195  26.344  1.00  0.00     0.116 C 
BRANCH   2   3
ATOM      3  N   UNL A   1      32.126  31.528  26.842  1.00  0.00    -0.352 N 
ATOM      4  O   UNL A   1      32.684  33.504  27.837  1.00  0.00    -0.269 OA
ATOM      5  C   UNL A   1      33.024  32.399  27.448  1.00  0.00     0.251 C 
ATOM      6  H   UNL A   1      31.198  31.840  26.740  1.00  0.00     0.163 HD
BRANCH   5   7
ATOM      7  C   UNL A   1      34.403  31.898  27.655  1.00  0.00     0.039 A 
ATOM      8  C   UNL A   1      34.594  30.540  27.906  1.00  0.00     0.014 A 
ATOM      9  C   UNL A   1      35.435  32.817  27.861  1.00  0.00     0.014 A 
ATOM     10  C   UNL A   1      35.736  30.139  28.588  1.00  0.00     0.010 A 
ATOM     11  C   UNL A   1      36.630  32.384  28.446  1.00  0.00     0.010 A 
ATOM     12  C   UNL A   1      36.760  31.058  28.887  1.00  0.00    -0.014 A 
BRANCH  12  13
ATOM     13  C   UNL A   1      37.947  30.594  29.659  1.00  0.00     0.031 A 
ATOM     14  C   UNL A   1      38.156  30.975  31.105  1.00  0.00     0.074 A 
ATOM     15  C   UNL A   1      38.827  29.774  29.052  1.00  0.00     0.049 A 
ATOM     16  N   UNL A   1      39.116  30.613  31.920  1.00  0.00    -0.248 NA
ATOM     17  C   UNL A   1      37.173  31.882  31.720  1.00  0.00     0.031 C 
ATOM     18  C   UNL A   1      38.754  29.362  27.648  1.00  0.00     0.029 A 
ATOM     19  N   UNL A   1      39.937  29.127  29.530  1.00  0.00    -0.354 N 
ATOM     20  C   UNL A   1      38.895  31.295  33.112  1.00  0.00     0.074 A 
ATOM     21  C   UNL A   1      37.697  32.085  32.923  1.00  0.00     0.031 C 
ATOM     22  C   UNL A   1      39.734  28.485  27.394  1.00  0.00     0.029 A 
ATOM     23  C   UNL A   1      40.548  28.327  28.593  1.00  0.00     0.049 A 
ATOM     24  H   UNL A   1      40.265  29.225  30.453  1.00  0.00     0.167 HD
ATOM     25  C   UNL A   1      39.614  31.258  34.261  1.00  0.00     0.034 A 
ATOM     26  C   UNL A   1      41.649  27.556  28.678  1.00  0.00     0.034 A 
ATOM     27  C   UNL A   1      40.764  30.416  34.467  1.00  0.00     0.049 A 
ATOM     28  C   UNL A   1      42.388  27.488  29.980  1.00  0.00     0.074 A 
ATOM     29  C   UNL A   1      41.516  30.253  35.620  1.00  0.00     0.029 A 
ATOM     30  N   UNL A   1      41.329  29.592  33.507  1.00  0.00    -0.354 N 
ATOM     31  N   UNL A   1      42.098  28.061  31.123  1.00  0.00    -0.248 NA
ATOM     32  C   UNL A   1      43.597  26.655  30.011  1.00  0.00     0.031 C 
ATOM     33  C   UNL A   1      42.542  29.340  35.352  1.00  0.00     0.029 A 
ATOM     34  C   UNL A   1      42.422  28.923  34.035  1.00  0.00     0.049 A 
ATOM     35  H   UNL A   1      41.003  29.496  32.583  1.00  0.00     0.167 HD
ATOM     36  C   UNL A   1      43.078  27.645  32.014  1.00  0.00     0.074 A 
ATOM     37  C   UNL A   1      43.951  26.746  31.287  1.00  0.00     0.031 C 
ATOM     38  C   UNL A   1      43.253  27.996  33.312  1.00  0.00     0.034 A 
BRANCH  25  39
ATOM     39  C   UNL A   1      39.168  32.127  35.410  1.00  0.00     0.023 A 
ATOM     40  C   UNL A   1      38.294  31.604  36.384  1.00  0.00     0.012 A 
ATOM     41  C   UNL A   1      39.682  33.430  35.575  1.00  0.00     0.148 A 
ATOM     42  C   UNL A   1      37.919  32.370  37.489  1.00  0.00     0.002 A 
ATOM     43  C   UNL A   1      39.333  34.174  36.698  1.00  0.00     0.091 A 
ATOM     44  F   UNL A   1      40.495  33.922  34.631  1.00  0.00    -0.205 F 
ATOM     45  C   UNL A   1      38.446  33.649  37.652  1.00  0.00     0.022 A 
BRANCH  43  46
ATOM     46  S   UNL A   1      40.024  35.801  37.027  1.00  0.00     0.127 S 
ATOM     47  O   UNL A   1      41.449  35.497  37.148  1.00  0.00    -0.237 OA
ATOM     48  O   UNL A   1      39.662  36.544  35.819  1.00  0.00    -0.237 OA
ATOM     49  O   UNL A   1      39.371  36.270  38.241  1.00  0.00    -0.744 OA
ENDBRANCH  43  46
ENDBRANCH  25  39
BRANCH  26  50
ATOM     50  C   UNL A   1      42.068  26.748  27.500  1.00  0.00     0.023 A 
ATOM     51  C   UNL A   1      42.891  27.333  26.518  1.00  0.00     0.012 A 
ATOM     52  C   UNL A   1      41.728  25.385  27.390  1.00  0.00     0.148 A 
ATOM     53  C   UNL A   1      43.358  26.578  25.443  1.00  0.00     0.002 A 
ATOM     54  C   UNL A   1      42.252  24.623  26.352  1.00  0.00     0.091 A 
ATOM     55  F   UNL A   1      40.925  24.851  28.320  1.00  0.00    -0.205 F 
ATOM     56  C   UNL A   1      43.055  25.220  25.369  1.00  0.00     0.022 A 
BRANCH  54  57
ATOM     57  S   UNL A   1      42.043  22.840  26.291  1.00  0.00     0.127 S 
ATOM     58  O   UNL A   1      42.681  22.506  25.022  1.00  0.00    -0.237 OA
ATOM     59  O   UNL A   1      42.773  22.404  27.483  1.00  0.00    -0.237 OA
ATOM     60  O   UNL A   1      40.605  22.620  26.365  1.00  0.00    -0.744 OA
ENDBRANCH  54  57
ENDBRANCH  26  50
BRANCH  38  61
ATOM     61  C   UNL A   1      44.428  27.393  34.032  1.00  0.00     0.023 A 
ATOM     62  C   UNL A   1      45.673  28.050  34.000  1.00  0.00     0.012 A 
ATOM     63  C   UNL A   1      44.290  26.203  34.774  1.00  0.00     0.148 A 
ATOM     64  C   UNL A   1      46.774  27.513  34.668  1.00  0.00     0.002 A 
ATOM     65  C   UNL A   1      45.381  25.698  35.472  1.00  0.00     0.091 A 
ATOM     66  F   UNL A   1      43.103  25.579  34.770  1.00  0.00    -0.205 F 
ATOM     67  C   UNL A   1      46.625  26.345  35.412  1.00  0.00     0.022 A 
BRANCH  65  68
ATOM     68  S   UNL A   1      45.246  24.246  36.520  1.00  0.00     0.127 S 
ATOM     69  O   UNL A   1      46.629  24.059  36.953  1.00  0.00    -0.237 OA
ATOM     70  O   UNL A   1      44.333  24.697  37.572  1.00  0.00    -0.237 OA
ATOM     71  O   UNL A   1      44.703  23.197  35.667  1.00  0.00    -0.744 OA
ENDBRANCH  65  68
ENDBRANCH  38  61
ENDBRANCH  12  13
ENDBRANCH   5   7
ENDBRANCH   2   3
ENDBRANCH   1   2
BRANCH   1  72
ATOM     72  C   UNL A   1      32.417  27.653  26.916  1.00  0.00     0.023 C 
BRANCH  72  73
ATOM     73  C   UNL A   1      33.410  27.492  25.761  1.00  0.00     0.116 C 
BRANCH  73  74
ATOM     74  N   UNL A   1      34.251  26.303  25.859  1.00  0.00    -0.355 N 
ATOM     75  C   UNL A   1      34.225  25.002  25.483  1.00  0.00     0.234 C 
ATOM     76  H   UNL A   1      35.085  26.507  26.343  1.00  0.00     0.163 HD
ATOM     77  O   UNL A   1      35.364  24.506  25.433  1.00  0.00    -0.274 OA
BRANCH  75  78
ATOM     78  C   UNL A   1      33.018  24.084  25.120  1.00  0.00     0.118 C 
ATOM     79  C   UNL A   1      32.303  23.705  26.452  1.00  0.00     0.031 C 
ATOM     80  C   UNL A   1      33.197  22.815  24.281  1.00  0.00     0.201 C 
ATOM     81  C   UNL A   1      31.992  24.951  24.345  1.00  0.00     0.142 C 
ATOM     82  C   UNL A   1      33.016  22.571  27.170  1.00  0.00     0.063 C 
ATOM     83  N   UNL A   1      33.866  21.711  25.001  1.00  0.00    -0.343 N 
ATOM     84  C   UNL A   1      33.766  23.169  22.896  1.00  0.00     0.087 C 
ATOM     85  N   UNL A   1      32.366  25.283  22.973  1.00  0.00    -0.341 N 
ATOM     86  C   UNL A   1      33.165  21.366  26.245  1.00  0.00     0.260 C 
ATOM     87  H   UNL A   1      33.890  20.890  24.396  1.00  0.00     0.346 HD
ATOM     88  H   UNL A   1      34.809  22.017  25.242  1.00  0.00     0.346 HD
ATOM     89  C   UNL A   1      32.916  24.208  22.146  1.00  0.00     0.125 C 
BRANCH  85  90
ATOM     90  C   UNL A   1      31.650  26.356  22.421  1.00  0.00     0.227 C 
ATOM     91  O   UNL A   1      31.333  26.376  21.226  1.00  0.00    -0.275 OA
BRANCH  90  92
ATOM     92  C   UNL A   1      31.216  27.492  23.320  1.00  0.00     0.140 C 
BRANCH  92  93
ATOM     93  C   UNL A   1      29.981  28.288  22.934  1.00  0.00     0.016 A 
ATOM     94  C   UNL A   1      30.230  29.462  22.200  1.00  0.00     0.128 A 
ATOM     95  C   UNL A   1      28.634  28.015  23.225  1.00  0.00     0.047 A 
ATOM     96  F   UNL A   1      31.490  29.752  21.835  1.00  0.00    -0.207 F 
ATOM     97  C   UNL A   1      29.223  30.348  21.820  1.00  0.00     0.039 A 
ATOM     98  C   UNL A   1      27.620  28.924  22.879  1.00  0.00     0.021 A 
ATOM     99  Cl  UNL A   1      28.055  26.569  23.947  1.00  0.00    -0.084 Cl
ATOM    100  C   UNL A   1      27.911  30.093  22.185  1.00  0.00     0.005 A 
ENDBRANCH  92  93
ENDBRANCH  90  92
ENDBRANCH  85  90
ENDBRANCH  75  78
ENDBRANCH  73  74
ENDBRANCH  72  73
ENDBRANCH   1  72
TORSDOF 17
ENDMDL
MODEL 2
REMARK VINA RESULT:     -13.0      4.942      9.708
REMARK SMILES O=C(NCCCCNC(=O)[C@]12CCC[NH2+][C@@H]1CCN(C(=O)Cc1c(F)cccc1Cl)C2)c1ccc(-c2c3nc(c(-c4cccc(S(=O)(=O)[O-])c4F)c4ccc([nH]4)c(-c4cccc(S(=O)(=O)[O-])c4F)c4nc(c(-c5cccc(S(=O)(=O)[O-])c5F)c5ccc2[nH]5)C=C4)C=C3)cc1
REMARK SMILES IDX 5 1 4 2 3 3 1 4 2 5 32 7 33 8 94 9 34 10 93 11 35 12 36 13
REMARK SMILES IDX 37 14 87 15 38 16 92 17 86 18 88 19 39 20 91 21 85 22 84 23
REMARK SMILES IDX 40 25 72 26 52 27 71 28 53 29 56 30 70 31 89 32 54 33 55 34
REMARK SMILES IDX 69 36 90 37 57 38 41 39 42 40 50 41 43 42 45 43 51 44 44 45
REMARK SMILES IDX 46 46 47 47 48 48 49 49 73 50 74 51 82 52 75 53 77 54 83 55
REMARK SMILES IDX 76 56 78 57 79 58 80 59 81 60 58 61 59 62 67 63 60 64 62 65
REMARK SMILES IDX 68 66 61 67 63 68 64 69 65 70 66 71 6 72 7 73 8 74 9 75
REMARK SMILES IDX 10 77 11 78 12 79 16 80 31 81 13 82 15 83 17 84 19 85 14 86
REMARK SMILES IDX 18 89 20 90 21 91 22 92 23 93 24 94 29 95 25 96 26 97 28 98
REMARK SMILES IDX 30 99 27 100
REMARK H PARENT 3 6 88 24 56 35 8 76 15 87 15 88
REMARK Flexibility Score: inf
ROOT
ATOM      1  C   UNL A   1      37.038  21.678  24.188  1.00  0.00     0.023 C 
ENDROOT
BRANCH   1   2
ATOM      2  C   UNL A   1      37.704  21.444  25.535  1.00  0.00     0.116 C 
BRANCH   2   3
ATOM      3  N   UNL A   1      38.872  20.573  25.543  1.00  0.00    -0.352 N 
ATOM      4  O   UNL A   1      41.001  20.040  26.166  1.00  0.00    -0.269 OA
ATOM      5  C   UNL A   1      40.067  20.824  26.207  1.00  0.00     0.251 C 
ATOM      6  H   UNL A   1      38.811  19.734  25.032  1.00  0.00     0.163 HD
BRANCH   5   7
ATOM      7  C   UNL A   1      40.175  22.118  26.921  1.00  0.00     0.039 A 
ATOM      8  C   UNL A   1      39.646  23.261  26.323  1.00  0.00     0.014 A 
ATOM      9  C   UNL A   1      41.025  22.215  28.026  1.00  0.00     0.014 A 
ATOM     10  C   UNL A   1      40.157  24.501  26.682  1.00  0.00     0.010 A 
ATOM     11  C   UNL A   1      41.448  23.478  28.454  1.00  0.00     0.010 A 
ATOM     12  C   UNL A   1      41.081  24.627  27.737  1.00  0.00    -0.014 A 
BRANCH  12  13
ATOM     13  C   UNL A   1      41.637  25.971  28.058  1.00  0.00     0.031 A 
ATOM     14  C   UNL A   1      43.025  26.383  27.628  1.00  0.00     0.074 A 
ATOM     15  C   UNL A   1      40.852  26.852  28.709  1.00  0.00     0.049 A 
ATOM     16  N   UNL A   1      43.630  27.533  27.797  1.00  0.00    -0.248 NA
ATOM     17  C   UNL A   1      43.848  25.381  26.930  1.00  0.00     0.031 C 
ATOM     18  C   UNL A   1      39.505  26.561  29.206  1.00  0.00     0.029 A 
ATOM     19  N   UNL A   1      41.055  28.164  29.049  1.00  0.00    -0.354 N 
ATOM     20  C   UNL A   1      44.917  27.375  27.291  1.00  0.00     0.074 A 
ATOM     21  C   UNL A   1      45.005  26.018  26.794  1.00  0.00     0.031 C 
ATOM     22  C   UNL A   1      38.978  27.676  29.730  1.00  0.00     0.029 A 
ATOM     23  C   UNL A   1      39.973  28.741  29.672  1.00  0.00     0.049 A 
ATOM     24  H   UNL A   1      41.893  28.647  28.865  1.00  0.00     0.167 HD
ATOM     25  C   UNL A   1      45.926  28.278  27.235  1.00  0.00     0.034 A 
ATOM     26  C   UNL A   1      39.797  29.985  30.156  1.00  0.00     0.034 A 
ATOM     27  C   UNL A   1      45.811  29.648  27.666  1.00  0.00     0.049 A 
ATOM     28  C   UNL A   1      40.910  30.979  30.024  1.00  0.00     0.074 A 
ATOM     29  C   UNL A   1      46.754  30.659  27.582  1.00  0.00     0.029 A 
ATOM     30  N   UNL A   1      44.687  30.202  28.257  1.00  0.00    -0.354 N 
ATOM     31  N   UNL A   1      42.079  30.835  29.448  1.00  0.00    -0.248 NA
ATOM     32  C   UNL A   1      40.677  32.313  30.593  1.00  0.00     0.031 C 
ATOM     33  C   UNL A   1      46.204  31.821  28.133  1.00  0.00     0.029 A 
ATOM     34  C   UNL A   1      44.912  31.539  28.549  1.00  0.00     0.049 A 
ATOM     35  H   UNL A   1      43.851  29.719  28.443  1.00  0.00     0.167 HD
ATOM     36  C   UNL A   1      42.715  32.064  29.570  1.00  0.00     0.074 A 
ATOM     37  C   UNL A   1      41.788  32.949  30.246  1.00  0.00     0.031 C 
ATOM     38  C   UNL A   1      43.963  32.419  29.179  1.00  0.00     0.034 A 
BRANCH  25  39
ATOM     39  C   UNL A   1      47.248  27.836  26.656  1.00  0.00     0.023 A 
ATOM     40  C   UNL A   1      48.254  27.342  27.508  1.00  0.00     0.012 A 
ATOM     41  C   UNL A   1      47.459  27.825  25.261  1.00  0.00     0.148 A 
ATOM     42  C   UNL A   1      49.460  26.869  26.987  1.00  0.00     0.002 A 
ATOM     43  C   UNL A   1      48.648  27.318  24.747  1.00  0.00     0.091 A 
ATOM     44  F   UNL A   1      46.501  28.316  24.464  1.00  0.00    -0.205 F 
ATOM     45  C   UNL A   1      49.653  26.847  25.608  1.00  0.00     0.022 A 
BRANCH  43  46
ATOM     46  S   UNL A   1      48.951  27.180  22.980  1.00  0.00     0.127 S 
ATOM     47  O   UNL A   1      48.279  25.921  22.663  1.00  0.00    -0.237 OA
ATOM     48  O   UNL A   1      48.284  28.372  22.455  1.00  0.00    -0.237 OA
ATOM     49  O   UNL A   1      50.398  27.182  22.825  1.00  0.00    -0.744 OA
ENDBRANCH  43  46
ENDBRANCH  25  39
BRANCH  26  50
ATOM     50  C   UNL A   1      38.485  30.357  30.754  1.00  0.00     0.023 A 
ATOM     51  C   UNL A   1      38.246  30.089  32.115  1.00  0.00     0.012 A 
ATOM     52  C   UNL A   1      37.511  31.048  30.007  1.00  0.00     0.148 A 
ATOM     53  C   UNL A   1      37.055  30.493  32.718  1.00  0.00     0.002 A 
ATOM     54  C   UNL A   1      36.357  31.506  30.631  1.00  0.00     0.091 A 
ATOM     55  F   UNL A   1      37.746  31.274  28.707  1.00  0.00    -0.205 F 
ATOM     56  C   UNL A   1      36.119  31.217  31.983  1.00  0.00     0.022 A 
BRANCH  54  57
ATOM     57  S   UNL A   1      35.195  32.588  29.790  1.00  0.00     0.127 S 
ATOM     58  O   UNL A   1      36.075  33.634  29.279  1.00  0.00    -0.237 OA
ATOM     59  O   UNL A   1      34.631  31.702  28.771  1.00  0.00    -0.237 OA
ATOM     60  O   UNL A   1      34.242  32.995  30.815  1.00  0.00    -0.744 OA
ENDBRANCH  54  57
ENDBRANCH  26  50
BRANCH  38  61
ATOM     61  C   UNL A   1      44.394  33.833  29.462  1.00  0.00     0.023 A 
ATOM     62  C   UNL A   1      44.959  34.149  30.712  1.00  0.00     0.012 A 
ATOM     63  C   UNL A   1      44.278  34.835  28.479  1.00  0.00     0.148 A 
ATOM     64  C   UNL A   1      45.373  35.451  30.993  1.00  0.00     0.002 A 
ATOM     65  C   UNL A   1      44.733  36.120  28.751  1.00  0.00     0.091 A 
ATOM     66  F   UNL A   1      43.713  34.520  27.304  1.00  0.00    -0.205 F 
ATOM     67  C   UNL A   1      45.270  36.433  30.010  1.00  0.00     0.022 A 
BRANCH  65  68
ATOM     68  S   UNL A   1      44.711  37.416  27.508  1.00  0.00     0.127 S 
ATOM     69  O   UNL A   1      45.111  38.586  28.288  1.00  0.00    -0.237 OA
ATOM     70  O   UNL A   1      45.714  36.952  26.548  1.00  0.00    -0.237 OA
ATOM     71  O   UNL A   1      43.350  37.438  26.988  1.00  0.00    -0.744 OA
ENDBRANCH  65  68
ENDBRANCH  38  61
ENDBRANCH  12  13
ENDBRANCH   5   7
ENDBRANCH   2   3
ENDBRANCH   1   2
BRANCH   1  72
ATOM     72  C   UNL A   1      36.745  23.121  23.788  1.00  0.00     0.023 C 
BRANCH  72  73
ATOM     73  C   UNL A   1      35.308  23.417  23.346  1.00  0.00     0.116 C 
BRANCH  73  74
ATOM     74  N   UNL A   1      34.688  24.538  24.046  1.00  0.00    -0.355 N 
ATOM     75  C   UNL A   1      33.792  24.749  25.041  1.00  0.00     0.234 C 
ATOM     76  H   UNL A   1      35.017  25.395  23.689  1.00  0.00     0.163 HD
ATOM     77  O   UNL A   1      33.917  25.876  25.552  1.00  0.00    -0.274 OA
BRANCH  75  78
ATOM     78  C   UNL A   1      32.679  23.816  25.607  1.00  0.00     0.118 C 
ATOM     79  C   UNL A   1      33.034  23.517  27.094  1.00  0.00     0.031 C 
ATOM     80  C   UNL A   1      32.305  22.501  24.918  1.00  0.00     0.201 C 
ATOM     81  C   UNL A   1      31.367  24.641  25.665  1.00  0.00     0.142 C 
ATOM     82  C   UNL A   1      34.084  22.423  27.213  1.00  0.00     0.063 C 
ATOM     83  N   UNL A   1      33.321  21.437  25.065  1.00  0.00    -0.343 N 
ATOM     84  C   UNL A   1      31.805  22.772  23.488  1.00  0.00     0.087 C 
ATOM     85  N   UNL A   1      30.731  24.892  24.374  1.00  0.00    -0.341 N 
ATOM     86  C   UNL A   1      33.628  21.166  26.477  1.00  0.00     0.260 C 
ATOM     87  H   UNL A   1      32.969  20.582  24.634  1.00  0.00     0.346 HD
ATOM     88  H   UNL A   1      34.177  21.753  24.610  1.00  0.00     0.346 HD
ATOM     89  C   UNL A   1      30.636  23.770  23.440  1.00  0.00     0.125 C 
BRANCH  85  90
ATOM     90  C   UNL A   1      29.792  25.934  24.385  1.00  0.00     0.227 C 
ATOM     91  O   UNL A   1      28.779  25.885  25.093  1.00  0.00    -0.275 OA
BRANCH  90  92
ATOM     92  C   UNL A   1      30.048  27.166  23.546  1.00  0.00     0.140 C 
BRANCH  92  93
ATOM     93  C   UNL A   1      31.485  27.607  23.328  1.00  0.00     0.016 A 
ATOM     94  C   UNL A   1      31.963  28.562  24.245  1.00  0.00     0.128 A 
ATOM     95  C   UNL A   1      32.388  27.200  22.333  1.00  0.00     0.047 A 
ATOM     96  F   UNL A   1      31.172  28.951  25.258  1.00  0.00    -0.207 F 
ATOM     97  C   UNL A   1      33.234  29.130  24.157  1.00  0.00     0.039 A 
ATOM     98  C   UNL A   1      33.656  27.797  22.217  1.00  0.00     0.021 A 
ATOM     99  Cl  UNL A   1      32.114  25.927  21.213  1.00  0.00    -0.084 Cl
ATOM    100  C   UNL A   1      34.078  28.765  23.121  1.00  0.00     0.005 A 
ENDBRANCH  92  93
ENDBRANCH  90  92
ENDBRANCH  85  90
ENDBRANCH  75  78
ENDBRANCH  73  74
ENDBRANCH  72  73
ENDBRANCH   1  72
TORSDOF 17
ENDMDL
MODEL 3
REMARK VINA RESULT:     -13.0      5.082     10.316
REMARK SMILES O=C(NCCCCNC(=O)[C@]12CCC[NH2+][C@@H]1CCN(C(=O)Cc1c(F)cccc1Cl)C2)c1ccc(-c2c3nc(c(-c4cccc(S(=O)(=O)[O-])c4F)c4ccc([nH]4)c(-c4cccc(S(=O)(=O)[O-])c4F)c4nc(c(-c5cccc(S(=O)(=O)[O-])c5F)c5ccc2[nH]5)C=C4)C=C3)cc1
REMARK SMILES IDX 5 1 4 2 3 3 1 4 2 5 32 7 33 8 94 9 34 10 93 11 35 12 36 13
REMARK SMILES IDX 37 14 87 15 38 16 92 17 86 18 88 19 39 20 91 21 85 22 84 23
REMARK SMILES IDX 40 25 72 26 52 27 71 28 53 29 56 30 70 31 89 32 54 33 55 34
REMARK SMILES IDX 69 36 90 37 57 38 41 39 42 40 50 41 43 42 45 43 51 44 44 45
REMARK SMILES IDX 46 46 47 47 48 48 49 49 73 50 74 51 82 52 75 53 77 54 83 55
REMARK SMILES IDX 76 56 78 57 79 58 80 59 81 60 58 61 59 62 67 63 60 64 62 65
REMARK SMILES IDX 68 66 61 67 63 68 64 69 65 70 66 71 6 72 7 73 8 74 9 75
REMARK SMILES IDX 10 77 11 78 12 79 16 80 31 81 13 82 15 83 17 84 19 85 14 86
REMARK SMILES IDX 18 89 20 90 21 91 22 92 23 93 24 94 29 95 25 96 26 97 28 98
REMARK SMILES IDX 30 99 27 100
REMARK H PARENT 3 6 88 24 56 35 8 76 15 87 15 88
REMARK Flexibility Score: inf
ROOT
ATOM      1  C   UNL A   1      36.353  21.854  24.190  1.00  0.00     0.023 C 
ENDROOT
BRANCH   1   2
ATOM      2  C   UNL A   1      37.148  21.627  25.467  1.00  0.00     0.116 C 
BRANCH   2   3
ATOM      3  N   UNL A   1      38.254  20.683  25.388  1.00  0.00    -0.352 N 
ATOM      4  O   UNL A   1      40.369  19.989  25.889  1.00  0.00    -0.269 OA
ATOM      5  C   UNL A   1      39.492  20.829  26.003  1.00  0.00     0.251 C 
ATOM      6  H   UNL A   1      38.113  19.870  24.851  1.00  0.00     0.163 HD
BRANCH   5   7
ATOM      7  C   UNL A   1      39.719  22.085  26.756  1.00  0.00     0.039 A 
ATOM      8  C   UNL A   1      39.151  23.266  26.279  1.00  0.00     0.014 A 
ATOM      9  C   UNL A   1      40.698  22.112  27.752  1.00  0.00     0.014 A 
ATOM     10  C   UNL A   1      39.733  24.477  26.628  1.00  0.00     0.010 A 
ATOM     11  C   UNL A   1      41.202  23.344  28.182  1.00  0.00     0.010 A 
ATOM     12  C   UNL A   1      40.780  24.533  27.568  1.00  0.00    -0.014 A 
BRANCH  12  13
ATOM     13  C   UNL A   1      41.405  25.850  27.879  1.00  0.00     0.031 A 
ATOM     14  C   UNL A   1      42.777  26.222  27.366  1.00  0.00     0.074 A 
ATOM     15  C   UNL A   1      40.698  26.742  28.599  1.00  0.00     0.049 A 
ATOM     16  N   UNL A   1      43.433  27.345  27.518  1.00  0.00    -0.248 NA
ATOM     17  C   UNL A   1      43.514  25.208  26.594  1.00  0.00     0.031 C 
ATOM     18  C   UNL A   1      39.378  26.487  29.179  1.00  0.00     0.029 A 
ATOM     19  N   UNL A   1      40.971  28.038  28.952  1.00  0.00    -0.354 N 
ATOM     20  C   UNL A   1      44.677  27.154  26.925  1.00  0.00     0.074 A 
ATOM     21  C   UNL A   1      44.683  25.807  26.395  1.00  0.00     0.031 C 
ATOM     22  C   UNL A   1      38.928  27.607  29.760  1.00  0.00     0.029 A 
ATOM     23  C   UNL A   1      39.955  28.638  29.658  1.00  0.00     0.049 A 
ATOM     24  H   UNL A   1      41.813  28.495  28.723  1.00  0.00     0.167 HD
ATOM     25  C   UNL A   1      45.713  28.022  26.820  1.00  0.00     0.034 A 
ATOM     26  C   UNL A   1      39.857  29.875  30.179  1.00  0.00     0.034 A 
ATOM     27  C   UNL A   1      45.677  29.385  27.287  1.00  0.00     0.049 A 
ATOM     28  C   UNL A   1      40.995  30.832  29.994  1.00  0.00     0.074 A 
ATOM     29  C   UNL A   1      46.649  30.363  27.161  1.00  0.00     0.029 A 
ATOM     30  N   UNL A   1      44.616  29.965  27.963  1.00  0.00    -0.354 N 
ATOM     31  N   UNL A   1      42.117  30.661  29.338  1.00  0.00    -0.248 NA
ATOM     32  C   UNL A   1      40.849  32.160  30.605  1.00  0.00     0.031 C 
ATOM     33  C   UNL A   1      46.180  31.532  27.772  1.00  0.00     0.029 A 
ATOM     34  C   UNL A   1      44.909  31.285  28.267  1.00  0.00     0.049 A 
ATOM     35  H   UNL A   1      43.776  29.506  28.194  1.00  0.00     0.167 HD
ATOM     36  C   UNL A   1      42.804  31.863  29.443  1.00  0.00     0.074 A 
ATOM     37  C   UNL A   1      41.957  32.765  30.198  1.00  0.00     0.031 C 
ATOM     38  C   UNL A   1      44.036  32.183  28.978  1.00  0.00     0.034 A 
BRANCH  25  39
ATOM     39  C   UNL A   1      46.976  27.547  26.145  1.00  0.00     0.023 A 
ATOM     40  C   UNL A   1      47.888  26.741  26.854  1.00  0.00     0.012 A 
ATOM     41  C   UNL A   1      47.216  27.824  24.783  1.00  0.00     0.148 A 
ATOM     42  C   UNL A   1      49.030  26.239  26.229  1.00  0.00     0.002 A 
ATOM     43  C   UNL A   1      48.339  27.290  24.157  1.00  0.00     0.091 A 
ATOM     44  F   UNL A   1      46.352  28.609  24.126  1.00  0.00    -0.205 F 
ATOM     45  C   UNL A   1      49.250  26.504  24.880  1.00  0.00     0.022 A 
BRANCH  43  46
ATOM     46  S   UNL A   1      48.661  27.517  22.402  1.00  0.00     0.127 S 
ATOM     47  O   UNL A   1      49.957  28.192  22.426  1.00  0.00    -0.237 OA
ATOM     48  O   UNL A   1      48.703  26.139  21.911  1.00  0.00    -0.237 OA
ATOM     49  O   UNL A   1      47.546  28.304  21.895  1.00  0.00    -0.744 OA
ENDBRANCH  43  46
ENDBRANCH  25  39
BRANCH  26  50
ATOM     50  C   UNL A   1      38.602  30.279  30.871  1.00  0.00     0.023 A 
ATOM     51  C   UNL A   1      38.463  30.031  32.250  1.00  0.00     0.012 A 
ATOM     52  C   UNL A   1      37.587  30.981  30.192  1.00  0.00     0.148 A 
ATOM     53  C   UNL A   1      37.329  30.464  32.937  1.00  0.00     0.002 A 
ATOM     54  C   UNL A   1      36.492  31.468  30.897  1.00  0.00     0.091 A 
ATOM     55  F   UNL A   1      37.725  31.188  28.876  1.00  0.00    -0.205 F 
ATOM     56  C   UNL A   1      36.354  31.199  32.266  1.00  0.00     0.022 A 
BRANCH  54  57
ATOM     57  S   UNL A   1      35.289  32.564  30.135  1.00  0.00     0.127 S 
ATOM     58  O   UNL A   1      34.775  31.735  29.049  1.00  0.00    -0.237 OA
ATOM     59  O   UNL A   1      34.349  32.799  31.231  1.00  0.00    -0.237 OA
ATOM     60  O   UNL A   1      36.045  33.744  29.738  1.00  0.00    -0.744 OA
ENDBRANCH  54  57
ENDBRANCH  26  50
BRANCH  38  61
ATOM     61  C   UNL A   1      44.536  33.574  29.261  1.00  0.00     0.023 A 
ATOM     62  C   UNL A   1      45.300  33.815  30.419  1.00  0.00     0.012 A 
ATOM     63  C   UNL A   1      44.287  34.629  28.362  1.00  0.00     0.148 A 
ATOM     64  C   UNL A   1      45.780  35.094  30.697  1.00  0.00     0.002 A 
ATOM     65  C   UNL A   1      44.806  35.892  28.624  1.00  0.00     0.091 A 
ATOM     66  F   UNL A   1      43.535  34.386  27.278  1.00  0.00    -0.205 F 
ATOM     67  C   UNL A   1      45.543  36.129  29.795  1.00  0.00     0.022 A 
BRANCH  65  68
ATOM     68  S   UNL A   1      44.615  37.254  27.469  1.00  0.00     0.127 S 
ATOM     69  O   UNL A   1      44.695  38.413  28.357  1.00  0.00    -0.237 OA
ATOM     70  O   UNL A   1      45.768  37.083  26.583  1.00  0.00    -0.237 OA
ATOM     71  O   UNL A   1      43.327  37.041  26.822  1.00  0.00    -0.744 OA
ENDBRANCH  65  68
ENDBRANCH  38  61
ENDBRANCH  12  13
ENDBRANCH   5   7
ENDBRANCH   2   3
ENDBRANCH   1   2
BRANCH   1  72
ATOM     72  C   UNL A   1      36.174  23.293  23.716  1.00  0.00     0.023 C 
BRANCH  72  73
ATOM     73  C   UNL A   1      34.743  23.712  23.365  1.00  0.00     0.116 C 
BRANCH  73  74
ATOM     74  N   UNL A   1      34.373  25.037  23.854  1.00  0.00    -0.355 N 
ATOM     75  C   UNL A   1      33.255  25.724  24.189  1.00  0.00     0.234 C 
ATOM     76  H   UNL A   1      35.174  25.598  23.975  1.00  0.00     0.163 HD
ATOM     77  O   UNL A   1      33.502  26.678  24.948  1.00  0.00    -0.274 OA
BRANCH  75  78
ATOM     78  C   UNL A   1      31.770  25.494  23.775  1.00  0.00     0.118 C 
ATOM     79  C   UNL A   1      31.677  25.709  22.235  1.00  0.00     0.031 C 
ATOM     80  C   UNL A   1      30.621  26.251  24.447  1.00  0.00     0.201 C 
ATOM     81  C   UNL A   1      31.456  23.990  23.991  1.00  0.00     0.142 C 
ATOM     82  C   UNL A   1      31.602  27.184  21.876  1.00  0.00     0.063 C 
ATOM     83  N   UNL A   1      30.542  27.678  24.067  1.00  0.00    -0.343 N 
ATOM     84  C   UNL A   1      30.590  25.944  25.954  1.00  0.00     0.087 C 
ATOM     85  N   UNL A   1      31.305  23.579  25.384  1.00  0.00    -0.341 N 
ATOM     86  C   UNL A   1      30.443  27.852  22.611  1.00  0.00     0.260 C 
ATOM     87  H   UNL A   1      29.719  28.091  24.506  1.00  0.00     0.346 HD
ATOM     88  H   UNL A   1      31.397  28.136  24.384  1.00  0.00     0.346 HD
ATOM     89  C   UNL A   1      30.507  24.439  26.258  1.00  0.00     0.125 C 
BRANCH  85  90
ATOM     90  C   UNL A   1      31.408  22.195  25.593  1.00  0.00     0.227 C 
ATOM     91  O   UNL A   1      30.459  21.534  26.031  1.00  0.00    -0.275 OA
BRANCH  90  92
ATOM     92  C   UNL A   1      32.696  21.489  25.231  1.00  0.00     0.140 C 
BRANCH  92  93
ATOM     93  C   UNL A   1      32.611  20.151  24.517  1.00  0.00     0.016 A 
ATOM     94  C   UNL A   1      32.831  19.024  25.331  1.00  0.00     0.128 A 
ATOM     95  C   UNL A   1      32.357  19.893  23.161  1.00  0.00     0.047 A 
ATOM     96  F   UNL A   1      33.019  19.194  26.650  1.00  0.00    -0.207 F 
ATOM     97  C   UNL A   1      32.858  17.721  24.834  1.00  0.00     0.039 A 
ATOM     98  C   UNL A   1      32.422  18.586  22.647  1.00  0.00     0.021 A 
ATOM     99  Cl  UNL A   1      31.886  21.072  22.005  1.00  0.00    -0.084 Cl
ATOM    100  C   UNL A   1      32.678  17.501  23.477  1.00  0.00     0.005 A 
ENDBRANCH  92  93
ENDBRANCH  90  92
ENDBRANCH  85  90
ENDBRANCH  75  78
ENDBRANCH  73  74
ENDBRANCH  72  73
ENDBRANCH   1  72
TORSDOF 17
ENDMDL
