MODEL 1
REMARK VINA RESULT:     -12.4      0.000      0.000
REMARK SMILES C[C@@]1(CN2C(=O)c3ccc(C(=O)NCCCCNC(=O)c4ccc(-c5c6nc(c(-c7cccc(S(=O)(=O)[O-])c7F)c7ccc([nH]7)c(-c7cccc(S(=O)(=O)[O-])c7F)c7nc(c(-c8cccc(S(=O)(=O)[O-])c8F)c8ccc5[nH]8)C=C7)C=C6)cc4)cc3C2=O)CCCO1
REMARK SMILES IDX 16 1 15 2 14 3 13 4 11 5 12 6 10 8 4 9 5 10 86 11 6 12 7 13
REMARK SMILES IDX 85 14 87 15 8 16 84 17 9 18 3 19 2 20 1 21 88 22 91 23 89 24
REMARK SMILES IDX 90 25 17 26 18 27 19 28 20 30 21 31 22 32 83 33 23 34 82 35
REMARK SMILES IDX 24 36 25 37 26 38 76 39 27 40 81 41 75 42 77 43 28 44 80 45
REMARK SMILES IDX 74 46 73 47 29 49 61 50 41 51 60 52 42 53 45 54 59 55 78 56
REMARK SMILES IDX 43 57 44 58 58 60 79 61 46 62 30 63 31 64 39 65 32 66 34 67
REMARK SMILES IDX 40 68 33 69 35 70 36 71 37 72 38 73 62 74 63 75 71 76 64 77
REMARK SMILES IDX 66 78 72 79 65 80 67 81 68 82 69 83 70 84 47 85 48 86 56 87
REMARK SMILES IDX 49 88 51 89 57 90 50 91 52 92 53 93 54 94 55 95
REMARK H PARENT 13 7 18 29 77 48 45 59
REMARK Flexibility Score: inf
ROOT
ATOM      1  C   UNL A   1      38.140  20.131  24.789  1.00  0.00     0.023 C 
ENDROOT
BRANCH   1   2
ATOM      2  C   UNL A   1      36.822  19.381  24.992  1.00  0.00     0.023 C 
BRANCH   2   3
ATOM      3  C   UNL A   1      35.584  20.284  25.023  1.00  0.00     0.116 C 
BRANCH   3   4
ATOM      4  N   UNL A   1      34.381  19.497  25.199  1.00  0.00    -0.352 N 
ATOM      5  C   UNL A   1      33.052  19.779  25.021  1.00  0.00     0.251 C 
ATOM      6  O   UNL A   1      32.249  18.866  25.220  1.00  0.00    -0.269 OA
ATOM      7  H   UNL A   1      34.551  18.577  25.508  1.00  0.00     0.163 HD
BRANCH   5   8
ATOM      8  C   UNL A   1      32.522  21.106  24.583  1.00  0.00     0.040 A 
ATOM      9  N   UNL A   1      30.972  25.409  25.150  1.00  0.00    -0.271 N 
ATOM     10  C   UNL A   1      31.141  25.007  23.858  1.00  0.00     0.261 C 
ATOM     11  C   UNL A   1      31.379  24.448  26.040  1.00  0.00     0.261 C 
ATOM     12  O   UNL A   1      30.982  25.631  22.824  1.00  0.00    -0.269 OA
ATOM     13  C   UNL A   1      31.597  23.628  23.912  1.00  0.00     0.053 A 
ATOM     14  C   UNL A   1      31.758  23.281  25.238  1.00  0.00     0.054 A 
ATOM     15  O   UNL A   1      31.474  24.510  27.249  1.00  0.00    -0.269 OA
ATOM     16  C   UNL A   1      31.875  22.760  22.883  1.00  0.00     0.015 A 
ATOM     17  C   UNL A   1      32.220  22.031  25.605  1.00  0.00     0.028 A 
ATOM     18  C   UNL A   1      32.365  21.499  23.233  1.00  0.00     0.015 A 
BRANCH   9  19
ATOM     19  C   UNL A   1      30.461  26.718  25.518  1.00  0.00     0.164 C 
BRANCH  19  20
ATOM     20  C   UNL A   1      31.573  27.724  25.932  1.00  0.00     0.084 C 
ATOM     21  C   UNL A   1      31.626  27.983  27.438  1.00  0.00     0.044 C 
ATOM     22  C   UNL A   1      31.417  29.042  25.170  1.00  0.00     0.039 C 
ATOM     23  O   UNL A   1      32.856  27.202  25.525  1.00  0.00    -0.373 OA
ATOM     24  C   UNL A   1      32.156  28.775  23.883  1.00  0.00     0.031 C 
ATOM     25  C   UNL A   1      33.284  27.872  24.332  1.00  0.00     0.161 C 
ENDBRANCH  19  20
ENDBRANCH   9  19
ENDBRANCH   5   8
ENDBRANCH   3   4
ENDBRANCH   2   3
ENDBRANCH   1   2
BRANCH   1  26
ATOM     26  C   UNL A   1      39.020  20.222  26.030  1.00  0.00     0.116 C 
BRANCH  26  27
ATOM     27  N   UNL A   1      40.066  19.209  26.065  1.00  0.00    -0.352 N 
ATOM     28  C   UNL A   1      41.421  19.390  26.189  1.00  0.00     0.251 C 
ATOM     29  H   UNL A   1      39.762  18.276  25.991  1.00  0.00     0.163 HD
ATOM     30  O   UNL A   1      42.182  18.434  26.073  1.00  0.00    -0.269 OA
BRANCH  28  31
ATOM     31  C   UNL A   1      41.949  20.748  26.424  1.00  0.00     0.039 A 
ATOM     32  C   UNL A   1      42.206  21.568  25.325  1.00  0.00     0.014 A 
ATOM     33  C   UNL A   1      42.156  21.220  27.724  1.00  0.00     0.014 A 
ATOM     34  C   UNL A   1      42.626  22.882  25.534  1.00  0.00     0.010 A 
ATOM     35  C   UNL A   1      42.485  22.555  27.929  1.00  0.00     0.010 A 
ATOM     36  C   UNL A   1      42.739  23.396  26.838  1.00  0.00    -0.014 A 
BRANCH  36  37
ATOM     37  C   UNL A   1      43.118  24.814  27.058  1.00  0.00     0.031 A 
ATOM     38  C   UNL A   1      42.165  25.768  27.726  1.00  0.00     0.074 A 
ATOM     39  C   UNL A   1      44.313  25.254  26.615  1.00  0.00     0.049 A 
ATOM     40  N   UNL A   1      42.346  27.024  28.044  1.00  0.00    -0.248 NA
ATOM     41  C   UNL A   1      40.826  25.256  28.062  1.00  0.00     0.031 C 
ATOM     42  C   UNL A   1      45.285  24.452  25.867  1.00  0.00     0.029 A 
ATOM     43  N   UNL A   1      44.911  26.484  26.721  1.00  0.00    -0.354 N 
ATOM     44  C   UNL A   1      41.144  27.457  28.589  1.00  0.00     0.074 A 
ATOM     45  C   UNL A   1      40.224  26.344  28.518  1.00  0.00     0.031 C 
ATOM     46  C   UNL A   1      46.368  25.201  25.608  1.00  0.00     0.029 A 
ATOM     47  C   UNL A   1      46.157  26.542  26.143  1.00  0.00     0.049 A 
ATOM     48  H   UNL A   1      44.488  27.251  27.169  1.00  0.00     0.167 HD
ATOM     49  C   UNL A   1      40.841  28.660  29.131  1.00  0.00     0.034 A 
ATOM     50  C   UNL A   1      47.034  27.562  26.056  1.00  0.00     0.034 A 
ATOM     51  C   UNL A   1      41.769  29.756  29.221  1.00  0.00     0.049 A 
ATOM     52  C   UNL A   1      46.690  28.874  26.705  1.00  0.00     0.074 A 
ATOM     53  C   UNL A   1      41.587  30.990  29.822  1.00  0.00     0.029 A 
ATOM     54  N   UNL A   1      43.046  29.758  28.685  1.00  0.00    -0.354 N 
ATOM     55  N   UNL A   1      45.605  29.213  27.360  1.00  0.00    -0.248 NA
ATOM     56  C   UNL A   1      47.709  29.929  26.642  1.00  0.00     0.031 C 
ATOM     57  C   UNL A   1      42.742  31.751  29.614  1.00  0.00     0.029 A 
ATOM     58  C   UNL A   1      43.662  30.973  28.929  1.00  0.00     0.049 A 
ATOM     59  H   UNL A   1      43.456  29.005  28.201  1.00  0.00     0.167 HD
ATOM     60  C   UNL A   1      45.829  30.505  27.822  1.00  0.00     0.074 A 
ATOM     61  C   UNL A   1      47.162  30.876  27.391  1.00  0.00     0.031 C 
ATOM     62  C   UNL A   1      45.003  31.316  28.529  1.00  0.00     0.034 A 
BRANCH  49  63
ATOM     63  C   UNL A   1      39.458  28.841  29.705  1.00  0.00     0.023 A 
ATOM     64  C   UNL A   1      39.169  28.364  31.001  1.00  0.00     0.012 A 
ATOM     65  C   UNL A   1      38.460  29.528  28.986  1.00  0.00     0.148 A 
ATOM     66  C   UNL A   1      37.900  28.531  31.556  1.00  0.00     0.002 A 
ATOM     67  C   UNL A   1      37.215  29.736  29.565  1.00  0.00     0.091 A 
ATOM     68  F   UNL A   1      38.745  29.957  27.749  1.00  0.00    -0.205 F 
ATOM     69  C   UNL A   1      36.929  29.226  30.843  1.00  0.00     0.022 A 
BRANCH  67  70
ATOM     70  S   UNL A   1      35.921  30.692  28.767  1.00  0.00     0.127 S 
ATOM     71  O   UNL A   1      35.236  29.664  27.984  1.00  0.00    -0.237 OA
ATOM     72  O   UNL A   1      35.161  31.195  29.912  1.00  0.00    -0.237 OA
ATOM     73  O   UNL A   1      36.599  31.718  27.988  1.00  0.00    -0.744 OA
ENDBRANCH  67  70
ENDBRANCH  49  63
BRANCH  50  74
ATOM     74  C   UNL A   1      48.349  27.360  25.385  1.00  0.00     0.023 A 
ATOM     75  C   UNL A   1      49.467  26.962  26.144  1.00  0.00     0.012 A 
ATOM     76  C   UNL A   1      48.493  27.544  23.997  1.00  0.00     0.148 A 
ATOM     77  C   UNL A   1      50.713  26.793  25.541  1.00  0.00     0.002 A 
ATOM     78  C   UNL A   1      49.722  27.315  23.392  1.00  0.00     0.091 A 
ATOM     79  F   UNL A   1      47.418  27.929  23.293  1.00  0.00    -0.205 F 
ATOM     80  C   UNL A   1      50.840  26.960  24.164  1.00  0.00     0.022 A 
BRANCH  78  81
ATOM     81  S   UNL A   1      49.946  27.377  21.611  1.00  0.00     0.127 S 
ATOM     82  O   UNL A   1      49.800  28.804  21.341  1.00  0.00    -0.237 OA
ATOM     83  O   UNL A   1      51.305  26.855  21.463  1.00  0.00    -0.237 OA
ATOM     84  O   UNL A   1      48.909  26.518  21.055  1.00  0.00    -0.744 OA
ENDBRANCH  78  81
ENDBRANCH  50  74
BRANCH  62  85
ATOM     85  C   UNL A   1      45.537  32.667  28.931  1.00  0.00     0.023 A 
ATOM     86  C   UNL A   1      46.238  32.824  30.143  1.00  0.00     0.012 A 
ATOM     87  C   UNL A   1      45.369  33.779  28.083  1.00  0.00     0.148 A 
ATOM     88  C   UNL A   1      46.715  34.075  30.530  1.00  0.00     0.002 A 
ATOM     89  C   UNL A   1      45.899  35.012  28.447  1.00  0.00     0.091 A 
ATOM     90  F   UNL A   1      44.684  33.619  26.941  1.00  0.00    -0.205 F 
ATOM     91  C   UNL A   1      46.555  35.166  29.679  1.00  0.00     0.022 A 
BRANCH  89  92
ATOM     92  S   UNL A   1      45.828  36.444  27.366  1.00  0.00     0.127 S 
ATOM     93  O   UNL A   1      46.482  37.465  28.182  1.00  0.00    -0.237 OA
ATOM     94  O   UNL A   1      46.605  35.997  26.209  1.00  0.00    -0.237 OA
ATOM     95  O   UNL A   1      44.415  36.669  27.092  1.00  0.00    -0.744 OA
ENDBRANCH  89  92
ENDBRANCH  62  85
ENDBRANCH  36  37
ENDBRANCH  28  31
ENDBRANCH  26  27
ENDBRANCH   1  26
TORSDOF 16
ENDMDL
MODEL 2
REMARK VINA RESULT:     -12.4      2.448      7.984
REMARK SMILES C[C@@]1(CN2C(=O)c3ccc(C(=O)NCCCCNC(=O)c4ccc(-c5c6nc(c(-c7cccc(S(=O)(=O)[O-])c7F)c7ccc([nH]7)c(-c7cccc(S(=O)(=O)[O-])c7F)c7nc(c(-c8cccc(S(=O)(=O)[O-])c8F)c8ccc5[nH]8)C=C7)C=C6)cc4)cc3C2=O)CCCO1
REMARK SMILES IDX 16 1 15 2 14 3 13 4 11 5 12 6 10 8 4 9 5 10 86 11 6 12 7 13
REMARK SMILES IDX 85 14 87 15 8 16 84 17 9 18 3 19 2 20 1 21 88 22 91 23 89 24
REMARK SMILES IDX 90 25 17 26 18 27 19 28 20 30 21 31 22 32 83 33 23 34 82 35
REMARK SMILES IDX 24 36 25 37 26 38 76 39 27 40 81 41 75 42 77 43 28 44 80 45
REMARK SMILES IDX 74 46 73 47 29 49 61 50 41 51 60 52 42 53 45 54 59 55 78 56
REMARK SMILES IDX 43 57 44 58 58 60 79 61 46 62 30 63 31 64 39 65 32 66 34 67
REMARK SMILES IDX 40 68 33 69 35 70 36 71 37 72 38 73 62 74 63 75 71 76 64 77
REMARK SMILES IDX 66 78 72 79 65 80 67 81 68 82 69 83 70 84 47 85 48 86 56 87
REMARK SMILES IDX 49 88 51 89 57 90 50 91 52 92 53 93 54 94 55 95
REMARK H PARENT 13 7 18 29 77 48 45 59
REMARK Flexibility Score: inf
ROOT
ATOM      1  C   UNL A   1      36.137  22.420  24.779  1.00  0.00     0.023 C 
ENDROOT
BRANCH   1   2
ATOM      2  C   UNL A   1      35.589  21.273  25.631  1.00  0.00     0.023 C 
BRANCH   2   3
ATOM      3  C   UNL A   1      35.547  19.921  24.912  1.00  0.00     0.116 C 
BRANCH   3   4
ATOM      4  N   UNL A   1      34.325  19.210  25.228  1.00  0.00    -0.352 N 
ATOM      5  C   UNL A   1      33.001  19.546  25.124  1.00  0.00     0.251 C 
ATOM      6  O   UNL A   1      32.173  18.692  25.443  1.00  0.00    -0.269 OA
ATOM      7  H   UNL A   1      34.475  18.306  25.588  1.00  0.00     0.163 HD
BRANCH   5   8
ATOM      8  C   UNL A   1      32.502  20.867  24.631  1.00  0.00     0.040 A 
ATOM      9  N   UNL A   1      30.938  25.184  25.027  1.00  0.00    -0.271 N 
ATOM     10  C   UNL A   1      31.179  24.756  23.755  1.00  0.00     0.261 C 
ATOM     11  C   UNL A   1      31.290  24.239  25.957  1.00  0.00     0.261 C 
ATOM     12  O   UNL A   1      31.082  25.361  22.702  1.00  0.00    -0.269 OA
ATOM     13  C   UNL A   1      31.626  23.378  23.860  1.00  0.00     0.053 A 
ATOM     14  C   UNL A   1      31.710  23.056  25.201  1.00  0.00     0.054 A 
ATOM     15  O   UNL A   1      31.316  24.323  27.168  1.00  0.00    -0.269 OA
ATOM     16  C   UNL A   1      31.959  22.490  22.866  1.00  0.00     0.015 A 
ATOM     17  C   UNL A   1      32.146  21.812  25.617  1.00  0.00     0.028 A 
ATOM     18  C   UNL A   1      32.423  21.234  23.268  1.00  0.00     0.015 A 
BRANCH   9  19
ATOM     19  C   UNL A   1      30.412  26.500  25.340  1.00  0.00     0.164 C 
BRANCH  19  20
ATOM     20  C   UNL A   1      31.507  27.522  25.762  1.00  0.00     0.084 C 
ATOM     21  C   UNL A   1      31.553  27.774  27.269  1.00  0.00     0.044 C 
ATOM     22  C   UNL A   1      31.330  28.842  25.007  1.00  0.00     0.039 C 
ATOM     23  O   UNL A   1      32.798  27.024  25.354  1.00  0.00    -0.373 OA
ATOM     24  C   UNL A   1      32.075  28.594  23.719  1.00  0.00     0.031 C 
ATOM     25  C   UNL A   1      33.218  27.707  24.165  1.00  0.00     0.161 C 
ENDBRANCH  19  20
ENDBRANCH   9  19
ENDBRANCH   5   8
ENDBRANCH   3   4
ENDBRANCH   2   3
ENDBRANCH   1   2
BRANCH   1  26
ATOM     26  C   UNL A   1      37.376  23.101  25.349  1.00  0.00     0.116 C 
BRANCH  26  27
ATOM     27  N   UNL A   1      38.476  22.179  25.591  1.00  0.00    -0.352 N 
ATOM     28  C   UNL A   1      39.696  22.441  26.163  1.00  0.00     0.251 C 
ATOM     29  H   UNL A   1      38.325  21.248  25.309  1.00  0.00     0.163 HD
ATOM     30  O   UNL A   1      40.567  21.576  26.179  1.00  0.00    -0.269 OA
BRANCH  28  31
ATOM     31  C   UNL A   1      39.958  23.782  26.721  1.00  0.00     0.039 A 
ATOM     32  C   UNL A   1      40.150  23.910  28.097  1.00  0.00     0.014 A 
ATOM     33  C   UNL A   1      40.046  24.900  25.887  1.00  0.00     0.014 A 
ATOM     34  C   UNL A   1      40.480  25.157  28.629  1.00  0.00     0.010 A 
ATOM     35  C   UNL A   1      40.465  26.119  26.407  1.00  0.00     0.010 A 
ATOM     36  C   UNL A   1      40.671  26.266  27.785  1.00  0.00    -0.014 A 
BRANCH  36  37
ATOM     37  C   UNL A   1      41.091  27.575  28.344  1.00  0.00     0.031 A 
ATOM     38  C   UNL A   1      42.549  27.927  28.460  1.00  0.00     0.074 A 
ATOM     39  C   UNL A   1      40.152  28.434  28.789  1.00  0.00     0.049 A 
ATOM     40  N   UNL A   1      43.096  29.041  28.876  1.00  0.00    -0.248 NA
ATOM     41  C   UNL A   1      43.524  26.890  28.083  1.00  0.00     0.031 C 
ATOM     42  C   UNL A   1      38.711  28.169  28.820  1.00  0.00     0.029 A 
ATOM     43  N   UNL A   1      40.267  29.698  29.306  1.00  0.00    -0.354 N 
ATOM     44  C   UNL A   1      44.469  28.830  28.836  1.00  0.00     0.074 A 
ATOM     45  C   UNL A   1      44.673  27.467  28.399  1.00  0.00     0.031 C 
ATOM     46  C   UNL A   1      38.075  29.249  29.302  1.00  0.00     0.029 A 
ATOM     47  C   UNL A   1      39.061  30.269  29.641  1.00  0.00     0.049 A 
ATOM     48  H   UNL A   1      41.131  30.155  29.425  1.00  0.00     0.167 HD
ATOM     49  C   UNL A   1      45.470  29.701  29.105  1.00  0.00     0.034 A 
ATOM     50  C   UNL A   1      38.782  31.480  30.161  1.00  0.00     0.034 A 
ATOM     51  C   UNL A   1      45.260  31.063  29.515  1.00  0.00     0.049 A 
ATOM     52  C   UNL A   1      39.909  32.443  30.409  1.00  0.00     0.074 A 
ATOM     53  C   UNL A   1      46.204  32.051  29.737  1.00  0.00     0.029 A 
ATOM     54  N   UNL A   1      44.023  31.628  29.781  1.00  0.00    -0.354 N 
ATOM     55  N   UNL A   1      41.195  32.280  30.211  1.00  0.00    -0.248 NA
ATOM     56  C   UNL A   1      39.543  33.774  30.910  1.00  0.00     0.031 C 
ATOM     57  C   UNL A   1      45.539  33.202  30.174  1.00  0.00     0.029 A 
ATOM     58  C   UNL A   1      44.177  32.947  30.175  1.00  0.00     0.049 A 
ATOM     59  H   UNL A   1      43.160  31.161  29.700  1.00  0.00     0.167 HD
ATOM     60  C   UNL A   1      41.786  33.499  30.523  1.00  0.00     0.074 A 
ATOM     61  C   UNL A   1      40.713  34.396  30.900  1.00  0.00     0.031 C 
ATOM     62  C   UNL A   1      43.098  33.842  30.509  1.00  0.00     0.034 A 
BRANCH  49  63
ATOM     63  C   UNL A   1      46.887  29.216  28.926  1.00  0.00     0.023 A 
ATOM     64  C   UNL A   1      47.642  28.830  30.053  1.00  0.00     0.012 A 
ATOM     65  C   UNL A   1      47.453  29.093  27.642  1.00  0.00     0.148 A 
ATOM     66  C   UNL A   1      48.951  28.367  29.910  1.00  0.00     0.002 A 
ATOM     67  C   UNL A   1      48.738  28.583  27.503  1.00  0.00     0.091 A 
ATOM     68  F   UNL A   1      46.729  29.483  26.584  1.00  0.00    -0.205 F 
ATOM     69  C   UNL A   1      49.493  28.234  28.635  1.00  0.00     0.022 A 
BRANCH  67  70
ATOM     70  S   UNL A   1      49.498  28.291  25.902  1.00  0.00     0.127 S 
ATOM     71  O   UNL A   1      50.390  29.444  25.785  1.00  0.00    -0.237 OA
ATOM     72  O   UNL A   1      50.178  27.013  26.114  1.00  0.00    -0.237 OA
ATOM     73  O   UNL A   1      48.407  28.248  24.939  1.00  0.00    -0.744 OA
ENDBRANCH  67  70
ENDBRANCH  49  63
BRANCH  50  74
ATOM     74  C   UNL A   1      37.367  31.874  30.418  1.00  0.00     0.023 A 
ATOM     75  C   UNL A   1      36.858  31.835  31.731  1.00  0.00     0.012 A 
ATOM     76  C   UNL A   1      36.531  32.301  29.370  1.00  0.00     0.148 A 
ATOM     77  C   UNL A   1      35.530  32.174  31.990  1.00  0.00     0.002 A 
ATOM     78  C   UNL A   1      35.226  32.696  29.643  1.00  0.00     0.091 A 
ATOM     79  F   UNL A   1      37.032  32.325  28.127  1.00  0.00    -0.205 F 
ATOM     80  C   UNL A   1      34.717  32.613  30.948  1.00  0.00     0.022 A 
BRANCH  78  81
ATOM     81  S   UNL A   1      34.151  33.399  28.389  1.00  0.00     0.127 S 
ATOM     82  O   UNL A   1      33.636  32.202  27.731  1.00  0.00    -0.237 OA
ATOM     83  O   UNL A   1      33.176  34.125  29.204  1.00  0.00    -0.237 OA
ATOM     84  O   UNL A   1      35.004  34.253  27.573  1.00  0.00    -0.744 OA
ENDBRANCH  78  81
ENDBRANCH  50  74
BRANCH  62  85
ATOM     85  C   UNL A   1      43.445  35.266  30.861  1.00  0.00     0.023 A 
ATOM     86  C   UNL A   1      43.805  35.605  32.181  1.00  0.00     0.012 A 
ATOM     87  C   UNL A   1      43.447  36.264  29.867  1.00  0.00     0.148 A 
ATOM     88  C   UNL A   1      44.107  36.924  32.516  1.00  0.00     0.002 A 
ATOM     89  C   UNL A   1      43.805  37.566  30.197  1.00  0.00     0.091 A 
ATOM     90  F   UNL A   1      43.085  35.929  28.620  1.00  0.00    -0.205 F 
ATOM     91  C   UNL A   1      44.117  37.902  31.525  1.00  0.00     0.022 A 
BRANCH  89  92
ATOM     92  S   UNL A   1      43.945  38.864  28.964  1.00  0.00     0.127 S 
ATOM     93  O   UNL A   1      44.898  38.280  28.024  1.00  0.00    -0.237 OA
ATOM     94  O   UNL A   1      42.573  38.963  28.463  1.00  0.00    -0.237 OA
ATOM     95  O   UNL A   1      44.411  40.046  29.678  1.00  0.00    -0.744 OA
ENDBRANCH  89  92
ENDBRANCH  62  85
ENDBRANCH  36  37
ENDBRANCH  28  31
ENDBRANCH  26  27
ENDBRANCH   1  26
TORSDOF 16
ENDMDL
MODEL 3
REMARK VINA RESULT:     -12.2      2.945      8.025
REMARK SMILES C[C@@]1(CN2C(=O)c3ccc(C(=O)NCCCCNC(=O)c4ccc(-c5c6nc(c(-c7cccc(S(=O)(=O)[O-])c7F)c7ccc([nH]7)c(-c7cccc(S(=O)(=O)[O-])c7F)c7nc(c(-c8cccc(S(=O)(=O)[O-])c8F)c8ccc5[nH]8)C=C7)C=C6)cc4)cc3C2=O)CCCO1
REMARK SMILES IDX 16 1 15 2 14 3 13 4 11 5 12 6 10 8 4 9 5 10 86 11 6 12 7 13
REMARK SMILES IDX 85 14 87 15 8 16 84 17 9 18 3 19 2 20 1 21 88 22 91 23 89 24
REMARK SMILES IDX 90 25 17 26 18 27 19 28 20 30 21 31 22 32 83 33 23 34 82 35
REMARK SMILES IDX 24 36 25 37 26 38 76 39 27 40 81 41 75 42 77 43 28 44 80 45
REMARK SMILES IDX 74 46 73 47 29 49 61 50 41 51 60 52 42 53 45 54 59 55 78 56
REMARK SMILES IDX 43 57 44 58 58 60 79 61 46 62 30 63 31 64 39 65 32 66 34 67
REMARK SMILES IDX 40 68 33 69 35 70 36 71 37 72 38 73 62 74 63 75 71 76 64 77
REMARK SMILES IDX 66 78 72 79 65 80 67 81 68 82 69 83 70 84 47 85 48 86 56 87
REMARK SMILES IDX 49 88 51 89 57 90 50 91 52 92 53 93 54 94 55 95
REMARK H PARENT 13 7 18 29 77 48 45 59
REMARK Flexibility Score: inf
ROOT
ATOM      1  C   UNL A   1      35.968  22.842  25.516  1.00  0.00     0.023 C 
ENDROOT
BRANCH   1   2
ATOM      2  C   UNL A   1      35.541  21.486  26.082  1.00  0.00     0.023 C 
BRANCH   2   3
ATOM      3  C   UNL A   1      35.497  20.358  25.046  1.00  0.00     0.116 C 
BRANCH   3   4
ATOM      4  N   UNL A   1      34.273  19.593  25.173  1.00  0.00    -0.352 N 
ATOM      5  C   UNL A   1      32.957  19.902  24.951  1.00  0.00     0.251 C 
ATOM      6  O   UNL A   1      32.130  19.004  25.114  1.00  0.00    -0.269 OA
ATOM      7  H   UNL A   1      34.415  18.669  25.480  1.00  0.00     0.163 HD
BRANCH   5   8
ATOM      8  C   UNL A   1      32.468  21.243  24.506  1.00  0.00     0.040 A 
ATOM      9  N   UNL A   1      30.955  25.561  25.055  1.00  0.00    -0.271 N 
ATOM     10  C   UNL A   1      31.180  25.173  23.768  1.00  0.00     0.261 C 
ATOM     11  C   UNL A   1      31.304  24.583  25.951  1.00  0.00     0.261 C 
ATOM     12  O   UNL A   1      31.080  25.812  22.736  1.00  0.00    -0.269 OA
ATOM     13  C   UNL A   1      31.612  23.787  23.824  1.00  0.00     0.053 A 
ATOM     14  C   UNL A   1      31.705  23.421  25.153  1.00  0.00     0.054 A 
ATOM     15  O   UNL A   1      31.342  24.628  27.163  1.00  0.00    -0.269 OA
ATOM     16  C   UNL A   1      31.928  22.928  22.799  1.00  0.00     0.015 A 
ATOM     17  C   UNL A   1      32.131  22.160  25.525  1.00  0.00     0.028 A 
ATOM     18  C   UNL A   1      32.381  21.655  23.156  1.00  0.00     0.015 A 
BRANCH   9  19
ATOM     19  C   UNL A   1      30.446  26.873  25.415  1.00  0.00     0.164 C 
BRANCH  19  20
ATOM     20  C   UNL A   1      31.551  27.856  25.899  1.00  0.00     0.084 C 
ATOM     21  C   UNL A   1      31.551  28.071  27.412  1.00  0.00     0.044 C 
ATOM     22  C   UNL A   1      31.434  29.197  25.170  1.00  0.00     0.039 C 
ATOM     23  O   UNL A   1      32.843  27.334  25.524  1.00  0.00    -0.373 OA
ATOM     24  C   UNL A   1      32.217  28.960  23.903  1.00  0.00     0.031 C 
ATOM     25  C   UNL A   1      33.321  28.033  24.367  1.00  0.00     0.161 C 
ENDBRANCH  19  20
ENDBRANCH   9  19
ENDBRANCH   5   8
ENDBRANCH   3   4
ENDBRANCH   2   3
ENDBRANCH   1   2
BRANCH   1  26
ATOM     26  C   UNL A   1      37.334  23.327  25.987  1.00  0.00     0.116 C 
BRANCH  26  27
ATOM     27  N   UNL A   1      38.311  22.255  26.110  1.00  0.00    -0.352 N 
ATOM     28  C   UNL A   1      39.631  22.344  26.476  1.00  0.00     0.251 C 
ATOM     29  H   UNL A   1      37.983  21.350  25.906  1.00  0.00     0.163 HD
ATOM     30  O   UNL A   1      40.357  21.357  26.408  1.00  0.00    -0.269 OA
BRANCH  28  31
ATOM     31  C   UNL A   1      40.172  23.647  26.914  1.00  0.00     0.039 A 
ATOM     32  C   UNL A   1      40.018  24.752  26.077  1.00  0.00     0.014 A 
ATOM     33  C   UNL A   1      40.795  23.781  28.158  1.00  0.00     0.014 A 
ATOM     34  C   UNL A   1      40.448  26.006  26.513  1.00  0.00     0.010 A 
ATOM     35  C   UNL A   1      41.138  25.045  28.625  1.00  0.00     0.010 A 
ATOM     36  C   UNL A   1      40.984  26.168  27.802  1.00  0.00    -0.014 A 
BRANCH  36  37
ATOM     37  C   UNL A   1      41.377  27.514  28.291  1.00  0.00     0.031 A 
ATOM     38  C   UNL A   1      42.820  27.941  28.282  1.00  0.00     0.074 A 
ATOM     39  C   UNL A   1      40.432  28.339  28.783  1.00  0.00     0.049 A 
ATOM     40  N   UNL A   1      43.338  29.093  28.624  1.00  0.00    -0.248 NA
ATOM     41  C   UNL A   1      43.815  26.942  27.859  1.00  0.00     0.031 C 
ATOM     42  C   UNL A   1      39.013  28.005  28.934  1.00  0.00     0.029 A 
ATOM     43  N   UNL A   1      40.521  29.623  29.255  1.00  0.00    -0.354 N 
ATOM     44  C   UNL A   1      44.713  28.949  28.483  1.00  0.00     0.074 A 
ATOM     45  C   UNL A   1      44.954  27.585  28.069  1.00  0.00     0.031 C 
ATOM     46  C   UNL A   1      38.361  29.066  29.434  1.00  0.00     0.029 A 
ATOM     47  C   UNL A   1      39.316  30.144  29.667  1.00  0.00     0.049 A 
ATOM     48  H   UNL A   1      41.366  30.126  29.293  1.00  0.00     0.167 HD
ATOM     49  C   UNL A   1      45.685  29.876  28.648  1.00  0.00     0.034 A 
ATOM     50  C   UNL A   1      39.015  31.356  30.173  1.00  0.00     0.034 A 
ATOM     51  C   UNL A   1      45.437  31.239  29.036  1.00  0.00     0.049 A 
ATOM     52  C   UNL A   1      40.107  32.381  30.305  1.00  0.00     0.074 A 
ATOM     53  C   UNL A   1      46.343  32.279  29.156  1.00  0.00     0.029 A 
ATOM     54  N   UNL A   1      44.197  31.750  29.381  1.00  0.00    -0.354 N 
ATOM     55  N   UNL A   1      41.380  32.274  30.012  1.00  0.00    -0.248 NA
ATOM     56  C   UNL A   1      39.711  33.707  30.797  1.00  0.00     0.031 C 
ATOM     57  C   UNL A   1      45.655  33.409  29.612  1.00  0.00     0.029 A 
ATOM     58  C   UNL A   1      44.312  33.087  29.725  1.00  0.00     0.049 A 
ATOM     59  H   UNL A   1      43.356  31.239  29.381  1.00  0.00     0.167 HD
ATOM     60  C   UNL A   1      41.930  33.530  30.243  1.00  0.00     0.074 A 
ATOM     61  C   UNL A   1      40.843  34.385  30.678  1.00  0.00     0.031 C 
ATOM     62  C   UNL A   1      43.217  33.937  30.118  1.00  0.00     0.034 A 
BRANCH  49  63
ATOM     63  C   UNL A   1      47.108  29.456  28.373  1.00  0.00     0.023 A 
ATOM     64  C   UNL A   1      47.649  29.622  27.080  1.00  0.00     0.012 A 
ATOM     65  C   UNL A   1      47.924  28.947  29.401  1.00  0.00     0.148 A 
ATOM     66  C   UNL A   1      48.966  29.251  26.806  1.00  0.00     0.002 A 
ATOM     67  C   UNL A   1      49.250  28.629  29.133  1.00  0.00     0.091 A 
ATOM     68  F   UNL A   1      47.388  28.778  30.618  1.00  0.00    -0.205 F 
ATOM     69  C   UNL A   1      49.767  28.766  27.835  1.00  0.00     0.022 A 
BRANCH  67  70
ATOM     70  S   UNL A   1      50.391  28.076  30.405  1.00  0.00     0.127 S 
ATOM     71  O   UNL A   1      49.791  26.804  30.806  1.00  0.00    -0.237 OA
ATOM     72  O   UNL A   1      51.643  27.952  29.659  1.00  0.00    -0.237 OA
ATOM     73  O   UNL A   1      50.391  29.114  31.426  1.00  0.00    -0.744 OA
ENDBRANCH  67  70
ENDBRANCH  49  63
BRANCH  50  74
ATOM     74  C   UNL A   1      37.605  31.687  30.528  1.00  0.00     0.023 A 
ATOM     75  C   UNL A   1      37.108  31.349  31.803  1.00  0.00     0.012 A 
ATOM     76  C   UNL A   1      36.763  32.349  29.616  1.00  0.00     0.148 A 
ATOM     77  C   UNL A   1      35.785  31.626  32.147  1.00  0.00     0.002 A 
ATOM     78  C   UNL A   1      35.464  32.677  29.986  1.00  0.00     0.091 A 
ATOM     79  F   UNL A   1      37.253  32.656  28.407  1.00  0.00    -0.205 F 
ATOM     80  C   UNL A   1      34.966  32.297  31.243  1.00  0.00     0.022 A 
BRANCH  78  81
ATOM     81  S   UNL A   1      34.382  33.656  28.939  1.00  0.00     0.127 S 
ATOM     82  O   UNL A   1      35.270  34.737  28.520  1.00  0.00    -0.237 OA
ATOM     83  O   UNL A   1      34.036  32.697  27.888  1.00  0.00    -0.237 OA
ATOM     84  O   UNL A   1      33.264  34.047  29.786  1.00  0.00    -0.744 OA
ENDBRANCH  78  81
ENDBRANCH  50  74
BRANCH  62  85
ATOM     85  C   UNL A   1      43.516  35.387  30.402  1.00  0.00     0.023 A 
ATOM     86  C   UNL A   1      44.009  35.778  31.663  1.00  0.00     0.012 A 
ATOM     87  C   UNL A   1      43.339  36.360  29.399  1.00  0.00     0.148 A 
ATOM     88  C   UNL A   1      44.267  37.120  31.938  1.00  0.00     0.002 A 
ATOM     89  C   UNL A   1      43.654  37.688  29.662  1.00  0.00     0.091 A 
ATOM     90  F   UNL A   1      42.852  35.975  28.210  1.00  0.00    -0.205 F 
ATOM     91  C   UNL A   1      44.100  38.073  30.936  1.00  0.00     0.022 A 
BRANCH  89  92
ATOM     92  S   UNL A   1      43.566  38.963  28.400  1.00  0.00     0.127 S 
ATOM     93  O   UNL A   1      44.043  40.136  29.128  1.00  0.00    -0.237 OA
ATOM     94  O   UNL A   1      44.490  38.457  27.384  1.00  0.00    -0.237 OA
ATOM     95  O   UNL A   1      42.173  39.011  27.976  1.00  0.00    -0.744 OA
ENDBRANCH  89  92
ENDBRANCH  62  85
ENDBRANCH  36  37
ENDBRANCH  28  31
ENDBRANCH  26  27
ENDBRANCH   1  26
TORSDOF 16
ENDMDL
