MODEL 1
REMARK VINA RESULT:     -13.3      0.000      0.000
REMARK SMILES CC(=O)Nc1ccc(/C=N/c2ccccc2C(=O)NCCCCNC(=O)c2ccc(-c3c4nc(c(-c5cccc(S(=O)(=O)[O-])c5F)c5ccc([nH]5)c(-c5cccc(S(=O)(=O)[O-])c5F)c5nc(c(-c6cccc(S(=O)(=O)[O-])c6F)c6ccc3[nH]6)C=C5)C=C4)cc2)cc1
REMARK SMILES IDX 21 1 20 2 19 3 17 4 18 5 16 7 11 8 12 9 13 10 15 11 14 12
REMARK SMILES IDX 10 13 9 14 8 15 5 16 6 17 91 18 7 19 90 20 4 21 1 22 2 23
REMARK SMILES IDX 3 24 22 26 23 27 24 28 25 29 26 31 27 32 28 33 89 34 29 35
REMARK SMILES IDX 88 36 30 37 31 38 32 39 82 40 33 41 87 42 81 43 83 44 34 45
REMARK SMILES IDX 86 46 80 47 79 48 35 50 67 51 47 52 66 53 48 54 51 55 65 56
REMARK SMILES IDX 84 57 49 58 50 59 64 61 85 62 52 63 36 64 37 65 45 66 38 67
REMARK SMILES IDX 40 68 46 69 39 70 41 71 42 72 43 73 44 74 68 75 69 76 77 77
REMARK SMILES IDX 70 78 72 79 78 80 71 81 73 82 74 83 75 84 76 85 53 86 54 87
REMARK SMILES IDX 62 88 55 89 57 90 63 91 56 92 58 93 59 94 60 95 61 96
REMARK H PARENT 19 6 4 25 24 30 83 49 51 60
REMARK Flexibility Score: inf
ROOT
ATOM      1  C   UNL A   1      32.148  27.976  27.242  1.00  0.00     0.023 C 
ENDROOT
BRANCH   1   2
ATOM      2  C   UNL A   1      32.229  26.616  26.563  1.00  0.00     0.116 C 
BRANCH   2   3
ATOM      3  N   UNL A   1      31.167  25.694  26.903  1.00  0.00    -0.352 N 
ATOM      4  C   UNL A   1      30.841  24.485  26.336  1.00  0.00     0.253 C 
ATOM      5  O   UNL A   1      29.952  23.819  26.871  1.00  0.00    -0.269 OA
ATOM      6  H   UNL A   1      30.592  25.974  27.651  1.00  0.00     0.163 HD
BRANCH   4   7
ATOM      7  C   UNL A   1      31.432  23.967  25.069  1.00  0.00     0.065 A 
ATOM      8  C   UNL A   1      31.620  24.681  23.870  1.00  0.00     0.076 A 
ATOM      9  C   UNL A   1      32.187  24.012  22.770  1.00  0.00     0.029 A 
ATOM     10  C   UNL A   1      32.610  22.684  22.855  1.00  0.00     0.002 A 
ATOM     11  C   UNL A   1      31.891  22.634  25.149  1.00  0.00     0.016 A 
ATOM     12  C   UNL A   1      32.472  21.996  24.051  1.00  0.00     0.001 A 
BRANCH   8  13
ATOM     13  N   UNL A   1      31.201  25.997  23.620  1.00  0.00    -0.255 NA
ATOM     14  C   UNL A   1      29.935  26.257  23.560  1.00  0.00     0.119 C 
BRANCH  14  15
ATOM     15  C   UNL A   1      29.480  27.605  23.155  1.00  0.00    -0.007 A 
ATOM     16  C   UNL A   1      28.501  30.029  22.110  1.00  0.00     0.041 A 
ATOM     17  C   UNL A   1      29.857  29.684  21.987  1.00  0.00     0.027 A 
ATOM     18  C   UNL A   1      27.649  29.143  22.769  1.00  0.00     0.027 A 
ATOM     19  C   UNL A   1      30.348  28.484  22.505  1.00  0.00     0.012 A 
ATOM     20  C   UNL A   1      28.134  27.936  23.295  1.00  0.00     0.012 A 
BRANCH  16  21
ATOM     21  N   UNL A   1      28.109  31.216  21.467  1.00  0.00    -0.326 N 
ATOM     22  C   UNL A   1      28.857  33.018  23.023  1.00  0.00     0.114 C 
ATOM     23  C   UNL A   1      28.154  32.539  21.791  1.00  0.00     0.221 C 
ATOM     24  O   UNL A   1      27.626  33.349  21.025  1.00  0.00    -0.275 OA
ATOM     25  H   UNL A   1      27.710  31.056  20.582  1.00  0.00     0.169 HD
ENDBRANCH  16  21
ENDBRANCH  14  15
ENDBRANCH   8  13
ENDBRANCH   4   7
ENDBRANCH   2   3
ENDBRANCH   1   2
BRANCH   1  26
ATOM     26  C   UNL A   1      31.575  29.127  26.410  1.00  0.00     0.023 C 
BRANCH  26  27
ATOM     27  C   UNL A   1      32.564  30.158  25.863  1.00  0.00     0.116 C 
BRANCH  27  28
ATOM     28  N   UNL A   1      32.498  31.445  26.535  1.00  0.00    -0.352 N 
ATOM     29  C   UNL A   1      33.360  32.052  27.417  1.00  0.00     0.251 C 
ATOM     30  H   UNL A   1      31.696  31.975  26.320  1.00  0.00     0.163 HD
ATOM     31  O   UNL A   1      33.006  33.115  27.934  1.00  0.00    -0.269 OA
BRANCH  29  32
ATOM     32  C   UNL A   1      34.682  31.469  27.771  1.00  0.00     0.039 A 
ATOM     33  C   UNL A   1      35.751  32.353  27.961  1.00  0.00     0.014 A 
ATOM     34  C   UNL A   1      34.905  30.096  27.906  1.00  0.00     0.014 A 
ATOM     35  C   UNL A   1      36.984  31.880  28.417  1.00  0.00     0.010 A 
ATOM     36  C   UNL A   1      36.109  29.628  28.437  1.00  0.00     0.010 A 
ATOM     37  C   UNL A   1      37.139  30.525  28.746  1.00  0.00    -0.014 A 
BRANCH  37  38
ATOM     38  C   UNL A   1      38.281  30.089  29.591  1.00  0.00     0.031 A 
ATOM     39  C   UNL A   1      38.487  30.610  30.983  1.00  0.00     0.074 A 
ATOM     40  C   UNL A   1      39.197  29.274  29.024  1.00  0.00     0.049 A 
ATOM     41  N   UNL A   1      39.445  30.327  31.829  1.00  0.00    -0.248 NA
ATOM     42  C   UNL A   1      37.513  31.590  31.486  1.00  0.00     0.031 C 
ATOM     43  C   UNL A   1      39.153  28.797  27.636  1.00  0.00     0.029 A 
ATOM     44  N   UNL A   1      40.346  28.716  29.521  1.00  0.00    -0.354 N 
ATOM     45  C   UNL A   1      39.201  31.100  32.958  1.00  0.00     0.074 A 
ATOM     46  C   UNL A   1      38.022  31.891  32.675  1.00  0.00     0.031 C 
ATOM     47  C   UNL A   1      40.212  28.008  27.401  1.00  0.00     0.029 A 
ATOM     48  C   UNL A   1      41.029  27.948  28.605  1.00  0.00     0.049 A 
ATOM     49  H   UNL A   1      40.655  28.853  30.447  1.00  0.00     0.167 HD
ATOM     50  C   UNL A   1      39.883  31.121  34.128  1.00  0.00     0.034 A 
ATOM     51  C   UNL A   1      42.188  27.272  28.718  1.00  0.00     0.034 A 
ATOM     52  C   UNL A   1      41.044  30.312  34.396  1.00  0.00     0.049 A 
ATOM     53  C   UNL A   1      42.892  27.279  30.045  1.00  0.00     0.074 A 
ATOM     54  C   UNL A   1      41.770  30.207  35.570  1.00  0.00     0.029 A 
ATOM     55  N   UNL A   1      41.653  29.470  33.476  1.00  0.00    -0.354 N 
ATOM     56  N   UNL A   1      42.550  27.890  31.154  1.00  0.00    -0.248 NA
ATOM     57  C   UNL A   1      44.116  26.475  30.151  1.00  0.00     0.031 C 
ATOM     58  C   UNL A   1      42.829  29.320  35.353  1.00  0.00     0.029 A 
ATOM     59  C   UNL A   1      42.747  28.848  34.053  1.00  0.00     0.049 A 
ATOM     60  H   UNL A   1      41.352  29.336  32.548  1.00  0.00     0.167 HD
ATOM     61  C   UNL A   1      43.494  27.513  32.100  1.00  0.00     0.074 A 
ATOM     62  C   UNL A   1      44.406  26.601  31.439  1.00  0.00     0.031 C 
ATOM     63  C   UNL A   1      43.609  27.902  33.392  1.00  0.00     0.034 A 
BRANCH  50  64
ATOM     64  C   UNL A   1      39.361  31.998  35.239  1.00  0.00     0.023 A 
ATOM     65  C   UNL A   1      38.434  31.466  36.158  1.00  0.00     0.012 A 
ATOM     66  C   UNL A   1      39.851  33.306  35.435  1.00  0.00     0.148 A 
ATOM     67  C   UNL A   1      37.983  32.225  37.238  1.00  0.00     0.002 A 
ATOM     68  C   UNL A   1      39.428  34.042  36.536  1.00  0.00     0.091 A 
ATOM     69  F   UNL A   1      40.724  33.800  34.545  1.00  0.00    -0.205 F 
ATOM     70  C   UNL A   1      38.487  33.508  37.431  1.00  0.00     0.022 A 
BRANCH  68  71
ATOM     71  S   UNL A   1      40.064  35.677  36.924  1.00  0.00     0.127 S 
ATOM     72  O   UNL A   1      39.414  35.952  38.203  1.00  0.00    -0.237 OA
ATOM     73  O   UNL A   1      41.503  35.435  37.009  1.00  0.00    -0.237 OA
ATOM     74  O   UNL A   1      39.653  36.543  35.823  1.00  0.00    -0.744 OA
ENDBRANCH  68  71
ENDBRANCH  50  64
BRANCH  51  75
ATOM     75  C   UNL A   1      42.716  26.484  27.568  1.00  0.00     0.023 A 
ATOM     76  C   UNL A   1      43.676  27.059  26.712  1.00  0.00     0.012 A 
ATOM     77  C   UNL A   1      42.286  25.165  27.324  1.00  0.00     0.148 A 
ATOM     78  C   UNL A   1      44.162  26.355  25.610  1.00  0.00     0.002 A 
ATOM     79  C   UNL A   1      42.819  24.447  26.258  1.00  0.00     0.091 A 
ATOM     80  F   UNL A   1      41.366  24.632  28.141  1.00  0.00    -0.205 F 
ATOM     81  C   UNL A   1      43.740  25.048  25.388  1.00  0.00     0.022 A 
BRANCH  79  82
ATOM     82  S   UNL A   1      42.431  22.715  25.987  1.00  0.00     0.127 S 
ATOM     83  O   UNL A   1      43.030  22.475  24.676  1.00  0.00    -0.237 OA
ATOM     84  O   UNL A   1      43.119  22.067  27.105  1.00  0.00    -0.237 OA
ATOM     85  O   UNL A   1      40.979  22.627  26.052  1.00  0.00    -0.744 OA
ENDBRANCH  79  82
ENDBRANCH  51  75
BRANCH  63  86
ATOM     86  C   UNL A   1      44.738  27.308  34.192  1.00  0.00     0.023 A 
ATOM     87  C   UNL A   1      46.018  27.893  34.143  1.00  0.00     0.012 A 
ATOM     88  C   UNL A   1      44.512  26.203  35.036  1.00  0.00     0.148 A 
ATOM     89  C   UNL A   1      47.067  27.366  34.895  1.00  0.00     0.002 A 
ATOM     90  C   UNL A   1      45.548  25.715  35.822  1.00  0.00     0.091 A 
ATOM     91  F   UNL A   1      43.291  25.647  35.051  1.00  0.00    -0.205 F 
ATOM     92  C   UNL A   1      46.829  26.286  35.741  1.00  0.00     0.022 A 
BRANCH  90  93
ATOM     93  S   UNL A   1      45.313  24.393  37.013  1.00  0.00     0.127 S 
ATOM     94  O   UNL A   1      45.112  23.237  36.141  1.00  0.00    -0.237 OA
ATOM     95  O   UNL A   1      46.585  24.399  37.736  1.00  0.00    -0.237 OA
ATOM     96  O   UNL A   1      44.159  24.776  37.817  1.00  0.00    -0.744 OA
ENDBRANCH  90  93
ENDBRANCH  63  86
ENDBRANCH  37  38
ENDBRANCH  29  32
ENDBRANCH  27  28
ENDBRANCH  26  27
ENDBRANCH   1  26
TORSDOF 17
ENDMDL
MODEL 2
REMARK VINA RESULT:     -12.3      1.459      7.657
REMARK SMILES CC(=O)Nc1ccc(/C=N/c2ccccc2C(=O)NCCCCNC(=O)c2ccc(-c3c4nc(c(-c5cccc(S(=O)(=O)[O-])c5F)c5ccc([nH]5)c(-c5cccc(S(=O)(=O)[O-])c5F)c5nc(c(-c6cccc(S(=O)(=O)[O-])c6F)c6ccc3[nH]6)C=C5)C=C4)cc2)cc1
REMARK SMILES IDX 21 1 20 2 19 3 17 4 18 5 16 7 11 8 12 9 13 10 15 11 14 12
REMARK SMILES IDX 10 13 9 14 8 15 5 16 6 17 91 18 7 19 90 20 4 21 1 22 2 23
REMARK SMILES IDX 3 24 22 26 23 27 24 28 25 29 26 31 27 32 28 33 89 34 29 35
REMARK SMILES IDX 88 36 30 37 31 38 32 39 82 40 33 41 87 42 81 43 83 44 34 45
REMARK SMILES IDX 86 46 80 47 79 48 35 50 67 51 47 52 66 53 48 54 51 55 65 56
REMARK SMILES IDX 84 57 49 58 50 59 64 61 85 62 52 63 36 64 37 65 45 66 38 67
REMARK SMILES IDX 40 68 46 69 39 70 41 71 42 72 43 73 44 74 68 75 69 76 77 77
REMARK SMILES IDX 70 78 72 79 78 80 71 81 73 82 74 83 75 84 76 85 53 86 54 87
REMARK SMILES IDX 62 88 55 89 57 90 63 91 56 92 58 93 59 94 60 95 61 96
REMARK H PARENT 19 6 4 25 24 30 83 49 51 60
REMARK Flexibility Score: inf
ROOT
ATOM      1  C   UNL A   1      31.529  27.889  27.020  1.00  0.00     0.023 C 
ENDROOT
BRANCH   1   2
ATOM      2  C   UNL A   1      32.069  26.515  26.647  1.00  0.00     0.116 C 
BRANCH   2   3
ATOM      3  N   UNL A   1      31.120  25.430  26.758  1.00  0.00    -0.352 N 
ATOM      4  C   UNL A   1      31.064  24.239  26.072  1.00  0.00     0.253 C 
ATOM      5  O   UNL A   1      30.216  23.414  26.419  1.00  0.00    -0.269 OA
ATOM      6  H   UNL A   1      30.406  25.563  27.423  1.00  0.00     0.163 HD
BRANCH   4   7
ATOM      7  C   UNL A   1      31.903  23.919  24.882  1.00  0.00     0.065 A 
ATOM      8  C   UNL A   1      32.211  24.777  23.808  1.00  0.00     0.076 A 
ATOM      9  C   UNL A   1      33.014  24.284  22.763  1.00  0.00     0.029 A 
ATOM     10  C   UNL A   1      33.550  22.996  22.791  1.00  0.00     0.002 A 
ATOM     11  C   UNL A   1      32.476  22.628  24.911  1.00  0.00     0.016 A 
ATOM     12  C   UNL A   1      33.290  22.168  23.874  1.00  0.00     0.001 A 
BRANCH   8  13
ATOM     13  N   UNL A   1      31.708  26.073  23.617  1.00  0.00    -0.255 NA
ATOM     14  C   UNL A   1      30.452  26.229  23.345  1.00  0.00     0.119 C 
BRANCH  14  15
ATOM     15  C   UNL A   1      29.938  27.572  22.999  1.00  0.00    -0.007 A 
ATOM     16  C   UNL A   1      28.832  29.990  22.072  1.00  0.00     0.041 A 
ATOM     17  C   UNL A   1      30.186  29.684  21.856  1.00  0.00     0.027 A 
ATOM     18  C   UNL A   1      28.047  29.067  22.764  1.00  0.00     0.027 A 
ATOM     19  C   UNL A   1      30.740  28.488  22.315  1.00  0.00     0.012 A 
ATOM     20  C   UNL A   1      28.595  27.864  23.231  1.00  0.00     0.012 A 
BRANCH  16  21
ATOM     21  N   UNL A   1      28.369  31.179  21.482  1.00  0.00    -0.326 N 
ATOM     22  C   UNL A   1      28.757  32.911  23.236  1.00  0.00     0.114 C 
ATOM     23  C   UNL A   1      28.233  32.466  21.906  1.00  0.00     0.221 C 
ATOM     24  O   UNL A   1      27.690  33.278  21.152  1.00  0.00    -0.275 OA
ATOM     25  H   UNL A   1      28.076  31.053  20.551  1.00  0.00     0.169 HD
ENDBRANCH  16  21
ENDBRANCH  14  15
ENDBRANCH   8  13
ENDBRANCH   4   7
ENDBRANCH   2   3
ENDBRANCH   1   2
BRANCH   1  26
ATOM     26  C   UNL A   1      31.863  29.041  26.068  1.00  0.00     0.023 C 
BRANCH  26  27
ATOM     27  C   UNL A   1      33.215  29.732  26.249  1.00  0.00     0.116 C 
BRANCH  27  28
ATOM     28  N   UNL A   1      33.121  31.059  26.833  1.00  0.00    -0.352 N 
ATOM     29  C   UNL A   1      33.957  31.734  27.691  1.00  0.00     0.251 C 
ATOM     30  H   UNL A   1      32.317  31.563  26.568  1.00  0.00     0.163 HD
ATOM     31  O   UNL A   1      33.581  32.824  28.130  1.00  0.00    -0.269 OA
BRANCH  29  32
ATOM     32  C   UNL A   1      35.278  31.192  28.109  1.00  0.00     0.039 A 
ATOM     33  C   UNL A   1      36.341  32.096  28.229  1.00  0.00     0.014 A 
ATOM     34  C   UNL A   1      35.507  29.838  28.368  1.00  0.00     0.014 A 
ATOM     35  C   UNL A   1      37.571  31.673  28.738  1.00  0.00     0.010 A 
ATOM     36  C   UNL A   1      36.707  29.426  28.951  1.00  0.00     0.010 A 
ATOM     37  C   UNL A   1      37.730  30.353  29.189  1.00  0.00    -0.014 A 
BRANCH  37  38
ATOM     38  C   UNL A   1      38.865  30.001  30.080  1.00  0.00     0.031 A 
ATOM     39  C   UNL A   1      39.893  28.978  29.694  1.00  0.00     0.074 A 
ATOM     40  C   UNL A   1      38.890  30.565  31.307  1.00  0.00     0.049 A 
ATOM     41  N   UNL A   1      40.929  28.562  30.376  1.00  0.00    -0.248 NA
ATOM     42  C   UNL A   1      39.729  28.317  28.390  1.00  0.00     0.031 C 
ATOM     43  C   UNL A   1      37.875  31.489  31.828  1.00  0.00     0.029 A 
ATOM     44  N   UNL A   1      39.776  30.439  32.346  1.00  0.00    -0.354 N 
ATOM     45  C   UNL A   1      41.535  27.584  29.596  1.00  0.00     0.074 A 
ATOM     46  C   UNL A   1      40.729  27.443  28.402  1.00  0.00     0.031 C 
ATOM     47  C   UNL A   1      38.205  31.857  33.074  1.00  0.00     0.029 A 
ATOM     48  C   UNL A   1      39.431  31.173  33.458  1.00  0.00     0.049 A 
ATOM     49  H   UNL A   1      40.582  29.874  32.300  1.00  0.00     0.167 HD
ATOM     50  C   UNL A   1      42.673  26.892  29.845  1.00  0.00     0.034 A 
ATOM     51  C   UNL A   1      40.034  31.283  34.656  1.00  0.00     0.034 A 
ATOM     52  C   UNL A   1      43.471  27.060  31.032  1.00  0.00     0.049 A 
ATOM     53  C   UNL A   1      41.320  30.540  34.880  1.00  0.00     0.074 A 
ATOM     54  C   UNL A   1      44.676  26.460  31.353  1.00  0.00     0.029 A 
ATOM     55  N   UNL A   1      43.144  27.887  32.097  1.00  0.00    -0.354 N 
ATOM     56  N   UNL A   1      41.963  29.745  34.060  1.00  0.00    -0.248 NA
ATOM     57  C   UNL A   1      41.985  30.738  36.174  1.00  0.00     0.031 C 
ATOM     58  C   UNL A   1      45.065  26.906  32.620  1.00  0.00     0.029 A 
ATOM     59  C   UNL A   1      44.120  27.808  33.077  1.00  0.00     0.049 A 
ATOM     60  H   UNL A   1      42.336  28.446  32.150  1.00  0.00     0.167 HD
ATOM     61  C   UNL A   1      43.127  29.378  34.722  1.00  0.00     0.074 A 
ATOM     62  C   UNL A   1      43.111  30.060  36.002  1.00  0.00     0.031 C 
ATOM     63  C   UNL A   1      44.110  28.538  34.319  1.00  0.00     0.034 A 
BRANCH  50  64
ATOM     64  C   UNL A   1      43.168  25.935  28.790  1.00  0.00     0.023 A 
ATOM     65  C   UNL A   1      42.592  24.651  28.700  1.00  0.00     0.012 A 
ATOM     66  C   UNL A   1      44.127  26.327  27.833  1.00  0.00     0.148 A 
ATOM     67  C   UNL A   1      42.976  23.765  27.694  1.00  0.00     0.002 A 
ATOM     68  C   UNL A   1      44.475  25.453  26.808  1.00  0.00     0.091 A 
ATOM     69  F   UNL A   1      44.673  27.547  27.939  1.00  0.00    -0.205 F 
ATOM     70  C   UNL A   1      43.909  24.170  26.744  1.00  0.00     0.022 A 
BRANCH  68  71
ATOM     71  S   UNL A   1      45.612  25.894  25.489  1.00  0.00     0.127 S 
ATOM     72  O   UNL A   1      46.878  25.997  26.211  1.00  0.00    -0.237 OA
ATOM     73  O   UNL A   1      45.509  24.742  24.596  1.00  0.00    -0.237 OA
ATOM     74  O   UNL A   1      45.115  27.148  24.930  1.00  0.00    -0.744 OA
ENDBRANCH  68  71
ENDBRANCH  50  64
BRANCH  51  75
ATOM     75  C   UNL A   1      39.466  32.177  35.706  1.00  0.00     0.023 A 
ATOM     76  C   UNL A   1      38.480  31.683  36.582  1.00  0.00     0.012 A 
ATOM     77  C   UNL A   1      39.906  33.507  35.853  1.00  0.00     0.148 A 
ATOM     78  C   UNL A   1      37.909  32.507  37.552  1.00  0.00     0.002 A 
ATOM     79  C   UNL A   1      39.375  34.307  36.860  1.00  0.00     0.091 A 
ATOM     80  F   UNL A   1      40.839  33.968  35.008  1.00  0.00    -0.205 F 
ATOM     81  C   UNL A   1      38.362  33.815  37.697  1.00  0.00     0.022 A 
BRANCH  79  82
ATOM     82  S   UNL A   1      40.003  35.955  37.199  1.00  0.00     0.127 S 
ATOM     83  O   UNL A   1      39.224  36.336  38.376  1.00  0.00    -0.237 OA
ATOM     84  O   UNL A   1      41.420  35.697  37.457  1.00  0.00    -0.237 OA
ATOM     85  O   UNL A   1      39.748  36.723  35.989  1.00  0.00    -0.744 OA
ENDBRANCH  79  82
ENDBRANCH  51  75
BRANCH  63  86
ATOM     86  C   UNL A   1      45.274  28.341  35.253  1.00  0.00     0.023 A 
ATOM     87  C   UNL A   1      46.391  29.196  35.174  1.00  0.00     0.012 A 
ATOM     88  C   UNL A   1      45.233  27.345  36.248  1.00  0.00     0.148 A 
ATOM     89  C   UNL A   1      47.467  29.038  36.046  1.00  0.00     0.002 A 
ATOM     90  C   UNL A   1      46.284  27.227  37.148  1.00  0.00     0.091 A 
ATOM     91  F   UNL A   1      44.169  26.528  36.292  1.00  0.00    -0.205 F 
ATOM     92  C   UNL A   1      47.408  28.063  37.039  1.00  0.00     0.022 A 
BRANCH  90  93
ATOM     93  S   UNL A   1      46.253  26.068  38.518  1.00  0.00     0.127 S 
ATOM     94  O   UNL A   1      47.555  26.305  39.139  1.00  0.00    -0.237 OA
ATOM     95  O   UNL A   1      45.110  26.543  39.298  1.00  0.00    -0.237 OA
ATOM     96  O   UNL A   1      46.076  24.748  37.925  1.00  0.00    -0.744 OA
ENDBRANCH  90  93
ENDBRANCH  63  86
ENDBRANCH  37  38
ENDBRANCH  29  32
ENDBRANCH  27  28
ENDBRANCH  26  27
ENDBRANCH   1  26
TORSDOF 17
ENDMDL
MODEL 3
REMARK VINA RESULT:     -12.0      1.695      7.705
REMARK SMILES CC(=O)Nc1ccc(/C=N/c2ccccc2C(=O)NCCCCNC(=O)c2ccc(-c3c4nc(c(-c5cccc(S(=O)(=O)[O-])c5F)c5ccc([nH]5)c(-c5cccc(S(=O)(=O)[O-])c5F)c5nc(c(-c6cccc(S(=O)(=O)[O-])c6F)c6ccc3[nH]6)C=C5)C=C4)cc2)cc1
REMARK SMILES IDX 21 1 20 2 19 3 17 4 18 5 16 7 11 8 12 9 13 10 15 11 14 12
REMARK SMILES IDX 10 13 9 14 8 15 5 16 6 17 91 18 7 19 90 20 4 21 1 22 2 23
REMARK SMILES IDX 3 24 22 26 23 27 24 28 25 29 26 31 27 32 28 33 89 34 29 35
REMARK SMILES IDX 88 36 30 37 31 38 32 39 82 40 33 41 87 42 81 43 83 44 34 45
REMARK SMILES IDX 86 46 80 47 79 48 35 50 67 51 47 52 66 53 48 54 51 55 65 56
REMARK SMILES IDX 84 57 49 58 50 59 64 61 85 62 52 63 36 64 37 65 45 66 38 67
REMARK SMILES IDX 40 68 46 69 39 70 41 71 42 72 43 73 44 74 68 75 69 76 77 77
REMARK SMILES IDX 70 78 72 79 78 80 71 81 73 82 74 83 75 84 76 85 53 86 54 87
REMARK SMILES IDX 62 88 55 89 57 90 63 91 56 92 58 93 59 94 60 95 61 96
REMARK H PARENT 19 6 4 25 24 30 83 49 51 60
REMARK Flexibility Score: inf
ROOT
ATOM      1  C   UNL A   1      33.095  28.443  25.431  1.00  0.00     0.023 C 
ENDROOT
BRANCH   1   2
ATOM      2  C   UNL A   1      33.281  27.134  26.186  1.00  0.00     0.116 C 
BRANCH   2   3
ATOM      3  N   UNL A   1      32.060  26.507  26.641  1.00  0.00    -0.352 N 
ATOM      4  C   UNL A   1      31.501  25.306  26.273  1.00  0.00     0.253 C 
ATOM      5  O   UNL A   1      30.500  24.926  26.883  1.00  0.00    -0.269 OA
ATOM      6  H   UNL A   1      31.553  27.015  27.316  1.00  0.00     0.163 HD
BRANCH   4   7
ATOM      7  C   UNL A   1      31.975  24.479  25.127  1.00  0.00     0.065 A 
ATOM      8  C   UNL A   1      32.050  24.869  23.775  1.00  0.00     0.076 A 
ATOM      9  C   UNL A   1      32.516  23.936  22.831  1.00  0.00     0.029 A 
ATOM     10  C   UNL A   1      32.948  22.663  23.206  1.00  0.00     0.002 A 
ATOM     11  C   UNL A   1      32.443  23.198  25.494  1.00  0.00     0.016 A 
ATOM     12  C   UNL A   1      32.923  22.296  24.543  1.00  0.00     0.001 A 
BRANCH   8  13
ATOM     13  N   UNL A   1      31.607  26.090  23.244  1.00  0.00    -0.255 NA
ATOM     14  C   UNL A   1      30.415  26.507  23.528  1.00  0.00     0.119 C 
BRANCH  14  15
ATOM     15  C   UNL A   1      29.882  27.716  22.862  1.00  0.00    -0.007 A 
ATOM     16  C   UNL A   1      28.967  30.182  21.860  1.00  0.00     0.041 A 
ATOM     17  C   UNL A   1      28.087  29.288  22.492  1.00  0.00     0.027 A 
ATOM     18  C   UNL A   1      30.308  29.816  21.735  1.00  0.00     0.027 A 
ATOM     19  C   UNL A   1      28.535  28.063  22.989  1.00  0.00     0.012 A 
ATOM     20  C   UNL A   1      30.766  28.586  22.229  1.00  0.00     0.012 A 
BRANCH  16  21
ATOM     21  N   UNL A   1      28.419  31.421  21.486  1.00  0.00    -0.326 N 
ATOM     22  C   UNL A   1      29.099  32.961  23.328  1.00  0.00     0.114 C 
ATOM     23  C   UNL A   1      28.360  32.654  22.062  1.00  0.00     0.221 C 
ATOM     24  O   UNL A   1      27.705  33.535  21.499  1.00  0.00    -0.275 OA
ATOM     25  H   UNL A   1      27.976  31.392  20.607  1.00  0.00     0.169 HD
ENDBRANCH  16  21
ENDBRANCH  14  15
ENDBRANCH   8  13
ENDBRANCH   4   7
ENDBRANCH   2   3
ENDBRANCH   1   2
BRANCH   1  26
ATOM     26  C   UNL A   1      33.499  29.724  26.166  1.00  0.00     0.023 C 
BRANCH  26  27
ATOM     27  C   UNL A   1      32.532  30.263  27.222  1.00  0.00     0.116 C 
BRANCH  27  28
ATOM     28  N   UNL A   1      32.256  31.684  27.093  1.00  0.00    -0.352 N 
ATOM     29  C   UNL A   1      32.903  32.783  27.605  1.00  0.00     0.251 C 
ATOM     30  H   UNL A   1      31.468  31.896  26.542  1.00  0.00     0.163 HD
ATOM     31  O   UNL A   1      32.387  33.891  27.434  1.00  0.00    -0.269 OA
BRANCH  29  32
ATOM     32  C   UNL A   1      34.181  32.679  28.358  1.00  0.00     0.039 A 
ATOM     33  C   UNL A   1      34.107  32.411  29.731  1.00  0.00     0.014 A 
ATOM     34  C   UNL A   1      35.437  32.850  27.768  1.00  0.00     0.014 A 
ATOM     35  C   UNL A   1      35.270  32.176  30.467  1.00  0.00     0.010 A 
ATOM     36  C   UNL A   1      36.597  32.538  28.480  1.00  0.00     0.010 A 
ATOM     37  C   UNL A   1      36.516  32.147  29.823  1.00  0.00    -0.014 A 
BRANCH  37  38
ATOM     38  C   UNL A   1      37.686  31.518  30.490  1.00  0.00     0.031 A 
ATOM     39  C   UNL A   1      38.504  30.452  29.823  1.00  0.00     0.074 A 
ATOM     40  C   UNL A   1      37.935  31.871  31.769  1.00  0.00     0.049 A 
ATOM     41  N   UNL A   1      39.542  29.806  30.289  1.00  0.00    -0.248 NA
ATOM     42  C   UNL A   1      38.095  30.034  28.473  1.00  0.00     0.031 C 
ATOM     43  C   UNL A   1      37.131  32.818  32.552  1.00  0.00     0.029 A 
ATOM     44  N   UNL A   1      38.909  31.471  32.647  1.00  0.00    -0.354 N 
ATOM     45  C   UNL A   1      39.906  28.899  29.301  1.00  0.00     0.074 A 
ATOM     46  C   UNL A   1      38.954  29.053  28.222  1.00  0.00     0.031 C 
ATOM     47  C   UNL A   1      37.654  32.938  33.781  1.00  0.00     0.029 A 
ATOM     48  C   UNL A   1      38.806  32.054  33.890  1.00  0.00     0.049 A 
ATOM     49  H   UNL A   1      39.615  30.826  32.411  1.00  0.00     0.167 HD
ATOM     50  C   UNL A   1      40.955  28.041  29.290  1.00  0.00     0.034 A 
ATOM     51  C   UNL A   1      39.555  31.895  34.997  1.00  0.00     0.034 A 
ATOM     52  C   UNL A   1      41.902  27.916  30.368  1.00  0.00     0.049 A 
ATOM     53  C   UNL A   1      40.738  30.972  34.933  1.00  0.00     0.074 A 
ATOM     54  C   UNL A   1      43.037  27.127  30.430  1.00  0.00     0.029 A 
ATOM     55  N   UNL A   1      41.823  28.595  31.575  1.00  0.00    -0.354 N 
ATOM     56  N   UNL A   1      41.160  30.245  33.927  1.00  0.00    -0.248 NA
ATOM     57  C   UNL A   1      41.572  30.876  36.138  1.00  0.00     0.031 C 
ATOM     58  C   UNL A   1      43.632  27.312  31.682  1.00  0.00     0.029 A 
ATOM     59  C   UNL A   1      42.886  28.239  32.390  1.00  0.00     0.049 A 
ATOM     60  H   UNL A   1      41.116  29.234  31.817  1.00  0.00     0.167 HD
ATOM     61  C   UNL A   1      42.328  29.636  34.363  1.00  0.00     0.074 A 
ATOM     62  C   UNL A   1      42.561  30.100  35.717  1.00  0.00     0.031 C 
ATOM     63  C   UNL A   1      43.126  28.756  33.713  1.00  0.00     0.034 A 
BRANCH  50  64
ATOM     64  C   UNL A   1      41.180  27.211  28.050  1.00  0.00     0.023 A 
ATOM     65  C   UNL A   1      41.814  27.797  26.935  1.00  0.00     0.012 A 
ATOM     66  C   UNL A   1      40.858  25.838  28.016  1.00  0.00     0.148 A 
ATOM     67  C   UNL A   1      42.100  27.041  25.799  1.00  0.00     0.002 A 
ATOM     68  C   UNL A   1      41.184  25.082  26.896  1.00  0.00     0.091 A 
ATOM     69  F   UNL A   1      40.246  25.299  29.081  1.00  0.00    -0.205 F 
ATOM     70  C   UNL A   1      41.795  25.683  25.783  1.00  0.00     0.022 A 
BRANCH  68  71
ATOM     71  S   UNL A   1      40.902  23.310  26.794  1.00  0.00     0.127 S 
ATOM     72  O   UNL A   1      39.467  23.253  26.528  1.00  0.00    -0.237 OA
ATOM     73  O   UNL A   1      41.749  22.928  25.666  1.00  0.00    -0.237 OA
ATOM     74  O   UNL A   1      41.315  22.761  28.083  1.00  0.00    -0.744 OA
ENDBRANCH  68  71
ENDBRANCH  50  64
BRANCH  51  75
ATOM     75  C   UNL A   1      39.248  32.672  36.233  1.00  0.00     0.023 A 
ATOM     76  C   UNL A   1      39.770  33.972  36.385  1.00  0.00     0.012 A 
ATOM     77  C   UNL A   1      38.431  32.141  37.249  1.00  0.00     0.148 A 
ATOM     78  C   UNL A   1      39.525  34.708  37.545  1.00  0.00     0.002 A 
ATOM     79  C   UNL A   1      38.142  32.903  38.377  1.00  0.00     0.091 A 
ATOM     80  F   UNL A   1      37.947  30.900  37.096  1.00  0.00    -0.205 F 
ATOM     81  C   UNL A   1      38.705  34.177  38.536  1.00  0.00     0.022 A 
BRANCH  79  82
ATOM     82  S   UNL A   1      36.984  32.346  39.632  1.00  0.00     0.127 S 
ATOM     83  O   UNL A   1      35.724  32.332  38.892  1.00  0.00    -0.237 OA
ATOM     84  O   UNL A   1      37.512  31.024  39.972  1.00  0.00    -0.237 OA
ATOM     85  O   UNL A   1      37.081  33.320  40.709  1.00  0.00    -0.744 OA
ENDBRANCH  79  82
ENDBRANCH  51  75
BRANCH  63  86
ATOM     86  C   UNL A   1      44.352  28.270  34.440  1.00  0.00     0.023 A 
ATOM     87  C   UNL A   1      45.601  28.871  34.192  1.00  0.00     0.012 A 
ATOM     88  C   UNL A   1      44.251  27.254  35.411  1.00  0.00     0.148 A 
ATOM     89  C   UNL A   1      46.740  28.444  34.874  1.00  0.00     0.002 A 
ATOM     90  C   UNL A   1      45.379  26.870  36.124  1.00  0.00     0.091 A 
ATOM     91  F   UNL A   1      43.056  26.680  35.615  1.00  0.00    -0.205 F 
ATOM     92  C   UNL A   1      46.626  27.453  35.846  1.00  0.00     0.022 A 
BRANCH  90  93
ATOM     93  S   UNL A   1      45.312  25.674  37.461  1.00  0.00     0.127 S 
ATOM     94  O   UNL A   1      46.707  25.636  37.897  1.00  0.00    -0.237 OA
ATOM     95  O   UNL A   1      44.396  26.317  38.404  1.00  0.00    -0.237 OA
ATOM     96  O   UNL A   1      44.808  24.440  36.873  1.00  0.00    -0.744 OA
ENDBRANCH  90  93
ENDBRANCH  63  86
ENDBRANCH  37  38
ENDBRANCH  29  32
ENDBRANCH  27  28
ENDBRANCH  26  27
ENDBRANCH   1  26
TORSDOF 17
ENDMDL
